# generated using pymatgen
data_RbC3
_symmetry_space_group_name_H-M   'P 1'
_cell_length_a   4.27491331
_cell_length_b   4.67279148
_cell_length_c   4.67279148
_cell_angle_alpha   75.69475555
_cell_angle_beta   66.33486176
_cell_angle_gamma   66.33486176
_symmetry_Int_Tables_number   1
_chemical_formula_structural   RbC3
_chemical_formula_sum   'Rb1 C3'
_cell_volume   77.89149824
_cell_formula_units_Z   1
loop_
 _symmetry_equiv_pos_site_id
 _symmetry_equiv_pos_as_xyz
  1  'x, y, z'
loop_
 _atom_site_type_symbol
 _atom_site_label
 _atom_site_symmetry_multiplicity
 _atom_site_fract_x
 _atom_site_fract_y
 _atom_site_fract_z
 _atom_site_occupancy
  Rb  Rb0  1  0.97768396  0.01656300  0.01656297  1
  C  C1  1  0.53915297  0.49002300  0.49002296  1
  C  C2  1  0.40758198  0.40597000  0.78144396  1
  C  C3  1  0.40758197  0.78144400  0.40596995  1
