# generated using pymatgen
data_La3Zn2Ga
_symmetry_space_group_name_H-M   'P 1'
_cell_length_a   4.31062508
_cell_length_b   4.31062508
_cell_length_c   7.69709110
_cell_angle_alpha   90.00000000
_cell_angle_beta   90.00000000
_cell_angle_gamma   90.00000000
_symmetry_Int_Tables_number   1
_chemical_formula_structural   La3Zn2Ga
_chemical_formula_sum   'La3 Zn2 Ga1'
_cell_volume   143.02341018
_cell_formula_units_Z   1
loop_
 _symmetry_equiv_pos_site_id
 _symmetry_equiv_pos_as_xyz
  1  'x, y, z'
loop_
 _atom_site_type_symbol
 _atom_site_label
 _atom_site_symmetry_multiplicity
 _atom_site_fract_x
 _atom_site_fract_y
 _atom_site_fract_z
 _atom_site_occupancy
  La  La0  1  0.00000000  0.49999999  0.83708799  1
  Ga  Ga1  1  0.49999999  0.00000000  0.16291200  1
  La  La2  1  0.49999999  0.00000000  0.63655399  1
  La  La3  1  0.00000000  0.49999999  0.36344600  1
  Zn  Zn4  1  0.00000000  0.00000000  0.00000000  1
  Zn  Zn5  1  0.49999999  0.49999999  -0.00000000  1
