# generated using pymatgen
data_YCu2
_symmetry_space_group_name_H-M   'P 1'
_cell_length_a   4.32265186
_cell_length_b   5.49944544
_cell_length_c   5.60201073
_cell_angle_alpha   78.15794373
_cell_angle_beta   67.30580902
_cell_angle_gamma   66.85820770
_symmetry_Int_Tables_number   1
_chemical_formula_structural   YCu2
_chemical_formula_sum   'Y2 Cu4'
_cell_volume   112.74984511
_cell_formula_units_Z   2
loop_
 _symmetry_equiv_pos_site_id
 _symmetry_equiv_pos_as_xyz
  1  'x, y, z'
loop_
 _atom_site_type_symbol
 _atom_site_label
 _atom_site_symmetry_multiplicity
 _atom_site_fract_x
 _atom_site_fract_y
 _atom_site_fract_z
 _atom_site_occupancy
  Y  Y0  1  0.54286403  0.20885800  0.70541398  1
  Y  Y1  1  0.45215008  0.79748801  0.29821194  1
  Cu  Cu2  1  0.85118007  0.61006601  0.68757396  1
  Cu  Cu3  1  0.82416203  0.23130300  0.12037301  1
  Cu  Cu4  1  0.16266108  0.76888901  0.90578891  1
  Cu  Cu5  1  0.16698304  0.38339600  0.28263796  1
