# generated using pymatgen
data_Nb10Co3B2Ir
_symmetry_space_group_name_H-M   'P 1'
_cell_length_a   4.84961796
_cell_length_b   7.37836504
_cell_length_c   7.37836504
_cell_angle_alpha   83.79980469
_cell_angle_beta   70.81388855
_cell_angle_gamma   70.81388855
_symmetry_Int_Tables_number   1
_chemical_formula_structural   Nb10Co3B2Ir
_chemical_formula_sum   'Nb10 Co3 B2 Ir1'
_cell_volume   235.50022050
_cell_formula_units_Z   1
loop_
 _symmetry_equiv_pos_site_id
 _symmetry_equiv_pos_as_xyz
  1  'x, y, z'
loop_
 _atom_site_type_symbol
 _atom_site_label
 _atom_site_symmetry_multiplicity
 _atom_site_fract_x
 _atom_site_fract_y
 _atom_site_fract_z
 _atom_site_occupancy
  Nb  Nb0  1  0.52965100  0.40197100  -0.00000000  1
  Nb  Nb1  1  0.47034901  0.00000000  0.59802900  1
  Ir  Ir2  1  0.06837800  0.00000000  0.40197100  1
  Co  Co3  1  0.93162200  0.59802900  -0.00000000  1
  Nb  Nb4  1  -0.00000000  0.35476300  0.64523700  1
  Nb  Nb5  1  0.35476300  0.64523700  0.64523700  1
  Nb  Nb6  1  0.64523700  0.35476300  0.35476300  1
  Nb  Nb7  1  -0.00000001  0.64523700  0.35476300  1
  Nb  Nb8  1  0.32467399  0.81458500  0.00000000  1
  Nb  Nb9  1  0.67532601  0.00000000  0.18541500  1
  Nb  Nb10  1  0.86074101  0.00000000  0.81458499  1
  Nb  Nb11  1  0.13925900  0.18541500  1.00000000  1
  B  B12  1  0.50000000  0.70839200  0.29160800  1
  Co  Co13  1  0.20839200  0.29160800  0.29160800  1
  B  B14  1  0.79160800  0.70839200  0.70839200  1
  Co  Co15  1  0.50000000  0.29160800  0.70839200  1
