# generated using pymatgen
data_Bi2IOF3
_symmetry_space_group_name_H-M   'P 1'
_cell_length_a   7.53614187
_cell_length_b   7.61566305
_cell_length_c   7.61987257
_cell_angle_alpha   92.60835266
_cell_angle_beta   117.90162659
_cell_angle_gamma   118.36421204
_symmetry_Int_Tables_number   1
_chemical_formula_structural   Bi2IOF3
_chemical_formula_sum   'Bi4 I2 O2 F6'
_cell_volume   319.28239400
_cell_formula_units_Z   2
loop_
 _symmetry_equiv_pos_site_id
 _symmetry_equiv_pos_as_xyz
  1  'x, y, z'
loop_
 _atom_site_type_symbol
 _atom_site_label
 _atom_site_symmetry_multiplicity
 _atom_site_fract_x
 _atom_site_fract_y
 _atom_site_fract_z
 _atom_site_occupancy
  O  O0  1  0.98364892  0.48623795  0.50540990  1
  F  F1  1  0.88557695  0.26218797  0.88305594  1
  F  F2  1  0.45374397  0.19450298  0.08769396  1
  F  F3  1  0.06358588  0.71827893  0.06467491  1
  F  F4  1  0.61645990  0.61938894  0.67560190  1
  F  F5  1  0.08416797  0.18434198  0.30163598  1
  I  I6  1  0.09261484  0.97118191  0.61951888  1
  F  F7  1  0.41954900  0.01742500  0.48554299  1
  I  I8  1  0.00603700  0.00348000  0.96365701  1
  Bi  Bi9  1  0.52138995  0.28588297  0.77860395  1
  Bi  Bi10  1  0.74837398  0.11404099  0.36983796  1
  Bi  Bi11  1  0.72917390  0.60017694  0.38607190  1
  O  O12  1  0.21569590  0.59795594  0.86471392  1
  Bi  Bi13  1  0.24197790  0.61291594  0.38598092  1
