# generated using pymatgen
data_NaGd2Zr5O12
_symmetry_space_group_name_H-M   'P 1'
_cell_length_a   5.41266680
_cell_length_b   5.83691692
_cell_length_c   7.81814480
_cell_angle_alpha   90.00000000
_cell_angle_beta   90.00000000
_cell_angle_gamma   90.00000000
_symmetry_Int_Tables_number   1
_chemical_formula_structural   NaGd2Zr5O12
_chemical_formula_sum   'Na1 Gd2 Zr5 O12'
_cell_volume   247.00088798
_cell_formula_units_Z   1
loop_
 _symmetry_equiv_pos_site_id
 _symmetry_equiv_pos_as_xyz
  1  'x, y, z'
loop_
 _atom_site_type_symbol
 _atom_site_label
 _atom_site_symmetry_multiplicity
 _atom_site_fract_x
 _atom_site_fract_y
 _atom_site_fract_z
 _atom_site_occupancy
  Na  Na0  1  0.02482600  0.07533800  0.75000002  1
  Zr  Zr1  1  0.97517404  0.92466201  0.25000001  1
  Gd  Gd2  1  0.52482602  0.42466201  0.25000001  1
  Gd  Gd3  1  0.47517402  0.57533801  0.75000002  1
  Zr  Zr4  1  0.50000002  0.00000000  0.50000001  1
  Zr  Zr5  1  0.00000000  0.50000001  -0.00000000  1
  Zr  Zr6  1  0.00000000  0.50000001  0.50000001  1
  Zr  Zr7  1  0.50000002  0.00000000  -0.00000000  1
  O  O8  1  0.18672701  0.80381101  0.55317501  1
  O  O9  1  0.88937003  0.46427101  0.75000002  1
  O  O10  1  0.38937001  0.03572900  0.25000001  1
  O  O11  1  0.68672703  0.69618901  0.44682501  1
  O  O12  1  0.81327303  0.19618900  0.05317500  1
  O  O13  1  0.31327301  0.30381100  0.94682502  1
  O  O14  1  0.61063002  0.96427101  0.75000002  1
  O  O15  1  0.31327301  0.30381100  0.55317501  1
  O  O16  1  0.11063000  0.53572901  0.25000001  1
  O  O17  1  0.81327303  0.19618900  0.44682501  1
  O  O18  1  0.18672701  0.80381101  0.94682502  1
  O  O19  1  0.68672703  0.69618901  0.05317500  1
