# generated using pymatgen
data_La5CrIn5NiCBr4
_symmetry_space_group_name_H-M   'P 1'
_cell_length_a   7.35000181
_cell_length_b   7.35000181
_cell_length_c   10.40973759
_cell_angle_alpha   110.67305756
_cell_angle_beta   110.67305756
_cell_angle_gamma   90.00000000
_symmetry_Int_Tables_number   1
_chemical_formula_structural   La5CrIn5NiCBr4
_chemical_formula_sum   'La5 Cr1 In5 Ni1 C1 Br4'
_cell_volume   487.25615641
_cell_formula_units_Z   1
loop_
 _symmetry_equiv_pos_site_id
 _symmetry_equiv_pos_as_xyz
  1  'x, y, z'
loop_
 _atom_site_type_symbol
 _atom_site_label
 _atom_site_symmetry_multiplicity
 _atom_site_fract_x
 _atom_site_fract_y
 _atom_site_fract_z
 _atom_site_occupancy
  La  La0  1  0.24999999  0.75000001  0.49999996  1
  In  In1  1  0.50000001  0.00000000  -0.00000001  1
  La  La2  1  0.75000001  0.25000000  0.49999996  1
  In  In3  1  -0.00000001  0.50000001  -0.00000001  1
  C  C4  1  0.10658800  0.10658800  0.21317599  1
  Ni  Ni5  1  0.89341200  0.89341201  0.78682393  1
  Br  Br6  1  0.65054500  0.65054501  0.77614594  1
  La  La7  1  0.34945499  0.87439901  0.22385396  1
  In  In8  1  0.75793800  0.75793801  0.51587595  1
  In  In9  1  0.24206200  0.24206200  0.48412397  1
  Br  Br10  1  0.12560100  0.12560100  0.77614596  1
  La  La11  1  0.87439900  0.87439901  0.22385396  1
  Br  Br12  1  0.65054501  0.12560100  0.77614595  1
  La  La13  1  0.87439901  0.34945501  0.22385397  1
  Br  Br14  1  0.12560099  0.65054501  0.77614595  1
  In  In15  1  0.34945500  0.34945501  0.22385398  1
  Cr  Cr16  1  0.00000000  0.00000000  0.00000000  1
