# generated using pymatgen
data_EuIn3
_symmetry_space_group_name_H-M   'P 1'
_cell_length_a   4.92544985
_cell_length_b   4.92544889
_cell_length_c   6.14273310
_cell_angle_alpha   113.63549805
_cell_angle_beta   113.63549805
_cell_angle_gamma   90.00001526
_symmetry_Int_Tables_number   1
_chemical_formula_structural   EuIn3
_chemical_formula_sum   'Eu1 In3'
_cell_volume   122.75477030
_cell_formula_units_Z   1
loop_
 _symmetry_equiv_pos_site_id
 _symmetry_equiv_pos_as_xyz
  1  'x, y, z'
loop_
 _atom_site_type_symbol
 _atom_site_label
 _atom_site_symmetry_multiplicity
 _atom_site_fract_x
 _atom_site_fract_y
 _atom_site_fract_z
 _atom_site_occupancy
  In  In0  1  0.50000004  0.50000003  0.00000001  1
  Eu  Eu1  1  0.75000002  0.25000001  0.49999997  1
  In  In2  1  0.25000005  0.75000004  0.50000002  1
  In  In3  1  0.00000000  0.00000000  0.00000000  1
