# generated using pymatgen
data_Ce(ZnGe)2
_symmetry_space_group_name_H-M   'P 1'
_cell_length_a   4.21476412
_cell_length_b   4.21476412
_cell_length_c   6.18725491
_cell_angle_alpha   109.91345978
_cell_angle_beta   109.91345978
_cell_angle_gamma   90.00000000
_symmetry_Int_Tables_number   1
_chemical_formula_structural   Ce(ZnGe)2
_chemical_formula_sum   'Ce1 Zn2 Ge2'
_cell_volume   96.32084266
_cell_formula_units_Z   1
loop_
 _symmetry_equiv_pos_site_id
 _symmetry_equiv_pos_as_xyz
  1  'x, y, z'
loop_
 _atom_site_type_symbol
 _atom_site_label
 _atom_site_symmetry_multiplicity
 _atom_site_fract_x
 _atom_site_fract_y
 _atom_site_fract_z
 _atom_site_occupancy
  Ce  Ce0  1  0.00000000  0.00000000  0.00000000  1
  Ge  Ge1  1  0.61480794  0.61480796  0.22961593  1
  Ge  Ge2  1  0.38519196  0.38519198  0.77038394  1
  Zn  Zn3  1  0.74999995  0.24999999  0.49999994  1
  Zn  Zn4  1  0.24999995  0.74999996  0.49999993  1
