# generated using pymatgen
data_La(YS2)5
_symmetry_space_group_name_H-M   'P 1'
_cell_length_a   6.58504677
_cell_length_b   7.88675165
_cell_length_c   9.54499054
_cell_angle_alpha   109.87331390
_cell_angle_beta   109.99148560
_cell_angle_gamma   90.12393188
_symmetry_Int_Tables_number   1
_chemical_formula_structural   La(YS2)5
_chemical_formula_sum   'La1 Y5 S10'
_cell_volume   434.15456472
_cell_formula_units_Z   1
loop_
 _symmetry_equiv_pos_site_id
 _symmetry_equiv_pos_as_xyz
  1  'x, y, z'
loop_
 _atom_site_type_symbol
 _atom_site_label
 _atom_site_symmetry_multiplicity
 _atom_site_fract_x
 _atom_site_fract_y
 _atom_site_fract_z
 _atom_site_occupancy
  La  La0  1  0.00000002  0.49999999  0.00000000  1
  Y  Y1  1  0.70272804  0.39924399  0.40022100  1
  Y  Y2  1  0.29727203  0.60075599  0.59977900  1
  Y  Y3  1  0.50000002  0.00000000  0.00000000  1
  Y  Y4  1  0.89786906  0.79948398  0.79807900  1
  Y  Y5  1  0.10213101  0.20051600  0.20192100  1
  S  S6  1  0.28791003  0.65092198  0.89957099  1
  S  S7  1  0.48347202  0.05014900  0.30012100  1
  S  S8  1  0.67879504  0.44746799  0.69606500  1
  S  S9  1  0.88322306  0.85403998  0.10296301  1
  S  S10  1  0.08360901  0.24965099  0.50021200  1
  S  S11  1  0.11677701  0.14596000  0.89703699  1
  S  S12  1  0.32120503  0.55253199  0.30393500  1
  S  S13  1  0.51652805  0.94985098  0.69987900  1
  S  S14  1  0.71209004  0.34907799  0.10042900  1
  S  S15  1  0.91639106  0.75034898  0.49978800  1
