# generated using pymatgen
data_Mn2O3
_symmetry_space_group_name_H-M   'P 1'
_cell_length_a   3.38959193
_cell_length_b   3.38959312
_cell_length_c   11.46932697
_cell_angle_alpha   90.00000000
_cell_angle_beta   90.00000000
_cell_angle_gamma   119.99999237
_symmetry_Int_Tables_number   1
_chemical_formula_structural   Mn2O3
_chemical_formula_sum   'Mn4 O6'
_cell_volume   114.12047915
_cell_formula_units_Z   2
loop_
 _symmetry_equiv_pos_site_id
 _symmetry_equiv_pos_as_xyz
  1  'x, y, z'
loop_
 _atom_site_type_symbol
 _atom_site_label
 _atom_site_symmetry_multiplicity
 _atom_site_fract_x
 _atom_site_fract_y
 _atom_site_fract_z
 _atom_site_occupancy
  Mn  Mn0  1  0.00000000  0.00000000  0.00000000  1
  Mn  Mn1  1  0.00000000  0.00000000  0.50000000  1
  Mn  Mn2  1  0.66666670  0.33333334  0.75000000  1
  Mn  Mn3  1  0.33333338  0.66666667  0.25000000  1
  O  O4  1  0.66666670  0.33333334  0.91013700  1
  O  O5  1  0.66666670  0.33333334  0.58986300  1
  O  O6  1  0.00000000  0.00000000  0.75000000  1
  O  O7  1  0.00000000  0.00000000  0.25000000  1
  O  O8  1  0.33333338  0.66666667  0.08986300  1
  O  O9  1  0.33333338  0.66666667  0.41013700  1
