# generated using pymatgen
data_Cs(BPt)2
_symmetry_space_group_name_H-M   'P 1'
_cell_length_a   3.94941998
_cell_length_b   3.94941998
_cell_length_c   6.87021399
_cell_angle_alpha   106.70419312
_cell_angle_beta   106.70419312
_cell_angle_gamma   90.00000000
_symmetry_Int_Tables_number   1
_chemical_formula_structural   Cs(BPt)2
_chemical_formula_sum   'Cs1 B2 Pt2'
_cell_volume   97.90832266
_cell_formula_units_Z   1
loop_
 _symmetry_equiv_pos_site_id
 _symmetry_equiv_pos_as_xyz
  1  'x, y, z'
loop_
 _atom_site_type_symbol
 _atom_site_label
 _atom_site_symmetry_multiplicity
 _atom_site_fract_x
 _atom_site_fract_y
 _atom_site_fract_z
 _atom_site_occupancy
  B  B0  1  0.33728799  0.33728800  0.67457598  1
  B  B1  1  0.66271199  0.66271200  0.32542397  1
  Cs  Cs2  1  0.00000000  0.00000000  0.00000000  1
  Pt  Pt3  1  0.74999999  0.25000000  0.49999997  1
  Pt  Pt4  1  0.24999998  0.75000000  0.49999997  1
