# generated using pymatgen
data_In5S9
_symmetry_space_group_name_H-M   'P 1'
_cell_length_a   7.71863890
_cell_length_b   7.71863890
_cell_length_c   7.71863890
_cell_angle_alpha   60.00000000
_cell_angle_beta   60.00000000
_cell_angle_gamma   60.00000000
_symmetry_Int_Tables_number   1
_chemical_formula_structural   In5S9
_chemical_formula_sum   'In5 S9'
_cell_volume   325.16753088
_cell_formula_units_Z   1
loop_
 _symmetry_equiv_pos_site_id
 _symmetry_equiv_pos_as_xyz
  1  'x, y, z'
loop_
 _atom_site_type_symbol
 _atom_site_label
 _atom_site_symmetry_multiplicity
 _atom_site_fract_x
 _atom_site_fract_y
 _atom_site_fract_z
 _atom_site_occupancy
  In  In0  1  0.87500002  0.37500001  0.87500002  1
  S  S1  1  0.87500002  0.87500002  0.87500002  1
  In  In2  1  0.87500002  0.87500002  0.37500001  1
  In  In3  1  0.37500001  0.87500002  0.87500002  1
  In  In4  1  0.25000000  0.25000000  0.25000000  1
  In  In5  1  0.50000001  0.50000001  0.50000001  1
  S  S6  1  0.12072600  0.12072500  0.12072500  1
  S  S7  1  0.62927401  0.11217600  0.62927501  1
  S  S8  1  0.11217500  0.62927501  0.62927501  1
  S  S9  1  0.62927401  0.62927501  0.11217600  1
  S  S10  1  0.63782501  0.12072500  0.12072500  1
  S  S11  1  0.12072600  0.12072500  0.63782401  1
  S  S12  1  0.62927401  0.62927501  0.62927501  1
  S  S13  1  0.12072600  0.63782401  0.12072500  1
