# generated using pymatgen
data_Zr3AlZn4
_symmetry_space_group_name_H-M   'P 1'
_cell_length_a   5.69938517
_cell_length_b   5.69938517
_cell_length_c   5.69938517
_cell_angle_alpha   60.00000000
_cell_angle_beta   60.00000000
_cell_angle_gamma   60.00000000
_symmetry_Int_Tables_number   1
_chemical_formula_structural   Zr3AlZn4
_chemical_formula_sum   'Zr3 Al1 Zn4'
_cell_volume   130.90885531
_cell_formula_units_Z   1
loop_
 _symmetry_equiv_pos_site_id
 _symmetry_equiv_pos_as_xyz
  1  'x, y, z'
loop_
 _atom_site_type_symbol
 _atom_site_label
 _atom_site_symmetry_multiplicity
 _atom_site_fract_x
 _atom_site_fract_y
 _atom_site_fract_z
 _atom_site_occupancy
  Zr  Zr0  1  0.00000000  0.00000000  0.00000000  1
  Zn  Zn1  1  0.50000001  0.50000001  0.50000001  1
  Zr  Zr2  1  0.00000000  1.00000003  0.50000001  1
  Al  Al3  1  0.00000000  0.50000001  -0.00000000  1
  Zn  Zn4  1  0.50000001  1.00000003  0.50000001  1
  Zr  Zr5  1  0.50000001  0.50000001  -0.00000000  1
  Zn  Zn6  1  0.50000001  1.00000003  -0.00000000  1
  Zn  Zn7  1  0.00000000  0.50000001  0.50000001  1
