# generated using pymatgen
data_Sr2CoO4
_symmetry_space_group_name_H-M   'P 1'
_cell_length_a   5.37246180
_cell_length_b   5.39752483
_cell_length_c   6.74325752
_cell_angle_alpha   90.00000000
_cell_angle_beta   113.47557068
_cell_angle_gamma   90.00000000
_symmetry_Int_Tables_number   1
_chemical_formula_structural   Sr2CoO4
_chemical_formula_sum   'Sr4 Co2 O8'
_cell_volume   179.35603088
_cell_formula_units_Z   2
loop_
 _symmetry_equiv_pos_site_id
 _symmetry_equiv_pos_as_xyz
  1  'x, y, z'
loop_
 _atom_site_type_symbol
 _atom_site_label
 _atom_site_symmetry_multiplicity
 _atom_site_fract_x
 _atom_site_fract_y
 _atom_site_fract_z
 _atom_site_occupancy
  Sr  Sr0  1  0.60503701  0.25000001  0.21007398  1
  Sr  Sr1  1  0.39496301  0.75000002  0.78992598  1
  Sr  Sr2  1  0.11521000  0.75000002  0.23041999  1
  Sr  Sr3  1  0.88479002  0.25000001  0.76957996  1
  Co  Co4  1  0.24970900  0.25000001  0.49941799  1
  Co  Co5  1  0.75029101  0.75000002  0.50058197  1
  O  O6  1  0.92800702  0.75000002  0.85601396  1
  O  O7  1  0.41071301  0.25000001  0.82142598  1
  O  O8  1  0.07199300  0.25000001  0.14398600  1
  O  O9  1  0.58928701  0.75000002  0.17857398  1
  O  O10  1  0.50000001  1.00000003  0.49999998  1
  O  O11  1  0.00000000  0.50000002  0.50000000  1
  O  O12  1  0.50000001  0.50000002  0.49999998  1
  O  O13  1  0.00000000  0.00000000  0.50000000  1
