# generated using pymatgen
data_InSe
_symmetry_space_group_name_H-M   'P 1'
_cell_length_a   5.38549805
_cell_length_b   5.38549805
_cell_length_c   7.15902424
_cell_angle_alpha   112.09439087
_cell_angle_beta   112.09439087
_cell_angle_gamma   90.00000000
_symmetry_Int_Tables_number   1
_chemical_formula_structural   InSe
_chemical_formula_sum   'In4 Se4'
_cell_volume   175.82451125
_cell_formula_units_Z   4
loop_
 _symmetry_equiv_pos_site_id
 _symmetry_equiv_pos_as_xyz
  1  'x, y, z'
loop_
 _atom_site_type_symbol
 _atom_site_label
 _atom_site_symmetry_multiplicity
 _atom_site_fract_x
 _atom_site_fract_y
 _atom_site_fract_z
 _atom_site_occupancy
  In  In0  1  0.50000002  0.50000000  0.00000003  1
  In  In1  1  0.25000002  0.75000001  0.50000003  1
  In  In2  1  0.75000001  0.25000000  0.50000002  1
  In  In3  1  0.00000000  0.00000000  0.00000000  1
  Se  Se4  1  0.72467103  0.72467101  0.44934204  1
  Se  Se5  1  0.02532902  0.52532901  0.05065802  1
  Se  Se6  1  0.47467103  0.97467101  0.94934204  1
  Se  Se7  1  0.27532901  0.27532900  0.55065801  1
