# generated using pymatgen
data_Ce7ZnSiNi
_symmetry_space_group_name_H-M   'P 1'
_cell_length_a   4.08974218
_cell_length_b   4.08974171
_cell_length_c   17.53737831
_cell_angle_alpha   90.00000000
_cell_angle_beta   90.00000000
_cell_angle_gamma   120.00000000
_symmetry_Int_Tables_number   1
_chemical_formula_structural   Ce7ZnSiNi
_chemical_formula_sum   'Ce7 Zn1 Si1 Ni1'
_cell_volume   254.03123157
_cell_formula_units_Z   1
loop_
 _symmetry_equiv_pos_site_id
 _symmetry_equiv_pos_as_xyz
  1  'x, y, z'
loop_
 _atom_site_type_symbol
 _atom_site_label
 _atom_site_symmetry_multiplicity
 _atom_site_fract_x
 _atom_site_fract_y
 _atom_site_fract_z
 _atom_site_occupancy
  Ce  Ce0  1  0.00000000  0.00000000  0.39426999  1
  Ce  Ce1  1  0.00000000  0.00000000  0.60572999  1
  Ce  Ce2  1  0.00000000  0.00000000  0.89426998  1
  Ce  Ce3  1  0.00000000  0.00000000  0.10573000  1
  Ni  Ni4  1  0.33333327  0.66666663  0.49926299  1
  Ce  Ce5  1  0.66666662  0.33333331  0.99926298  1
  Zn  Zn6  1  0.33333327  0.66666663  0.00073700  1
  Si  Si7  1  0.66666662  0.33333331  0.50073699  1
  Ce  Ce8  1  0.33333327  0.66666663  0.74999999  1
  Ce  Ce9  1  0.66666662  0.33333331  0.25000000  1
