# generated using pymatgen
data_Fe5C2O3
_symmetry_space_group_name_H-M   'P 1'
_cell_length_a   2.80261207
_cell_length_b   4.81257725
_cell_length_c   6.91421461
_cell_angle_alpha   90.64427948
_cell_angle_beta   90.00000000
_cell_angle_gamma   106.92835999
_symmetry_Int_Tables_number   1
_chemical_formula_structural   Fe5C2O3
_chemical_formula_sum   'Fe5 C2 O3'
_cell_volume   89.21040640
_cell_formula_units_Z   1
loop_
 _symmetry_equiv_pos_site_id
 _symmetry_equiv_pos_as_xyz
  1  'x, y, z'
loop_
 _atom_site_type_symbol
 _atom_site_label
 _atom_site_symmetry_multiplicity
 _atom_site_fract_x
 _atom_site_fract_y
 _atom_site_fract_z
 _atom_site_occupancy
  O  O0  1  0.40172692  0.80345396  0.24495198  1
  Fe  Fe1  1  0.59827297  0.19654599  0.75504800  1
  Fe  Fe2  1  0.14253797  0.28507599  0.43407699  1
  Fe  Fe3  1  0.85746192  0.71492396  0.56592298  1
  C  C4  1  0.14740697  0.29481398  0.07579499  1
  Fe  Fe5  1  0.85259292  0.70518596  0.92420498  1
  C  C6  1  0.49999999  0.00000000  0.50000000  1
  Fe  Fe7  1  0.75221894  0.50443797  0.25263599  1
  O  O8  1  0.24778095  0.49556197  0.74736399  1
  O  O9  1  0.49999999  0.00000000  1.00000000  1
