# generated using pymatgen
data_Na(BiO2)2
_symmetry_space_group_name_H-M   'P 1'
_cell_length_a   5.63341999
_cell_length_b   5.63341999
_cell_length_c   6.51838446
_cell_angle_alpha   115.60203552
_cell_angle_beta   115.60203552
_cell_angle_gamma   90.00000000
_symmetry_Int_Tables_number   1
_chemical_formula_structural   Na(BiO2)2
_chemical_formula_sum   'Na1 Bi2 O4'
_cell_volume   163.74255312
_cell_formula_units_Z   1
loop_
 _symmetry_equiv_pos_site_id
 _symmetry_equiv_pos_as_xyz
  1  'x, y, z'
loop_
 _atom_site_type_symbol
 _atom_site_label
 _atom_site_symmetry_multiplicity
 _atom_site_fract_x
 _atom_site_fract_y
 _atom_site_fract_z
 _atom_site_occupancy
  O  O0  1  0.24999999  0.74999999  0.49999999  1
  O  O1  1  0.49999999  0.50000000  1.00000000  1
  O  O2  1  0.00000000  0.00000000  0.00000000  1
  O  O3  1  0.86845398  0.85398599  0.27079798  1
  Na  Na4  1  0.40234399  0.41681200  0.27079799  1
  Bi  Bi5  1  0.14601399  0.59765599  0.72920200  1
  Bi  Bi6  1  0.58318799  0.13154600  0.72920200  1
