# generated using pymatgen
data_BaLaTm4O8
_symmetry_space_group_name_H-M   'P 1'
_cell_length_a   3.38208199
_cell_length_b   5.81721735
_cell_length_c   11.31706810
_cell_angle_alpha   90.00000000
_cell_angle_beta   90.00000000
_cell_angle_gamma   106.89962006
_symmetry_Int_Tables_number   1
_chemical_formula_structural   BaLaTm4O8
_chemical_formula_sum   'Ba1 La1 Tm4 O8'
_cell_volume   213.04019875
_cell_formula_units_Z   1
loop_
 _symmetry_equiv_pos_site_id
 _symmetry_equiv_pos_as_xyz
  1  'x, y, z'
loop_
 _atom_site_type_symbol
 _atom_site_label
 _atom_site_symmetry_multiplicity
 _atom_site_fract_x
 _atom_site_fract_y
 _atom_site_fract_z
 _atom_site_occupancy
  La  La0  1  0.11034900  0.22069801  0.74999999  1
  Ba  Ba1  1  0.88965100  0.77930203  0.25000000  1
  Tm  Tm2  1  0.36431600  0.72863203  0.56995399  1
  Tm  Tm3  1  0.36431600  0.72863203  0.93004599  1
  Tm  Tm4  1  0.63568400  0.27136801  0.43004600  1
  Tm  Tm5  1  0.63568400  0.27136801  0.06995400  1
  O  O6  1  0.00000000  0.00000000  0.00000000  1
  O  O7  1  0.00000000  0.00000000  0.50000000  1
  O  O8  1  0.43061700  0.86123403  0.74999999  1
  O  O9  1  0.25955500  0.51911002  0.39985800  1
  O  O10  1  0.25955500  0.51911002  0.10014200  1
  O  O11  1  0.56938300  0.13876600  0.25000000  1
  O  O12  1  0.74044500  0.48089002  0.60014199  1
  O  O13  1  0.74044500  0.48089002  0.89985799  1
