# generated using pymatgen
data_Te
_symmetry_space_group_name_H-M   'P 1'
_cell_length_a   4.29519844
_cell_length_b   4.29519844
_cell_length_c   37.92945099
_cell_angle_alpha   86.75412750
_cell_angle_beta   86.75412750
_cell_angle_gamma   60.00000000
_symmetry_Int_Tables_number   1
_chemical_formula_structural   Te
_chemical_formula_sum   Te19
_cell_volume   604.70485534
_cell_formula_units_Z   19
loop_
 _symmetry_equiv_pos_site_id
 _symmetry_equiv_pos_as_xyz
  1  'x, y, z'
loop_
 _atom_site_type_symbol
 _atom_site_label
 _atom_site_symmetry_multiplicity
 _atom_site_fract_x
 _atom_site_fract_y
 _atom_site_fract_z
 _atom_site_occupancy
  Te  Te0  1  0.04648800  0.04648900  0.86053503  1
  Te  Te1  1  0.74853701  0.74853601  0.75439003  1
  Te  Te2  1  0.85252301  0.85252202  0.44243202  1
  Te  Te3  1  0.55201001  0.55201001  0.34397002  1
  Te  Te4  1  0.25198800  0.25198900  0.24403501  1
  Te  Te5  1  0.95210301  0.95210202  0.14369201  1
  Te  Te6  1  0.65259001  0.65259001  0.04223001  1
  Te  Te7  1  0.44987901  0.44988001  0.65036203  1
  Te  Te8  1  0.15169900  0.15169800  0.54490402  1
  Te  Te9  1  0.29791700  0.29791801  0.10624801  1
  Te  Te10  1  0.89787201  0.89787302  0.30638302  1
  Te  Te11  1  0.59784201  0.59784101  0.20647501  1
  Te  Te12  1  0.50029801  0.50029801  0.49910602  1
  Te  Te13  1  0.19839800  0.19839800  0.40480502  1
  Te  Te14  1  0.80059201  0.80059201  0.59822503  1
  Te  Te15  1  0.40081701  0.40081701  0.79754903  1
  Te  Te16  1  0.10126300  0.10126300  0.69621103  1
  Te  Te17  1  0.99820602  0.99820702  0.00538101  1
  Te  Te18  1  0.69897701  0.69897801  0.90306804  1
