# generated using pymatgen
data_TmCdAu
_symmetry_space_group_name_H-M   'P 1'
_cell_length_a   4.02048683
_cell_length_b   7.80392408
_cell_length_c   7.80392456
_cell_angle_alpha   120.00000000
_cell_angle_beta   90.00000000
_cell_angle_gamma   90.00000000
_symmetry_Int_Tables_number   1
_chemical_formula_structural   TmCdAu
_chemical_formula_sum   'Tm3 Cd3 Au3'
_cell_volume   212.04858274
_cell_formula_units_Z   3
loop_
 _symmetry_equiv_pos_site_id
 _symmetry_equiv_pos_as_xyz
  1  'x, y, z'
loop_
 _atom_site_type_symbol
 _atom_site_label
 _atom_site_symmetry_multiplicity
 _atom_site_fract_x
 _atom_site_fract_y
 _atom_site_fract_z
 _atom_site_occupancy
  Tm  Tm0  1  0.50000002  0.59416801  0.00000002  1
  Tm  Tm1  1  0.50000002  0.40583200  0.40583201  1
  Tm  Tm2  1  0.50000002  0.00000000  0.59416799  1
  Au  Au3  1  0.00000000  0.33333334  0.66666667  1
  Au  Au4  1  0.00000000  0.66666667  0.33333336  1
  Au  Au5  1  0.50000002  0.00000000  -0.00000000  1
  Cd  Cd6  1  0.00000000  0.26313400  0.00000001  1
  Cd  Cd7  1  0.00000000  0.73686601  0.73686602  1
  Cd  Cd8  1  0.00000000  0.00000000  0.26313400  1
