# generated using pymatgen
data_Tm2MgSiC3S2Br
_symmetry_space_group_name_H-M   'P 1'
_cell_length_a   3.79922795
_cell_length_b   3.79922795
_cell_length_c   13.37774563
_cell_angle_alpha   90.00000000
_cell_angle_beta   90.00000000
_cell_angle_gamma   120.00000000
_symmetry_Int_Tables_number   1
_chemical_formula_structural   Tm2MgSiC3S2Br
_chemical_formula_sum   'Tm2 Mg1 Si1 C3 S2 Br1'
_cell_volume   167.22618007
_cell_formula_units_Z   1
loop_
 _symmetry_equiv_pos_site_id
 _symmetry_equiv_pos_as_xyz
  1  'x, y, z'
loop_
 _atom_site_type_symbol
 _atom_site_label
 _atom_site_symmetry_multiplicity
 _atom_site_fract_x
 _atom_site_fract_y
 _atom_site_fract_z
 _atom_site_occupancy
  Si  Si0  1  0.66666668  0.33333334  0.10795900  1
  Tm  Tm1  1  0.66666668  0.33333334  0.39204101  1
  Tm  Tm2  1  0.33333334  0.66666668  0.60795902  1
  Mg  Mg3  1  0.33333334  0.66666668  0.89204102  1
  Br  Br4  1  0.00000000  0.00000000  0.75000002  1
  S  S5  1  0.00000000  0.00000000  0.25000001  1
  C  C6  1  0.66666668  0.33333334  0.93511703  1
  C  C7  1  0.66666668  0.33333334  0.56488302  1
  S  S8  1  0.33333334  0.66666668  0.06488300  1
  C  C9  1  0.33333334  0.66666668  0.43511701  1
