# generated using pymatgen
data_Mn9Ge11
_symmetry_space_group_name_H-M   'P 1'
_cell_length_a   4.15039825
_cell_length_b   5.52558422
_cell_length_c   10.87743759
_cell_angle_alpha   104.71392059
_cell_angle_beta   100.93595886
_cell_angle_gamma   90.00000000
_symmetry_Int_Tables_number   1
_chemical_formula_structural   Mn9Ge11
_chemical_formula_sum   'Mn9 Ge11'
_cell_volume   236.58894583
_cell_formula_units_Z   1
loop_
 _symmetry_equiv_pos_site_id
 _symmetry_equiv_pos_as_xyz
  1  'x, y, z'
loop_
 _atom_site_type_symbol
 _atom_site_label
 _atom_site_symmetry_multiplicity
 _atom_site_fract_x
 _atom_site_fract_y
 _atom_site_fract_z
 _atom_site_occupancy
  Mn  Mn0  1  0.75889796  0.80002298  0.60004601  1
  Mn  Mn1  1  0.34974798  0.39998499  0.79997002  1
  Mn  Mn2  1  0.24110199  0.19997699  0.39995401  1
  Mn  Mn3  1  0.65025197  0.60001498  0.20003000  1
  Mn  Mn4  1  0.00000000  0.00000000  0.00000000  1
  Mn  Mn5  1  0.75838696  0.30018999  0.60038000  1
  Mn  Mn6  1  0.34887898  0.89991197  0.79982403  1
  Mn  Mn7  1  0.65112097  0.10008800  0.20017599  1
  Mn  Mn8  1  0.24161298  0.69980998  0.39962002  1
  Ge  Ge9  1  0.99999995  0.49999999  -0.00000001  1
  Ge  Ge10  1  0.25482799  0.04985400  0.60010501  1
  Ge  Ge11  1  0.15441299  0.84985598  0.19999602  1
  Ge  Ge12  1  0.49999997  0.75014498  1.00000002  1
  Ge  Ge13  1  0.25482798  0.55025098  0.60010502  1
  Ge  Ge14  1  0.15441299  0.35013999  0.19999601  1
  Ge  Ge15  1  0.74517196  0.95014597  0.39989501  1
  Ge  Ge16  1  0.84558696  0.15014400  0.80000400  1
  Ge  Ge17  1  0.74517196  0.44974899  0.39989500  1
  Ge  Ge18  1  0.84558696  0.64985998  0.80000401  1
  Ge  Ge19  1  0.49999998  0.24985499  1.00000001  1
