# generated using pymatgen
data_Nb2V4As3
_symmetry_space_group_name_H-M   'P 1'
_cell_length_a   4.84955406
_cell_length_b   4.84955406
_cell_length_c   6.73153114
_cell_angle_alpha   90.00000000
_cell_angle_beta   90.00000000
_cell_angle_gamma   120.00000000
_symmetry_Int_Tables_number   1
_chemical_formula_structural   Nb2V4As3
_chemical_formula_sum   'Nb2 V4 As3'
_cell_volume   137.10336099
_cell_formula_units_Z   1
loop_
 _symmetry_equiv_pos_site_id
 _symmetry_equiv_pos_as_xyz
  1  'x, y, z'
loop_
 _atom_site_type_symbol
 _atom_site_label
 _atom_site_symmetry_multiplicity
 _atom_site_fract_x
 _atom_site_fract_y
 _atom_site_fract_z
 _atom_site_occupancy
  Nb  Nb0  1  0.33641400  0.16820700  -0.00000000  1
  V  V1  1  0.83179299  0.66358600  0.33333333  1
  V  V2  1  0.83179299  0.16820700  0.66666665  1
  As  As3  1  0.99575199  0.49787600  -0.00000000  1
  As  As4  1  0.50212399  0.00424800  0.33333333  1
  As  As5  1  0.50212400  0.49787600  0.66666665  1
  V  V6  1  0.66413099  0.83206600  -0.00000000  1
  V  V7  1  0.16793500  0.33587000  0.33333333  1
  Nb  Nb8  1  0.16793500  0.83206600  0.66666665  1
