# generated using pymatgen
data_Ce5Al13
_symmetry_space_group_name_H-M   'P 1'
_cell_length_a   5.55318689
_cell_length_b   5.86976480
_cell_length_c   11.49104023
_cell_angle_alpha   90.00000000
_cell_angle_beta   90.00000000
_cell_angle_gamma   90.00000000
_symmetry_Int_Tables_number   1
_chemical_formula_structural   Ce5Al13
_chemical_formula_sum   'Ce5 Al13'
_cell_volume   374.56080951
_cell_formula_units_Z   1
loop_
 _symmetry_equiv_pos_site_id
 _symmetry_equiv_pos_as_xyz
  1  'x, y, z'
loop_
 _atom_site_type_symbol
 _atom_site_label
 _atom_site_symmetry_multiplicity
 _atom_site_fract_x
 _atom_site_fract_y
 _atom_site_fract_z
 _atom_site_occupancy
  Ce  Ce0  1  0.00000000  0.85609403  0.85272698  1
  Ce  Ce1  1  0.00000000  0.14390600  0.14727300  1
  Ce  Ce2  1  0.00000000  0.35609401  0.64727299  1
  Ce  Ce3  1  0.00000000  0.64390602  0.35272699  1
  Al  Al4  1  0.50000001  0.00000000  0.00000000  1
  Al  Al5  1  0.50000001  0.50000002  0.49999999  1
  Al  Al6  1  0.50000001  0.59722702  0.75174298  1
  Al  Al7  1  0.50000001  0.40277301  0.24825700  1
  Al  Al8  1  0.50000001  0.09722700  0.74825699  1
  Ce  Ce9  1  0.50000001  0.90277303  0.25174299  1
  Al  Al10  1  0.76219501  0.85237303  0.59127599  1
  Al  Al11  1  0.76219501  0.14762700  0.40872399  1
  Al  Al12  1  0.23780500  0.35237301  0.90872398  1
  Al  Al13  1  0.23780500  0.64762702  0.09127600  1
  Al  Al14  1  0.23780500  0.14762700  0.40872399  1
  Al  Al15  1  0.23780500  0.85237303  0.59127599  1
  Al  Al16  1  0.76219501  0.64762702  0.09127600  1
  Al  Al17  1  0.76219501  0.35237301  0.90872398  1
