# generated using pymatgen
data_H4W4C
_symmetry_space_group_name_H-M   'P 1'
_cell_length_a   6.59725380
_cell_length_b   6.59725380
_cell_length_c   6.59725380
_cell_angle_alpha   60.00000000
_cell_angle_beta   60.00000000
_cell_angle_gamma   60.00000000
_symmetry_Int_Tables_number   1
_chemical_formula_structural   H4W4C
_chemical_formula_sum   'H8 W8 C2'
_cell_volume   203.03671486
_cell_formula_units_Z   2
loop_
 _symmetry_equiv_pos_site_id
 _symmetry_equiv_pos_as_xyz
  1  'x, y, z'
loop_
 _atom_site_type_symbol
 _atom_site_label
 _atom_site_symmetry_multiplicity
 _atom_site_fract_x
 _atom_site_fract_y
 _atom_site_fract_z
 _atom_site_occupancy
  W  W0  1  0.50000001  0.50000001  0.50000001  1
  W  W1  1  0.00000000  0.00000000  0.00000000  1
  H  H2  1  0.44189201  0.18603600  0.18603600  1
  H  H3  1  0.55810801  0.81396402  0.81396402  1
  H  H4  1  0.18603500  0.18603600  0.44189301  1
  H  H5  1  0.18603500  0.18603600  0.18603600  1
  H  H6  1  0.81396502  0.81396402  0.55810701  1
  H  H7  1  0.81396502  0.81396402  0.81396402  1
  H  H8  1  0.18603500  0.44189301  0.18603600  1
  H  H9  1  0.81396502  0.55810701  0.81396402  1
  C  C10  1  0.25000001  0.25000001  0.25000001  1
  C  C11  1  0.75000002  0.75000002  0.75000002  1
  W  W12  1  0.77594202  0.77594202  0.22405800  1
  W  W13  1  0.22405800  0.22405800  0.77594202  1
  W  W14  1  0.77594202  0.22405800  0.22405800  1
  W  W15  1  0.22405800  0.77594202  0.77594202  1
  W  W16  1  0.77594202  0.22405800  0.77594202  1
  W  W17  1  0.22405800  0.77594202  0.22405800  1
