# generated using pymatgen
data_MnBeVP11Ru2
_symmetry_space_group_name_H-M   'P 1'
_cell_length_a   5.45152187
_cell_length_b   5.45152187
_cell_length_c   6.43753052
_cell_angle_alpha   115.05051422
_cell_angle_beta   115.05051422
_cell_angle_gamma   90.00000000
_symmetry_Int_Tables_number   1
_chemical_formula_structural   MnBeVP11Ru2
_chemical_formula_sum   'Mn1 Be1 V1 P11 Ru2'
_cell_volume   153.22563756
_cell_formula_units_Z   1
loop_
 _symmetry_equiv_pos_site_id
 _symmetry_equiv_pos_as_xyz
  1  'x, y, z'
loop_
 _atom_site_type_symbol
 _atom_site_label
 _atom_site_symmetry_multiplicity
 _atom_site_fract_x
 _atom_site_fract_y
 _atom_site_fract_z
 _atom_site_occupancy
  Be  Be0  1  0.49999997  0.49999999  -0.00000006  1
  P  P1  1  0.30994195  0.80994199  0.27723093  1
  P  P2  1  0.80994194  0.96728899  0.27723090  1
  P  P3  1  0.69005799  0.19005800  0.72276895  1
  V  V4  1  0.03271097  0.53271099  0.72276896  1
  P  P5  1  0.53271096  0.69005799  0.72276893  1
  P  P6  1  0.19005800  0.03271100  0.72276899  1
  P  P7  1  0.46728898  0.30994200  0.27723096  1
  Ru  Ru8  1  0.00000000  0.00000000  0.00000000  1
  P  P9  1  0.96728897  0.46728899  0.27723092  1
  P  P10  1  0.88146196  0.61853799  -0.00000008  1
  P  P11  1  0.38146195  0.88146199  -0.00000008  1
  P  P12  1  0.11853798  0.38146200  -0.00000003  1
  P  P13  1  0.61853799  0.11853800  -0.00000004  1
  Mn  Mn14  1  0.24999999  0.25000000  0.49999997  1
  Ru  Ru15  1  0.74999996  0.74999999  0.49999991  1
