# generated using pymatgen
data_Ta2CuPbBrO7
_symmetry_space_group_name_H-M   'P 1'
_cell_length_a   3.92948389
_cell_length_b   3.92948389
_cell_length_c   11.79002762
_cell_angle_alpha   90.00000000
_cell_angle_beta   90.00000000
_cell_angle_gamma   90.00000000
_symmetry_Int_Tables_number   1
_chemical_formula_structural   Ta2CuPbBrO7
_chemical_formula_sum   'Ta2 Cu1 Pb1 Br1 O7'
_cell_volume   182.04797304
_cell_formula_units_Z   1
loop_
 _symmetry_equiv_pos_site_id
 _symmetry_equiv_pos_as_xyz
  1  'x, y, z'
loop_
 _atom_site_type_symbol
 _atom_site_label
 _atom_site_symmetry_multiplicity
 _atom_site_fract_x
 _atom_site_fract_y
 _atom_site_fract_z
 _atom_site_occupancy
  Pb  Pb0  1  0.50000001  0.50000001  0.00000000  1
  Ta  Ta1  1  0.00000000  0.00000000  0.19104101  1
  Ta  Ta2  1  0.00000000  0.00000000  0.80895903  1
  Cu  Cu3  1  0.00000000  0.00000000  0.50000002  1
  Br  Br4  1  0.50000001  0.50000001  0.50000002  1
  O  O5  1  0.00000000  0.50000001  0.15553801  1
  O  O6  1  0.00000000  0.50000001  0.84446203  1
  O  O7  1  0.50000001  0.00000000  0.15553801  1
  O  O8  1  0.50000001  0.00000000  0.84446203  1
  O  O9  1  0.00000000  0.00000000  0.34370101  1
  O  O10  1  0.00000000  0.00000000  0.65629902  1
  O  O11  1  0.00000000  0.00000000  0.00000000  1
