# generated using pymatgen
data_In5CuS8
_symmetry_space_group_name_H-M   'P 1'
_cell_length_a   7.41190195
_cell_length_b   7.43162823
_cell_length_c   7.43162823
_cell_angle_alpha   60.50789261
_cell_angle_beta   60.08776474
_cell_angle_gamma   60.08776474
_symmetry_Int_Tables_number   1
_chemical_formula_structural   In5CuS8
_chemical_formula_sum   'In5 Cu1 S8'
_cell_volume   290.93852259
_cell_formula_units_Z   1
loop_
 _symmetry_equiv_pos_site_id
 _symmetry_equiv_pos_as_xyz
  1  'x, y, z'
loop_
 _atom_site_type_symbol
 _atom_site_label
 _atom_site_symmetry_multiplicity
 _atom_site_fract_x
 _atom_site_fract_y
 _atom_site_fract_z
 _atom_site_occupancy
  In  In0  1  0.13437998  0.61562000  0.11562001  1
  In  In1  1  0.49999998  1.00000000  0.50000000  1
  In  In2  1  1.00000002  0.00000000  0.49999996  1
  Cu  Cu3  1  0.86562001  0.38438000  0.88437997  1
  In  In4  1  0.50000001  0.00000000  0.99999997  1
  In  In5  1  0.50000000  0.50000000  0.49999999  1
  S  S6  1  0.73033899  0.75337900  0.25337899  1
  S  S7  1  0.26290298  0.75337900  0.25337901  1
  S  S8  1  0.26219100  0.22521800  0.25039999  1
  S  S9  1  0.26219098  0.75040000  0.72521801  1
  S  S10  1  0.73780901  0.24960000  0.27478198  1
  S  S11  1  0.73780899  0.77478200  0.74959999  1
  S  S12  1  0.73709701  0.24662100  0.74662097  1
  S  S13  1  0.26966100  0.24662100  0.74662099  1
