# generated using pymatgen
data_Al2BrN3
_symmetry_space_group_name_H-M   'P 1'
_cell_length_a   2.82034659
_cell_length_b   4.94034338
_cell_length_c   10.22308540
_cell_angle_alpha   99.59018707
_cell_angle_beta   89.68538666
_cell_angle_gamma   89.98149872
_symmetry_Int_Tables_number   1
_chemical_formula_structural   Al2BrN3
_chemical_formula_sum   'Al2 Br1 N3'
_cell_volume   140.45023197
_cell_formula_units_Z   1
loop_
 _symmetry_equiv_pos_site_id
 _symmetry_equiv_pos_as_xyz
  1  'x, y, z'
loop_
 _atom_site_type_symbol
 _atom_site_label
 _atom_site_symmetry_multiplicity
 _atom_site_fract_x
 _atom_site_fract_y
 _atom_site_fract_z
 _atom_site_occupancy
  Al  Al0  1  0.99717297  0.00317100  0.00672599  1
  Al  Al1  1  0.49717400  0.50316902  0.00672600  1
  Br  Br2  1  0.99937099  0.63846502  0.91329101  1
  N  N3  1  0.49939599  0.13857500  0.91334701  1
  N  N4  1  0.99495398  0.36786501  0.09998300  1
  N  N5  1  0.49493101  0.86775503  0.09992701  1
