# generated using pymatgen
data_Ce2NiGe6
_symmetry_space_group_name_H-M   'P 1'
_cell_length_a   4.05961609
_cell_length_b   4.08523512
_cell_length_c   10.90985107
_cell_angle_alpha   90.00000000
_cell_angle_beta   100.72251129
_cell_angle_gamma   90.00000000
_symmetry_Int_Tables_number   1
_chemical_formula_structural   Ce2NiGe6
_chemical_formula_sum   'Ce2 Ni1 Ge6'
_cell_volume   177.77512124
_cell_formula_units_Z   1
loop_
 _symmetry_equiv_pos_site_id
 _symmetry_equiv_pos_as_xyz
  1  'x, y, z'
loop_
 _atom_site_type_symbol
 _atom_site_label
 _atom_site_symmetry_multiplicity
 _atom_site_fract_x
 _atom_site_fract_y
 _atom_site_fract_z
 _atom_site_occupancy
  Ce  Ce0  1  0.99556798  0.00000000  0.99113704  1
  Ce  Ce1  1  0.33073399  0.99999997  0.66146702  1
  Ni  Ni2  1  0.77588598  0.49999999  0.55177202  1
  Ge  Ge3  1  0.71490298  0.99999997  0.42980602  1
  Ge  Ge4  1  0.59836899  0.00000000  0.19673901  1
  Ge  Ge5  1  0.45655299  0.49999999  0.91310503  1
  Ge  Ge6  1  0.88423498  0.49999999  0.76846903  1
  Ge  Ge7  1  0.09770300  0.49999999  0.19540601  1
  Ge  Ge8  1  0.21504900  0.49999999  0.43009902  1
