# generated using pymatgen
data_Sm3LuOF7
_symmetry_space_group_name_H-M   'P 1'
_cell_length_a   5.46955919
_cell_length_b   5.53612709
_cell_length_c   5.54235792
_cell_angle_alpha   100.03803253
_cell_angle_beta   90.00000000
_cell_angle_gamma   90.00000000
_symmetry_Int_Tables_number   1
_chemical_formula_structural   Sm3LuOF7
_chemical_formula_sum   'Sm3 Lu1 O1 F7'
_cell_volume   165.25456887
_cell_formula_units_Z   1
loop_
 _symmetry_equiv_pos_site_id
 _symmetry_equiv_pos_as_xyz
  1  'x, y, z'
loop_
 _atom_site_type_symbol
 _atom_site_label
 _atom_site_symmetry_multiplicity
 _atom_site_fract_x
 _atom_site_fract_y
 _atom_site_fract_z
 _atom_site_occupancy
  Lu  Lu0  1  0.52605198  0.30512000  0.71267801  1
  Sm  Sm1  1  0.47394798  0.69487999  0.28732203  1
  Sm  Sm2  1  0.02605200  0.69487999  0.78732202  1
  Sm  Sm3  1  0.97394797  0.30512000  0.21267801  1
  F  F4  1  0.75358797  0.53861700  0.51001702  1
  F  F5  1  0.24641199  0.46138300  0.48998302  1
  O  O6  1  0.25358799  0.46138300  0.98998301  1
  F  F7  1  0.74641197  0.53861700  0.01001702  1
  F  F8  1  0.82591497  0.05818700  0.84487700  1
  F  F9  1  0.17408499  0.94181299  0.15512304  1
  F  F10  1  0.32591499  0.94181299  0.65512303  1
  F  F11  1  0.67408498  0.05818700  0.34487700  1
