# generated using pymatgen
data_Na(Mn5P2)2
_symmetry_space_group_name_H-M   'P 1'
_cell_length_a   3.80430245
_cell_length_b   3.80430245
_cell_length_c   15.61194801
_cell_angle_alpha   83.00173187
_cell_angle_beta   83.00173187
_cell_angle_gamma   59.99999237
_symmetry_Int_Tables_number   1
_chemical_formula_structural   Na(Mn5P2)2
_chemical_formula_sum   'Na1 Mn10 P4'
_cell_volume   193.72989698
_cell_formula_units_Z   1
loop_
 _symmetry_equiv_pos_site_id
 _symmetry_equiv_pos_as_xyz
  1  'x, y, z'
loop_
 _atom_site_type_symbol
 _atom_site_label
 _atom_site_symmetry_multiplicity
 _atom_site_fract_x
 _atom_site_fract_y
 _atom_site_fract_z
 _atom_site_occupancy
  Na  Na0  1  0.00000000  0.00000000  0.00000000  1
  P  P1  1  0.60139098  0.60139099  0.19582701  1
  P  P2  1  0.20042899  0.20042900  0.39871301  1
  P  P3  1  0.79957097  0.79957099  0.60128703  1
  P  P4  1  0.39860898  0.39860900  0.80417303  1
  Mn  Mn5  1  0.04789000  0.04789000  0.85633003  1
  Mn  Mn6  1  0.85018297  0.85018299  0.44945102  1
  Mn  Mn7  1  0.44930298  0.44930300  0.65209102  1
  Mn  Mn8  1  0.65180698  0.65180699  0.04457901  1
  Mn  Mn9  1  0.25119299  0.25119300  0.24642101  1
  Mn  Mn10  1  0.34819399  0.34819400  0.95541803  1
  Mn  Mn11  1  0.14981699  0.14981700  0.55054902  1
  Mn  Mn12  1  0.74880697  0.74880699  0.75357903  1
  Mn  Mn13  1  0.95210996  0.95210999  0.14367002  1
  Mn  Mn14  1  0.55069698  0.55069700  0.34790902  1
