# generated using pymatgen
data_Hf5Ga3Ni4
_symmetry_space_group_name_H-M   'P 1'
_cell_length_a   4.93317461
_cell_length_b   4.93652248
_cell_length_c   8.15953159
_cell_angle_alpha   90.00000000
_cell_angle_beta   90.00000000
_cell_angle_gamma   119.21325684
_symmetry_Int_Tables_number   1
_chemical_formula_structural   Hf5Ga3Ni4
_chemical_formula_sum   'Hf5 Ga3 Ni4'
_cell_volume   173.43316048
_cell_formula_units_Z   1
loop_
 _symmetry_equiv_pos_site_id
 _symmetry_equiv_pos_as_xyz
  1  'x, y, z'
loop_
 _atom_site_type_symbol
 _atom_site_label
 _atom_site_symmetry_multiplicity
 _atom_site_fract_x
 _atom_site_fract_y
 _atom_site_fract_z
 _atom_site_occupancy
  Hf  Hf0  1  0.66492399  0.33502002  0.44598802  1
  Hf  Hf1  1  0.33353502  0.66666671  0.56939203  1
  Hf  Hf2  1  0.33353502  0.66666671  0.93060805  1
  Hf  Hf3  1  0.66492399  0.33502002  0.05401200  1
  Ga  Ga4  1  0.00649904  0.99295206  0.50830303  1
  Hf  Hf5  1  0.00649904  0.99295206  0.99169705  1
  Ga  Ga6  1  0.16629701  0.34659802  0.25000001  1
  Ni  Ni7  1  0.65458001  0.83336305  0.25000001  1
  Ni  Ni8  1  0.16498903  0.83645505  0.25000001  1
  Ni  Ni9  1  0.82756700  0.65276904  0.75000004  1
  Ga  Ga10  1  0.34768399  0.17195001  0.75000004  1
  Ni  Ni11  1  0.82896598  0.16958701  0.75000004  1
