# generated using pymatgen
data_BaCaMg7
_symmetry_space_group_name_H-M   'P 1'
_cell_length_a   3.92528510
_cell_length_b   8.37208176
_cell_length_c   8.37208271
_cell_angle_alpha   120.00000000
_cell_angle_beta   90.00000000
_cell_angle_gamma   90.00000000
_symmetry_Int_Tables_number   1
_chemical_formula_structural   BaCaMg7
_chemical_formula_sum   'Ba1 Ca1 Mg7'
_cell_volume   238.26969479
_cell_formula_units_Z   1
loop_
 _symmetry_equiv_pos_site_id
 _symmetry_equiv_pos_as_xyz
  1  'x, y, z'
loop_
 _atom_site_type_symbol
 _atom_site_label
 _atom_site_symmetry_multiplicity
 _atom_site_fract_x
 _atom_site_fract_y
 _atom_site_fract_z
 _atom_site_occupancy
  Mg  Mg0  1  0.99999997  0.76382603  0.76382598  1
  Ba  Ba1  1  -0.00000000  1.00000004  0.23617401  1
  Mg  Mg2  1  0.99999997  0.23617401  0.99999995  1
  Ca  Ca3  1  0.49999999  0.39838002  0.39837999  1
  Mg  Mg4  1  0.49999999  1.00000004  0.60161999  1
  Mg  Mg5  1  0.49999999  0.60162002  0.99999996  1
  Mg  Mg6  1  0.49999999  0.00000000  -0.00000000  1
  Mg  Mg7  1  0.99999997  0.66666669  0.33333333  1
  Mg  Mg8  1  0.99999997  0.33333335  0.66666664  1
