# generated using pymatgen
data_Sr7CdAu4
_symmetry_space_group_name_H-M   'P 1'
_cell_length_a   5.02673721
_cell_length_b   7.66809702
_cell_length_c   9.31588745
_cell_angle_alpha   90.00000000
_cell_angle_beta   90.00000000
_cell_angle_gamma   90.00000000
_symmetry_Int_Tables_number   1
_chemical_formula_structural   Sr7CdAu4
_chemical_formula_sum   'Sr7 Cd1 Au4'
_cell_volume   359.08562024
_cell_formula_units_Z   1
loop_
 _symmetry_equiv_pos_site_id
 _symmetry_equiv_pos_as_xyz
  1  'x, y, z'
loop_
 _atom_site_type_symbol
 _atom_site_label
 _atom_site_symmetry_multiplicity
 _atom_site_fract_x
 _atom_site_fract_y
 _atom_site_fract_z
 _atom_site_occupancy
  Sr  Sr0  1  0.24999999  0.01934100  0.31582098  1
  Sr  Sr1  1  0.24999999  0.51934100  0.18417899  1
  Sr  Sr2  1  0.74999997  0.98065900  0.68417897  1
  Sr  Sr3  1  0.74999997  0.48065900  0.81582096  1
  Sr  Sr4  1  0.24999999  0.15622500  0.92015596  1
  Sr  Sr5  1  0.24999999  0.65622500  0.57984397  1
  Sr  Sr6  1  0.74999997  0.84377500  0.07984400  1
  Cd  Cd7  1  0.74999997  0.34377500  0.42015598  1
  Au  Au8  1  0.24999999  0.24709000  0.59880497  1
  Au  Au9  1  0.24999999  0.74709000  0.90119496  1
  Au  Au10  1  0.74999997  0.75291000  0.40119498  1
  Au  Au11  1  0.74999997  0.25291000  0.09880500  1
