# generated using pymatgen
data_Y2BO6
_symmetry_space_group_name_H-M   'P 1'
_cell_length_a   4.26466608
_cell_length_b   7.25001144
_cell_length_c   8.29102802
_cell_angle_alpha   106.94064331
_cell_angle_beta   90.00000000
_cell_angle_gamma   107.10443878
_symmetry_Int_Tables_number   1
_chemical_formula_structural   Y2BO6
_chemical_formula_sum   'Y4 B2 O12'
_cell_volume   233.34740921
_cell_formula_units_Z   2
loop_
 _symmetry_equiv_pos_site_id
 _symmetry_equiv_pos_as_xyz
  1  'x, y, z'
loop_
 _atom_site_type_symbol
 _atom_site_label
 _atom_site_symmetry_multiplicity
 _atom_site_fract_x
 _atom_site_fract_y
 _atom_site_fract_z
 _atom_site_occupancy
  Y  Y0  1  0.32325392  0.66271398  0.91627193  1
  Y  Y1  1  0.66053995  0.33728599  0.58372796  1
  Y  Y2  1  0.67674595  0.33728599  0.08372798  1
  Y  Y3  1  0.33945991  0.66271398  0.41627196  1
  B  B4  1  0.05529600  0.00000000  0.74999996  1
  B  B5  1  0.94470398  0.00000000  0.24999999  1
  O  O6  1  0.73712493  0.50942199  0.87729493  1
  O  O7  1  0.22770294  0.49057799  0.62270495  1
  O  O8  1  0.26287494  0.49057799  0.12270498  1
  O  O9  1  0.77229692  0.50942199  0.37729496  1
  O  O10  1  0.26219799  0.00115000  0.89634295  1
  O  O11  1  0.26104788  0.99884997  0.60365693  1
  O  O12  1  0.73780187  0.99884997  0.10365696  1
  O  O13  1  0.73895199  0.00115000  0.39634298  1
  O  O14  1  0.76698489  0.81405798  0.70362493  1
  O  O15  1  0.95292696  0.18594199  0.79637495  1
  O  O16  1  0.23301497  0.18594199  0.29637498  1
  O  O17  1  0.04707290  0.81405798  0.20362496  1
