# generated using pymatgen
data_Al7Mo
_symmetry_space_group_name_H-M   'P 1'
_cell_length_a   4.37283802
_cell_length_b   5.51507998
_cell_length_c   5.51507950
_cell_angle_alpha   120.00000000
_cell_angle_beta   90.00000000
_cell_angle_gamma   90.00000000
_symmetry_Int_Tables_number   1
_chemical_formula_structural   Al7Mo
_chemical_formula_sum   'Al7 Mo1'
_cell_volume   115.18544746
_cell_formula_units_Z   1
loop_
 _symmetry_equiv_pos_site_id
 _symmetry_equiv_pos_as_xyz
  1  'x, y, z'
loop_
 _atom_site_type_symbol
 _atom_site_label
 _atom_site_symmetry_multiplicity
 _atom_site_fract_x
 _atom_site_fract_y
 _atom_site_fract_z
 _atom_site_occupancy
  Al  Al0  1  0.75000000  0.33333333  0.66666667  1
  Mo  Mo1  1  0.25000000  0.66666666  0.33333332  1
  Al  Al2  1  0.25000000  0.16659700  0.33319400  1
  Al  Al3  1  0.25000000  0.66680499  0.83340200  1
  Al  Al4  1  0.25000000  0.16659700  0.83340202  1
  Al  Al5  1  0.75000000  0.83340299  0.66680599  1
  Al  Al6  1  0.75000000  0.33319499  0.16659799  1
  Al  Al7  1  0.75000000  0.83340299  0.16659797  1
