# generated using pymatgen
data_La(P2Pd)3
_symmetry_space_group_name_H-M   'P 1'
_cell_length_a   5.65974808
_cell_length_b   7.94488668
_cell_length_c   7.94488668
_cell_angle_alpha   91.67909241
_cell_angle_beta   110.61469269
_cell_angle_gamma   110.61469269
_symmetry_Int_Tables_number   1
_chemical_formula_structural   La(P2Pd)3
_chemical_formula_sum   'La2 P12 Pd6'
_cell_volume   308.13818914
_cell_formula_units_Z   2
loop_
 _symmetry_equiv_pos_site_id
 _symmetry_equiv_pos_as_xyz
  1  'x, y, z'
loop_
 _atom_site_type_symbol
 _atom_site_label
 _atom_site_symmetry_multiplicity
 _atom_site_fract_x
 _atom_site_fract_y
 _atom_site_fract_z
 _atom_site_occupancy
  La  La0  1  0.51324095  0.62831197  0.89002595  1
  P  P1  1  0.98766898  0.36563198  0.10657996  1
  La  La2  1  0.48675900  0.10997399  0.37168797  1
  P  P3  1  0.01233092  0.89341995  0.63436797  1
  P  P4  1  0.59504397  0.45696998  0.23945097  1
  P  P5  1  0.89989797  0.52909497  0.75080994  1
  P  P6  1  0.40495594  0.76054896  0.54302996  1
  P  P7  1  0.10010198  0.24918999  0.47090498  1
  P  P8  1  -0.00000000  0.00160200  0.99839797  1
  P  P9  1  0.49999992  0.99276995  0.00722997  1
  Pd  Pd10  1  0.99999995  0.73327096  0.26672895  1
  Pd  Pd11  1  0.49999994  0.73766396  0.26233596  1
  P  P12  1  0.49999998  0.26462199  0.73537796  1
  Pd  Pd13  1  0.36902998  0.23826499  0.98375195  1
  P  P14  1  0.13139993  0.75062696  0.02068798  1
  Pd  Pd15  1  0.63097001  0.01624800  0.76173495  1
  P  P16  1  0.86859992  0.97931195  0.24937295  1
  Pd  Pd17  1  0.49999996  0.50400197  0.49599796  1
  Pd  Pd18  1  0.99999997  0.51239297  0.48760694  1
  P  P19  1  -0.00000003  0.27608299  0.72391697  1
