# generated using pymatgen
data_MnO
_symmetry_space_group_name_H-M   'P 1'
_cell_length_a   5.79635000
_cell_length_b   5.84676981
_cell_length_c   5.79669666
_cell_angle_alpha   119.64488983
_cell_angle_beta   90.12770844
_cell_angle_gamma   119.63949585
_symmetry_Int_Tables_number   1
_chemical_formula_structural   MnO
_chemical_formula_sum   'Mn7 O7'
_cell_volume   140.24931233
_cell_formula_units_Z   7
loop_
 _symmetry_equiv_pos_site_id
 _symmetry_equiv_pos_as_xyz
  1  'x, y, z'
loop_
 _atom_site_type_symbol
 _atom_site_label
 _atom_site_symmetry_multiplicity
 _atom_site_fract_x
 _atom_site_fract_y
 _atom_site_fract_z
 _atom_site_occupancy
  Mn  Mn0  1  0.49999894  0.99998294  0.49998697  1
  Mn  Mn1  1  0.50001398  0.49999797  0.99998499  1
  Mn  Mn2  1  0.50001294  0.99997594  0.99999598  1
  Mn  Mn3  1  0.99998899  0.49998097  0.99999896  1
  Mn  Mn4  1  0.87474497  0.74998395  0.62503595  1
  Mn  Mn5  1  0.12523699  0.25019298  0.37504500  1
  O  O6  1  0.26636697  0.53470497  0.79692900  1
  O  O7  1  0.73780802  0.03470300  0.76831397  1
  O  O8  1  0.73165999  0.46525897  0.76216297  1
  Mn  Mn9  1  0.29691401  0.03470300  0.76639200  1
  O  O10  1  0.26835997  0.53470897  0.23779198  1
  O  O11  1  0.70312595  0.96529494  0.23363495  1
  O  O12  1  0.73358899  0.46524497  0.20307195  1
  O  O13  1  0.26217794  0.96526694  0.23165498  1
