# generated using pymatgen
data_LiTe
_symmetry_space_group_name_H-M   'P 1'
_cell_length_a   2.85714602
_cell_length_b   2.85714674
_cell_length_c   9.29698467
_cell_angle_alpha   90.00000000
_cell_angle_beta   90.00000000
_cell_angle_gamma   119.99999237
_symmetry_Int_Tables_number   1
_chemical_formula_structural   LiTe
_chemical_formula_sum   'Li2 Te2'
_cell_volume   65.72608483
_cell_formula_units_Z   2
loop_
 _symmetry_equiv_pos_site_id
 _symmetry_equiv_pos_as_xyz
  1  'x, y, z'
loop_
 _atom_site_type_symbol
 _atom_site_label
 _atom_site_symmetry_multiplicity
 _atom_site_fract_x
 _atom_site_fract_y
 _atom_site_fract_z
 _atom_site_occupancy
  Li  Li0  1  0.00000000  0.00000000  0.00000000  1
  Te  Te1  1  0.66666668  0.33333335  0.75000003  1
  Li  Li2  1  0.00000000  0.00000000  0.50000002  1
  Te  Te3  1  0.33333336  0.66666671  0.25000001  1
