# generated using pymatgen
data_CrSe2
_symmetry_space_group_name_H-M   'P 1'
_cell_length_a   5.91058493
_cell_length_b   5.91058493
_cell_length_c   5.91058493
_cell_angle_alpha   90.00000000
_cell_angle_beta   90.00000000
_cell_angle_gamma   90.00000000
_symmetry_Int_Tables_number   1
_chemical_formula_structural   CrSe2
_chemical_formula_sum   'Cr4 Se8'
_cell_volume   206.48636819
_cell_formula_units_Z   4
loop_
 _symmetry_equiv_pos_site_id
 _symmetry_equiv_pos_as_xyz
  1  'x, y, z'
loop_
 _atom_site_type_symbol
 _atom_site_label
 _atom_site_symmetry_multiplicity
 _atom_site_fract_x
 _atom_site_fract_y
 _atom_site_fract_z
 _atom_site_occupancy
  Se  Se0  1  0.11285700  0.88714301  0.38714300  1
  Se  Se1  1  0.88714301  0.38714300  0.11285700  1
  Se  Se2  1  0.38714300  0.11285700  0.88714301  1
  Cr  Cr3  1  0.61285701  0.61285701  0.61285701  1
  Se  Se4  1  0.88539601  0.11460400  0.61460401  1
  Se  Se5  1  0.11460400  0.61460401  0.88539601  1
  Se  Se6  1  0.61460401  0.88539601  0.11460400  1
  Se  Se7  1  0.38539600  0.38539600  0.38539600  1
  Cr  Cr8  1  0.49085901  0.50914101  0.00914100  1
  Cr  Cr9  1  0.50914101  0.00914100  0.49085901  1
  Cr  Cr10  1  0.00914100  0.49085901  0.50914101  1
  Se  Se11  1  0.99085901  0.99085901  0.99085901  1
