# generated using pymatgen
data_Sr8Pb5Au3
_symmetry_space_group_name_H-M   'P 1'
_cell_length_a   3.74232411
_cell_length_b   6.41519594
_cell_length_c   19.97480392
_cell_angle_alpha   90.00000000
_cell_angle_beta   90.00000000
_cell_angle_gamma   106.95835114
_symmetry_Int_Tables_number   1
_chemical_formula_structural   Sr8Pb5Au3
_chemical_formula_sum   'Sr8 Pb5 Au3'
_cell_volume   458.69769301
_cell_formula_units_Z   1
loop_
 _symmetry_equiv_pos_site_id
 _symmetry_equiv_pos_as_xyz
  1  'x, y, z'
loop_
 _atom_site_type_symbol
 _atom_site_label
 _atom_site_symmetry_multiplicity
 _atom_site_fract_x
 _atom_site_fract_y
 _atom_site_fract_z
 _atom_site_occupancy
  Sr  Sr0  1  0.01994200  0.03988400  0.10915499  1
  Sr  Sr1  1  0.98005790  0.96011597  0.89084496  1
  Pb  Pb2  1  0.98005790  0.96011597  0.60915497  1
  Sr  Sr3  1  0.01994200  0.03988400  0.39084498  1
  Pb  Pb4  1  0.24496396  0.48992799  0.64454297  1
  Pb  Pb5  1  0.75503594  0.51007199  0.35545698  1
  Pb  Pb6  1  0.75503594  0.51007199  0.14454299  1
  Pb  Pb7  1  0.24496396  0.48992799  0.85545696  1
  Sr  Sr8  1  0.35759694  0.71519398  0.01245400  1
  Sr  Sr9  1  0.64240296  0.28480599  0.98754595  1
  Au  Au10  1  0.64240296  0.28480599  0.51245398  1
  Sr  Sr11  1  0.35759694  0.71519398  0.48754598  1
  Sr  Sr12  1  0.43733692  0.87467397  0.24999999  1
  Sr  Sr13  1  0.56266297  0.12532600  0.74999997  1
  Au  Au14  1  0.14864797  0.29729599  0.24999999  1
  Au  Au15  1  0.85135192  0.70270398  0.74999997  1
