# generated using pymatgen
data_EuS2O9
_symmetry_space_group_name_H-M   'P 1'
_cell_length_a   4.81469917
_cell_length_b   4.81469917
_cell_length_c   7.47156954
_cell_angle_alpha   87.49627686
_cell_angle_beta   87.49627686
_cell_angle_gamma   65.23120880
_symmetry_Int_Tables_number   1
_chemical_formula_structural   EuS2O9
_chemical_formula_sum   'Eu1 S2 O9'
_cell_volume   157.05578224
_cell_formula_units_Z   1
loop_
 _symmetry_equiv_pos_site_id
 _symmetry_equiv_pos_as_xyz
  1  'x, y, z'
loop_
 _atom_site_type_symbol
 _atom_site_label
 _atom_site_symmetry_multiplicity
 _atom_site_fract_x
 _atom_site_fract_y
 _atom_site_fract_z
 _atom_site_occupancy
  Eu  Eu0  1  0.00000000  0.00000000  0.50000000  1
  O  O1  1  0.00000000  0.00000000  0.00000000  1
  S  S2  1  0.63524196  0.63524203  0.21152999  1
  S  S3  1  0.36475798  0.36475801  0.78846999  1
  O  O4  1  0.70401096  0.70401103  0.38675399  1
  O  O5  1  0.29598898  0.29598901  0.61324599  1
  O  O6  1  0.76180899  0.29187101  0.19503499  1
  O  O7  1  0.23819095  0.70812903  0.80496499  1
  O  O8  1  0.70812899  0.23819101  0.80496499  1
  O  O9  1  0.29187095  0.76180903  0.19503499  1
  O  O10  1  0.75796495  0.75796503  0.05704499  1
  O  O11  1  0.24203499  0.24203501  0.94295499  1
