# generated using pymatgen
data_LiMnO2
_symmetry_space_group_name_H-M   'P 1'
_cell_length_a   2.96328402
_cell_length_b   5.92981863
_cell_length_c   6.60542774
_cell_angle_alpha   102.93229675
_cell_angle_beta   102.96211243
_cell_angle_gamma   90.00000000
_symmetry_Int_Tables_number   1
_chemical_formula_structural   LiMnO2
_chemical_formula_sum   'Li3 Mn3 O6'
_cell_volume   110.08811221
_cell_formula_units_Z   3
loop_
 _symmetry_equiv_pos_site_id
 _symmetry_equiv_pos_as_xyz
  1  'x, y, z'
loop_
 _atom_site_type_symbol
 _atom_site_label
 _atom_site_symmetry_multiplicity
 _atom_site_fract_x
 _atom_site_fract_y
 _atom_site_fract_z
 _atom_site_occupancy
  Li  Li0  1  0.83672898  0.17015400  0.67345796  1
  Li  Li1  1  0.49999998  0.49999999  -0.00000002  1
  Li  Li2  1  0.16327097  0.82984599  0.32654199  1
  Mn  Mn3  1  0.83375696  0.66834899  0.66751396  1
  Mn  Mn4  1  0.16624299  0.33165099  0.33248599  1
  Mn  Mn5  1  0.49999999  0.00000000  -0.00000001  1
  O  O6  1  0.33886897  0.90414998  0.67773797  1
  O  O7  1  0.00500799  0.23677000  0.01001600  1
  O  O8  1  0.67166097  0.56869899  0.34332197  1
  O  O9  1  0.99499196  0.76322999  0.98998395  1
  O  O10  1  0.66113098  0.09585000  0.32226197  1
  O  O11  1  0.32833898  0.43130099  0.65667798  1
