# generated using pymatgen
data_Sr6EuCd2Au7
_symmetry_space_group_name_H-M   'P 1'
_cell_length_a   6.75538778
_cell_length_b   8.89827824
_cell_length_c   8.90983963
_cell_angle_alpha   60.04291534
_cell_angle_beta   90.00000000
_cell_angle_gamma   90.00000000
_symmetry_Int_Tables_number   1
_chemical_formula_structural   Sr6EuCd2Au7
_chemical_formula_sum   'Sr6 Eu1 Cd2 Au7'
_cell_volume   464.02825920
_cell_formula_units_Z   1
loop_
 _symmetry_equiv_pos_site_id
 _symmetry_equiv_pos_as_xyz
  1  'x, y, z'
loop_
 _atom_site_type_symbol
 _atom_site_label
 _atom_site_symmetry_multiplicity
 _atom_site_fract_x
 _atom_site_fract_y
 _atom_site_fract_z
 _atom_site_occupancy
  Eu  Eu0  1  0.74788302  0.66709798  0.66485999  1
  Au  Au1  1  0.74788302  0.33195799  0.33514000  1
  Cd  Cd2  1  0.25211701  0.33195799  0.33514000  1
  Cd  Cd3  1  0.25211701  0.66709798  0.66485999  1
  Sr  Sr4  1  0.50000002  0.00194700  0.75290699  1
  Sr  Sr5  1  0.50000002  0.75485398  0.24709300  1
  Sr  Sr6  1  0.50000002  0.24378799  -0.00000000  1
  Sr  Sr7  1  0.00000000  0.00041300  0.24605600  1
  Sr  Sr8  1  -0.00000000  0.24646899  0.75394399  1
  Sr  Sr9  1  0.00000000  0.75452798  0.99999999  1
  Au  Au10  1  0.50000002  0.00046400  0.39202200  1
  Au  Au11  1  0.50000002  0.39248599  0.60797799  1
  Au  Au12  1  0.50000002  0.60843598  0.99999999  1
  Au  Au13  1  1.00000003  0.99978897  0.60795799  1
  Au  Au14  1  -0.00000000  0.60774698  0.39204199  1
  Au  Au15  1  -0.00000000  0.39215099  -0.00000000  1
