# generated using pymatgen
data_TlGaSe
_symmetry_space_group_name_H-M   'P 1'
_cell_length_a   4.23239088
_cell_length_b   4.25728178
_cell_length_c   4.25728273
_cell_angle_alpha   60.00000381
_cell_angle_beta   90.00000000
_cell_angle_gamma   90.00000000
_symmetry_Int_Tables_number   1
_chemical_formula_structural   TlGaSe
_chemical_formula_sum   'Tl1 Ga1 Se1'
_cell_volume   66.43260887
_cell_formula_units_Z   1
loop_
 _symmetry_equiv_pos_site_id
 _symmetry_equiv_pos_as_xyz
  1  'x, y, z'
loop_
 _atom_site_type_symbol
 _atom_site_label
 _atom_site_symmetry_multiplicity
 _atom_site_fract_x
 _atom_site_fract_y
 _atom_site_fract_z
 _atom_site_occupancy
  Tl  Tl0  1  0.00000000  0.00000000  0.00000000  1
  Se  Se1  1  0.50000001  0.33333335  0.33333332  1
  Ga  Ga2  1  0.50000001  0.66666670  0.66666663  1
