# generated using pymatgen
data_H10NCl
_symmetry_space_group_name_H-M   'P 1'
_cell_length_a   4.40484619
_cell_length_b   6.16145706
_cell_length_c   6.16145706
_cell_angle_alpha   90.00000000
_cell_angle_beta   90.00000000
_cell_angle_gamma   90.00000000
_symmetry_Int_Tables_number   1
_chemical_formula_structural   H10NCl
_chemical_formula_sum   'H10 N1 Cl1'
_cell_volume   167.22361239
_cell_formula_units_Z   1
loop_
 _symmetry_equiv_pos_site_id
 _symmetry_equiv_pos_as_xyz
  1  'x, y, z'
loop_
 _atom_site_type_symbol
 _atom_site_label
 _atom_site_symmetry_multiplicity
 _atom_site_fract_x
 _atom_site_fract_y
 _atom_site_fract_z
 _atom_site_occupancy
  H  H0  1  0.13614699  0.49999999  0.36154300  1
  H  H1  1  0.13614699  0.49999999  0.63845699  1
  H  H2  1  0.86385296  0.99999999  0.86154299  1
  H  H3  1  0.86385296  0.00000000  0.13845700  1
  H  H4  1  0.86385296  0.36154300  0.49999999  1
  H  H5  1  0.86385296  0.63845699  0.49999999  1
  H  H6  1  0.13614699  0.86154299  -0.00000000  1
  H  H7  1  0.13614699  0.13845700  -0.00000000  1
  Cl  Cl8  1  0.45078298  0.49999999  -0.00000000  1
  H  H9  1  0.54921698  0.00000000  0.49999999  1
  N  N10  1  0.00000000  0.49999999  0.49999999  1
  H  H11  1  0.00000000  0.00000000  0.00000000  1
