# generated using pymatgen
data_Tm4Ga7Ni
_symmetry_space_group_name_H-M   'P 1'
_cell_length_a   5.28115797
_cell_length_b   5.28115797
_cell_length_c   8.49155045
_cell_angle_alpha   90.00000000
_cell_angle_beta   90.00000000
_cell_angle_gamma   120.00000000
_symmetry_Int_Tables_number   1
_chemical_formula_structural   Tm4Ga7Ni
_chemical_formula_sum   'Tm4 Ga7 Ni1'
_cell_volume   205.10485581
_cell_formula_units_Z   1
loop_
 _symmetry_equiv_pos_site_id
 _symmetry_equiv_pos_as_xyz
  1  'x, y, z'
loop_
 _atom_site_type_symbol
 _atom_site_label
 _atom_site_symmetry_multiplicity
 _atom_site_fract_x
 _atom_site_fract_y
 _atom_site_fract_z
 _atom_site_occupancy
  Tm  Tm0  1  0.66666667  0.33333334  0.43847098  1
  Tm  Tm1  1  0.33333334  0.66666667  0.93847095  1
  Tm  Tm2  1  0.33333334  0.66666667  0.56152897  1
  Tm  Tm3  1  0.66666667  0.33333334  0.06152900  1
  Ga  Ga4  1  0.00000000  0.00000000  0.00000000  1
  Ga  Ga5  1  0.00000000  0.00000000  0.49999997  1
  Ni  Ni6  1  0.82894700  0.17105200  0.74999996  1
  Ga  Ga7  1  0.17105300  0.34210600  0.24999999  1
  Ga  Ga8  1  0.65789500  0.82894801  0.24999999  1
  Ga  Ga9  1  0.34210500  0.17105200  0.74999996  1
  Ga  Ga10  1  0.82894701  0.65789401  0.74999996  1
  Ga  Ga11  1  0.17105300  0.82894801  0.24999999  1
