# generated using pymatgen
data_LiV(CoO2)4
_symmetry_space_group_name_H-M   'P 1'
_cell_length_a   5.73639297
_cell_length_b   5.73639297
_cell_length_c   5.73639297
_cell_angle_alpha   60.09493637
_cell_angle_beta   60.09493637
_cell_angle_gamma   60.09493256
_symmetry_Int_Tables_number   1
_chemical_formula_structural   LiV(CoO2)4
_chemical_formula_sum   'Li1 V1 Co4 O8'
_cell_volume   133.76266291
_cell_formula_units_Z   1
loop_
 _symmetry_equiv_pos_site_id
 _symmetry_equiv_pos_as_xyz
  1  'x, y, z'
loop_
 _atom_site_type_symbol
 _atom_site_label
 _atom_site_symmetry_multiplicity
 _atom_site_fract_x
 _atom_site_fract_y
 _atom_site_fract_z
 _atom_site_occupancy
  Li  Li0  1  0.87180794  0.87180797  0.87180801  1
  Co  Co1  1  0.12819199  0.12819199  0.12819200  1
  Co  Co2  1  0.49999998  0.00000000  0.50000000  1
  V  V3  1  0.49999997  0.49999998  0.50000001  1
  Co  Co4  1  0.49999997  0.49999998  1.00000000  1
  Co  Co5  1  -0.00000001  0.49999998  0.50000000  1
  O  O6  1  0.28847497  0.75066297  0.71207501  1
  O  O7  1  0.28792497  0.71152497  0.24933702  1
  O  O8  1  0.71152496  0.24933699  0.28792501  1
  O  O9  1  0.73431295  0.73431297  0.73431301  1
  O  O10  1  0.71207496  0.28847499  0.75066300  1
  O  O11  1  0.24933698  0.28792499  0.71152499  1
  O  O12  1  0.26568698  0.26568699  0.26568700  1
  O  O13  1  0.75066295  0.71207497  0.28847502  1
