# generated using pymatgen
data_Ce(GaPt5)2
_symmetry_space_group_name_H-M   'P 1'
_cell_length_a   5.35203886
_cell_length_b   5.35205889
_cell_length_c   8.90592098
_cell_angle_alpha   90.00000000
_cell_angle_beta   90.00000000
_cell_angle_gamma   119.97339630
_symmetry_Int_Tables_number   1
_chemical_formula_structural   Ce(GaPt5)2
_chemical_formula_sum   'Ce1 Ga2 Pt10'
_cell_volume   220.98661640
_cell_formula_units_Z   1
loop_
 _symmetry_equiv_pos_site_id
 _symmetry_equiv_pos_as_xyz
  1  'x, y, z'
loop_
 _atom_site_type_symbol
 _atom_site_label
 _atom_site_symmetry_multiplicity
 _atom_site_fract_x
 _atom_site_fract_y
 _atom_site_fract_z
 _atom_site_occupancy
  Ce  Ce0  1  0.00000900  0.99999401  0.50000000  1
  Pt  Pt1  1  0.00619000  0.50308801  0.74232600  1
  Pt  Pt2  1  0.49690802  0.50312801  0.74234400  1
  Ga  Ga3  1  0.49691302  0.99378201  0.74233800  1
  Pt  Pt4  1  0.00619000  0.50308801  0.25767400  1
  Pt  Pt5  1  0.49690802  0.50312801  0.25765600  1
  Ga  Ga6  1  0.49691302  0.99378201  0.25766200  1
  Pt  Pt7  1  0.33344201  0.66662301  0.50000000  1
  Pt  Pt8  1  0.00000100  0.99998901  0.82732300  1
  Pt  Pt9  1  0.00000100  0.99998901  0.17267700  1
  Pt  Pt10  1  0.66666669  0.33333334  1.00000000  1
  Pt  Pt11  1  0.33333335  0.66661834  -0.00000000  1
  Pt  Pt12  1  0.66651202  0.33317867  0.50000000  1
