# generated using pymatgen
data_ZnS
_symmetry_space_group_name_H-M   'P 1'
_cell_length_a   3.85308790
_cell_length_b   3.85308886
_cell_length_c   31.51255608
_cell_angle_alpha   90.00000000
_cell_angle_beta   90.00000000
_cell_angle_gamma   119.99999237
_symmetry_Int_Tables_number   1
_chemical_formula_structural   ZnS
_chemical_formula_sum   'Zn10 S10'
_cell_volume   405.16529465
_cell_formula_units_Z   10
loop_
 _symmetry_equiv_pos_site_id
 _symmetry_equiv_pos_as_xyz
  1  'x, y, z'
loop_
 _atom_site_type_symbol
 _atom_site_label
 _atom_site_symmetry_multiplicity
 _atom_site_fract_x
 _atom_site_fract_y
 _atom_site_fract_z
 _atom_site_occupancy
  S  S0  1  0.00000000  0.00000000  0.39997300  1
  S  S1  1  0.33333333  0.66666665  0.79997300  1
  S  S2  1  0.33333333  0.66666665  0.19998000  1
  S  S3  1  0.66666668  0.33333332  0.29997300  1
  S  S4  1  0.00000000  0.00000000  0.69997300  1
  S  S5  1  0.00000000  0.00000000  0.99998100  1
  S  S6  1  0.66666668  0.33333332  0.09996100  1
  S  S7  1  0.33333333  0.66666665  0.49997300  1
  S  S8  1  0.66666668  0.33333332  0.89996100  1
  S  S9  1  0.66666668  0.33333332  0.59997300  1
  Zn  Zn10  1  0.00000000  0.00000000  0.92499500  1
  Zn  Zn11  1  0.00000000  0.00000000  0.32502600  1
  Zn  Zn12  1  0.66666668  0.33333332  0.02506400  1
  Zn  Zn13  1  0.66666668  0.33333332  0.52502700  1
  Zn  Zn14  1  0.33333333  0.66666665  0.42502800  1
  Zn  Zn15  1  0.66666668  0.33333332  0.22505900  1
  Zn  Zn16  1  0.33333333  0.66666665  0.72502700  1
  Zn  Zn17  1  0.66666668  0.33333332  0.82503200  1
  Zn  Zn18  1  0.00000000  0.00000000  0.62502700  1
  Zn  Zn19  1  0.33333333  0.66666665  0.12499400  1
