# generated using pymatgen
data_MnO2
_symmetry_space_group_name_H-M   'P 1'
_cell_length_a   4.91077518
_cell_length_b   4.91077518
_cell_length_c   9.97718620
_cell_angle_alpha   90.00000000
_cell_angle_beta   90.00000000
_cell_angle_gamma   91.40454102
_symmetry_Int_Tables_number   1
_chemical_formula_structural   MnO2
_chemical_formula_sum   'Mn6 O12'
_cell_volume   240.53466786
_cell_formula_units_Z   6
loop_
 _symmetry_equiv_pos_site_id
 _symmetry_equiv_pos_as_xyz
  1  'x, y, z'
loop_
 _atom_site_type_symbol
 _atom_site_label
 _atom_site_symmetry_multiplicity
 _atom_site_fract_x
 _atom_site_fract_y
 _atom_site_fract_z
 _atom_site_occupancy
  Mn  Mn0  1  0.01119800  0.01119800  0.34368999  1
  Mn  Mn1  1  0.01119800  0.01119800  0.65630999  1
  Mn  Mn2  1  0.99980093  0.99980097  -0.00000000  1
  Mn  Mn3  1  0.50407496  0.50407498  0.16861400  1
  Mn  Mn4  1  0.47728897  0.47728899  0.49999999  1
  Mn  Mn5  1  0.50407496  0.50407498  0.83138598  1
  O  O6  1  0.20163099  0.20163099  0.49999999  1
  O  O7  1  0.19684999  0.19684999  0.83266498  1
  O  O8  1  0.19684999  0.19684999  0.16733500  1
  O  O9  1  0.30213996  0.68957498  0.33716199  1
  O  O10  1  0.30213996  0.68957498  0.66283799  1
  O  O11  1  0.30879396  0.69798298  0.99999998  1
  O  O12  1  0.68957497  0.30213999  0.33716199  1
  O  O13  1  0.68957497  0.30213999  0.66283799  1
  O  O14  1  0.69798297  0.30879399  -0.00000000  1
  O  O15  1  0.78251094  0.78251098  0.49999999  1
  O  O16  1  0.81215694  0.81215698  0.82522998  1
  O  O17  1  0.81215694  0.81215698  0.17477000  1
