# generated using pymatgen
data_GdZr2C2S
_symmetry_space_group_name_H-M   'P 1'
_cell_length_a   3.79391289
_cell_length_b   4.19082499
_cell_length_c   9.47154236
_cell_angle_alpha   90.00000000
_cell_angle_beta   90.00000000
_cell_angle_gamma   90.00000000
_symmetry_Int_Tables_number   1
_chemical_formula_structural   GdZr2C2S
_chemical_formula_sum   'Gd1 Zr2 C2 S1'
_cell_volume   150.59397093
_cell_formula_units_Z   1
loop_
 _symmetry_equiv_pos_site_id
 _symmetry_equiv_pos_as_xyz
  1  'x, y, z'
loop_
 _atom_site_type_symbol
 _atom_site_label
 _atom_site_symmetry_multiplicity
 _atom_site_fract_x
 _atom_site_fract_y
 _atom_site_fract_z
 _atom_site_occupancy
  Zr  Zr0  1  0.50000001  0.00000000  0.11255700  1
  C  C1  1  0.00000000  0.50000000  0.88744297  1
  S  S2  1  0.00000000  0.00000000  0.31393799  1
  Gd  Gd3  1  0.50000001  0.50000000  0.68606197  1
  Zr  Zr4  1  0.00000000  0.00000000  0.97336496  1
  C  C5  1  0.50000001  0.50000000  0.02663500  1
