# generated using pymatgen
data_Mg2Zn3BO2
_symmetry_space_group_name_H-M   'P 1'
_cell_length_a   2.99490190
_cell_length_b   2.99490261
_cell_length_c   23.49606895
_cell_angle_alpha   90.00000000
_cell_angle_beta   90.00000000
_cell_angle_gamma   119.99999237
_symmetry_Int_Tables_number   1
_chemical_formula_structural   Mg2Zn3BO2
_chemical_formula_sum   'Mg4 Zn6 B2 O4'
_cell_volume   182.51189664
_cell_formula_units_Z   2
loop_
 _symmetry_equiv_pos_site_id
 _symmetry_equiv_pos_as_xyz
  1  'x, y, z'
loop_
 _atom_site_type_symbol
 _atom_site_label
 _atom_site_symmetry_multiplicity
 _atom_site_fract_x
 _atom_site_fract_y
 _atom_site_fract_z
 _atom_site_occupancy
  Mg  Mg0  1  0.66666669  0.33333334  0.55397800  1
  Mg  Mg1  1  0.33333334  0.66666668  0.44602200  1
  Zn  Zn2  1  0.00000000  0.00000000  0.34553800  1
  Zn  Zn3  1  0.00000000  0.00000000  0.84553800  1
  Zn  Zn4  1  0.00000000  0.00000000  0.15446200  1
  B  B5  1  0.33333334  0.66666668  0.05397800  1
  Mg  Mg6  1  0.00000000  0.00000000  0.65446200  1
  Zn  Zn7  1  0.66666669  0.33333334  0.94602200  1
  Zn  Zn8  1  0.33333334  0.66666668  0.25000000  1
  Mg  Mg9  1  0.66666669  0.33333334  0.75000000  1
  O  O10  1  0.33333334  0.66666668  0.89433400  1
  O  O11  1  0.66666669  0.33333334  0.39433400  1
  O  O12  1  0.00000000  0.00000000  0.50000000  1
  O  O13  1  0.33333334  0.66666668  0.60566600  1
  B  B14  1  0.66666669  0.33333334  0.10566600  1
  Zn  Zn15  1  0.00000000  0.00000000  0.00000000  1
