# generated using pymatgen
data_Tm2Si3
_symmetry_space_group_name_H-M   'P 1'
_cell_length_a   4.15556717
_cell_length_b   5.29528046
_cell_length_c   5.29528093
_cell_angle_alpha   60.44504166
_cell_angle_beta   66.89707184
_cell_angle_gamma   66.89707184
_symmetry_Int_Tables_number   1
_chemical_formula_structural   Tm2Si3
_chemical_formula_sum   'Tm2 Si3'
_cell_volume   90.30688173
_cell_formula_units_Z   1
loop_
 _symmetry_equiv_pos_site_id
 _symmetry_equiv_pos_as_xyz
  1  'x, y, z'
loop_
 _atom_site_type_symbol
 _atom_site_label
 _atom_site_symmetry_multiplicity
 _atom_site_fract_x
 _atom_site_fract_y
 _atom_site_fract_z
 _atom_site_occupancy
  Tm  Tm0  1  0.20344600  0.29655400  0.29655400  1
  Tm  Tm1  1  0.79655399  0.70344600  0.70344599  1
  Si  Si2  1  0.00000000  0.00000000  0.00000000  1
  Si  Si3  1  0.49999999  0.27137800  0.72862200  1
  Si  Si4  1  0.50000000  0.72862200  0.27137800  1
