# generated using pymatgen
data_K3MoO5
_symmetry_space_group_name_H-M   'P 1'
_cell_length_a   6.19700527
_cell_length_b   6.79585266
_cell_length_c   9.02116203
_cell_angle_alpha   105.38008118
_cell_angle_beta   95.73309326
_cell_angle_gamma   95.54368591
_symmetry_Int_Tables_number   1
_chemical_formula_structural   K3MoO5
_chemical_formula_sum   'K6 Mo2 O10'
_cell_volume   361.46578273
_cell_formula_units_Z   2
loop_
 _symmetry_equiv_pos_site_id
 _symmetry_equiv_pos_as_xyz
  1  'x, y, z'
loop_
 _atom_site_type_symbol
 _atom_site_label
 _atom_site_symmetry_multiplicity
 _atom_site_fract_x
 _atom_site_fract_y
 _atom_site_fract_z
 _atom_site_occupancy
  K  K0  1  0.23807197  0.52559499  0.89511206  1
  O  O1  1  0.76192797  0.47440499  0.10488802  1
  K  K2  1  0.24421699  0.11727000  0.09231401  1
  O  O3  1  0.75578295  0.88272998  0.90768607  1
  K  K4  1  0.23295098  0.41989899  0.44257803  1
  K  K5  1  0.76704896  0.58010099  0.55742204  1
  K  K6  1  0.72738895  0.97137598  0.36987105  1
  K  K7  1  0.27261099  0.02862400  0.63012903  1
  Mo  Mo8  1  0.20159996  0.77526998  0.26293404  1
  Mo  Mo9  1  0.79839998  0.22472999  0.73706603  1
  O  O10  1  0.02311697  0.69424698  0.38487104  1
  O  O11  1  0.97688297  0.30575299  0.61512903  1
  O  O12  1  0.03743996  0.77547498  0.08907803  1
  O  O13  1  0.96255998  0.22452499  0.91092204  1
  O  O14  1  0.40588797  0.60685299  0.22170903  1
  O  O15  1  0.59411197  0.39314699  0.77829104  1
  O  O16  1  0.68284395  0.96578198  0.65064206  1
  O  O17  1  0.31715599  0.03421800  0.34935801  1
