# generated using pymatgen
data_KRb2AsI6
_symmetry_space_group_name_H-M   'P 1'
_cell_length_a   8.80737019
_cell_length_b   8.80737019
_cell_length_c   8.80737019
_cell_angle_alpha   60.00000000
_cell_angle_beta   60.00000000
_cell_angle_gamma   60.00000000
_symmetry_Int_Tables_number   1
_chemical_formula_structural   KRb2AsI6
_chemical_formula_sum   'Rb2 K1 As1 I6'
_cell_volume   483.08522432
_cell_formula_units_Z   1
loop_
 _symmetry_equiv_pos_site_id
 _symmetry_equiv_pos_as_xyz
  1  'x, y, z'
loop_
 _atom_site_type_symbol
 _atom_site_label
 _atom_site_symmetry_multiplicity
 _atom_site_fract_x
 _atom_site_fract_y
 _atom_site_fract_z
 _atom_site_occupancy
  Rb  Rb0  1  0.24999999  0.24999999  0.24999999  1
  Rb  Rb1  1  0.74999998  0.74999998  0.74999998  1
  K  K2  1  0.49999999  0.49999999  0.49999999  1
  As  As3  1  0.00000000  0.00000000  0.00000000  1
  I  I4  1  0.22493999  0.77505998  0.22493999  1
  I  I5  1  0.22493999  0.22493999  0.77505998  1
  I  I6  1  0.77505998  0.22493999  0.77505998  1
  I  I7  1  0.22493999  0.77505998  0.77505998  1
  I  I8  1  0.77505998  0.22493999  0.22493999  1
  I  I9  1  0.77505998  0.77505998  0.22493999  1
