# generated using pymatgen
data_Sr2EuScO6
_symmetry_space_group_name_H-M   'P 1'
_cell_length_a   5.96095896
_cell_length_b   6.14552212
_cell_length_c   8.58480167
_cell_angle_alpha   90.00000000
_cell_angle_beta   90.59746552
_cell_angle_gamma   90.00000000
_symmetry_Int_Tables_number   1
_chemical_formula_structural   Sr2EuScO6
_chemical_formula_sum   'Sr4 Eu2 Sc2 O12'
_cell_volume   314.47170235
_cell_formula_units_Z   2
loop_
 _symmetry_equiv_pos_site_id
 _symmetry_equiv_pos_as_xyz
  1  'x, y, z'
loop_
 _atom_site_type_symbol
 _atom_site_label
 _atom_site_symmetry_multiplicity
 _atom_site_fract_x
 _atom_site_fract_y
 _atom_site_fract_z
 _atom_site_occupancy
  Sc  Sc0  1  0.50000000  0.00000000  -0.00000002  1
  Sc  Sc1  1  0.00000000  0.49999999  0.50000000  1
  Eu  Eu2  1  0.50000000  0.00000000  0.49999998  1
  Eu  Eu3  1  0.00000000  0.49999999  0.00000000  1
  Sr  Sr4  1  0.99579601  0.95865898  0.75309696  1
  Sr  Sr5  1  0.50420400  0.45865899  0.74690298  1
  Sr  Sr6  1  0.00420400  0.04134100  0.24690300  1
  Sr  Sr7  1  0.49579600  0.54134099  0.25309698  1
  O  O8  1  0.17273200  0.78535298  0.44872900  1
  O  O9  1  0.32726800  0.28535299  0.05127099  1
  O  O10  1  0.82726801  0.21464700  0.55127097  1
  O  O11  1  0.67273200  0.71464699  0.94872898  1
  O  O12  1  0.70706500  0.67779299  0.54333797  1
  O  O13  1  0.79293501  0.17779300  0.95666197  1
  O  O14  1  0.29293500  0.32220699  0.45666199  1
  O  O15  1  0.20706500  0.82220698  0.04333799  1
  O  O16  1  0.10137700  0.53004299  0.73742500  1
  O  O17  1  0.39862300  0.03004300  0.76257499  1
  O  O18  1  0.89862301  0.46995699  0.26257496  1
  O  O19  1  0.60137700  0.96995698  0.23742498  1
