# generated using pymatgen
data_Na2Tl4F7
_symmetry_space_group_name_H-M   'P 1'
_cell_length_a   6.76104021
_cell_length_b   6.76104021
_cell_length_c   7.28855896
_cell_angle_alpha   62.36664581
_cell_angle_beta   62.36664581
_cell_angle_gamma   59.99999619
_symmetry_Int_Tables_number   1
_chemical_formula_structural   Na2Tl4F7
_chemical_formula_sum   'Na2 Tl4 F7'
_cell_volume   243.66676267
_cell_formula_units_Z   1
loop_
 _symmetry_equiv_pos_site_id
 _symmetry_equiv_pos_as_xyz
  1  'x, y, z'
loop_
 _atom_site_type_symbol
 _atom_site_label
 _atom_site_symmetry_multiplicity
 _atom_site_fract_x
 _atom_site_fract_y
 _atom_site_fract_z
 _atom_site_occupancy
  Na  Na0  1  0.49999997  0.50000000  0.50000001  1
  Tl  Tl1  1  0.49999999  0.00000000  0.00000001  1
  Tl  Tl2  1  -0.00000003  0.50000000  0.00000002  1
  Na  Na3  1  0.49999997  0.50000000  0.00000003  1
  Tl  Tl4  1  0.00000000  0.00000000  0.00000000  1
  F  F5  1  0.75670398  0.26858300  0.21800902  1
  F  F6  1  0.24329598  0.24329600  0.78199099  1
  F  F7  1  0.24329596  0.73141701  0.78199101  1
  F  F8  1  0.73141698  0.24329600  0.78199100  1
  F  F9  1  0.26243598  0.26243600  0.21269201  1
  Tl  Tl10  1  0.73756395  0.73756401  0.78730802  1
  F  F11  1  0.26858295  0.75670401  0.21800903  1
  F  F12  1  0.75670395  0.75670401  0.21800904  1
