# generated using pymatgen
data_Zr2CdP4Rh5
_symmetry_space_group_name_H-M   'P 1'
_cell_length_a   3.75888705
_cell_length_b   6.36343622
_cell_length_c   7.20949888
_cell_angle_alpha   90.00000000
_cell_angle_beta   90.00000000
_cell_angle_gamma   90.00000000
_symmetry_Int_Tables_number   1
_chemical_formula_structural   Zr2CdP4Rh5
_chemical_formula_sum   'Zr2 Cd1 P4 Rh5'
_cell_volume   172.44716170
_cell_formula_units_Z   1
loop_
 _symmetry_equiv_pos_site_id
 _symmetry_equiv_pos_as_xyz
  1  'x, y, z'
loop_
 _atom_site_type_symbol
 _atom_site_label
 _atom_site_symmetry_multiplicity
 _atom_site_fract_x
 _atom_site_fract_y
 _atom_site_fract_z
 _atom_site_occupancy
  Zr  Zr0  1  0.25000000  0.02385200  0.82689301  1
  Cd  Cd1  1  0.25000000  0.52385198  0.67310701  1
  Rh  Rh2  1  0.74999999  0.97614797  0.17310700  1
  Zr  Zr3  1  0.74999999  0.47614798  0.32689301  1
  P  P4  1  0.25000000  0.26824899  0.12252600  1
  P  P5  1  0.25000000  0.76824897  0.37747401  1
  P  P6  1  0.74999999  0.73175097  0.87747401  1
  P  P7  1  0.74999999  0.23175099  0.62252601  1
  Rh  Rh8  1  0.25000000  0.14456699  0.43687501  1
  Rh  Rh9  1  0.25000000  0.64456698  0.06312500  1
  Rh  Rh10  1  0.74999999  0.85543297  0.56312501  1
  Rh  Rh11  1  0.74999999  0.35543299  0.93687502  1
