# generated using pymatgen
data_Gd(HO)3
_symmetry_space_group_name_H-M   'P 1'
_cell_length_a   3.69143701
_cell_length_b   6.38657808
_cell_length_c   6.38657808
_cell_angle_alpha   120.00000000
_cell_angle_beta   90.00000000
_cell_angle_gamma   90.00000000
_symmetry_Int_Tables_number   1
_chemical_formula_structural   Gd(HO)3
_chemical_formula_sum   'Gd2 H6 O6'
_cell_volume   130.39548256
_cell_formula_units_Z   2
loop_
 _symmetry_equiv_pos_site_id
 _symmetry_equiv_pos_as_xyz
  1  'x, y, z'
loop_
 _atom_site_type_symbol
 _atom_site_label
 _atom_site_symmetry_multiplicity
 _atom_site_fract_x
 _atom_site_fract_y
 _atom_site_fract_z
 _atom_site_occupancy
  Gd  Gd0  1  0.75000000  0.66666666  0.33333335  1
  Gd  Gd1  1  0.25000000  0.33333333  0.66666668  1
  H  H2  1  0.75000000  0.13926800  0.86410802  1
  H  H3  1  0.75000000  0.13589200  0.27516001  1
  H  H4  1  0.75000000  0.72484000  0.86073203  1
  H  H5  1  0.25000000  0.86073200  0.13589202  1
  H  H6  1  0.25000000  0.86410800  0.72484003  1
  H  H7  1  0.25000000  0.27516000  0.13926801  1
  O  O8  1  0.75000000  0.08301200  0.69082701  1
  O  O9  1  0.75000000  0.30917400  0.39218601  1
  O  O10  1  0.75000000  0.60781500  0.91698903  1
  O  O11  1  0.25000000  0.91698800  0.30917302  1
  O  O12  1  0.25000000  0.69082600  0.60781402  1
  O  O13  1  0.25000000  0.39218500  0.08301101  1
