# generated using pymatgen
data_BaNa2Te5O12
_symmetry_space_group_name_H-M   'P 1'
_cell_length_a   6.94543266
_cell_length_b   6.94543266
_cell_length_c   11.26207066
_cell_angle_alpha   102.45972443
_cell_angle_beta   102.45972443
_cell_angle_gamma   107.47615051
_symmetry_Int_Tables_number   1
_chemical_formula_structural   BaNa2Te5O12
_chemical_formula_sum   'Ba1 Na2 Te5 O12'
_cell_volume   482.49024525
_cell_formula_units_Z   1
loop_
 _symmetry_equiv_pos_site_id
 _symmetry_equiv_pos_as_xyz
  1  'x, y, z'
loop_
 _atom_site_type_symbol
 _atom_site_label
 _atom_site_symmetry_multiplicity
 _atom_site_fract_x
 _atom_site_fract_y
 _atom_site_fract_z
 _atom_site_occupancy
  Ba  Ba0  1  0.33505999  0.33506000  0.67011998  1
  Te  Te1  1  0.58506000  0.08506000  0.17011998  1
  Na  Na2  1  0.99969896  0.99969899  0.99939795  1
  Na  Na3  1  0.24969896  0.74969900  0.49939797  1
  Te  Te4  1  0.10876595  0.99100999  0.32188997  1
  Te  Te5  1  0.21312398  0.33088000  0.32188998  1
  O  O6  1  0.24100996  0.85876599  0.82188997  1
  Te  Te7  1  0.58087995  0.96312399  0.82188996  1
  O  O8  1  0.86768596  0.84715599  0.15324796  1
  O  O9  1  0.28556199  0.30609200  0.15324798  1
  O  O10  1  0.09715597  0.61768600  0.65324798  1
  O  O11  1  0.55609201  0.03556200  0.65324799  1
  O  O12  1  0.01240095  0.94696299  0.47564397  1
  O  O13  1  0.46324298  0.52868100  0.47564397  1
  Te  Te14  1  0.19696296  0.76240100  0.97564397  1
  O  O15  1  0.77868100  0.21324300  0.97564398  1
  O  O16  1  0.36727595  0.90466399  0.34122896  1
  O  O17  1  0.97395299  0.43656500  0.34122897  1
  O  O18  1  0.15466400  0.11727600  0.84122899  1
  O  O19  1  0.68656497  0.72395300  0.84122896  1
