# generated using pymatgen
data_Ce5Al5Ni8
_symmetry_space_group_name_H-M   'P 1'
_cell_length_a   5.54131365
_cell_length_b   5.54131365
_cell_length_c   11.73218155
_cell_angle_alpha   76.34006500
_cell_angle_beta   76.34006500
_cell_angle_gamma   60.00000381
_symmetry_Int_Tables_number   1
_chemical_formula_structural   Ce5Al5Ni8
_chemical_formula_sum   'Ce5 Al5 Ni8'
_cell_volume   300.16195886
_cell_formula_units_Z   1
loop_
 _symmetry_equiv_pos_site_id
 _symmetry_equiv_pos_as_xyz
  1  'x, y, z'
loop_
 _atom_site_type_symbol
 _atom_site_label
 _atom_site_symmetry_multiplicity
 _atom_site_fract_x
 _atom_site_fract_y
 _atom_site_fract_z
 _atom_site_occupancy
  Ce  Ce0  1  0.94881098  0.94881100  0.15356698  1
  Ce  Ce1  1  0.85108998  0.85109000  0.44672999  1
  Ce  Ce2  1  0.14891000  0.14891000  0.55327000  1
  Ce  Ce3  1  0.05118900  0.05118900  0.84643301  1
  Ni  Ni4  1  0.27835699  0.27835700  0.16492900  1
  Ni  Ni5  1  0.49999999  0.50000000  0.50000000  1
  Ni  Ni6  1  0.38821299  0.38821300  0.83536100  1
  Ce  Ce7  1  0.72164299  0.72164300  0.83507099  1
  Ni  Ni8  1  0.61178699  0.61178700  0.16463899  1
  Ni  Ni9  1  0.60831699  0.60831700  0.67497699  1
  Al  Al10  1  0.39168298  0.89161100  0.32502299  1
  Ni  Ni11  1  -0.00000001  0.50000000  -0.00000000  1
  Al  Al12  1  0.89161099  0.39168300  0.32502299  1
  Ni  Ni13  1  0.49999999  0.50000000  -0.00000001  1
  Al  Al14  1  0.60831700  0.10838900  0.67497700  1
  Ni  Ni15  1  0.50000000  0.00000000  -0.00000000  1
  Al  Al16  1  0.39168299  0.39168300  0.32502300  1
  Al  Al17  1  0.10838899  0.60831700  0.67497700  1
