# generated using pymatgen
data_Ce(GePt)2
_symmetry_space_group_name_H-M   'P 1'
_cell_length_a   4.32522917
_cell_length_b   4.32522917
_cell_length_c   10.36407280
_cell_angle_alpha   90.00000000
_cell_angle_beta   90.00000000
_cell_angle_gamma   90.00000000
_symmetry_Int_Tables_number   1
_chemical_formula_structural   Ce(GePt)2
_chemical_formula_sum   'Ce2 Ge4 Pt4'
_cell_volume   193.88700454
_cell_formula_units_Z   2
loop_
 _symmetry_equiv_pos_site_id
 _symmetry_equiv_pos_as_xyz
  1  'x, y, z'
loop_
 _atom_site_type_symbol
 _atom_site_label
 _atom_site_symmetry_multiplicity
 _atom_site_fract_x
 _atom_site_fract_y
 _atom_site_fract_z
 _atom_site_occupancy
  Ce  Ce0  1  0.00000000  0.49999998  0.25338000  1
  Ce  Ce1  1  0.49999998  0.00000000  0.74662001  1
  Ge  Ge2  1  0.00000000  0.00000000  0.50000001  1
  Ge  Ge3  1  0.49999998  0.49999998  0.50000001  1
  Ge  Ge4  1  0.00000000  0.49999998  0.87606902  1
  Ge  Ge5  1  0.49999998  0.00000000  0.12393100  1
  Pt  Pt6  1  0.00000000  0.49999998  0.63279401  1
  Pt  Pt7  1  0.49999998  0.00000000  0.36720601  1
  Pt  Pt8  1  0.00000000  0.00000000  0.00000000  1
  Pt  Pt9  1  0.49999998  0.49999998  -0.00000000  1
