# generated using pymatgen
data_Dy4FeRe3B8
_symmetry_space_group_name_H-M   'P 1'
_cell_length_a   5.28100395
_cell_length_b   5.86722803
_cell_length_c   6.31030178
_cell_angle_alpha   90.00000000
_cell_angle_beta   90.00000000
_cell_angle_gamma   90.00000000
_symmetry_Int_Tables_number   1
_chemical_formula_structural   Dy4FeRe3B8
_chemical_formula_sum   'Dy4 Fe1 Re3 B8'
_cell_volume   195.52378202
_cell_formula_units_Z   1
loop_
 _symmetry_equiv_pos_site_id
 _symmetry_equiv_pos_as_xyz
  1  'x, y, z'
loop_
 _atom_site_type_symbol
 _atom_site_label
 _atom_site_symmetry_multiplicity
 _atom_site_fract_x
 _atom_site_fract_y
 _atom_site_fract_z
 _atom_site_occupancy
  Dy  Dy0  1  0.50000000  0.48952000  0.58559102  1
  Dy  Dy1  1  0.50000000  0.98951999  0.41440901  1
  Dy  Dy2  1  0.00000000  0.51077100  0.91524703  1
  Dy  Dy3  1  0.00000000  0.01077100  0.08475300  1
  B  B4  1  0.66783301  0.13284600  0.78861803  1
  B  B5  1  0.33216700  0.63284600  0.21138201  1
  B  B6  1  0.16489600  0.86635200  0.71503302  1
  B  B7  1  0.83510401  0.36635200  0.28496701  1
  B  B8  1  0.83510401  0.86635200  0.71503302  1
  B  B9  1  0.16489600  0.36635200  0.28496701  1
  B  B10  1  0.33216700  0.13284600  0.78861803  1
  B  B11  1  0.66783301  0.63284600  0.21138201  1
  Re  Re12  1  0.50000000  0.32022300  0.06776000  1
  Fe  Fe13  1  0.50000000  0.82022300  0.93224003  1
  Re  Re14  1  0.00000000  0.68109000  0.43057101  1
  Re  Re15  1  0.00000000  0.18109000  0.56942902  1
