# generated using pymatgen
data_V2F5
_symmetry_space_group_name_H-M   'P 1'
_cell_length_a   5.28557825
_cell_length_b   5.29977274
_cell_length_c   7.63188791
_cell_angle_alpha   106.73893738
_cell_angle_beta   98.99805450
_cell_angle_gamma   110.19718933
_symmetry_Int_Tables_number   1
_chemical_formula_structural   V2F5
_chemical_formula_sum   'V4 F10'
_cell_volume   184.19046298
_cell_formula_units_Z   2
loop_
 _symmetry_equiv_pos_site_id
 _symmetry_equiv_pos_as_xyz
  1  'x, y, z'
loop_
 _atom_site_type_symbol
 _atom_site_label
 _atom_site_symmetry_multiplicity
 _atom_site_fract_x
 _atom_site_fract_y
 _atom_site_fract_z
 _atom_site_occupancy
  V  V0  1  0.47601697  0.22977199  0.75278700  1
  V  V1  1  0.51955193  0.76624296  0.24509299  1
  V  V2  1  0.99694390  0.99766995  0.99858399  1
  V  V3  1  0.99817493  0.49884898  0.49969299  1
  F  F4  1  0.84873696  0.10052300  0.25001299  1
  F  F5  1  0.14665894  0.89747796  0.74843399  1
  F  F6  1  0.77157893  0.62973797  0.36955499  1
  F  F7  1  0.26260393  0.90165896  0.12386099  1
  F  F8  1  0.28358197  0.36923598  0.05665999  1
  F  F9  1  0.30971694  0.72474196  0.43654599  1
  F  F10  1  0.70956693  0.62739197  0.94401899  1
  F  F11  1  0.68669796  0.27559499  0.56322599  1
  F  F12  1  0.73578697  0.09496200  0.87100000  1
  F  F13  1  0.22380897  0.36888198  0.63123800  1
