# generated using pymatgen
data_RbCuSe
_symmetry_space_group_name_H-M   'P 1'
_cell_length_a   5.24794292
_cell_length_b   8.28893280
_cell_length_c   8.28893280
_cell_angle_alpha   103.08301544
_cell_angle_beta   90.00000000
_cell_angle_gamma   90.00000000
_symmetry_Int_Tables_number   1
_chemical_formula_structural   RbCuSe
_chemical_formula_sum   'Rb4 Cu4 Se4'
_cell_volume   351.20809730
_cell_formula_units_Z   4
loop_
 _symmetry_equiv_pos_site_id
 _symmetry_equiv_pos_as_xyz
  1  'x, y, z'
loop_
 _atom_site_type_symbol
 _atom_site_label
 _atom_site_symmetry_multiplicity
 _atom_site_fract_x
 _atom_site_fract_y
 _atom_site_fract_z
 _atom_site_occupancy
  Rb  Rb0  1  0.25000000  0.69159899  0.30840096  1
  Rb  Rb1  1  0.75000001  0.30840100  0.69159898  1
  Cu  Cu2  1  -0.00000000  0.16655700  0.16655699  1
  Cu  Cu3  1  0.50000001  0.16655700  0.16655699  1
  Cu  Cu4  1  0.50000001  0.83344299  0.83344296  1
  Cu  Cu5  1  -0.00000000  0.83344299  0.83344296  1
  Se  Se6  1  0.25000000  0.16105500  0.41353099  1
  Rb  Rb7  1  0.25000000  0.11021100  0.88978900  1
  Se  Se8  1  0.75000001  0.83894499  0.58646896  1
  Se  Se9  1  0.25000000  0.58646899  0.83894497  1
  Rb  Rb10  1  0.75000001  0.88978899  0.11021095  1
  Se  Se11  1  0.75000001  0.41353100  0.16105498  1
