# generated using pymatgen
data_La(TiGe)3
_symmetry_space_group_name_H-M   'P 1'
_cell_length_a   7.42958260
_cell_length_b   7.42958260
_cell_length_c   8.44141102
_cell_angle_alpha   63.89180756
_cell_angle_beta   63.89180756
_cell_angle_gamma   59.99999619
_symmetry_Int_Tables_number   1
_chemical_formula_structural   La(TiGe)3
_chemical_formula_sum   'La2 Ti6 Ge6'
_cell_volume   347.54753688
_cell_formula_units_Z   2
loop_
 _symmetry_equiv_pos_site_id
 _symmetry_equiv_pos_as_xyz
  1  'x, y, z'
loop_
 _atom_site_type_symbol
 _atom_site_label
 _atom_site_symmetry_multiplicity
 _atom_site_fract_x
 _atom_site_fract_y
 _atom_site_fract_z
 _atom_site_occupancy
  La  La0  1  0.66642199  0.66642198  0.00073404  1
  La  La1  1  0.33357799  0.33357799  0.99926607  1
  Ti  Ti2  1  0.53337299  0.87386398  0.37545506  1
  Ti  Ti3  1  0.21730800  0.53337299  0.37545504  1
  Ti  Ti4  1  0.87386398  0.21730800  0.37545505  1
  Ti  Ti5  1  0.12613600  0.78269198  0.62454506  1
  Ti  Ti6  1  0.78269198  0.46662699  0.62454507  1
  Ti  Ti7  1  0.46662699  0.12613600  0.62454505  1
  Ge  Ge8  1  0.76135698  0.08522700  0.74270507  1
  Ge  Ge9  1  0.08522700  0.41071099  0.74270505  1
  Ge  Ge10  1  0.41071099  0.76135698  0.74270508  1
  Ge  Ge11  1  0.58928899  0.23864299  0.25729504  1
  Ge  Ge12  1  0.91477298  0.58928899  0.25729506  1
  Ge  Ge13  1  0.23864300  0.91477298  0.25729505  1
