# generated using pymatgen
data_AlTe
_symmetry_space_group_name_H-M   'P 1'
_cell_length_a   3.85936999
_cell_length_b   3.85936952
_cell_length_c   5.97241116
_cell_angle_alpha   90.00000000
_cell_angle_beta   90.00000000
_cell_angle_gamma   120.00000000
_symmetry_Int_Tables_number   1
_chemical_formula_structural   AlTe
_chemical_formula_sum   'Al2 Te2'
_cell_volume   77.03943832
_cell_formula_units_Z   2
loop_
 _symmetry_equiv_pos_site_id
 _symmetry_equiv_pos_as_xyz
  1  'x, y, z'
loop_
 _atom_site_type_symbol
 _atom_site_label
 _atom_site_symmetry_multiplicity
 _atom_site_fract_x
 _atom_site_fract_y
 _atom_site_fract_z
 _atom_site_occupancy
  Te  Te0  1  0.00000000  0.00000000  0.00000000  1
  Te  Te1  1  0.00000000  0.00000000  0.49999999  1
  Al  Al2  1  0.66666664  0.33333333  0.74999998  1
  Al  Al3  1  0.33333329  0.66666666  0.24999999  1
