# generated using pymatgen
data_NaMgMn6O12
_symmetry_space_group_name_H-M   'P 1'
_cell_length_a   6.55915499
_cell_length_b   6.55915499
_cell_length_c   6.55915499
_cell_angle_alpha   109.47122192
_cell_angle_beta   109.47122192
_cell_angle_gamma   109.47122192
_symmetry_Int_Tables_number   1
_chemical_formula_structural   NaMgMn6O12
_chemical_formula_sum   'Na1 Mg1 Mn6 O12'
_cell_volume   217.23098309
_cell_formula_units_Z   1
loop_
 _symmetry_equiv_pos_site_id
 _symmetry_equiv_pos_as_xyz
  1  'x, y, z'
loop_
 _atom_site_type_symbol
 _atom_site_label
 _atom_site_symmetry_multiplicity
 _atom_site_fract_x
 _atom_site_fract_y
 _atom_site_fract_z
 _atom_site_occupancy
  Na  Na0  1  0.00000000  0.00000000  0.00000000  1
  Mn  Mn1  1  0.50000005  0.50000003  1.00000007  1
  Mn  Mn2  1  0.50000008  1.00000007  0.50000008  1
  Mg  Mg3  1  1.00000007  0.50000003  0.50000006  1
  Mn  Mn4  1  0.50000005  0.50000003  0.50000005  1
  Mn  Mn5  1  0.00000000  0.00000000  0.50000001  1
  Mn  Mn6  1  1.00000007  0.50000003  0.00000005  1
  Mn  Mn7  1  0.50000008  1.00000007  1.00000009  1
  O  O8  1  0.18839003  0.29637502  0.48476603  1
  O  O9  1  0.81161007  0.70362405  0.51523407  1
  O  O10  1  0.18839005  0.70362405  0.89201407  1
  O  O11  1  0.81161005  0.29637602  0.10798604  1
  O  O12  1  0.70362406  0.51523403  0.81160907  1
  O  O13  1  0.29637604  0.48476603  0.18839004  1
  O  O14  1  0.29637602  0.10798601  0.81161003  1
  O  O15  1  0.70362408  0.89201406  0.18839007  1
  O  O16  1  0.89201504  0.18839101  0.70362505  1
  O  O17  1  0.10798606  0.81161005  0.29637606  1
  O  O18  1  0.48476603  0.18839001  0.29637603  1
  O  O19  1  0.51523407  0.81161005  0.70362408  1
