# generated using pymatgen
data_Pm3Cd
_symmetry_space_group_name_H-M   'P 1'
_cell_length_a   5.67500591
_cell_length_b   7.29524183
_cell_length_c   7.29524231
_cell_angle_alpha   60.00000000
_cell_angle_beta   90.00000000
_cell_angle_gamma   90.00000000
_symmetry_Int_Tables_number   1
_chemical_formula_structural   Pm3Cd
_chemical_formula_sum   'Pm6 Cd2'
_cell_volume   261.56303294
_cell_formula_units_Z   2
loop_
 _symmetry_equiv_pos_site_id
 _symmetry_equiv_pos_as_xyz
  1  'x, y, z'
loop_
 _atom_site_type_symbol
 _atom_site_label
 _atom_site_symmetry_multiplicity
 _atom_site_fract_x
 _atom_site_fract_y
 _atom_site_fract_z
 _atom_site_occupancy
  Pm  Pm0  1  0.75000001  0.64797802  0.17601099  1
  Pm  Pm1  1  0.75000001  0.17601100  0.17601099  1
  Pm  Pm2  1  0.75000001  0.17601100  0.64797798  1
  Pm  Pm3  1  0.25000000  0.35202201  0.82398897  1
  Pm  Pm4  1  0.25000000  0.82398902  0.82398897  1
  Pm  Pm5  1  0.25000000  0.82398902  0.35202198  1
  Cd  Cd6  1  0.25000000  0.33333334  0.33333332  1
  Cd  Cd7  1  0.75000001  0.66666668  0.66666664  1
