# generated using pymatgen
data_Sc7P9
_symmetry_space_group_name_H-M   'P 1'
_cell_length_a   4.97038507
_cell_length_b   5.59387207
_cell_length_c   9.06941795
_cell_angle_alpha   94.78717804
_cell_angle_beta   90.00000000
_cell_angle_gamma   90.00000000
_symmetry_Int_Tables_number   1
_chemical_formula_structural   Sc7P9
_chemical_formula_sum   'Sc7 P9'
_cell_volume   251.28370335
_cell_formula_units_Z   1
loop_
 _symmetry_equiv_pos_site_id
 _symmetry_equiv_pos_as_xyz
  1  'x, y, z'
loop_
 _atom_site_type_symbol
 _atom_site_label
 _atom_site_symmetry_multiplicity
 _atom_site_fract_x
 _atom_site_fract_y
 _atom_site_fract_z
 _atom_site_occupancy
  Sc  Sc0  1  0.61175299  0.88770799  0.67070000  1
  Sc  Sc1  1  0.11175300  0.61229199  0.82930001  1
  Sc  Sc2  1  0.38824699  0.11229200  0.32930001  1
  Sc  Sc3  1  0.88824699  0.38770799  0.17070000  1
  Sc  Sc4  1  0.34168399  0.19598200  0.97021402  1
  Sc  Sc5  1  0.84168399  0.30401800  0.52978601  1
  P  P6  1  0.65831599  0.80401799  0.02978599  1
  Sc  Sc7  1  0.15831600  0.69598199  0.47021400  1
  P  P8  1  0.10509600  0.02372900  0.70708401  1
  P  P9  1  0.60509599  0.47627099  0.79291601  1
  P  P10  1  0.89490399  0.97627099  0.29291600  1
  P  P11  1  0.39490399  0.52372899  0.20708400  1
  P  P12  1  0.84397299  0.19144000  0.88825802  1
  P  P13  1  0.34397299  0.30856000  0.61174201  1
  P  P14  1  0.15602700  0.80855999  0.11174199  1
  P  P15  1  0.65602699  0.69143999  0.38825800  1
