# generated using pymatgen
data_Er5(ScS4)3
_symmetry_space_group_name_H-M   'P 1'
_cell_length_a   3.78360105
_cell_length_b   6.92643595
_cell_length_c   14.43527412
_cell_angle_alpha   90.00000000
_cell_angle_beta   90.00000000
_cell_angle_gamma   90.00000000
_symmetry_Int_Tables_number   1
_chemical_formula_structural   Er5(ScS4)3
_chemical_formula_sum   'Er5 Sc3 S12'
_cell_volume   378.30335662
_cell_formula_units_Z   1
loop_
 _symmetry_equiv_pos_site_id
 _symmetry_equiv_pos_as_xyz
  1  'x, y, z'
loop_
 _atom_site_type_symbol
 _atom_site_label
 _atom_site_symmetry_multiplicity
 _atom_site_fract_x
 _atom_site_fract_y
 _atom_site_fract_z
 _atom_site_occupancy
  S  S0  1  0.74999999  0.63419600  0.56779700  1
  S  S1  1  0.25000000  0.36580400  0.43220300  1
  S  S2  1  0.74999999  0.13419600  0.93220299  1
  S  S3  1  0.25000000  0.86580401  0.06779700  1
  S  S4  1  0.25000000  0.16368100  0.22241500  1
  S  S5  1  0.74999999  0.83631901  0.77758499  1
  S  S6  1  0.25000000  0.66368101  0.27758500  1
  S  S7  1  0.74999999  0.33631900  0.72241499  1
  S  S8  1  0.25000000  0.00767300  0.60420599  1
  S  S9  1  0.74999999  0.99232701  0.39579400  1
  S  S10  1  0.25000000  0.50767300  0.89579399  1
  S  S11  1  0.74999999  0.49232700  0.10420600  1
  Er  Er12  1  0.25000000  0.25898400  0.04177800  1
  Er  Er13  1  0.74999999  0.74101601  0.95822199  1
  Sc  Sc14  1  0.25000000  0.75898401  0.45822200  1
  Sc  Sc15  1  0.74999999  0.24101600  0.54177800  1
  Er  Er16  1  0.25000000  0.12811300  0.79534799  1
  Er  Er17  1  0.74999999  0.87188701  0.20465200  1
  Sc  Sc18  1  0.25000000  0.62811300  0.70465199  1
  Er  Er19  1  0.74999999  0.37188700  0.29534800  1
