# generated using pymatgen
data_Zr5Zn7
_symmetry_space_group_name_H-M   'P 1'
_cell_length_a   5.38689089
_cell_length_b   5.38660526
_cell_length_c   8.49567509
_cell_angle_alpha   90.00000000
_cell_angle_beta   90.00000000
_cell_angle_gamma   119.12126923
_symmetry_Int_Tables_number   1
_chemical_formula_structural   Zr5Zn7
_chemical_formula_sum   'Zr5 Zn7'
_cell_volume   215.35734441
_cell_formula_units_Z   1
loop_
 _symmetry_equiv_pos_site_id
 _symmetry_equiv_pos_as_xyz
  1  'x, y, z'
loop_
 _atom_site_type_symbol
 _atom_site_label
 _atom_site_symmetry_multiplicity
 _atom_site_fract_x
 _atom_site_fract_y
 _atom_site_fract_z
 _atom_site_occupancy
  Zr  Zr0  1  0.33372098  0.66640200  0.54795699  1
  Zr  Zr1  1  0.67032099  0.32960500  0.42504400  1
  Zr  Zr2  1  0.67032099  0.32960500  0.07495600  1
  Zr  Zr3  1  0.33372098  0.66640200  0.95204299  1
  Zn  Zn4  1  0.99586601  0.00396900  0.47864100  1
  Zr  Zr5  1  0.99586601  0.00396900  0.02135900  1
  Zn  Zn6  1  0.33846500  0.16559300  0.74999999  1
  Zn  Zn7  1  0.83442299  0.66158200  0.74999999  1
  Zn  Zn8  1  0.83341000  0.16647500  0.74999999  1
  Zn  Zn9  1  0.64873098  0.82704000  0.25000000  1
  Zn  Zn10  1  0.17301799  0.35163500  0.25000000  1
  Zn  Zn11  1  0.17213698  0.82772300  0.25000000  1
