# generated using pymatgen
data_KNaSb2TeS3
_symmetry_space_group_name_H-M   'P 1'
_cell_length_a   5.47153187
_cell_length_b   6.46610260
_cell_length_c   8.35440922
_cell_angle_alpha   109.38595581
_cell_angle_beta   90.00000000
_cell_angle_gamma   115.03005219
_symmetry_Int_Tables_number   1
_chemical_formula_structural   KNaSb2TeS3
_chemical_formula_sum   'K1 Na1 Sb2 Te1 S3'
_cell_volume   249.19846587
_cell_formula_units_Z   1
loop_
 _symmetry_equiv_pos_site_id
 _symmetry_equiv_pos_as_xyz
  1  'x, y, z'
loop_
 _atom_site_type_symbol
 _atom_site_label
 _atom_site_symmetry_multiplicity
 _atom_site_fract_x
 _atom_site_fract_y
 _atom_site_fract_z
 _atom_site_occupancy
  K  K0  1  0.03290502  0.20514800  0.75208200  1
  Te  Te1  1  0.82775709  0.79485202  0.24791803  1
  Sb  Sb2  1  0.29830907  0.72758901  0.47861502  1
  S  S3  1  0.57072004  0.27241101  0.52138500  1
  S  S4  1  0.13752103  0.32379901  0.19115201  1
  Na  Na5  1  0.81372208  0.67620101  0.80884801  1
  S  S6  1  0.29074608  0.80042602  0.79647902  1
  Sb  Sb7  1  0.49032003  0.19957400  0.20352100  1
