# generated using pymatgen
data_Mg10Ga
_symmetry_space_group_name_H-M   'P 1'
_cell_length_a   4.68214989
_cell_length_b   4.68214989
_cell_length_c   12.27621555
_cell_angle_alpha   90.00000000
_cell_angle_beta   90.00000000
_cell_angle_gamma   90.00000000
_symmetry_Int_Tables_number   1
_chemical_formula_structural   Mg10Ga
_chemical_formula_sum   'Mg10 Ga1'
_cell_volume   269.12567386
_cell_formula_units_Z   1
loop_
 _symmetry_equiv_pos_site_id
 _symmetry_equiv_pos_as_xyz
  1  'x, y, z'
loop_
 _atom_site_type_symbol
 _atom_site_label
 _atom_site_symmetry_multiplicity
 _atom_site_fract_x
 _atom_site_fract_y
 _atom_site_fract_z
 _atom_site_occupancy
  Mg  Mg0  1  0.00000000  0.00000000  0.69536703  1
  Mg  Mg1  1  0.00000000  0.00000000  0.30463301  1
  Mg  Mg2  1  0.50000001  0.00000000  0.88338403  1
  Mg  Mg3  1  0.00000000  0.50000001  0.88338403  1
  Mg  Mg4  1  0.50000001  0.00000000  0.11661600  1
  Mg  Mg5  1  0.00000000  0.50000001  0.11661600  1
  Mg  Mg6  1  0.50000001  0.00000000  0.50000002  1
  Mg  Mg7  1  0.00000000  0.50000001  0.50000002  1
  Mg  Mg8  1  0.50000001  0.50000001  0.69541603  1
  Mg  Mg9  1  0.50000001  0.50000001  0.30458401  1
  Ga  Ga10  1  0.00000000  0.00000000  0.00000000  1
