# generated using pymatgen
data_Cu2Se5
_symmetry_space_group_name_H-M   'P 1'
_cell_length_a   3.70956707
_cell_length_b   6.23703814
_cell_length_c   6.77837706
_cell_angle_alpha   89.66788483
_cell_angle_beta   90.00000000
_cell_angle_gamma   90.00000000
_symmetry_Int_Tables_number   1
_chemical_formula_structural   Cu2Se5
_chemical_formula_sum   'Cu2 Se5'
_cell_volume   156.82671822
_cell_formula_units_Z   1
loop_
 _symmetry_equiv_pos_site_id
 _symmetry_equiv_pos_as_xyz
  1  'x, y, z'
loop_
 _atom_site_type_symbol
 _atom_site_label
 _atom_site_symmetry_multiplicity
 _atom_site_fract_x
 _atom_site_fract_y
 _atom_site_fract_z
 _atom_site_occupancy
  Se  Se0  1  0.00000000  0.36701699  0.34749001  1
  Se  Se1  1  0.49999999  0.90160298  0.14879804  1
  Se  Se2  1  0.49999999  0.35435599  0.83127299  1
  Se  Se3  1  0.00000000  0.98344698  0.34369704  1
  Cu  Cu4  1  0.00000000  0.50783099  0.67540701  1
  Cu  Cu5  1  0.49999999  0.51296299  0.15308702  1
  Se  Se6  1  0.49999999  0.99778298  0.83424902  1
