# generated using pymatgen
data_Ba2ScC4O13
_symmetry_space_group_name_H-M   'P 1'
_cell_length_a   5.09396267
_cell_length_b   5.09396267
_cell_length_c   11.58602715
_cell_angle_alpha   77.30081940
_cell_angle_beta   77.30081940
_cell_angle_gamma   59.99998856
_symmetry_Int_Tables_number   1
_chemical_formula_structural   Ba2ScC4O13
_chemical_formula_sum   'Ba2 Sc1 C4 O13'
_cell_volume   251.83357662
_cell_formula_units_Z   1
loop_
 _symmetry_equiv_pos_site_id
 _symmetry_equiv_pos_as_xyz
  1  'x, y, z'
loop_
 _atom_site_type_symbol
 _atom_site_label
 _atom_site_symmetry_multiplicity
 _atom_site_fract_x
 _atom_site_fract_y
 _atom_site_fract_z
 _atom_site_occupancy
  Ba  Ba0  1  0.25000000  0.25000001  0.25000002  1
  Ba  Ba1  1  0.74999999  0.75000002  0.75000005  1
  Sc  Sc2  1  0.49999999  0.50000002  0.50000003  1
  O  O3  1  0.00000000  0.00000000  0.00000000  1
  C  C4  1  0.36999499  0.36999501  0.89001503  1
  C  C5  1  0.86999498  0.86999503  0.39001504  1
  C  C6  1  0.63000499  0.63000502  0.10998503  1
  C  C7  1  0.13000500  0.13000500  0.60998502  1
  O  O8  1  0.66334900  0.25399401  0.88682704  1
  O  O9  1  0.25399400  0.19583001  0.88682703  1
  O  O10  1  0.19582998  0.66334902  0.88682704  1
  O  O11  1  0.16334898  0.69583002  0.38682703  1
  O  O12  1  0.69582998  0.75399402  0.38682704  1
  O  O13  1  0.75399401  0.16334901  0.38682703  1
  O  O14  1  0.33665098  0.74600602  0.11317302  1
  O  O15  1  0.74600598  0.80417003  0.11317303  1
  O  O16  1  0.80417000  0.33665101  0.11317303  1
  O  O17  1  0.83665100  0.30417001  0.61317304  1
  O  O18  1  0.30417000  0.24600601  0.61317302  1
  O  O19  1  0.24600597  0.83665103  0.61317304  1
