# generated using pymatgen
data_V7O11
_symmetry_space_group_name_H-M   'P 1'
_cell_length_a   4.89873123
_cell_length_b   5.56348991
_cell_length_c   8.69563770
_cell_angle_alpha   91.30547333
_cell_angle_beta   106.29306030
_cell_angle_gamma   90.37934875
_symmetry_Int_Tables_number   1
_chemical_formula_structural   V7O11
_chemical_formula_sum   'V7 O11'
_cell_volume   227.39357909
_cell_formula_units_Z   1
loop_
 _symmetry_equiv_pos_site_id
 _symmetry_equiv_pos_as_xyz
  1  'x, y, z'
loop_
 _atom_site_type_symbol
 _atom_site_label
 _atom_site_symmetry_multiplicity
 _atom_site_fract_x
 _atom_site_fract_y
 _atom_site_fract_z
 _atom_site_occupancy
  V  V0  1  0.58535897  0.82194900  0.65100301  1
  V  V1  1  0.41464098  0.17805100  0.34899701  1
  V  V2  1  0.93795095  0.67517900  0.34668101  1
  V  V3  1  0.06204899  0.32482100  0.65331901  1
  V  V4  1  0.30065598  0.74258800  0.99986701  1
  V  V5  1  0.69934397  0.25741200  0.00013301  1
  V  V6  1  0.09217299  0.92953200  0.27745700  1
  O  O7  1  0.82094396  0.56350500  0.72546902  1
  O  O8  1  0.90782696  0.07046800  0.72254302  1
  O  O9  1  0.17905599  0.43649500  0.27453100  1
  O  O10  1  0.65563796  0.84698800  0.43682301  1
  O  O11  1  0.21969398  0.65525400  0.56086801  1
  O  O12  1  0.34436198  0.15301200  0.56317701  1
  O  O13  1  0.78030596  0.34474600  0.43913201  1
  O  O14  1  0.65460397  0.58395100  0.13699701  1
  O  O15  1  0.51828897  0.91348200  0.86386701  1
  O  O16  1  0.34539598  0.41604900  0.86300301  1
  O  O17  1  0.48171098  0.08651800  0.13613301  1
