# generated using pymatgen
data_Li2Sc4Si5Ir
_symmetry_space_group_name_H-M   'P 1'
_cell_length_a   4.14507818
_cell_length_b   6.82455111
_cell_length_c   7.10463095
_cell_angle_alpha   90.00000000
_cell_angle_beta   90.00000000
_cell_angle_gamma   90.00000000
_symmetry_Int_Tables_number   1
_chemical_formula_structural   Li2Sc4Si5Ir
_chemical_formula_sum   'Li2 Sc4 Si5 Ir1'
_cell_volume   200.97791664
_cell_formula_units_Z   1
loop_
 _symmetry_equiv_pos_site_id
 _symmetry_equiv_pos_as_xyz
  1  'x, y, z'
loop_
 _atom_site_type_symbol
 _atom_site_label
 _atom_site_symmetry_multiplicity
 _atom_site_fract_x
 _atom_site_fract_y
 _atom_site_fract_z
 _atom_site_occupancy
  Sc  Sc0  1  0.74999997  0.01033800  0.30682000  1
  Sc  Sc1  1  0.24999999  0.98966198  0.69318001  1
  Sc  Sc2  1  0.24999999  0.48966199  0.80682001  1
  Sc  Sc3  1  0.74999997  0.51033799  0.19318000  1
  Li  Li4  1  0.74999997  0.84986699  0.93277901  1
  Si  Si5  1  0.24999999  0.15013300  0.06722100  1
  Ir  Ir6  1  0.24999999  0.65013299  0.43277900  1
  Si  Si7  1  0.74999997  0.34986699  0.56722100  1
  Si  Si8  1  0.74999997  0.69579399  0.59851800  1
  Si  Si9  1  0.24999999  0.30420600  0.40148200  1
  Si  Si10  1  0.24999999  0.80420599  0.09851800  1
  Li  Li11  1  0.74999997  0.19579400  0.90148201  1
