# generated using pymatgen
data_Na5W2O7
_symmetry_space_group_name_H-M   'P 1'
_cell_length_a   7.67412663
_cell_length_b   7.67412663
_cell_length_c   7.67412663
_cell_angle_alpha   60.00000000
_cell_angle_beta   60.00000000
_cell_angle_gamma   60.00000000
_symmetry_Int_Tables_number   1
_chemical_formula_structural   Na5W2O7
_chemical_formula_sum   'Na5 W2 O7'
_cell_volume   319.57432836
_cell_formula_units_Z   1
loop_
 _symmetry_equiv_pos_site_id
 _symmetry_equiv_pos_as_xyz
  1  'x, y, z'
loop_
 _atom_site_type_symbol
 _atom_site_label
 _atom_site_symmetry_multiplicity
 _atom_site_fract_x
 _atom_site_fract_y
 _atom_site_fract_z
 _atom_site_occupancy
  Na  Na0  1  0.13684100  0.62105300  0.62105300  1
  Na  Na1  1  0.62105200  0.62105300  0.62105300  1
  Na  Na2  1  0.62105200  0.62105300  0.13684200  1
  Na  Na3  1  0.62105200  0.13684200  0.62105300  1
  W  W4  1  0.00000000  0.00000000  0.00000000  1
  Na  Na5  1  0.25000000  0.25000000  0.25000000  1
  O  O6  1  0.42097800  0.85967400  0.85967400  1
  W  W7  1  0.85967300  0.85967400  0.85967400  1
  O  O8  1  0.85967300  0.85967400  0.42097900  1
  O  O9  1  0.85967300  0.42097900  0.85967400  1
  O  O10  1  0.83087300  0.38970900  0.38970900  1
  O  O11  1  0.38971000  0.38970900  0.38970900  1
  O  O12  1  0.38971000  0.38970900  0.83087200  1
  O  O13  1  0.38971000  0.83087200  0.38970900  1
