# generated using pymatgen
data_Sc2SiB4Ru3
_symmetry_space_group_name_H-M   'P 1'
_cell_length_a   3.17453289
_cell_length_b   5.45688391
_cell_length_c   6.84556341
_cell_angle_alpha   102.13880157
_cell_angle_beta   90.00000000
_cell_angle_gamma   90.00000000
_symmetry_Int_Tables_number   1
_chemical_formula_structural   Sc2SiB4Ru3
_chemical_formula_sum   'Sc2 Si1 B4 Ru3'
_cell_volume   115.93462846
_cell_formula_units_Z   1
loop_
 _symmetry_equiv_pos_site_id
 _symmetry_equiv_pos_as_xyz
  1  'x, y, z'
loop_
 _atom_site_type_symbol
 _atom_site_label
 _atom_site_symmetry_multiplicity
 _atom_site_fract_x
 _atom_site_fract_y
 _atom_site_fract_z
 _atom_site_occupancy
  Sc  Sc0  1  0.75000003  0.67626601  0.70935001  1
  Sc  Sc1  1  0.25000001  0.32373400  0.29065000  1
  Ru  Ru2  1  0.75000003  0.07957900  0.52431601  1
  Si  Si3  1  0.25000001  0.92042101  0.47568399  1
  B  B4  1  0.75000003  0.08762100  0.00433600  1
  B  B5  1  0.25000001  0.91237901  0.99566401  1
  B  B6  1  0.75000003  0.41637800  0.00636999  1
  B  B7  1  0.25000001  0.58362201  0.99363002  1
  Ru  Ru8  1  0.75000003  0.81209801  0.21983599  1
  Ru  Ru9  1  0.25000001  0.18790200  0.78016402  1
