# generated using pymatgen
data_K3YHfScF9
_symmetry_space_group_name_H-M   'P 1'
_cell_length_a   5.73814392
_cell_length_b   5.83028698
_cell_length_c   7.05404663
_cell_angle_alpha   90.62720490
_cell_angle_beta   90.00000000
_cell_angle_gamma   119.47856903
_symmetry_Int_Tables_number   1
_chemical_formula_structural   K3YHfScF9
_chemical_formula_sum   'K3 Y1 Hf1 Sc1 F9'
_cell_volume   205.42533314
_cell_formula_units_Z   1
loop_
 _symmetry_equiv_pos_site_id
 _symmetry_equiv_pos_as_xyz
  1  'x, y, z'
loop_
 _atom_site_type_symbol
 _atom_site_label
 _atom_site_symmetry_multiplicity
 _atom_site_fract_x
 _atom_site_fract_y
 _atom_site_fract_z
 _atom_site_occupancy
  Y  Y0  1  0.98221609  0.96443200  0.50947699  1
  Hf  Hf1  1  0.65275103  0.30550200  0.17410300  1
  Sc  Sc2  1  0.31748205  0.63496400  0.84117300  1
  K  K3  1  0.33957706  0.67915400  0.31728899  1
  K  K4  1  0.00989200  0.01978400  0.00330600  1
  K  K5  1  0.67046004  0.34092000  0.67064200  1
  F  F6  1  0.78995005  0.57990000  0.35471100  1
  F  F7  1  0.45653208  0.91306400  0.01864899  1
  F  F8  1  0.13365802  0.26731600  0.70271000  1
  F  F9  1  0.95902704  0.41671800  0.02134999  1
  F  F10  1  0.62257906  0.74552500  0.69018500  1
  F  F11  1  0.30947301  0.08923200  0.34143500  1
  F  F12  1  0.45769104  0.41671800  0.02134999  1
  F  F13  1  0.12294606  0.74552500  0.69018500  1
  F  F14  1  0.77975902  0.08923200  0.34143500  1
