# generated using pymatgen
data_KGeTe3
_symmetry_space_group_name_H-M   'P 1'
_cell_length_a   5.31239986
_cell_length_b   5.31239986
_cell_length_c   19.71341515
_cell_angle_alpha   97.74362946
_cell_angle_beta   97.74362946
_cell_angle_gamma   90.00000000
_symmetry_Int_Tables_number   1
_chemical_formula_structural   KGeTe3
_chemical_formula_sum   'K3 Ge3 Te9'
_cell_volume   546.15011006
_cell_formula_units_Z   3
loop_
 _symmetry_equiv_pos_site_id
 _symmetry_equiv_pos_as_xyz
  1  'x, y, z'
loop_
 _atom_site_type_symbol
 _atom_site_label
 _atom_site_symmetry_multiplicity
 _atom_site_fract_x
 _atom_site_fract_y
 _atom_site_fract_z
 _atom_site_occupancy
  Te  Te0  1  0.00000000  0.50000001  0.00000000  1
  Te  Te1  1  0.50000001  0.00000000  0.00000000  1
  Te  Te2  1  0.08424700  0.08424700  0.16849400  1
  Te  Te3  1  0.66009502  0.66009502  0.32019002  1
  Te  Te4  1  0.25000001  0.75000002  0.50000002  1
  Te  Te5  1  0.75000002  0.25000001  0.50000002  1
  Te  Te6  1  0.33990501  0.33990501  0.67981002  1
  Te  Te7  1  0.91575303  0.91575303  0.83150603  1
  K  K8  1  0.56749302  0.56749302  0.13498601  1
  K  K9  1  0.17961601  0.17961601  0.35923201  1
  K  K10  1  0.82038403  0.82038402  0.64076802  1
  Te  Te11  1  0.43250702  0.43250701  0.86501402  1
  Ge  Ge12  1  0.72911903  0.72911902  0.45823802  1
  Ge  Ge13  1  0.27088101  0.27088101  0.54176201  1
  Ge  Ge14  1  0.00000000  0.00000000  0.00000000  1
