# generated using pymatgen
data_SbS4
_symmetry_space_group_name_H-M   'P 1'
_cell_length_a   7.30966139
_cell_length_b   7.30966139
_cell_length_c   7.92020893
_cell_angle_alpha   90.00000000
_cell_angle_beta   90.00000000
_cell_angle_gamma   117.46412659
_symmetry_Int_Tables_number   1
_chemical_formula_structural   SbS4
_chemical_formula_sum   'Sb4 S16'
_cell_volume   375.49272127
_cell_formula_units_Z   4
loop_
 _symmetry_equiv_pos_site_id
 _symmetry_equiv_pos_as_xyz
  1  'x, y, z'
loop_
 _atom_site_type_symbol
 _atom_site_label
 _atom_site_symmetry_multiplicity
 _atom_site_fract_x
 _atom_site_fract_y
 _atom_site_fract_z
 _atom_site_occupancy
  S  S0  1  0.24337600  0.12070600  0.69296701  1
  S  S1  1  0.12070600  0.24337600  0.19296700  1
  S  S2  1  0.41481500  0.15632800  0.98330201  1
  S  S3  1  0.15632800  0.41481500  0.48330200  1
  S  S4  1  0.14116999  0.85883001  0.30197500  1
  S  S5  1  0.85883001  0.14117000  0.80197501  1
  Sb  Sb6  1  0.58518500  0.84367201  0.48330200  1
  S  S7  1  0.84367200  0.58518501  0.98330201  1
  S  S8  1  0.75662400  0.87929401  0.19296700  1
  S  S9  1  0.87929400  0.75662401  0.69296701  1
  S  S10  1  0.33396599  0.66603401  0.90516801  1
  S  S11  1  0.66603401  0.33396600  0.40516800  1
  S  S12  1  0.50334001  0.01588300  0.23351900  1
  Sb  Sb13  1  0.01588299  0.50334000  0.73351901  1
  S  S14  1  0.02166298  0.97833701  0.97006301  1
  S  S15  1  0.97833702  0.02166300  0.47006300  1
  Sb  Sb16  1  0.48104000  0.51896000  0.28751500  1
  Sb  Sb17  1  0.51896000  0.48104000  0.78751501  1
  S  S18  1  0.49665999  0.98411701  0.73351901  1
  S  S19  1  0.98411701  0.49666000  0.23351900  1
