# generated using pymatgen
data_NaNbO3
_symmetry_space_group_name_H-M   'P 1'
_cell_length_a   5.47517061
_cell_length_b   5.47517061
_cell_length_c   6.97041321
_cell_angle_alpha   66.87467194
_cell_angle_beta   66.87467194
_cell_angle_gamma   59.99999619
_symmetry_Int_Tables_number   1
_chemical_formula_structural   NaNbO3
_chemical_formula_sum   'Na2 Nb2 O6'
_cell_volume   161.28230453
_cell_formula_units_Z   2
loop_
 _symmetry_equiv_pos_site_id
 _symmetry_equiv_pos_as_xyz
  1  'x, y, z'
loop_
 _atom_site_type_symbol
 _atom_site_label
 _atom_site_symmetry_multiplicity
 _atom_site_fract_x
 _atom_site_fract_y
 _atom_site_fract_z
 _atom_site_occupancy
  Na  Na0  1  0.63891599  0.63891597  0.08325203  1
  Na  Na1  1  0.36108399  0.36108398  0.91674801  1
  Nb  Nb2  1  0.83575698  0.83575696  0.49272904  1
  Nb  Nb3  1  0.16424300  0.16424299  0.50727101  1
  O  O4  1  0.03492801  0.83554396  0.68688002  1
  O  O5  1  0.83554397  0.44264798  0.68688003  1
  O  O6  1  0.44264798  0.03492800  0.68688001  1
  O  O7  1  0.96507196  0.16445599  0.31312003  1
  O  O8  1  0.16445600  0.55735197  0.31312002  1
  O  O9  1  0.55735200  0.96507195  0.31312004  1
