# generated using pymatgen
data_NaEuZr2O6
_symmetry_space_group_name_H-M   'P 1'
_cell_length_a   5.69426012
_cell_length_b   5.84500599
_cell_length_c   8.33495331
_cell_angle_alpha   90.00000000
_cell_angle_beta   90.00000000
_cell_angle_gamma   90.00000000
_symmetry_Int_Tables_number   1
_chemical_formula_structural   NaEuZr2O6
_chemical_formula_sum   'Na2 Eu2 Zr4 O12'
_cell_volume   277.41212182
_cell_formula_units_Z   2
loop_
 _symmetry_equiv_pos_site_id
 _symmetry_equiv_pos_as_xyz
  1  'x, y, z'
loop_
 _atom_site_type_symbol
 _atom_site_label
 _atom_site_symmetry_multiplicity
 _atom_site_fract_x
 _atom_site_fract_y
 _atom_site_fract_z
 _atom_site_occupancy
  Na  Na0  1  0.48665199  0.54649500  0.24999999  1
  Na  Na1  1  0.01334800  0.04649500  0.24999999  1
  Eu  Eu2  1  0.51334799  0.45350500  0.74999997  1
  Eu  Eu3  1  0.98665198  0.95350500  0.74999997  1
  Zr  Zr4  1  0.49999999  0.00000000  -0.00000000  1
  Zr  Zr5  1  0.00000000  0.50000000  0.49999998  1
  Zr  Zr6  1  0.49999999  0.00000000  0.49999998  1
  Zr  Zr7  1  0.00000000  0.50000000  -0.00000000  1
  O  O8  1  0.40605599  0.95519600  0.24999999  1
  O  O9  1  0.09394400  0.45519600  0.24999999  1
  O  O10  1  0.59394399  0.04480400  0.74999997  1
  O  O11  1  0.90605598  0.54480400  0.74999997  1
  O  O12  1  0.82570298  0.82317600  0.04494100  1
  O  O13  1  0.67429699  0.32317600  0.45505898  1
  O  O14  1  0.17429700  0.17682400  0.54494098  1
  O  O15  1  0.32570299  0.67682400  0.95505896  1
  O  O16  1  0.17429700  0.17682400  0.95505896  1
  O  O17  1  0.32570299  0.67682400  0.54494098  1
  O  O18  1  0.82570298  0.82317600  0.45505898  1
  O  O19  1  0.67429699  0.32317600  0.04494100  1
