# generated using pymatgen
data_RbCuSe2
_symmetry_space_group_name_H-M   'P 1'
_cell_length_a   4.15872192
_cell_length_b   4.15872192
_cell_length_c   7.77363920
_cell_angle_alpha   105.51488495
_cell_angle_beta   105.51488495
_cell_angle_gamma   90.00000000
_symmetry_Int_Tables_number   1
_chemical_formula_structural   RbCuSe2
_chemical_formula_sum   'Rb1 Cu1 Se2'
_cell_volume   124.45407138
_cell_formula_units_Z   1
loop_
 _symmetry_equiv_pos_site_id
 _symmetry_equiv_pos_as_xyz
  1  'x, y, z'
loop_
 _atom_site_type_symbol
 _atom_site_label
 _atom_site_symmetry_multiplicity
 _atom_site_fract_x
 _atom_site_fract_y
 _atom_site_fract_z
 _atom_site_occupancy
  Rb  Rb0  1  0.00000000  0.00000000  0.00000000  1
  Cu  Cu1  1  0.24999999  0.75000001  0.49999999  1
  Se  Se2  1  0.33904000  0.33904000  0.67808000  1
  Se  Se3  1  0.66095999  0.66096001  0.32191998  1
