# generated using pymatgen
data_Rb2O3
_symmetry_space_group_name_H-M   'P 1'
_cell_length_a   8.19649220
_cell_length_b   8.19649220
_cell_length_c   8.19649220
_cell_angle_alpha   101.39627075
_cell_angle_beta   113.65341949
_cell_angle_gamma   113.65341949
_symmetry_Int_Tables_number   1
_chemical_formula_structural   Rb2O3
_chemical_formula_sum   'Rb8 O12'
_cell_volume   417.71084238
_cell_formula_units_Z   4
loop_
 _symmetry_equiv_pos_site_id
 _symmetry_equiv_pos_as_xyz
  1  'x, y, z'
loop_
 _atom_site_type_symbol
 _atom_site_label
 _atom_site_symmetry_multiplicity
 _atom_site_fract_x
 _atom_site_fract_y
 _atom_site_fract_z
 _atom_site_occupancy
  Rb  Rb0  1  0.14850399  0.49485701  0.25066601  1
  Rb  Rb1  1  0.74419100  0.64783801  0.99933302  1
  Rb  Rb2  1  0.85149601  0.10216200  0.34635399  1
  Rb  Rb3  1  0.25580900  0.25514301  0.90364702  1
  Rb  Rb4  1  0.75580900  0.65364701  0.50514301  1
  Rb  Rb5  1  0.64850401  0.00066600  0.74485701  1
  Rb  Rb6  1  0.24419099  0.74933302  0.89783803  1
  Rb  Rb7  1  0.35149600  0.09635400  0.35216200  1
  O  O8  1  0.50000000  0.67964701  0.17964700  1
  O  O9  1  -0.00000000  0.07035300  0.07035300  1
  O  O10  1  0.49999999  0.82035302  0.32035301  1
  O  O11  1  -0.00000002  0.92964702  0.92964703  1
  O  O12  1  0.90218401  0.33705501  0.68973000  1
  O  O13  1  0.14732498  0.96245402  0.56027002  1
  O  O14  1  0.09781598  0.78754502  0.43487102  1
  O  O15  1  0.85267501  0.41294601  0.81512901  1
  O  O16  1  0.35267499  0.56512901  0.66294602  1
  O  O17  1  0.40218400  0.43973001  0.58705501  1
  O  O18  1  0.64732501  0.31027001  0.21245400  1
  O  O19  1  0.59781601  0.18487100  0.03754499  1
