# generated using pymatgen
data_MnTe3
_symmetry_space_group_name_H-M   'P 1'
_cell_length_a   6.43122816
_cell_length_b   6.43122816
_cell_length_c   7.81631994
_cell_angle_alpha   114.29264832
_cell_angle_beta   114.29264832
_cell_angle_gamma   90.00000000
_symmetry_Int_Tables_number   1
_chemical_formula_structural   MnTe3
_chemical_formula_sum   'Mn2 Te6'
_cell_volume   262.93991067
_cell_formula_units_Z   2
loop_
 _symmetry_equiv_pos_site_id
 _symmetry_equiv_pos_as_xyz
  1  'x, y, z'
loop_
 _atom_site_type_symbol
 _atom_site_label
 _atom_site_symmetry_multiplicity
 _atom_site_fract_x
 _atom_site_fract_y
 _atom_site_fract_z
 _atom_site_occupancy
  Te  Te0  1  0.74999997  0.24999999  0.49999999  1
  Te  Te1  1  0.00000000  0.00000000  0.00000000  1
  Te  Te2  1  0.24999997  0.74999997  0.49999999  1
  Te  Te3  1  0.49999997  0.49999998  -0.00000002  1
  Mn  Mn4  1  0.64841298  0.12500000  0.75000000  1
  Te  Te5  1  0.10158698  0.62499998  0.75000000  1
  Te  Te6  1  0.87499995  0.89841297  0.24999997  1
  Mn  Mn7  1  0.37499998  0.35158699  0.24999999  1
