# generated using pymatgen
data_Eu2In6Rh5
_symmetry_space_group_name_H-M   'P 1'
_cell_length_a   3.92860603
_cell_length_b   8.91470814
_cell_length_c   8.91470814
_cell_angle_alpha   87.21710968
_cell_angle_beta   77.27075958
_cell_angle_gamma   77.27075958
_symmetry_Int_Tables_number   1
_chemical_formula_structural   Eu2In6Rh5
_chemical_formula_sum   'Eu2 In6 Rh5'
_cell_volume   297.05579357
_cell_formula_units_Z   1
loop_
 _symmetry_equiv_pos_site_id
 _symmetry_equiv_pos_as_xyz
  1  'x, y, z'
loop_
 _atom_site_type_symbol
 _atom_site_label
 _atom_site_symmetry_multiplicity
 _atom_site_fract_x
 _atom_site_fract_y
 _atom_site_fract_z
 _atom_site_occupancy
  In  In0  1  0.39908003  0.68239702  0.51944402  1
  Rh  Rh1  1  0.08147703  0.51944401  0.31760201  1
  Rh  Rh2  1  0.91852302  0.48055601  0.68239803  1
  In  In3  1  0.60092001  0.31760301  0.48055602  1
  In  In4  1  0.87013504  0.91667402  0.34305601  1
  Eu  Eu5  1  0.78680901  0.34305601  0.08332601  1
  In  In6  1  0.12986500  0.08332600  0.65694402  1
  Eu  Eu7  1  0.49999999  0.00000000  1.00000004  1
  In  In8  1  0.21319104  0.65694402  0.91667403  1
  Rh  Rh9  1  0.56005803  0.68949302  0.19039101  1
  In  In10  1  0.43994201  0.31050701  0.80960903  1
  Rh  Rh11  1  0.75044904  0.80960902  0.68949302  1
  Rh  Rh12  1  0.24955101  0.19039101  0.31050701  1
