# generated using pymatgen
data_KNa2O3
_symmetry_space_group_name_H-M   'P 1'
_cell_length_a   4.60790110
_cell_length_b   5.57481050
_cell_length_c   9.57692528
_cell_angle_alpha   90.00000000
_cell_angle_beta   90.00000000
_cell_angle_gamma   108.93770599
_symmetry_Int_Tables_number   1
_chemical_formula_structural   KNa2O3
_chemical_formula_sum   'K2 Na4 O6'
_cell_volume   232.69750169
_cell_formula_units_Z   2
loop_
 _symmetry_equiv_pos_site_id
 _symmetry_equiv_pos_as_xyz
  1  'x, y, z'
loop_
 _atom_site_type_symbol
 _atom_site_label
 _atom_site_symmetry_multiplicity
 _atom_site_fract_x
 _atom_site_fract_y
 _atom_site_fract_z
 _atom_site_occupancy
  K  K0  1  0.40289899  0.09455700  0.74999998  1
  K  K1  1  0.59710094  0.90544299  0.24999999  1
  O  O2  1  0.23590497  0.55345199  0.74999998  1
  O  O3  1  0.76409496  0.44654799  0.24999999  1
  O  O4  1  0.13304097  0.48049299  0.09448900  1
  Na  Na5  1  0.86695895  0.51950699  0.59448898  1
  Na  Na6  1  0.86695895  0.51950699  0.90551097  1
  O  O7  1  0.13304097  0.48049299  0.40551099  1
  Na  Na8  1  0.20923799  0.11181100  0.05706500  1
  O  O9  1  0.79076194  0.88818899  0.55706498  1
  O  O10  1  0.79076194  0.88818899  0.94293497  1
  Na  Na11  1  0.20923799  0.11181100  0.44293499  1
