# generated using pymatgen
data_Li6Ta3O10F
_symmetry_space_group_name_H-M   'P 1'
_cell_length_a   5.26262093
_cell_length_b   5.57323027
_cell_length_c   7.65502691
_cell_angle_alpha   85.40663910
_cell_angle_beta   89.99990845
_cell_angle_gamma   89.98617554
_symmetry_Int_Tables_number   1
_chemical_formula_structural   Li6Ta3O10F
_chemical_formula_sum   'Li6 Ta3 O10 F1'
_cell_volume   223.79926569
_cell_formula_units_Z   1
loop_
 _symmetry_equiv_pos_site_id
 _symmetry_equiv_pos_as_xyz
  1  'x, y, z'
loop_
 _atom_site_type_symbol
 _atom_site_label
 _atom_site_symmetry_multiplicity
 _atom_site_fract_x
 _atom_site_fract_y
 _atom_site_fract_z
 _atom_site_occupancy
  Li  Li0  1  0.50281306  0.94111998  0.21988001  1
  Li  Li1  1  0.49527306  0.94654798  0.72290299  1
  Li  Li2  1  0.99866004  0.43665099  0.72082197  1
  Li  Li3  1  0.00266802  0.44167399  0.22129500  1
  Li  Li4  1  0.99927807  0.99308198  0.99724198  1
  Ta  Ta5  1  0.50052003  0.49443499  0.49709099  1
  Ta  Ta6  1  0.49946203  0.49726899  0.99834397  1
  Li  Li7  1  0.00097006  0.99321098  0.49808501  1
  O  O8  1  0.18343102  0.32998599  0.44180099  1
  O  O9  1  0.37014603  0.51149799  0.75718598  1
  O  O10  1  0.32638605  0.82266398  0.44314900  1
  Ta  Ta11  1  0.13061500  0.02040400  0.74361498  1
  O  O12  1  0.20682504  0.68065799  0.07412601  1
  O  O13  1  0.66468905  0.80751198  0.94210798  1
  O  O14  1  0.31913702  0.20426100  0.07178200  1
  F  F15  1  0.86893001  0.01273300  0.25436298  1
  O  O16  1  0.80457603  0.33080299  0.94022897  1
  O  O17  1  0.62900304  0.51113099  0.24552699  1
  O  O18  1  0.68537302  0.19456700  0.56997898  1
  O  O19  1  0.81124905  0.68739199  0.56927198  1
