# generated using pymatgen
data_Li5Ag2F12
_symmetry_space_group_name_H-M   'P 1'
_cell_length_a   7.10363865
_cell_length_b   7.10363865
_cell_length_c   7.14953375
_cell_angle_alpha   119.13426971
_cell_angle_beta   119.13426971
_cell_angle_gamma   91.14560699
_symmetry_Int_Tables_number   1
_chemical_formula_structural   Li5Ag2F12
_chemical_formula_sum   'Li5 Ag2 F12'
_cell_volume   259.17311690
_cell_formula_units_Z   1
loop_
 _symmetry_equiv_pos_site_id
 _symmetry_equiv_pos_as_xyz
  1  'x, y, z'
loop_
 _atom_site_type_symbol
 _atom_site_label
 _atom_site_symmetry_multiplicity
 _atom_site_fract_x
 _atom_site_fract_y
 _atom_site_fract_z
 _atom_site_occupancy
  Li  Li0  1  0.49964803  0.49964802  0.49548405  1
  Li  Li1  1  0.49873605  0.99873603  0.99747207  1
  Li  Li2  1  0.50025601  0.00264200  0.50289801  1
  Ag  Ag3  1  0.99583606  0.99583603  0.49548411  1
  Li  Li4  1  0.99873604  0.49873602  0.99747206  1
  Li  Li5  1  0.00264202  0.50025602  0.50289802  1
  Ag  Ag6  1  0.00102300  0.00102300  0.00204600  1
  F  F7  1  0.47266203  0.47266201  0.94532403  1
  F  F8  1  0.57545005  0.85664703  0.71866207  1
  F  F9  1  0.13610004  0.85222603  0.27808407  1
  F  F10  1  0.14321204  0.86201603  0.71866205  1
  F  F11  1  0.14198402  0.42585901  0.27808403  1
  F  F12  1  0.42585901  0.14198400  0.27808502  1
  F  F13  1  0.86201602  0.14321200  0.71866303  1
  F  F14  1  0.85222602  0.13610000  0.27808505  1
  F  F15  1  0.85664704  0.57545002  0.71866307  1
  F  F16  1  0.42404603  0.64143702  0.06548307  1
  F  F17  1  0.34888402  0.34888401  0.69776802  1
  F  F18  1  0.64143703  0.42404601  0.06548306  1
