# generated using pymatgen
data_Sr5Mn2Sb7
_symmetry_space_group_name_H-M   'P 1'
_cell_length_a   4.49221277
_cell_length_b   4.49221277
_cell_length_c   21.26251030
_cell_angle_alpha   90.00000000
_cell_angle_beta   90.00000000
_cell_angle_gamma   90.00000000
_symmetry_Int_Tables_number   1
_chemical_formula_structural   Sr5Mn2Sb7
_chemical_formula_sum   'Sr5 Mn2 Sb7'
_cell_volume   429.07693888
_cell_formula_units_Z   1
loop_
 _symmetry_equiv_pos_site_id
 _symmetry_equiv_pos_as_xyz
  1  'x, y, z'
loop_
 _atom_site_type_symbol
 _atom_site_label
 _atom_site_symmetry_multiplicity
 _atom_site_fract_x
 _atom_site_fract_y
 _atom_site_fract_z
 _atom_site_occupancy
  Sr  Sr0  1  0.00000000  0.50000003  0.13798300  1
  Sr  Sr1  1  0.50000003  0.00000000  0.86201703  1
  Sr  Sr2  1  0.00000000  0.50000003  0.60230902  1
  Sr  Sr3  1  0.50000003  0.00000000  0.39769101  1
  Mn  Mn4  1  0.00000000  0.00000000  0.00000000  1
  Mn  Mn5  1  0.50000003  0.50000003  -0.00000000  1
  Sb  Sb6  1  0.00000000  0.00000000  0.72209302  1
  Sb  Sb7  1  0.50000003  0.50000003  0.27790701  1
  Sb  Sb8  1  0.00000000  0.50000003  0.44181901  1
  Sb  Sb9  1  0.50000003  0.00000000  0.55818102  1
  Sr  Sr10  1  0.00000000  0.50000003  0.93001203  1
  Sb  Sb11  1  0.50000003  0.00000000  0.06998800  1
  Sb  Sb12  1  0.00000000  0.00000000  0.27790701  1
  Sb  Sb13  1  0.50000003  0.50000003  0.72209302  1
