# generated using pymatgen
data_Zr2VP4
_symmetry_space_group_name_H-M   'P 1'
_cell_length_a   3.68265009
_cell_length_b   3.70761395
_cell_length_c   16.62650490
_cell_angle_alpha   83.59837341
_cell_angle_beta   90.00000000
_cell_angle_gamma   90.00000000
_symmetry_Int_Tables_number   1
_chemical_formula_structural   Zr2VP4
_chemical_formula_sum   'Zr4 V2 P8'
_cell_volume   225.60021908
_cell_formula_units_Z   2
loop_
 _symmetry_equiv_pos_site_id
 _symmetry_equiv_pos_as_xyz
  1  'x, y, z'
loop_
 _atom_site_type_symbol
 _atom_site_label
 _atom_site_symmetry_multiplicity
 _atom_site_fract_x
 _atom_site_fract_y
 _atom_site_fract_z
 _atom_site_occupancy
  Zr  Zr0  1  0.24999999  0.67605901  0.64788197  1
  Zr  Zr1  1  0.74999998  0.32394101  0.35211798  1
  Zr  Zr2  1  0.24999999  0.95338002  0.09323999  1
  Zr  Zr3  1  0.74999998  0.04662000  0.90675996  1
  V  V4  1  0.24999999  0.25008101  0.49983798  1
  V  V5  1  0.74999998  0.74991902  0.50016197  1
  P  P6  1  0.24999999  0.52386701  0.95226596  1
  P  P7  1  0.74999998  0.47613301  0.04773399  1
  P  P8  1  0.24999999  0.38817401  0.22365199  1
  P  P9  1  0.74999998  0.61182601  0.77634796  1
  P  P10  1  0.24999999  0.11213700  0.77572597  1
  P  P11  1  0.74999998  0.88786302  0.22427398  1
  P  P12  1  0.24999999  0.79711202  0.40577598  1
  P  P13  1  0.74999998  0.20288800  0.59422398  1
