# generated using pymatgen
data_TmGaAu
_symmetry_space_group_name_H-M   'P 1'
_cell_length_a   4.49724197
_cell_length_b   4.49724197
_cell_length_c   7.23002100
_cell_angle_alpha   90.00000000
_cell_angle_beta   90.00000000
_cell_angle_gamma   120.00000000
_symmetry_Int_Tables_number   1
_chemical_formula_structural   TmGaAu
_chemical_formula_sum   'Tm2 Ga2 Au2'
_cell_volume   126.63760872
_cell_formula_units_Z   2
loop_
 _symmetry_equiv_pos_site_id
 _symmetry_equiv_pos_as_xyz
  1  'x, y, z'
loop_
 _atom_site_type_symbol
 _atom_site_label
 _atom_site_symmetry_multiplicity
 _atom_site_fract_x
 _atom_site_fract_y
 _atom_site_fract_z
 _atom_site_occupancy
  Tm  Tm0  1  0.00000000  0.00000000  0.50000000  1
  Tm  Tm1  1  0.00000000  0.00000000  0.00000000  1
  Au  Au2  1  0.66666668  0.33333335  0.75000000  1
  Au  Au3  1  0.33333335  0.66666670  0.25000000  1
  Ga  Ga4  1  0.66666668  0.33333335  0.25000000  1
  Ga  Ga5  1  0.33333335  0.66666670  0.75000000  1
