# generated using pymatgen
data_Te2W
_symmetry_space_group_name_H-M   'P 1'
_cell_length_a   3.49796605
_cell_length_b   3.49796557
_cell_length_c   39.67822266
_cell_angle_alpha   90.00000000
_cell_angle_beta   90.00000000
_cell_angle_gamma   120.00000000
_symmetry_Int_Tables_number   1
_chemical_formula_structural   Te2W
_chemical_formula_sum   'Te8 W4'
_cell_volume   420.44961878
_cell_formula_units_Z   4
loop_
 _symmetry_equiv_pos_site_id
 _symmetry_equiv_pos_as_xyz
  1  'x, y, z'
loop_
 _atom_site_type_symbol
 _atom_site_label
 _atom_site_symmetry_multiplicity
 _atom_site_fract_x
 _atom_site_fract_y
 _atom_site_fract_z
 _atom_site_occupancy
  Te  Te0  1  0.66666663  0.33333333  0.67203701  1
  Te  Te1  1  0.66666663  0.33333333  0.29601500  1
  Te  Te2  1  0.33333328  0.66666666  0.57679100  1
  Te  Te3  1  0.33333328  0.66666666  0.48388800  1
  Te  Te4  1  0.66666663  0.33333333  0.76438401  1
  Te  Te5  1  0.66666663  0.33333333  0.38892000  1
  W  W6  1  0.33333328  0.66666666  0.71822401  1
  W  W7  1  0.66666663  0.33333333  0.90608501  1
  W  W8  1  0.66666663  0.33333333  0.53034100  1
  W  W9  1  0.33333328  0.66666666  0.34245000  1
  Te  Te10  1  0.33333328  0.66666666  0.94697101  1
  Te  Te11  1  0.33333328  0.66666666  0.86514701  1
