# generated using pymatgen
data_VO2
_symmetry_space_group_name_H-M   'P 1'
_cell_length_a   2.93297577
_cell_length_b   7.35964823
_cell_length_c   7.41513491
_cell_angle_alpha   88.47769165
_cell_angle_beta   80.01835632
_cell_angle_gamma   81.12023926
_symmetry_Int_Tables_number   1
_chemical_formula_structural   VO2
_chemical_formula_sum   'V4 O8'
_cell_volume   155.74849124
_cell_formula_units_Z   4
loop_
 _symmetry_equiv_pos_site_id
 _symmetry_equiv_pos_as_xyz
  1  'x, y, z'
loop_
 _atom_site_type_symbol
 _atom_site_label
 _atom_site_symmetry_multiplicity
 _atom_site_fract_x
 _atom_site_fract_y
 _atom_site_fract_z
 _atom_site_occupancy
  V  V0  1  0.66709899  0.18113200  0.51857498  1
  V  V1  1  0.17361192  0.48147901  0.18052901  1
  V  V2  1  0.82700893  0.51854301  0.81953698  1
  V  V3  1  0.33241587  0.81892202  0.48143901  1
  O  O4  1  0.86998390  0.70377601  0.61949899  1
  O  O5  1  0.48139595  0.37898301  0.70629399  1
  O  O6  1  0.51876491  0.62103101  0.29368600  1
  O  O7  1  0.12978695  0.29611201  0.38042800  1
  O  O8  1  0.17600000  0.05388900  0.63366698  1
  O  O9  1  0.78518796  0.36583001  0.05383000  1
  O  O10  1  0.82346686  0.94615202  0.36641001  1
  O  O11  1  0.21527890  0.63415201  0.94611099  1
