# generated using pymatgen
data_Tm4Ga3Ni5
_symmetry_space_group_name_H-M   'P 1'
_cell_length_a   5.21580601
_cell_length_b   5.21580648
_cell_length_c   8.56031418
_cell_angle_alpha   90.00000000
_cell_angle_beta   90.00000000
_cell_angle_gamma   120.00000000
_symmetry_Int_Tables_number   1
_chemical_formula_structural   Tm4Ga3Ni5
_chemical_formula_sum   'Tm4 Ga3 Ni5'
_cell_volume   201.68018738
_cell_formula_units_Z   1
loop_
 _symmetry_equiv_pos_site_id
 _symmetry_equiv_pos_as_xyz
  1  'x, y, z'
loop_
 _atom_site_type_symbol
 _atom_site_label
 _atom_site_symmetry_multiplicity
 _atom_site_fract_x
 _atom_site_fract_y
 _atom_site_fract_z
 _atom_site_occupancy
  Tm  Tm0  1  0.66666668  0.33333334  0.56624899  1
  Tm  Tm1  1  0.33333337  0.66666668  0.43375099  1
  Tm  Tm2  1  0.33333337  0.66666668  0.06624900  1
  Tm  Tm3  1  0.66666668  0.33333334  0.93375098  1
  Ga  Ga4  1  0.00000000  0.00000000  0.49999999  1
  Ni  Ni5  1  0.00000000  0.00000000  0.00000000  1
  Ga  Ga6  1  0.17287402  0.34574801  0.74999998  1
  Ni  Ni7  1  0.17287405  0.82712602  0.74999998  1
  Ni  Ni8  1  0.65425205  0.82712602  0.74999998  1
  Ni  Ni9  1  0.82712604  0.65425201  0.24999999  1
  Ni  Ni10  1  0.82712601  0.17287400  0.24999999  1
  Ga  Ga11  1  0.34574801  0.17287400  0.24999999  1
