# generated using pymatgen
data_Zr4Ga7Co
_symmetry_space_group_name_H-M   'P 1'
_cell_length_a   5.21247816
_cell_length_b   5.21247768
_cell_length_c   8.45304012
_cell_angle_alpha   90.00000000
_cell_angle_beta   90.00000000
_cell_angle_gamma   120.00000000
_symmetry_Int_Tables_number   1
_chemical_formula_structural   Zr4Ga7Co
_chemical_formula_sum   'Zr4 Ga7 Co1'
_cell_volume   198.89873414
_cell_formula_units_Z   1
loop_
 _symmetry_equiv_pos_site_id
 _symmetry_equiv_pos_as_xyz
  1  'x, y, z'
loop_
 _atom_site_type_symbol
 _atom_site_label
 _atom_site_symmetry_multiplicity
 _atom_site_fract_x
 _atom_site_fract_y
 _atom_site_fract_z
 _atom_site_occupancy
  Zr  Zr0  1  0.66666663  0.33333333  0.93062599  1
  Zr  Zr1  1  0.33333330  0.66666665  0.43062599  1
  Zr  Zr2  1  0.33333330  0.66666665  0.06937400  1
  Zr  Zr3  1  0.66666663  0.33333333  0.56937399  1
  Ga  Ga4  1  0.00000000  0.00000000  0.00000000  1
  Ga  Ga5  1  0.00000000  0.00000000  0.49999999  1
  Co  Co6  1  0.17186196  0.82813798  0.74999999  1
  Ga  Ga7  1  0.82813795  0.65627599  0.25000000  1
  Ga  Ga8  1  0.34372398  0.17186200  0.25000000  1
  Ga  Ga9  1  0.65627595  0.82813798  0.74999999  1
  Ga  Ga10  1  0.17186198  0.34372399  0.74999999  1
  Ga  Ga11  1  0.82813797  0.17186200  0.25000000  1
