# generated using pymatgen
data_La8AgTe9
_symmetry_space_group_name_H-M   'P 1'
_cell_length_a   6.42124414
_cell_length_b   9.65480232
_cell_length_c   9.65480137
_cell_angle_alpha   120.00000000
_cell_angle_beta   90.00000000
_cell_angle_gamma   90.00000000
_symmetry_Int_Tables_number   1
_chemical_formula_structural   La8AgTe9
_chemical_formula_sum   'La8 Ag1 Te9'
_cell_volume   518.36604278
_cell_formula_units_Z   1
loop_
 _symmetry_equiv_pos_site_id
 _symmetry_equiv_pos_as_xyz
  1  'x, y, z'
loop_
 _atom_site_type_symbol
 _atom_site_label
 _atom_site_symmetry_multiplicity
 _atom_site_fract_x
 _atom_site_fract_y
 _atom_site_fract_z
 _atom_site_occupancy
  La  La0  1  0.24999999  0.61769996  0.61769997  1
  La  La1  1  0.74999998  0.61769996  0.99999996  1
  La  La2  1  0.74999998  0.00000000  0.61770000  1
  La  La3  1  0.24999999  0.00000000  0.38230000  1
  La  La4  1  0.24999999  0.38229998  0.99999998  1
  La  La5  1  0.74999998  0.38229998  0.38229998  1
  La  La6  1  0.00000000  0.00000000  0.00000000  1
  Ag  Ag7  1  0.49999999  0.00000000  -0.00000000  1
  Te  Te8  1  0.49999999  0.33333331  0.66666665  1
  Te  Te9  1  0.00000000  0.66666663  0.33333330  1
  Te  Te10  1  0.24999999  0.25989699  0.25989699  1
  Te  Te11  1  0.74999998  0.25989699  -0.00000001  1
  Te  Te12  1  0.49999999  0.66666663  0.33333330  1
  Te  Te13  1  0.99999998  0.33333331  0.66666665  1
  Te  Te14  1  0.74999998  0.74010296  0.74010296  1
  La  La15  1  0.24999999  0.74010296  -0.00000004  1
  Te  Te16  1  0.24999999  0.00000000  0.74010300  1
  Te  Te17  1  0.74999998  0.00000000  0.25989700  1
