# generated using pymatgen
data_Li2Mn7O11
_symmetry_space_group_name_H-M   'P 1'
_cell_length_a   5.01383018
_cell_length_b   5.06438494
_cell_length_c   7.59910107
_cell_angle_alpha   83.70436859
_cell_angle_beta   70.73751831
_cell_angle_gamma   70.58530426
_symmetry_Int_Tables_number   1
_chemical_formula_structural   Li2Mn7O11
_chemical_formula_sum   'Li2 Mn7 O11'
_cell_volume   171.79615013
_cell_formula_units_Z   1
loop_
 _symmetry_equiv_pos_site_id
 _symmetry_equiv_pos_as_xyz
  1  'x, y, z'
loop_
 _atom_site_type_symbol
 _atom_site_label
 _atom_site_symmetry_multiplicity
 _atom_site_fract_x
 _atom_site_fract_y
 _atom_site_fract_z
 _atom_site_occupancy
  Li  Li0  1  0.90184198  0.50000000  0.19631597  1
  Mn  Mn1  1  0.49999999  0.50000000  -0.00000002  1
  Mn  Mn2  1  0.09815800  0.50000000  0.80368399  1
  Li  Li3  1  0.69815499  0.50000000  0.60368997  1
  Mn  Mn4  1  0.30184500  0.50000000  0.39630999  1
  O  O5  1  0.00000000  0.00000000  0.00000000  1
  Mn  Mn6  1  0.40276499  0.00000000  0.19446999  1
  Mn  Mn7  1  0.59723499  0.00000000  0.80552998  1
  Mn  Mn8  1  0.19599100  0.00000000  0.60801799  1
  Mn  Mn9  1  0.80400899  1.00000000  0.39198197  1
  O  O10  1  0.15856900  0.77802000  0.20859899  1
  O  O11  1  0.71697499  0.77729300  0.99999997  1
  O  O12  1  0.36716800  0.77802000  0.79140098  1
  O  O13  1  0.92544298  0.77324000  0.61194196  1
  O  O14  1  0.53738499  0.77324000  0.38805798  1
  O  O15  1  0.63283199  0.22198000  0.20859898  1
  O  O16  1  0.28302500  0.22270700  0.99999998  1
  O  O17  1  0.84143098  0.22198000  0.79140097  1
  O  O18  1  0.46261499  0.22676000  0.61194198  1
  O  O19  1  0.07455700  0.22676000  0.38805799  1
