# generated using pymatgen
data_RbV3O8
_symmetry_space_group_name_H-M   'P 1'
_cell_length_a   5.78839588
_cell_length_b   5.78839684
_cell_length_c   7.87729788
_cell_angle_alpha   90.00000000
_cell_angle_beta   90.00000000
_cell_angle_gamma   119.99999237
_symmetry_Int_Tables_number   1
_chemical_formula_structural   RbV3O8
_chemical_formula_sum   'Rb1 V3 O8'
_cell_volume   228.57275183
_cell_formula_units_Z   1
loop_
 _symmetry_equiv_pos_site_id
 _symmetry_equiv_pos_as_xyz
  1  'x, y, z'
loop_
 _atom_site_type_symbol
 _atom_site_label
 _atom_site_symmetry_multiplicity
 _atom_site_fract_x
 _atom_site_fract_y
 _atom_site_fract_z
 _atom_site_occupancy
  Rb  Rb0  1  0.00000000  0.00000000  0.50000001  1
  V  V1  1  0.00000000  0.00000000  0.00000000  1
  V  V2  1  0.66666666  0.33333333  0.77914901  1
  V  V3  1  0.33333331  0.66666665  0.22085100  1
  O  O4  1  0.16143599  0.32287199  0.15136300  1
  O  O5  1  0.16143596  0.83856298  0.15136300  1
  O  O6  1  0.67712697  0.83856298  0.15136300  1
  O  O7  1  0.32287300  0.16143700  0.84863701  1
  O  O8  1  0.66666666  0.33333333  0.55677601  1
  O  O9  1  0.33333331  0.66666665  0.44322401  1
  O  O10  1  0.83856401  0.16143700  0.84863701  1
  O  O11  1  0.83856398  0.67712799  0.84863701  1
