# generated using pymatgen
data_V3Cr2Si3
_symmetry_space_group_name_H-M   'P 1'
_cell_length_a   4.64199686
_cell_length_b   6.72528219
_cell_length_c   6.80543184
_cell_angle_alpha   119.61116791
_cell_angle_beta   90.00000000
_cell_angle_gamma   90.00000000
_symmetry_Int_Tables_number   1
_chemical_formula_structural   V3Cr2Si3
_chemical_formula_sum   'V6 Cr4 Si6'
_cell_volume   184.70982526
_cell_formula_units_Z   2
loop_
 _symmetry_equiv_pos_site_id
 _symmetry_equiv_pos_as_xyz
  1  'x, y, z'
loop_
 _atom_site_type_symbol
 _atom_site_label
 _atom_site_symmetry_multiplicity
 _atom_site_fract_x
 _atom_site_fract_y
 _atom_site_fract_z
 _atom_site_occupancy
  V  V0  1  1.00000003  0.76746397  0.99999997  1
  Cr  Cr1  1  0.74991302  0.33816399  0.67153498  1
  Cr  Cr2  1  0.74991302  0.66662898  0.32846499  1
  V  V3  1  0.25008701  0.66662898  0.32846499  1
  Cr  Cr4  1  0.25008701  0.33816399  0.67153498  1
  V  V5  1  0.50000002  0.75127897  0.75066498  1
  V  V6  1  0.50000002  0.00061400  0.24933499  1
  Cr  Cr7  1  0.50000002  0.23885199  0.99999998  1
  V  V8  1  1.00000003  0.24350499  0.24809799  1
  V  V9  1  0.00000000  0.99540697  0.75190197  1
  Si  Si10  1  0.50000002  0.39086399  0.39107799  1
  Si  Si11  1  0.50000002  0.99978597  0.60892198  1
  Si  Si12  1  0.50000002  0.60865798  0.99999997  1
  Si  Si13  1  1.00000003  0.60292098  0.59696698  1
  Si  Si14  1  1.00000003  0.00595400  0.40303299  1
  Si  Si15  1  1.00000003  0.38517099  0.99999997  1
