# generated using pymatgen
data_Pu4Fe2Te9IrCO3
_symmetry_space_group_name_H-M   'P 1'
_cell_length_a   6.09440708
_cell_length_b   8.49464989
_cell_length_c   8.74769020
_cell_angle_alpha   90.00000000
_cell_angle_beta   90.00000000
_cell_angle_gamma   90.00000000
_symmetry_Int_Tables_number   1
_chemical_formula_structural   Pu4Fe2Te9IrCO3
_chemical_formula_sum   'Pu4 Fe2 Te9 Ir1 C1 O3'
_cell_volume   452.86664827
_cell_formula_units_Z   1
loop_
 _symmetry_equiv_pos_site_id
 _symmetry_equiv_pos_as_xyz
  1  'x, y, z'
loop_
 _atom_site_type_symbol
 _atom_site_label
 _atom_site_symmetry_multiplicity
 _atom_site_fract_x
 _atom_site_fract_y
 _atom_site_fract_z
 _atom_site_occupancy
  Ir  Ir0  1  0.56825599  0.25000000  0.42922999  1
  Pu  Pu1  1  0.93174399  0.75000001  0.92922998  1
  Fe  Fe2  1  0.43174399  0.75000001  0.57076999  1
  Te  Te3  1  0.06825600  0.25000000  0.07077000  1
  Te  Te4  1  0.82107399  0.44224301  0.87996398  1
  Te  Te5  1  0.82107399  0.05775700  0.87996398  1
  Te  Te6  1  0.67892599  0.94224301  0.37996399  1
  Te  Te7  1  0.32107400  0.05775700  0.62003599  1
  Te  Te8  1  0.17892600  0.55775701  0.12003600  1
  Te  Te9  1  0.17892600  0.94224301  0.12003600  1
  Te  Te10  1  0.32107400  0.44224301  0.62003599  1
  Te  Te11  1  0.67892599  0.55775701  0.37996399  1
  Fe  Fe12  1  0.21967000  0.75000001  0.43159899  1
  O  O13  1  0.35288100  0.25000000  0.27964299  1
  O  O14  1  0.85288099  0.25000000  0.22035699  1
  Pu  Pu15  1  0.71966999  0.75000001  0.06840100  1
  O  O16  1  0.78032999  0.25000000  0.56840099  1
  Pu  Pu17  1  0.14711900  0.75000001  0.77964298  1
  C  C18  1  0.64711899  0.75000001  0.72035698  1
  Pu  Pu19  1  0.28033000  0.25000000  0.93159898  1
