# generated using pymatgen
data_La4AgO9
_symmetry_space_group_name_H-M   'P 1'
_cell_length_a   3.94673800
_cell_length_b   7.36590672
_cell_length_c   9.42465973
_cell_angle_alpha   76.06935883
_cell_angle_beta   77.91377258
_cell_angle_gamma   74.46031189
_symmetry_Int_Tables_number   1
_chemical_formula_structural   La4AgO9
_chemical_formula_sum   'La4 Ag1 O9'
_cell_volume   253.11360488
_cell_formula_units_Z   1
loop_
 _symmetry_equiv_pos_site_id
 _symmetry_equiv_pos_as_xyz
  1  'x, y, z'
loop_
 _atom_site_type_symbol
 _atom_site_label
 _atom_site_symmetry_multiplicity
 _atom_site_fract_x
 _atom_site_fract_y
 _atom_site_fract_z
 _atom_site_occupancy
  La  La0  1  0.61958097  0.21785200  0.54298603  1
  La  La1  1  0.15986295  0.47760301  0.20267103  1
  La  La2  1  0.84013693  0.52239701  0.79732906  1
  La  La3  1  0.38041891  0.78214801  0.45701406  1
  Ag  Ag4  1  0.88390498  0.06883000  0.16336003  1
  O  O5  1  0.11609490  0.93117002  0.83664006  1
  O  O6  1  0.22623398  0.15543500  0.39209702  1
  O  O7  1  0.79739295  0.34684701  0.05836704  1
  O  O8  1  0.03732098  0.20427600  0.72108202  1
  O  O9  1  0.58197894  0.49095601  0.34508604  1
  O  O10  1  0.41802094  0.50904401  0.65491404  1
  O  O11  1  0.96267890  0.79572401  0.27891807  1
  O  O12  1  0.20260693  0.65315301  0.94163305  1
  O  O13  1  0.77376590  0.84456502  0.60790307  1
