# generated using pymatgen
data_Na(FeP)2
_symmetry_space_group_name_H-M   'P 1'
_cell_length_a   3.74391389
_cell_length_b   3.74391341
_cell_length_c   6.61610413
_cell_angle_alpha   90.00000000
_cell_angle_beta   90.00000000
_cell_angle_gamma   120.00000763
_symmetry_Int_Tables_number   1
_chemical_formula_structural   Na(FeP)2
_chemical_formula_sum   'Na1 Fe2 P2'
_cell_volume   80.31276485
_cell_formula_units_Z   1
loop_
 _symmetry_equiv_pos_site_id
 _symmetry_equiv_pos_as_xyz
  1  'x, y, z'
loop_
 _atom_site_type_symbol
 _atom_site_label
 _atom_site_symmetry_multiplicity
 _atom_site_fract_x
 _atom_site_fract_y
 _atom_site_fract_z
 _atom_site_occupancy
  Na  Na0  1  0.00000000  0.00000000  0.00000000  1
  Fe  Fe1  1  0.33333338  0.66666669  0.62358199  1
  Fe  Fe2  1  0.66666670  0.33333335  0.37641799  1
  P  P3  1  0.33333338  0.66666669  0.28509399  1
  P  P4  1  0.66666670  0.33333335  0.71490599  1
