# generated using pymatgen
data_CoTe2
_symmetry_space_group_name_H-M   'P 1'
_cell_length_a   6.24657297
_cell_length_b   6.24657297
_cell_length_c   6.24657297
_cell_angle_alpha   90.00000000
_cell_angle_beta   90.00000000
_cell_angle_gamma   90.00000000
_symmetry_Int_Tables_number   1
_chemical_formula_structural   CoTe2
_chemical_formula_sum   'Co4 Te8'
_cell_volume   243.73924025
_cell_formula_units_Z   4
loop_
 _symmetry_equiv_pos_site_id
 _symmetry_equiv_pos_as_xyz
  1  'x, y, z'
loop_
 _atom_site_type_symbol
 _atom_site_label
 _atom_site_symmetry_multiplicity
 _atom_site_fract_x
 _atom_site_fract_y
 _atom_site_fract_z
 _atom_site_occupancy
  Te  Te0  1  0.12139100  0.62139100  0.87860900  1
  Te  Te1  1  0.62139100  0.87860900  0.12139100  1
  Te  Te2  1  0.87860900  0.12139100  0.62139100  1
  Co  Co3  1  0.37860900  0.37860900  0.37860900  1
  Te  Te4  1  0.87659100  0.37659100  0.12340900  1
  Te  Te5  1  0.37659100  0.12340900  0.87659100  1
  Te  Te6  1  0.12340900  0.87659100  0.37659100  1
  Te  Te7  1  0.62340900  0.62340900  0.62340900  1
  Co  Co8  1  0.48891100  0.98891100  0.51108900  1
  Co  Co9  1  0.98891100  0.51108900  0.48891100  1
  Co  Co10  1  0.51108900  0.48891100  0.98891100  1
  Te  Te11  1  0.01108900  0.01108900  0.01108900  1
