# generated using pymatgen
data_NaLi3V2F12
_symmetry_space_group_name_H-M   'P 1'
_cell_length_a   5.18473005
_cell_length_b   6.88803816
_cell_length_c   6.88803816
_cell_angle_alpha   78.02774811
_cell_angle_beta   70.95137787
_cell_angle_gamma   70.95137787
_symmetry_Int_Tables_number   1
_chemical_formula_structural   NaLi3V2F12
_chemical_formula_sum   'Na1 Li3 V2 F12'
_cell_volume   218.38108065
_cell_formula_units_Z   1
loop_
 _symmetry_equiv_pos_site_id
 _symmetry_equiv_pos_as_xyz
  1  'x, y, z'
loop_
 _atom_site_type_symbol
 _atom_site_label
 _atom_site_symmetry_multiplicity
 _atom_site_fract_x
 _atom_site_fract_y
 _atom_site_fract_z
 _atom_site_occupancy
  Na  Na0  1  0.25000006  0.80817998  0.19181995  1
  Li  Li1  1  0.75000000  0.19181999  0.80818000  1
  Li  Li2  1  0.94570201  0.35158299  0.19016601  1
  V  V3  1  0.55429805  0.80983398  0.64841695  1
  Li  Li4  1  0.05429805  0.64841698  0.80983394  1
  V  V5  1  0.44570201  0.19016599  0.35158300  1
  F  F6  1  0.45608106  0.88576898  0.39364395  1
  F  F7  1  0.04391905  0.60635598  0.11423096  1
  F  F8  1  0.54391900  0.11423100  0.60635600  1
  F  F9  1  0.95608101  0.39364399  0.88576899  1
  F  F10  1  0.04030702  0.27849599  0.45109297  1
  F  F11  1  0.45969304  0.54890698  0.72150396  1
  F  F12  1  0.95969304  0.72150398  0.54890697  1
  F  F13  1  0.54030703  0.45109299  0.27849598  1
  F  F14  1  0.86637099  0.08792000  0.18795802  1
  F  F15  1  0.63362905  0.81204198  0.91207995  1
  F  F16  1  0.13362907  0.91207997  0.81204193  1
  F  F17  1  0.36637101  0.18795799  0.08792000  1
