# generated using pymatgen
data_Hf3CrSe5
_symmetry_space_group_name_H-M   'P 1'
_cell_length_a   3.33175707
_cell_length_b   6.62503815
_cell_length_c   6.62503672
_cell_angle_alpha   120.00000763
_cell_angle_beta   90.00000000
_cell_angle_gamma   90.00000000
_symmetry_Int_Tables_number   1
_chemical_formula_structural   Hf3CrSe5
_chemical_formula_sum   'Hf3 Cr1 Se5'
_cell_volume   126.64282768
_cell_formula_units_Z   1
loop_
 _symmetry_equiv_pos_site_id
 _symmetry_equiv_pos_as_xyz
  1  'x, y, z'
loop_
 _atom_site_type_symbol
 _atom_site_label
 _atom_site_symmetry_multiplicity
 _atom_site_fract_x
 _atom_site_fract_y
 _atom_site_fract_z
 _atom_site_occupancy
  Hf  Hf0  1  0.49999999  0.59521000  1.00000006  1
  Hf  Hf1  1  0.49999999  0.40479000  0.40479003  1
  Hf  Hf2  1  0.49999999  0.00000000  0.59521002  1
  Se  Se3  1  0.99999998  0.25737900  1.00000005  1
  Se  Se4  1  0.99999998  0.74262100  0.74262106  1
  Cr  Cr5  1  0.00000000  1.00000000  0.25737906  1
  Se  Se6  1  -0.00000000  0.33333333  0.66666671  1
  Se  Se7  1  -0.00000000  0.66666667  0.33333338  1
  Se  Se8  1  0.49999999  0.00000000  -0.00000000  1
