# generated using pymatgen
data_Lu4Si5Pd3
_symmetry_space_group_name_H-M   'P 1'
_cell_length_a   4.28738594
_cell_length_b   6.85110617
_cell_length_c   7.54098320
_cell_angle_alpha   90.00000000
_cell_angle_beta   90.00000000
_cell_angle_gamma   90.00000000
_symmetry_Int_Tables_number   1
_chemical_formula_structural   Lu4Si5Pd3
_chemical_formula_sum   'Lu4 Si5 Pd3'
_cell_volume   221.50383524
_cell_formula_units_Z   1
loop_
 _symmetry_equiv_pos_site_id
 _symmetry_equiv_pos_as_xyz
  1  'x, y, z'
loop_
 _atom_site_type_symbol
 _atom_site_label
 _atom_site_symmetry_multiplicity
 _atom_site_fract_x
 _atom_site_fract_y
 _atom_site_fract_z
 _atom_site_occupancy
  Lu  Lu0  1  0.25000000  0.00365600  0.80454198  1
  Lu  Lu1  1  0.75000001  0.99634398  0.19545799  1
  Lu  Lu2  1  0.25000000  0.50365599  0.69545798  1
  Lu  Lu3  1  0.75000001  0.49634399  0.30454199  1
  Si  Si4  1  0.25000000  0.28613099  0.10689600  1
  Si  Si5  1  0.75000001  0.71386898  0.89310398  1
  Pd  Pd6  1  0.25000000  0.78613098  0.39310399  1
  Si  Si7  1  0.75000001  0.21386899  0.60689598  1
  Si  Si8  1  0.75000001  0.84300698  0.56674498  1
  Pd  Pd9  1  0.25000000  0.15699300  0.43325499  1
  Pd  Pd10  1  0.75000001  0.34300699  0.93325498  1
  Si  Si11  1  0.25000000  0.65699298  0.06674500  1
