# generated using pymatgen
data_Mg2O3
_symmetry_space_group_name_H-M   'P 1'
_cell_length_a   5.44758940
_cell_length_b   5.44755983
_cell_length_c   5.73259163
_cell_angle_alpha   90.00017548
_cell_angle_beta   61.63901520
_cell_angle_gamma   59.99944687
_symmetry_Int_Tables_number   1
_chemical_formula_structural   Mg2O3
_chemical_formula_sum   'Mg4 O6'
_cell_volume   123.18687167
_cell_formula_units_Z   2
loop_
 _symmetry_equiv_pos_site_id
 _symmetry_equiv_pos_as_xyz
  1  'x, y, z'
loop_
 _atom_site_type_symbol
 _atom_site_label
 _atom_site_symmetry_multiplicity
 _atom_site_fract_x
 _atom_site_fract_y
 _atom_site_fract_z
 _atom_site_occupancy
  Mg  Mg0  1  0.99833299  0.00083600  0.00249503  1
  Mg  Mg1  1  0.99834003  0.50083000  0.50248898  1
  Mg  Mg2  1  0.42215206  0.78890499  0.36676094  1
  Mg  Mg3  1  0.42217602  0.28892200  0.86674996  1
  O  O4  1  0.50395506  0.87581899  0.70934192  1
  O  O5  1  0.16645505  0.62024100  0.70936193  1
  O  O6  1  0.91088101  0.21330800  0.70936399  1
  O  O7  1  0.91090102  0.37582700  0.20934399  1
  O  O8  1  0.16646405  0.71328899  0.20934394  1
  O  O9  1  0.50394400  0.12022100  0.20935000  1
