# generated using pymatgen
data_CdTe3
_symmetry_space_group_name_H-M   'P 1'
_cell_length_a   3.97493291
_cell_length_b   7.05867052
_cell_length_c   12.23463058
_cell_angle_alpha   103.86231995
_cell_angle_beta   90.00000000
_cell_angle_gamma   106.35356903
_symmetry_Int_Tables_number   1
_chemical_formula_structural   CdTe3
_chemical_formula_sum   'Cd3 Te9'
_cell_volume   318.95477765
_cell_formula_units_Z   3
loop_
 _symmetry_equiv_pos_site_id
 _symmetry_equiv_pos_as_xyz
  1  'x, y, z'
loop_
 _atom_site_type_symbol
 _atom_site_label
 _atom_site_symmetry_multiplicity
 _atom_site_fract_x
 _atom_site_fract_y
 _atom_site_fract_z
 _atom_site_occupancy
  Te  Te0  1  0.11245802  0.22491600  0.42156400  1
  Cd  Cd1  1  0.88714307  0.77428700  0.58162798  1
  Te  Te2  1  0.99959609  0.99919201  0.99786998  1
  Cd  Cd3  1  0.30000304  0.60000700  0.18582198  1
  Cd  Cd4  1  0.69970804  0.39941700  0.81359899  1
  Te  Te5  1  0.95369308  0.90738501  0.20731597  1
  Te  Te6  1  0.04226001  0.08451900  0.78525500  1
  Te  Te7  1  0.65822503  0.31645000  0.04913099  1
  Te  Te8  1  0.34003705  0.68007500  0.94970399  1
  Te  Te9  1  0.26428304  0.52856600  0.65535299  1
  Te  Te10  1  0.74986305  0.49972700  0.34784499  1
  Te  Te11  1  0.49272907  0.98545801  0.50491197  1
