# generated using pymatgen
data_MnAl3
_symmetry_space_group_name_H-M   'P 1'
_cell_length_a   4.22164917
_cell_length_b   5.30168390
_cell_length_c   5.30168295
_cell_angle_alpha   120.00000763
_cell_angle_beta   90.00000000
_cell_angle_gamma   90.00000000
_symmetry_Int_Tables_number   1
_chemical_formula_structural   MnAl3
_chemical_formula_sum   'Mn2 Al6'
_cell_volume   102.76383921
_cell_formula_units_Z   2
loop_
 _symmetry_equiv_pos_site_id
 _symmetry_equiv_pos_as_xyz
  1  'x, y, z'
loop_
 _atom_site_type_symbol
 _atom_site_label
 _atom_site_symmetry_multiplicity
 _atom_site_fract_x
 _atom_site_fract_y
 _atom_site_fract_z
 _atom_site_occupancy
  Al  Al0  1  0.24999999  0.66666669  0.33333337  1
  Al  Al1  1  0.74999997  0.33333335  0.66666670  1
  Al  Al2  1  0.74999997  0.84236003  0.15764004  1
  Al  Al3  1  0.74999997  0.31528001  0.15764002  1
  Al  Al4  1  0.74999997  0.84236003  0.68472006  1
  Al  Al5  1  0.24999999  0.15764001  0.84236003  1
  Mn  Mn6  1  0.24999999  0.68472003  0.84236005  1
  Mn  Mn7  1  0.24999999  0.15764001  0.31528002  1
