# generated using pymatgen
data_SrCaW2(ClO2)4
_symmetry_space_group_name_H-M   'P 1'
_cell_length_a   5.27285814
_cell_length_b   5.27285814
_cell_length_c   10.25370884
_cell_angle_alpha   90.00000000
_cell_angle_beta   90.00000000
_cell_angle_gamma   90.00000000
_symmetry_Int_Tables_number   1
_chemical_formula_structural   SrCaW2(ClO2)4
_chemical_formula_sum   'Sr1 Ca1 W2 Cl4 O8'
_cell_volume   285.08420518
_cell_formula_units_Z   1
loop_
 _symmetry_equiv_pos_site_id
 _symmetry_equiv_pos_as_xyz
  1  'x, y, z'
loop_
 _atom_site_type_symbol
 _atom_site_label
 _atom_site_symmetry_multiplicity
 _atom_site_fract_x
 _atom_site_fract_y
 _atom_site_fract_z
 _atom_site_occupancy
  Sr  Sr0  1  0.49999999  0.49999999  0.75000001  1
  Ca  Ca1  1  0.49999999  0.49999999  0.25000000  1
  W  W2  1  0.00000000  0.00000000  0.00000000  1
  W  W3  1  0.00000000  0.00000000  0.50000001  1
  O  O4  1  0.81723698  0.18276300  0.13181400  1
  O  O5  1  0.81723698  0.81723698  0.36818601  1
  Cl  Cl6  1  0.25794899  0.74205098  0.50000001  1
  O  O7  1  0.18276300  0.18276300  0.36818601  1
  O  O8  1  0.18276300  0.81723698  0.86818601  1
  O  O9  1  0.81723698  0.81723698  0.63181401  1
  Cl  Cl10  1  0.25794899  0.25794899  0.00000000  1
  Cl  Cl11  1  0.74205098  0.25794899  0.50000001  1
  O  O12  1  0.18276300  0.18276300  0.63181401  1
  O  O13  1  0.18276300  0.81723698  0.13181400  1
  O  O14  1  0.81723698  0.18276300  0.86818601  1
  Cl  Cl15  1  0.74205098  0.74205098  -0.00000000  1
