# generated using pymatgen
data_Ca3(BN2)2
_symmetry_space_group_name_H-M   'P 1'
_cell_length_a   3.55698800
_cell_length_b   6.30842781
_cell_length_c   6.52385139
_cell_angle_alpha   118.91355896
_cell_angle_beta   105.81988525
_cell_angle_gamma   90.00000000
_symmetry_Int_Tables_number   1
_chemical_formula_structural   Ca3(BN2)2
_chemical_formula_sum   'Ca3 B2 N4'
_cell_volume   121.76860780
_cell_formula_units_Z   1
loop_
 _symmetry_equiv_pos_site_id
 _symmetry_equiv_pos_as_xyz
  1  'x, y, z'
loop_
 _atom_site_type_symbol
 _atom_site_label
 _atom_site_symmetry_multiplicity
 _atom_site_fract_x
 _atom_site_fract_y
 _atom_site_fract_z
 _atom_site_occupancy
  Ca  Ca0  1  0.79817203  0.29817201  0.59634403  1
  Ca  Ca1  1  0.20182805  0.70182802  0.40365601  1
  Ca  Ca2  1  0.00000000  0.00000000  0.00000000  1
  B  B3  1  0.50000005  0.64303702  0.00000002  1
  B  B4  1  0.50000003  0.35696301  0.00000002  1
  N  N5  1  0.38104405  0.63725702  0.76208802  1
  N  N6  1  0.38104401  0.12483100  0.76208802  1
  N  N7  1  0.61895606  0.87516903  0.23791203  1
  N  N8  1  0.61895603  0.36274301  0.23791202  1
