# generated using pymatgen
data_Al
_symmetry_space_group_name_H-M   'P 1'
_cell_length_a   2.87229609
_cell_length_b   4.89446688
_cell_length_c   13.90158844
_cell_angle_alpha   90.00000000
_cell_angle_beta   90.00000000
_cell_angle_gamma   90.00000000
_symmetry_Int_Tables_number   1
_chemical_formula_structural   Al
_chemical_formula_sum   Al12
_cell_volume   195.43350841
_cell_formula_units_Z   12
loop_
 _symmetry_equiv_pos_site_id
 _symmetry_equiv_pos_as_xyz
  1  'x, y, z'
loop_
 _atom_site_type_symbol
 _atom_site_label
 _atom_site_symmetry_multiplicity
 _atom_site_fract_x
 _atom_site_fract_y
 _atom_site_fract_z
 _atom_site_occupancy
  Al  Al0  1  0.00000000  0.04420800  0.24999999  1
  Al  Al1  1  0.00000000  0.95579202  0.74999998  1
  Al  Al2  1  0.00000000  0.32329901  0.58447198  1
  Al  Al3  1  0.00000000  0.67670102  0.41552799  1
  Al  Al4  1  0.00000000  0.32329901  0.91552797  1
  Al  Al5  1  0.00000000  0.67670102  0.08447200  1
  Al  Al6  1  0.49999998  0.53810601  0.24999999  1
  Al  Al7  1  0.49999998  0.46189401  0.74999998  1
  Al  Al8  1  0.49999998  0.82203102  0.58335398  1
  Al  Al9  1  0.49999998  0.17796900  0.41664599  1
  Al  Al10  1  0.49999998  0.82203102  0.91664597  1
  Al  Al11  1  0.49999998  0.17796900  0.08335400  1
