# generated using pymatgen
data_LiMn3F6
_symmetry_space_group_name_H-M   'P 1'
_cell_length_a   3.36938810
_cell_length_b   3.36938834
_cell_length_c   11.94425488
_cell_angle_alpha   90.00000000
_cell_angle_beta   90.00000000
_cell_angle_gamma   120.00000000
_symmetry_Int_Tables_number   1
_chemical_formula_structural   LiMn3F6
_chemical_formula_sum   'Li1 Mn3 F6'
_cell_volume   117.43344483
_cell_formula_units_Z   1
loop_
 _symmetry_equiv_pos_site_id
 _symmetry_equiv_pos_as_xyz
  1  'x, y, z'
loop_
 _atom_site_type_symbol
 _atom_site_label
 _atom_site_symmetry_multiplicity
 _atom_site_fract_x
 _atom_site_fract_y
 _atom_site_fract_z
 _atom_site_occupancy
  Mn  Mn0  1  0.00000000  0.00000000  0.00000000  1
  Mn  Mn1  1  0.00000000  0.00000000  0.50000001  1
  Li  Li2  1  0.66666667  0.33333334  0.25000000  1
  Mn  Mn3  1  0.33333337  0.66666669  0.75000001  1
  F  F4  1  0.00000000  0.00000000  0.75000001  1
  F  F5  1  0.00000000  0.00000000  0.25000000  1
  F  F6  1  0.66666667  0.33333334  0.41863700  1
  F  F7  1  0.66666667  0.33333334  0.08136300  1
  F  F8  1  0.33333337  0.66666669  0.58136301  1
  F  F9  1  0.33333337  0.66666669  0.91863701  1
