# generated using pymatgen
data_Ce8AlZn7
_symmetry_space_group_name_H-M   'P 1'
_cell_length_a   4.49298620
_cell_length_b   4.49298620
_cell_length_c   19.21027374
_cell_angle_alpha   90.00000000
_cell_angle_beta   90.00000000
_cell_angle_gamma   90.00000000
_symmetry_Int_Tables_number   1
_chemical_formula_structural   Ce8AlZn7
_chemical_formula_sum   'Ce8 Al1 Zn7'
_cell_volume   387.79635553
_cell_formula_units_Z   1
loop_
 _symmetry_equiv_pos_site_id
 _symmetry_equiv_pos_as_xyz
  1  'x, y, z'
loop_
 _atom_site_type_symbol
 _atom_site_label
 _atom_site_symmetry_multiplicity
 _atom_site_fract_x
 _atom_site_fract_y
 _atom_site_fract_z
 _atom_site_occupancy
  Ce  Ce0  1  0.49999998  0.00000000  0.36164999  1
  Ce  Ce1  1  0.49999998  0.00000000  0.86455597  1
  Ce  Ce2  1  0.00000000  0.49999998  0.13544399  1
  Ce  Ce3  1  0.00000000  0.49999998  0.63834998  1
  Zn  Zn4  1  0.49999998  0.49999998  0.24996199  1
  Zn  Zn5  1  0.49999998  0.49999998  0.75003797  1
  Zn  Zn6  1  0.00000000  0.00000000  0.24983099  1
  Zn  Zn7  1  0.00000000  0.00000000  0.75016897  1
  Ce  Ce8  1  0.49999998  0.49999998  0.49999998  1
  Ce  Ce9  1  0.00000000  0.00000000  0.00000000  1
  Ce  Ce10  1  0.00000000  0.00000000  0.49999998  1
  Zn  Zn11  1  0.49999998  0.00000000  0.18006099  1
  Zn  Zn12  1  0.49999998  0.00000000  0.68019497  1
  Al  Al13  1  0.00000000  0.49999998  0.31980499  1
  Zn  Zn14  1  0.00000000  0.49999998  0.81993897  1
  Ce  Ce15  1  0.49999998  0.49999998  -0.00000000  1
