# generated using pymatgen
data_SmMn8Si3Ge
_symmetry_space_group_name_H-M   'P 1'
_cell_length_a   4.67784595
_cell_length_b   6.46718121
_cell_length_c   6.46718073
_cell_angle_alpha   82.95362091
_cell_angle_beta   68.79780579
_cell_angle_gamma   68.79779053
_symmetry_Int_Tables_number   1
_chemical_formula_structural   SmMn8Si3Ge
_chemical_formula_sum   'Sm1 Mn8 Si3 Ge1'
_cell_volume   170.05036223
_cell_formula_units_Z   1
loop_
 _symmetry_equiv_pos_site_id
 _symmetry_equiv_pos_as_xyz
  1  'x, y, z'
loop_
 _atom_site_type_symbol
 _atom_site_label
 _atom_site_symmetry_multiplicity
 _atom_site_fract_x
 _atom_site_fract_y
 _atom_site_fract_z
 _atom_site_occupancy
  Sm  Sm0  1  -0.00000004  0.99437602  0.00562401  1
  Si  Si1  1  0.49999998  0.77147502  0.22852498  1
  Ge  Ge2  1  0.50000000  0.22902400  0.77097596  1
  Si  Si3  1  0.72443199  0.77719002  0.77394596  1
  Si  Si4  1  0.27556800  0.22605400  0.22280998  1
  Mn  Mn5  1  0.00044796  0.99897402  0.49996699  1
  Mn  Mn6  1  0.50061097  0.99897402  0.49996697  1
  Mn  Mn7  1  0.49938899  0.50003301  0.00102598  1
  Mn  Mn8  1  0.99955201  0.50003301  0.00102597  1
  Mn  Mn9  1  1.00000000  0.63984301  0.36015696  1
  Mn  Mn10  1  0.64078200  0.36011501  0.35832097  1
  Mn  Mn11  1  0.35921798  0.64167901  0.63988497  1
  Mn  Mn12  1  1.00000001  0.36223001  0.63776995  1
