# generated using pymatgen
data_V5O6F
_symmetry_space_group_name_H-M   'P 1'
_cell_length_a   5.74280977
_cell_length_b   5.74277401
_cell_length_c   5.74367714
_cell_angle_alpha   71.54788208
_cell_angle_beta   65.76000214
_cell_angle_gamma   105.83285522
_symmetry_Int_Tables_number   1
_chemical_formula_structural   V5O6F
_chemical_formula_sum   'V5 O6 F1'
_cell_volume   144.99529728
_cell_formula_units_Z   1
loop_
 _symmetry_equiv_pos_site_id
 _symmetry_equiv_pos_as_xyz
  1  'x, y, z'
loop_
 _atom_site_type_symbol
 _atom_site_label
 _atom_site_symmetry_multiplicity
 _atom_site_fract_x
 _atom_site_fract_y
 _atom_site_fract_z
 _atom_site_occupancy
  V  V0  1  0.75238910  0.49870302  0.74890893  1
  V  V1  1  0.50107514  0.96254004  0.53638091  1
  V  V2  1  0.25232607  0.50127702  0.24639995  1
  V  V3  1  0.00106500  0.03745500  0.96148703  1
  O  O4  1  0.49860710  0.66742503  0.83394094  1
  O  O5  1  0.99876309  0.33260001  0.66864493  1
  F  F6  1  0.99938513  0.71471903  0.28589888  1
  O  O7  1  0.49947106  0.28531001  0.21522695  1
  O  O8  1  0.04270409  0.79338003  0.75085296  1
  O  O9  1  0.54275412  0.79359203  0.25071491  1
  O  O10  1  0.45578305  0.20645601  0.75082598  1
  V  V11  1  0.95567708  0.20654301  0.25071693  1
