# generated using pymatgen
data_Gd(SiRh)2
_symmetry_space_group_name_H-M   'P 1'
_cell_length_a   3.94231606
_cell_length_b   3.94231606
_cell_length_c   5.90215063
_cell_angle_alpha   109.51008606
_cell_angle_beta   109.51008606
_cell_angle_gamma   90.00000000
_symmetry_Int_Tables_number   1
_chemical_formula_structural   Gd(SiRh)2
_chemical_formula_sum   'Gd1 Si2 Rh2'
_cell_volume   80.85419037
_cell_formula_units_Z   1
loop_
 _symmetry_equiv_pos_site_id
 _symmetry_equiv_pos_as_xyz
  1  'x, y, z'
loop_
 _atom_site_type_symbol
 _atom_site_label
 _atom_site_symmetry_multiplicity
 _atom_site_fract_x
 _atom_site_fract_y
 _atom_site_fract_z
 _atom_site_occupancy
  Gd  Gd0  1  0.00000000  0.00000000  0.00000000  1
  Rh  Rh1  1  0.74999997  0.24999999  0.49999998  1
  Rh  Rh2  1  0.24999997  0.74999997  0.49999998  1
  Si  Si3  1  0.62176096  0.62176098  0.24352196  1
  Si  Si4  1  0.37823898  0.37823899  0.75647799  1
