# generated using pymatgen
data_AuBrCl9
_symmetry_space_group_name_H-M   'P 1'
_cell_length_a   7.76254034
_cell_length_b   7.99158049
_cell_length_c   7.99158049
_cell_angle_alpha   67.07249451
_cell_angle_beta   82.67026520
_cell_angle_gamma   82.67026520
_symmetry_Int_Tables_number   1
_chemical_formula_structural   AuBrCl9
_chemical_formula_sum   'Au1 Br1 Cl9'
_cell_volume   451.21192003
_cell_formula_units_Z   1
loop_
 _symmetry_equiv_pos_site_id
 _symmetry_equiv_pos_as_xyz
  1  'x, y, z'
loop_
 _atom_site_type_symbol
 _atom_site_label
 _atom_site_symmetry_multiplicity
 _atom_site_fract_x
 _atom_site_fract_y
 _atom_site_fract_z
 _atom_site_occupancy
  Br  Br0  1  0.33007199  0.78800202  0.78800200  1
  Au  Au1  1  0.66992799  0.21199801  0.21199799  1
  Cl  Cl2  1  0.00000000  0.00000000  0.00000000  1
  Cl  Cl3  1  0.84452298  0.91529502  0.30735498  1
  Cl  Cl4  1  0.84452299  0.30735501  0.91529500  1
  Cl  Cl5  1  0.15547700  0.08470500  0.69264501  1
  Cl  Cl6  1  0.71151899  0.37886601  0.37886599  1
  Cl  Cl7  1  0.15547699  0.69264502  0.08470499  1
  Cl  Cl8  1  0.61412598  0.81987502  0.81987500  1
  Cl  Cl9  1  0.38587400  0.18012500  0.18012499  1
  Cl  Cl10  1  0.28848099  0.62113402  0.62113400  1
