# generated using pymatgen
data_Li3Te3O10
_symmetry_space_group_name_H-M   'P 1'
_cell_length_a   3.74354196
_cell_length_b   5.22937346
_cell_length_c   9.74532604
_cell_angle_alpha   90.00000000
_cell_angle_beta   90.00000000
_cell_angle_gamma   110.97337341
_symmetry_Int_Tables_number   1
_chemical_formula_structural   Li3Te3O10
_chemical_formula_sum   'Li3 Te3 O10'
_cell_volume   178.13854227
_cell_formula_units_Z   1
loop_
 _symmetry_equiv_pos_site_id
 _symmetry_equiv_pos_as_xyz
  1  'x, y, z'
loop_
 _atom_site_type_symbol
 _atom_site_label
 _atom_site_symmetry_multiplicity
 _atom_site_fract_x
 _atom_site_fract_y
 _atom_site_fract_z
 _atom_site_occupancy
  Li  Li0  1  0.86800297  0.73600599  0.93549900  1
  Li  Li1  1  0.13199699  0.26399400  0.43549900  1
  Te  Te2  1  0.19023198  0.38046399  0.74904700  1
  Te  Te3  1  0.80976798  0.61953599  0.24904700  1
  Te  Te4  1  0.13751099  0.27502200  0.06963200  1
  Li  Li5  1  0.86248897  0.72497799  0.56963200  1
  O  O6  1  0.30424797  0.60849599  0.58072600  1
  O  O7  1  0.68768899  0.37537799  0.41506500  1
  O  O8  1  0.31231097  0.62462199  0.91506500  1
  O  O9  1  0.69575199  0.39150399  0.08072600  1
  O  O10  1  0.05433800  0.10867600  0.61567500  1
  O  O11  1  0.95336797  0.90673598  0.37899700  1
  O  O12  1  0.04663200  0.09326400  0.87899700  1
  O  O13  1  0.94566197  0.89132398  0.11567500  1
  O  O14  1  0.74618498  0.49236999  0.75535900  1
  O  O15  1  0.25381498  0.50762999  0.25535900  1
