# generated using pymatgen
data_Eu2Cu4Te13Cl
_symmetry_space_group_name_H-M   'P 1'
_cell_length_a   6.31479979
_cell_length_b   6.45053101
_cell_length_c   14.27395630
_cell_angle_alpha   85.42242432
_cell_angle_beta   86.09964752
_cell_angle_gamma   89.89508820
_symmetry_Int_Tables_number   1
_chemical_formula_structural   Eu2Cu4Te13Cl
_chemical_formula_sum   'Eu2 Cu4 Te13 Cl1'
_cell_volume   578.23182302
_cell_formula_units_Z   1
loop_
 _symmetry_equiv_pos_site_id
 _symmetry_equiv_pos_as_xyz
  1  'x, y, z'
loop_
 _atom_site_type_symbol
 _atom_site_label
 _atom_site_symmetry_multiplicity
 _atom_site_fract_x
 _atom_site_fract_y
 _atom_site_fract_z
 _atom_site_occupancy
  Te  Te0  1  0.73000800  0.47736698  0.60717001  1
  Te  Te1  1  0.77020003  0.01564300  0.39334500  1
  Te  Te2  1  0.26999198  0.52263298  0.39283001  1
  Te  Te3  1  0.22979996  0.98435697  0.60665502  1
  Cu  Cu4  1  0.26366701  0.02887900  0.12723800  1
  Cu  Cu5  1  0.76783600  0.62103098  0.12772301  1
  Cu  Cu6  1  0.73633298  0.97112097  0.87276202  1
  Cu  Cu7  1  0.23216399  0.37896899  0.87227701  1
  Te  Te8  1  0.65413400  0.37021599  0.88478501  1
  Te  Te9  1  0.71456398  0.96014797  0.69578202  1
  Eu  Eu10  1  0.78363700  0.53042398  0.30349701  1
  Te  Te11  1  0.34586598  0.62978398  0.11521501  1
  Cl  Cl12  1  0.21636298  0.46957598  0.69650301  1
  Te  Te13  1  0.16200596  0.97473697  0.87261402  1
  Te  Te14  1  0.83799403  0.02526300  0.12738600  1
  Eu  Eu15  1  0.28543601  0.03985200  0.30421800  1
  Te  Te16  1  0.00026596  0.74691097  0.50166802  1
  Te  Te17  1  0.49995798  0.75091397  0.50156702  1
  Te  Te18  1  0.50004200  0.24908599  0.49843301  1
  Te  Te19  1  0.99973402  0.25308899  0.49833201  1
