# generated using pymatgen
data_TlMoCl3
_symmetry_space_group_name_H-M   'P 1'
_cell_length_a   5.67368984
_cell_length_b   6.92561150
_cell_length_c   6.92561150
_cell_angle_alpha   119.02400970
_cell_angle_beta   90.00000000
_cell_angle_gamma   90.00000000
_symmetry_Int_Tables_number   1
_chemical_formula_structural   TlMoCl3
_chemical_formula_sum   'Tl2 Mo2 Cl6'
_cell_volume   237.95792420
_cell_formula_units_Z   2
loop_
 _symmetry_equiv_pos_site_id
 _symmetry_equiv_pos_as_xyz
  1  'x, y, z'
loop_
 _atom_site_type_symbol
 _atom_site_label
 _atom_site_symmetry_multiplicity
 _atom_site_fract_x
 _atom_site_fract_y
 _atom_site_fract_z
 _atom_site_occupancy
  Tl  Tl0  1  0.50000001  0.67015097  0.32984898  1
  Tl  Tl1  1  -0.00000000  0.33275899  0.66724097  1
  Mo  Mo2  1  0.72313902  0.99484496  0.00515499  1
  Mo  Mo3  1  0.27686101  0.99484496  0.00515499  1
  Cl  Cl4  1  -0.00000000  0.33884599  0.16387599  1
  Cl  Cl5  1  -0.00000000  0.83612397  0.66115397  1
  Cl  Cl6  1  1.00000003  0.84507297  0.15492698  1
  Cl  Cl7  1  0.50000001  0.67001697  0.84057296  1
  Cl  Cl8  1  0.50000001  0.15942699  0.32998299  1
  Cl  Cl9  1  0.50000001  0.15936699  0.84063297  1
