# generated using pymatgen
data_NaTb3Mn4O12
_symmetry_space_group_name_H-M   'P 1'
_cell_length_a   5.35208321
_cell_length_b   5.45341921
_cell_length_c   7.59293795
_cell_angle_alpha   90.00000000
_cell_angle_beta   90.00000000
_cell_angle_gamma   89.88922119
_symmetry_Int_Tables_number   1
_chemical_formula_structural   NaTb3Mn4O12
_chemical_formula_sum   'Na1 Tb3 Mn4 O12'
_cell_volume   221.61583008
_cell_formula_units_Z   1
loop_
 _symmetry_equiv_pos_site_id
 _symmetry_equiv_pos_as_xyz
  1  'x, y, z'
loop_
 _atom_site_type_symbol
 _atom_site_label
 _atom_site_symmetry_multiplicity
 _atom_site_fract_x
 _atom_site_fract_y
 _atom_site_fract_z
 _atom_site_occupancy
  Na  Na0  1  0.00823901  0.95272100  -0.00000000  1
  Tb  Tb1  1  0.50808299  0.54391100  0.50000000  1
  Tb  Tb2  1  0.99113596  0.04481500  0.50000000  1
  Tb  Tb3  1  0.48860799  0.44340800  -0.00000000  1
  Mn  Mn4  1  0.99852597  0.50062000  0.25127300  1
  Mn  Mn5  1  0.50127699  0.99673300  0.74860801  1
  Mn  Mn6  1  0.99852597  0.50062000  0.74872701  1
  Mn  Mn7  1  0.50127699  0.99673300  0.25139200  1
  O  O8  1  0.21255899  0.21388100  0.20197000  1
  O  O9  1  0.29824600  0.70322600  0.79516501  1
  O  O10  1  0.79833798  0.79635300  0.71066401  1
  O  O11  1  0.69919898  0.29868000  0.28344200  1
  O  O12  1  0.79833798  0.79635300  0.28933600  1
  O  O13  1  0.69919898  0.29868000  0.71655801  1
  O  O14  1  0.21255899  0.21388100  0.79803001  1
  O  O15  1  0.29824600  0.70322600  0.20483500  1
  O  O16  1  0.57791398  0.02285200  -0.00000000  1
  O  O17  1  0.91270097  0.51881100  -0.00000000  1
  O  O18  1  0.42036200  0.97848900  0.50000000  1
  O  O19  1  0.07666500  0.47600800  0.50000000  1
