# generated using pymatgen
data_NaVO2
_symmetry_space_group_name_H-M   'P 1'
_cell_length_a   5.54669714
_cell_length_b   5.98884201
_cell_length_c   7.37806511
_cell_angle_alpha   90.00000000
_cell_angle_beta   90.00000000
_cell_angle_gamma   112.68782043
_symmetry_Int_Tables_number   1
_chemical_formula_structural   NaVO2
_chemical_formula_sum   'Na4 V4 O8'
_cell_volume   226.12194150
_cell_formula_units_Z   4
loop_
 _symmetry_equiv_pos_site_id
 _symmetry_equiv_pos_as_xyz
  1  'x, y, z'
loop_
 _atom_site_type_symbol
 _atom_site_label
 _atom_site_symmetry_multiplicity
 _atom_site_fract_x
 _atom_site_fract_y
 _atom_site_fract_z
 _atom_site_occupancy
  Na  Na0  1  0.67578097  0.33704300  0.92509699  1
  Na  Na1  1  0.82421896  0.66295700  0.42509699  1
  Na  Na2  1  0.32421897  0.66295700  0.07490300  1
  Na  Na3  1  0.17578098  0.33704300  0.57490299  1
  V  V4  1  0.07073399  0.10479500  0.14129800  1
  V  V5  1  0.92926594  0.89520500  0.85870199  1
  V  V6  1  0.42926596  0.89520500  0.64129799  1
  V  V7  1  0.57073398  0.10479500  0.35870199  1
  O  O8  1  0.89043097  0.20946400  0.28311300  1
  O  O9  1  0.60956896  0.79053600  0.78311299  1
  O  O10  1  0.10956897  0.79053600  0.71688699  1
  O  O11  1  0.39043098  0.20946400  0.21688700  1
  O  O12  1  0.07927399  0.20969300  0.91344899  1
  O  O13  1  0.57927398  0.20969300  0.58655099  1
  O  O14  1  0.92072595  0.79030700  0.08655100  1
  O  O15  1  0.42072596  0.79030700  0.41344899  1
