# generated using pymatgen
data_Eu2AlGe4Pt3
_symmetry_space_group_name_H-M   'P 1'
_cell_length_a   4.46274281
_cell_length_b   4.46274281
_cell_length_c   10.53296661
_cell_angle_alpha   90.00000000
_cell_angle_beta   90.00000000
_cell_angle_gamma   90.00000000
_symmetry_Int_Tables_number   1
_chemical_formula_structural   Eu2AlGe4Pt3
_chemical_formula_sum   'Eu2 Al1 Ge4 Pt3'
_cell_volume   209.77533565
_cell_formula_units_Z   1
loop_
 _symmetry_equiv_pos_site_id
 _symmetry_equiv_pos_as_xyz
  1  'x, y, z'
loop_
 _atom_site_type_symbol
 _atom_site_label
 _atom_site_symmetry_multiplicity
 _atom_site_fract_x
 _atom_site_fract_y
 _atom_site_fract_z
 _atom_site_occupancy
  Eu  Eu0  1  0.00000000  0.50000002  0.23834301  1
  Eu  Eu1  1  0.50000002  0.00000000  0.76165703  1
  Pt  Pt2  1  0.00000000  0.00000000  0.00000000  1
  Pt  Pt3  1  0.50000002  0.50000002  -0.00000000  1
  Al  Al4  1  0.00000000  0.50000002  0.63442302  1
  Pt  Pt5  1  0.50000002  0.00000000  0.36557701  1
  Ge  Ge6  1  0.00000000  0.00000000  0.50000002  1
  Ge  Ge7  1  0.50000002  0.50000002  0.50000002  1
  Ge  Ge8  1  0.00000000  0.50000002  0.87241603  1
  Ge  Ge9  1  0.50000002  0.00000000  0.12758400  1
