# generated using pymatgen
data_K6Li3BiTe5O3
_symmetry_space_group_name_H-M   'P 1'
_cell_length_a   6.27050734
_cell_length_b   6.27214241
_cell_length_c   11.10398483
_cell_angle_alpha   106.39672852
_cell_angle_beta   90.00006866
_cell_angle_gamma   89.99998474
_symmetry_Int_Tables_number   1
_chemical_formula_structural   K6Li3BiTe5O3
_chemical_formula_sum   'K6 Li3 Bi1 Te5 O3'
_cell_volume   418.95320697
_cell_formula_units_Z   1
loop_
 _symmetry_equiv_pos_site_id
 _symmetry_equiv_pos_as_xyz
  1  'x, y, z'
loop_
 _atom_site_type_symbol
 _atom_site_label
 _atom_site_symmetry_multiplicity
 _atom_site_fract_x
 _atom_site_fract_y
 _atom_site_fract_z
 _atom_site_occupancy
  K  K0  1  0.99999599  0.58174799  0.16350996  1
  K  K1  1  0.50000300  0.08174800  0.16350998  1
  K  K2  1  0.50000298  0.91825199  0.83648997  1
  K  K3  1  0.99999600  0.41825199  0.83648996  1
  K  K4  1  0.50000299  0.49999899  0.99999898  1
  Te  Te5  1  0.75001600  0.00000000  0.50000097  1
  Li  Li6  1  0.24996299  0.49999999  0.50000099  1
  Bi  Bi7  1  0.99999901  0.00000000  -0.00000004  1
  Li  Li8  1  0.74998599  0.50000099  0.49999997  1
  Li  Li9  1  0.25003498  0.99999799  0.49999998  1
  Te  Te10  1  0.49999899  0.66771199  0.33548398  1
  Te  Te11  1  0.00000100  0.16771300  0.33548600  1
  Te  Te12  1  0.00000098  0.83228599  0.66451199  1
  Te  Te13  1  0.49999800  0.33228800  0.66451498  1
  O  O14  1  0.74999599  0.74999699  0.00000097  1
  O  O15  1  0.25000400  0.25000400  -0.00000001  1
  O  O16  1  0.74999600  0.25000400  0.00000097  1
  K  K17  1  0.25000299  0.74999699  0.00000098  1
