# generated using pymatgen
data_CsSb6
_symmetry_space_group_name_H-M   'P 1'
_cell_length_a   6.42423582
_cell_length_b   6.42423582
_cell_length_c   7.79038191
_cell_angle_alpha   114.35055542
_cell_angle_beta   114.35055542
_cell_angle_gamma   90.00000000
_symmetry_Int_Tables_number   1
_chemical_formula_structural   CsSb6
_chemical_formula_sum   'Cs1 Sb6'
_cell_volume   261.19774440
_cell_formula_units_Z   1
loop_
 _symmetry_equiv_pos_site_id
 _symmetry_equiv_pos_as_xyz
  1  'x, y, z'
loop_
 _atom_site_type_symbol
 _atom_site_label
 _atom_site_symmetry_multiplicity
 _atom_site_fract_x
 _atom_site_fract_y
 _atom_site_fract_z
 _atom_site_occupancy
  Sb  Sb0  1  0.00000000  0.00000000  0.00000000  1
  Sb  Sb1  1  0.49999998  0.50000000  -0.00000005  1
  Sb  Sb2  1  0.24999996  0.75000000  0.49999994  1
  Sb  Sb3  1  0.41067298  0.36801800  0.27367496  1
  Sb  Sb4  1  0.09434297  0.58932700  0.72632496  1
  Cs  Cs5  1  0.63198200  0.13699800  0.72632496  1
  Sb  Sb6  1  0.86300196  0.90565700  0.27367490  1
