# generated using pymatgen
data_Rb3HgAsAu3S(ClF2)3
_symmetry_space_group_name_H-M   'P 1'
_cell_length_a   6.91041994
_cell_length_b   6.91041994
_cell_length_c   9.53067303
_cell_angle_alpha   90.00000000
_cell_angle_beta   90.00000000
_cell_angle_gamma   90.00000000
_symmetry_Int_Tables_number   1
_chemical_formula_structural   Rb3HgAsAu3S(ClF2)3
_chemical_formula_sum   'Rb3 Hg1 As1 Au3 S1 Cl3 F6'
_cell_volume   455.12684250
_cell_formula_units_Z   1
loop_
 _symmetry_equiv_pos_site_id
 _symmetry_equiv_pos_as_xyz
  1  'x, y, z'
loop_
 _atom_site_type_symbol
 _atom_site_label
 _atom_site_symmetry_multiplicity
 _atom_site_fract_x
 _atom_site_fract_y
 _atom_site_fract_z
 _atom_site_occupancy
  S  S0  1  0.00000000  0.00000000  0.75000000  1
  F  F1  1  0.00000000  0.00000000  0.25000000  1
  Au  Au2  1  0.65699101  0.05493400  0.00000000  1
  Au  Au3  1  0.34300900  0.94506601  -0.00000000  1
  F  F4  1  0.05493400  0.34300900  0.50000000  1
  As  As5  1  0.94506601  0.65699101  0.50000000  1
  Hg  Hg6  1  0.20326700  0.30567200  0.68088100  1
  F  F7  1  0.69432801  0.20326700  0.18088100  1
  F  F8  1  0.15846500  0.17688600  -0.00000000  1
  Rb  Rb9  1  0.82311401  0.15846500  0.50000000  1
  Rb  Rb10  1  0.17688600  0.84153501  0.50000000  1
  Rb  Rb11  1  0.84153501  0.82311401  -0.00000000  1
  Au  Au12  1  0.20326700  0.30567200  0.31911900  1
  Cl  Cl13  1  0.69432801  0.20326700  0.81911900  1
  Cl  Cl14  1  0.30567200  0.79673301  0.81911900  1
  F  F15  1  0.79673301  0.69432801  0.31911900  1
  Cl  Cl16  1  0.79673301  0.69432801  0.68088100  1
  F  F17  1  0.30567200  0.79673301  0.18088100  1
