# generated using pymatgen
data_LuScSe4
_symmetry_space_group_name_H-M   'P 1'
_cell_length_a   3.55294204
_cell_length_b   7.06326199
_cell_length_c   7.06326199
_cell_angle_alpha   90.00000000
_cell_angle_beta   90.00000000
_cell_angle_gamma   90.00000000
_symmetry_Int_Tables_number   1
_chemical_formula_structural   LuScSe4
_chemical_formula_sum   'Lu1 Sc1 Se4'
_cell_volume   177.25510536
_cell_formula_units_Z   1
loop_
 _symmetry_equiv_pos_site_id
 _symmetry_equiv_pos_as_xyz
  1  'x, y, z'
loop_
 _atom_site_type_symbol
 _atom_site_label
 _atom_site_symmetry_multiplicity
 _atom_site_fract_x
 _atom_site_fract_y
 _atom_site_fract_z
 _atom_site_occupancy
  Sc  Sc0  1  0.00000000  0.00000000  0.00000000  1
  Lu  Lu1  1  0.49999999  0.50000000  0.50000000  1
  Se  Se2  1  0.00000000  0.28065400  0.28065400  1
  Se  Se3  1  0.00000000  0.71934600  0.71934600  1
  Se  Se4  1  0.49999999  0.21934600  0.78065400  1
  Se  Se5  1  0.49999999  0.78065400  0.21934600  1
