# generated using pymatgen
data_Li3NbN2
_symmetry_space_group_name_H-M   'P 1'
_cell_length_a   4.14955854
_cell_length_b   4.14955854
_cell_length_c   4.16836834
_cell_angle_alpha   104.81748962
_cell_angle_beta   104.81748962
_cell_angle_gamma   119.09110260
_symmetry_Int_Tables_number   1
_chemical_formula_structural   Li3NbN2
_chemical_formula_sum   'Li3 Nb1 N2'
_cell_volume   54.15071319
_cell_formula_units_Z   1
loop_
 _symmetry_equiv_pos_site_id
 _symmetry_equiv_pos_as_xyz
  1  'x, y, z'
loop_
 _atom_site_type_symbol
 _atom_site_label
 _atom_site_symmetry_multiplicity
 _atom_site_fract_x
 _atom_site_fract_y
 _atom_site_fract_z
 _atom_site_occupancy
  Li  Li0  1  0.83712201  0.16287800  -0.00000003  1
  Li  Li1  1  0.16287794  0.83712198  -0.00000005  1
  Li  Li2  1  0.66666663  0.66671899  0.33333326  1
  Nb  Nb3  1  0.33328098  0.33333333  0.66656195  1
  N  N4  1  0.24999995  0.74999998  0.49999993  1
  N  N5  1  0.75000000  0.24999999  0.49999995  1
