# generated using pymatgen
data_KIn2ClO2
_symmetry_space_group_name_H-M   'P 1'
_cell_length_a   3.57636809
_cell_length_b   3.98447490
_cell_length_c   8.98387432
_cell_angle_alpha   90.00000000
_cell_angle_beta   90.00000000
_cell_angle_gamma   90.00000000
_symmetry_Int_Tables_number   1
_chemical_formula_structural   KIn2ClO2
_chemical_formula_sum   'K1 In2 Cl1 O2'
_cell_volume   128.01974993
_cell_formula_units_Z   1
loop_
 _symmetry_equiv_pos_site_id
 _symmetry_equiv_pos_as_xyz
  1  'x, y, z'
loop_
 _atom_site_type_symbol
 _atom_site_label
 _atom_site_symmetry_multiplicity
 _atom_site_fract_x
 _atom_site_fract_y
 _atom_site_fract_z
 _atom_site_occupancy
  In  In0  1  0.00000000  0.50000001  0.10372300  1
  O  O1  1  0.49999999  0.00000000  0.89627697  1
  Cl  Cl2  1  0.49999999  0.50000001  0.32554799  1
  K  K3  1  0.00000000  0.00000000  0.67445198  1
  In  In4  1  0.49999999  0.50000001  0.96943097  1
  O  O5  1  0.00000000  0.00000000  0.03056900  1
