# generated using pymatgen
data_La(CS)3
_symmetry_space_group_name_H-M   'P 1'
_cell_length_a   4.65817022
_cell_length_b   4.84347820
_cell_length_c   8.92980671
_cell_angle_alpha   86.17547607
_cell_angle_beta   76.64118195
_cell_angle_gamma   81.78749847
_symmetry_Int_Tables_number   1
_chemical_formula_structural   La(CS)3
_chemical_formula_sum   'La2 C6 S6'
_cell_volume   193.89164627
_cell_formula_units_Z   2
loop_
 _symmetry_equiv_pos_site_id
 _symmetry_equiv_pos_as_xyz
  1  'x, y, z'
loop_
 _atom_site_type_symbol
 _atom_site_label
 _atom_site_symmetry_multiplicity
 _atom_site_fract_x
 _atom_site_fract_y
 _atom_site_fract_z
 _atom_site_occupancy
  S  S0  1  -0.00000002  0.50000003  -0.00000000  1
  C  C1  1  0.49999996  0.50000003  0.50000001  1
  La  La2  1  0.32493098  0.03187300  0.31427501  1
  La  La3  1  0.67506894  0.96812705  0.68572502  1
  S  S4  1  0.67993294  0.70072004  0.03439300  1
  S  S5  1  0.84378295  0.24070601  0.09623801  1
  C  C6  1  0.06659598  0.59660903  0.15977100  1
  C  C7  1  0.38803796  0.52716003  0.39661901  1
  C  C8  1  0.78893493  0.97873705  0.41455501  1
  C  C9  1  0.21106499  0.02126300  0.58544502  1
  C  C10  1  0.61196195  0.47284002  0.60338102  1
  S  S11  1  0.93340394  0.40339102  0.84022903  1
  S  S12  1  0.15621697  0.75929404  0.90376202  1
  S  S13  1  0.32006697  0.29928002  0.96560703  1
