# generated using pymatgen
data_LiMg2Ga
_symmetry_space_group_name_H-M   'P 1'
_cell_length_a   3.96844172
_cell_length_b   3.96844172
_cell_length_c   7.03169870
_cell_angle_alpha   73.60950470
_cell_angle_beta   73.60950470
_cell_angle_gamma   60.00000381
_symmetry_Int_Tables_number   1
_chemical_formula_structural   LiMg2Ga
_chemical_formula_sum   'Li1 Mg2 Ga1'
_cell_volume   90.66895010
_cell_formula_units_Z   1
loop_
 _symmetry_equiv_pos_site_id
 _symmetry_equiv_pos_as_xyz
  1  'x, y, z'
loop_
 _atom_site_type_symbol
 _atom_site_label
 _atom_site_symmetry_multiplicity
 _atom_site_fract_x
 _atom_site_fract_y
 _atom_site_fract_z
 _atom_site_occupancy
  Li  Li0  1  0.50000000  0.50000000  0.50000003  1
  Ga  Ga1  1  0.00000000  0.00000000  0.00000000  1
  Mg  Mg2  1  0.74237000  0.74237001  0.77289004  1
  Mg  Mg3  1  0.25763000  0.25763000  0.22711001  1
