# generated using pymatgen
data_Eu2CuO4
_symmetry_space_group_name_H-M   'P 1'
_cell_length_a   3.97207403
_cell_length_b   3.97207403
_cell_length_c   6.86627007
_cell_angle_alpha   106.81278229
_cell_angle_beta   106.81278229
_cell_angle_gamma   90.00000000
_symmetry_Int_Tables_number   1
_chemical_formula_structural   Eu2CuO4
_chemical_formula_sum   'Eu2 Cu1 O4'
_cell_volume   98.85374231
_cell_formula_units_Z   1
loop_
 _symmetry_equiv_pos_site_id
 _symmetry_equiv_pos_as_xyz
  1  'x, y, z'
loop_
 _atom_site_type_symbol
 _atom_site_label
 _atom_site_symmetry_multiplicity
 _atom_site_fract_x
 _atom_site_fract_y
 _atom_site_fract_z
 _atom_site_occupancy
  Cu  Cu0  1  0.00000000  0.00000000  0.00000000  1
  Eu  Eu1  1  0.64794997  0.64794999  0.29589997  1
  Eu  Eu2  1  0.35204999  0.35204999  0.70409999  1
  O  O3  1  0.74999998  0.24999999  0.49999998  1
  O  O4  1  0.24999998  0.74999998  0.49999998  1
  O  O5  1  0.49999999  0.00000000  -0.00000001  1
  O  O6  1  0.99999997  0.49999999  0.99999997  1
