# generated using pymatgen
data_LuB2Ru
_symmetry_space_group_name_H-M   'P 1'
_cell_length_a   5.33574390
_cell_length_b   5.91799116
_cell_length_c   6.36608124
_cell_angle_alpha   90.00000000
_cell_angle_beta   90.00000000
_cell_angle_gamma   90.00000000
_symmetry_Int_Tables_number   1
_chemical_formula_structural   LuB2Ru
_chemical_formula_sum   'Lu4 B8 Ru4'
_cell_volume   201.02101683
_cell_formula_units_Z   4
loop_
 _symmetry_equiv_pos_site_id
 _symmetry_equiv_pos_as_xyz
  1  'x, y, z'
loop_
 _atom_site_type_symbol
 _atom_site_label
 _atom_site_symmetry_multiplicity
 _atom_site_fract_x
 _atom_site_fract_y
 _atom_site_fract_z
 _atom_site_occupancy
  Lu  Lu0  1  0.75000001  0.98975897  0.66265598  1
  Lu  Lu1  1  0.75000001  0.48975899  0.83734397  1
  Lu  Lu2  1  0.25000000  0.01024100  0.33734399  1
  Lu  Lu3  1  0.25000000  0.51024099  0.16265599  1
  B  B4  1  0.91563102  0.63047498  0.46138998  1
  B  B5  1  0.58436901  0.13047500  0.03861000  1
  B  B6  1  0.41563101  0.36952499  0.53860998  1
  B  B7  1  0.08436900  0.86952498  0.96138996  1
  B  B8  1  0.08436900  0.36952499  0.53860998  1
  B  B9  1  0.41563101  0.86952498  0.96138996  1
  B  B10  1  0.58436901  0.63047498  0.46138998  1
  B  B11  1  0.91563102  0.13047500  0.03861000  1
  Ru  Ru12  1  0.75000001  0.81817098  0.18177799  1
  Ru  Ru13  1  0.75000001  0.31817099  0.31822199  1
  Ru  Ru14  1  0.25000000  0.18182900  0.81822197  1
  Ru  Ru15  1  0.25000000  0.68182898  0.68177797  1
