# generated using pymatgen
data_ZrAlNi
_symmetry_space_group_name_H-M   'P 1'
_cell_length_a   3.46689510
_cell_length_b   7.01099586
_cell_length_c   7.01099634
_cell_angle_alpha   120.00000000
_cell_angle_beta   90.00000000
_cell_angle_gamma   90.00000000
_symmetry_Int_Tables_number   1
_chemical_formula_structural   ZrAlNi
_chemical_formula_sum   'Zr3 Al3 Ni3'
_cell_volume   147.58111416
_cell_formula_units_Z   3
loop_
 _symmetry_equiv_pos_site_id
 _symmetry_equiv_pos_as_xyz
  1  'x, y, z'
loop_
 _atom_site_type_symbol
 _atom_site_label
 _atom_site_symmetry_multiplicity
 _atom_site_fract_x
 _atom_site_fract_y
 _atom_site_fract_z
 _atom_site_occupancy
  Zr  Zr0  1  0.49999999  0.59864402  0.00000002  1
  Zr  Zr1  1  0.49999999  0.40135601  0.40135601  1
  Zr  Zr2  1  0.49999999  0.00000000  0.59864400  1
  Ni  Ni3  1  0.00000000  0.33333334  0.66666667  1
  Ni  Ni4  1  -0.00000000  0.66666669  0.33333335  1
  Ni  Ni5  1  0.49999999  0.00000000  -0.00000000  1
  Al  Al6  1  0.00000000  0.25610701  0.00000001  1
  Al  Al7  1  0.00000000  0.74389303  0.74389302  1
  Al  Al8  1  0.99999997  1.00000003  0.25610703  1
