# generated using pymatgen
data_Li8CeO6
_symmetry_space_group_name_H-M   'P 1'
_cell_length_a   5.64358568
_cell_length_b   5.64358568
_cell_length_c   6.30715799
_cell_angle_alpha   63.42330551
_cell_angle_beta   63.42330551
_cell_angle_gamma   60.00000381
_symmetry_Int_Tables_number   1
_chemical_formula_structural   Li8CeO6
_chemical_formula_sum   'Li8 Ce1 O6'
_cell_volume   148.95706616
_cell_formula_units_Z   1
loop_
 _symmetry_equiv_pos_site_id
 _symmetry_equiv_pos_as_xyz
  1  'x, y, z'
loop_
 _atom_site_type_symbol
 _atom_site_label
 _atom_site_symmetry_multiplicity
 _atom_site_fract_x
 _atom_site_fract_y
 _atom_site_fract_z
 _atom_site_occupancy
  Li  Li0  1  0.35344002  0.35344000  0.93967998  1
  Li  Li1  1  0.50719804  0.89786801  0.36839799  1
  Li  Li2  1  0.22653602  0.50719800  0.36839799  1
  Li  Li3  1  0.89786803  0.22653600  0.36839799  1
  Li  Li4  1  0.49280201  0.10213200  0.63160199  1
  Li  Li5  1  0.77346403  0.49280200  0.63160199  1
  Li  Li6  1  0.64656004  0.64656001  0.06032000  1
  Li  Li7  1  0.10213203  0.77346401  0.63160198  1
  Ce  Ce8  1  0.00000000  0.00000000  0.00000000  1
  O  O9  1  0.24281704  0.89850501  0.25701399  1
  O  O10  1  0.10149502  0.39833600  0.74298598  1
  O  O11  1  0.75718302  0.10149500  0.74298598  1
  O  O12  1  0.60166402  0.24281700  0.25701400  1
  O  O13  1  0.89850504  0.60166401  0.25701400  1
  O  O14  1  0.39833603  0.75718301  0.74298598  1
