# generated using pymatgen
data_Na2O2
_symmetry_space_group_name_H-M   'P 1'
_cell_length_a   5.19715595
_cell_length_b   5.97423649
_cell_length_c   5.72203875
_cell_angle_alpha   81.26808929
_cell_angle_beta   69.57258606
_cell_angle_gamma   64.21699524
_symmetry_Int_Tables_number   1
_chemical_formula_structural   Na2O2
_chemical_formula_sum   'Na5 O5'
_cell_volume   149.91684953
_cell_formula_units_Z   2
loop_
 _symmetry_equiv_pos_site_id
 _symmetry_equiv_pos_as_xyz
  1  'x, y, z'
loop_
 _atom_site_type_symbol
 _atom_site_label
 _atom_site_symmetry_multiplicity
 _atom_site_fract_x
 _atom_site_fract_y
 _atom_site_fract_z
 _atom_site_occupancy
  Na  Na0  1  0.06024602  0.87950795  0.25000005  1
  O  O1  1  0.93975399  0.12049199  0.75000009  1
  O  O2  1  0.49173401  0.56260197  0.30906606  1
  Na  Na3  1  0.94566400  0.56260197  0.19093408  1
  O  O4  1  0.18267500  0.17880799  0.32370903  1
  Na  Na5  1  0.63851700  0.17880799  0.17629105  1
  Na  Na6  1  0.81732501  0.82119196  0.67629110  1
  O  O7  1  0.36148301  0.82119196  0.82370908  1
  O  O8  1  0.05433601  0.43739798  0.80906605  1
  Na  Na9  1  0.50826600  0.43739798  0.69093407  1
