# generated using pymatgen
data_GaSe
_symmetry_space_group_name_H-M   'P 1'
_cell_length_a   4.04997396
_cell_length_b   4.04997349
_cell_length_c   6.68395710
_cell_angle_alpha   90.00000000
_cell_angle_beta   90.00000000
_cell_angle_gamma   120.00000000
_symmetry_Int_Tables_number   1
_chemical_formula_structural   GaSe
_chemical_formula_sum   'Ga2 Se2'
_cell_volume   94.94425631
_cell_formula_units_Z   2
loop_
 _symmetry_equiv_pos_site_id
 _symmetry_equiv_pos_as_xyz
  1  'x, y, z'
loop_
 _atom_site_type_symbol
 _atom_site_label
 _atom_site_symmetry_multiplicity
 _atom_site_fract_x
 _atom_site_fract_y
 _atom_site_fract_z
 _atom_site_occupancy
  Se  Se0  1  0.33333330  0.66666668  0.93705799  1
  Se  Se1  1  0.66666665  0.33333334  0.43705799  1
  Ga  Ga2  1  0.33333330  0.66666668  0.56294199  1
  Ga  Ga3  1  0.66666665  0.33333334  0.06294200  1
