# generated using pymatgen
data_Ce(Mg3Sb2)3
_symmetry_space_group_name_H-M   'P 1'
_cell_length_a   6.27843285
_cell_length_b   8.94411373
_cell_length_c   8.94411373
_cell_angle_alpha   120.00000000
_cell_angle_beta   90.00000000
_cell_angle_gamma   90.00000000
_symmetry_Int_Tables_number   1
_chemical_formula_structural   Ce(Mg3Sb2)3
_chemical_formula_sum   'Ce1 Mg9 Sb6'
_cell_volume   434.96720214
_cell_formula_units_Z   1
loop_
 _symmetry_equiv_pos_site_id
 _symmetry_equiv_pos_as_xyz
  1  'x, y, z'
loop_
 _atom_site_type_symbol
 _atom_site_label
 _atom_site_symmetry_multiplicity
 _atom_site_fract_x
 _atom_site_fract_y
 _atom_site_fract_z
 _atom_site_occupancy
  Ce  Ce0  1  0.00000000  0.66666669  0.33333335  1
  Mg  Mg1  1  0.50000001  0.33333334  0.66666669  1
  Mg  Mg2  1  0.00000000  0.33333334  0.66666669  1
  Mg  Mg3  1  0.50000001  0.66666669  0.33333335  1
  Mg  Mg4  1  0.25000001  0.24648301  0.24648301  1
  Mg  Mg5  1  0.75000002  0.24648301  0.00000000  1
  Mg  Mg6  1  0.75000002  0.00000000  0.24648301  1
  Mg  Mg7  1  0.25000001  0.00000000  0.75351703  1
  Mg  Mg8  1  0.25000001  0.75351702  0.00000000  1
  Mg  Mg9  1  0.75000002  0.75351702  0.75351703  1
  Sb  Sb10  1  0.25000001  0.61109802  0.61109802  1
  Sb  Sb11  1  0.75000002  0.61109802  0.00000000  1
  Sb  Sb12  1  0.75000002  0.00000000  0.61109802  1
  Sb  Sb13  1  0.25000001  0.00000000  0.38890201  1
  Sb  Sb14  1  0.25000001  0.38890201  0.00000000  1
  Sb  Sb15  1  0.75000002  0.38890201  0.38890202  1
