# generated using pymatgen
data_Ag2Te3
_symmetry_space_group_name_H-M   'P 1'
_cell_length_a   6.56678915
_cell_length_b   8.04078007
_cell_length_c   8.04078102
_cell_angle_alpha   80.40145111
_cell_angle_beta   65.89922333
_cell_angle_gamma   65.89923096
_symmetry_Int_Tables_number   1
_chemical_formula_structural   Ag2Te3
_chemical_formula_sum   'Ag4 Te6'
_cell_volume   353.77572797
_cell_formula_units_Z   2
loop_
 _symmetry_equiv_pos_site_id
 _symmetry_equiv_pos_as_xyz
  1  'x, y, z'
loop_
 _atom_site_type_symbol
 _atom_site_label
 _atom_site_symmetry_multiplicity
 _atom_site_fract_x
 _atom_site_fract_y
 _atom_site_fract_z
 _atom_site_occupancy
  Te  Te0  1  0.59999999  0.20000001  0.59999998  1
  Te  Te1  1  0.00063000  0.00160100  0.99944497  1
  Te  Te2  1  0.39776997  0.80055504  0.40160101  1
  Te  Te3  1  0.79992497  0.59944503  0.79839898  1
  Te  Te4  1  0.20167598  0.39839902  0.20055501  1
  Ag  Ag5  1  0.64755198  0.29675901  0.88919297  1
  Te  Te6  1  0.03350400  0.10324100  0.31080700  1
  Ag  Ag7  1  0.45568896  0.91080704  0.69675901  1
  Ag  Ag8  1  0.84999997  0.70000003  0.10000000  1
  Ag  Ag9  1  0.26325498  0.48919302  0.50324100  1
