# generated using pymatgen
data_TmB4
_symmetry_space_group_name_H-M   'P 1'
_cell_length_a   4.18269491
_cell_length_b   7.31065607
_cell_length_c   7.31065607
_cell_angle_alpha   90.00000000
_cell_angle_beta   90.00000000
_cell_angle_gamma   90.00000000
_symmetry_Int_Tables_number   1
_chemical_formula_structural   TmB4
_chemical_formula_sum   'Tm4 B16'
_cell_volume   223.54702476
_cell_formula_units_Z   4
loop_
 _symmetry_equiv_pos_site_id
 _symmetry_equiv_pos_as_xyz
  1  'x, y, z'
loop_
 _atom_site_type_symbol
 _atom_site_label
 _atom_site_symmetry_multiplicity
 _atom_site_fract_x
 _atom_site_fract_y
 _atom_site_fract_z
 _atom_site_occupancy
  Tm  Tm0  1  0.00000000  0.18395500  0.68395499  1
  Tm  Tm1  1  0.00000000  0.68395499  0.81604499  1
  Tm  Tm2  1  1.00000002  0.31604500  0.18395500  1
  Tm  Tm3  1  1.00000002  0.81604499  0.31604500  1
  B  B4  1  0.50000001  0.32647800  0.46090200  1
  B  B5  1  0.50000001  0.67352199  0.53909799  1
  B  B6  1  0.50000001  0.53909799  0.32647800  1
  B  B7  1  0.50000001  0.46090200  0.67352199  1
  B  B8  1  0.20583200  0.00000000  -0.00000000  1
  B  B9  1  0.79416802  0.50000000  0.50000000  1
  B  B10  1  0.79416802  0.00000000  0.00000000  1
  B  B11  1  0.20583200  0.50000000  0.50000000  1
  B  B12  1  0.50000001  0.58886599  0.08886600  1
  B  B13  1  0.50000001  0.08886600  0.41113400  1
  B  B14  1  0.50000001  0.91113399  0.58886599  1
  B  B15  1  0.50000001  0.41113400  0.91113399  1
  B  B16  1  0.50000001  0.03909800  0.17352200  1
  B  B17  1  0.50000001  0.17352200  0.96090199  1
  B  B18  1  0.50000001  0.82647799  0.03909800  1
  B  B19  1  0.50000001  0.96090199  0.82647799  1
