# generated using pymatgen
data_ScSiAgSOF
_symmetry_space_group_name_H-M   'P 1'
_cell_length_a   3.05892301
_cell_length_b   3.13809395
_cell_length_c   7.11104345
_cell_angle_alpha   77.25282288
_cell_angle_beta   90.00000000
_cell_angle_gamma   90.00000000
_symmetry_Int_Tables_number   1
_chemical_formula_structural   ScSiAgSOF
_chemical_formula_sum   'Sc1 Si1 Ag1 S1 O1 F1'
_cell_volume   66.57784436
_cell_formula_units_Z   1
loop_
 _symmetry_equiv_pos_site_id
 _symmetry_equiv_pos_as_xyz
  1  'x, y, z'
loop_
 _atom_site_type_symbol
 _atom_site_label
 _atom_site_symmetry_multiplicity
 _atom_site_fract_x
 _atom_site_fract_y
 _atom_site_fract_z
 _atom_site_occupancy
  O  O0  1  0.50000000  0.30697801  0.38604399  1
  Ag  Ag1  1  0.00000000  0.69958302  0.60083398  1
  F  F2  1  0.00000000  0.91309502  0.17380998  1
  Sc  Sc3  1  0.50000000  0.46393201  0.07213599  1
  Si  Si4  1  1.00000000  0.52894301  0.94211399  1
  S  S5  1  0.50000000  0.08747000  0.82506000  1
