# generated using pymatgen
data_Te4W3Se2
_symmetry_space_group_name_H-M   'P 1'
_cell_length_a   3.47535205
_cell_length_b   3.47535276
_cell_length_c   32.06502914
_cell_angle_alpha   90.00000000
_cell_angle_beta   90.00000000
_cell_angle_gamma   119.99999237
_symmetry_Int_Tables_number   1
_chemical_formula_structural   Te4W3Se2
_chemical_formula_sum   'Te4 W3 Se2'
_cell_volume   335.39764027
_cell_formula_units_Z   1
loop_
 _symmetry_equiv_pos_site_id
 _symmetry_equiv_pos_as_xyz
  1  'x, y, z'
loop_
 _atom_site_type_symbol
 _atom_site_label
 _atom_site_symmetry_multiplicity
 _atom_site_fract_x
 _atom_site_fract_y
 _atom_site_fract_z
 _atom_site_occupancy
  Te  Te0  1  0.00000000  0.00000000  0.59552200  1
  Te  Te1  1  0.66666665  0.33333333  0.94181000  1
  Te  Te2  1  0.66666665  0.33333333  0.82691700  1
  Te  Te3  1  0.00000000  0.00000000  0.71043000  1
  W  W4  1  0.00000000  0.00000000  0.88439800  1
  W  W5  1  0.66666665  0.33333333  0.65301000  1
  W  W6  1  0.00000000  0.00000000  0.42169600  1
  Se  Se7  1  0.66666665  0.33333333  0.47250700  1
  Se  Se8  1  0.66666665  0.33333333  0.37086900  1
