# generated using pymatgen
data_Mn7O8
_symmetry_space_group_name_H-M   'P 1'
_cell_length_a   5.94826555
_cell_length_b   5.94826555
_cell_length_c   5.94826603
_cell_angle_alpha   60.51667404
_cell_angle_beta   60.51667404
_cell_angle_gamma   60.51667404
_symmetry_Int_Tables_number   1
_chemical_formula_structural   Mn7O8
_chemical_formula_sum   'Mn7 O8'
_cell_volume   150.55574010
_cell_formula_units_Z   1
loop_
 _symmetry_equiv_pos_site_id
 _symmetry_equiv_pos_as_xyz
  1  'x, y, z'
loop_
 _atom_site_type_symbol
 _atom_site_label
 _atom_site_symmetry_multiplicity
 _atom_site_fract_x
 _atom_site_fract_y
 _atom_site_fract_z
 _atom_site_occupancy
  Mn  Mn0  1  0.50000001  0.50000000  0.99999999  1
  Mn  Mn1  1  0.50000002  1.00000000  0.50000001  1
  Mn  Mn2  1  0.00000001  0.50000000  0.49999999  1
  Mn  Mn3  1  0.00000000  0.00000000  0.00000000  1
  Mn  Mn4  1  0.00000000  0.00000000  0.49999998  1
  Mn  Mn5  1  0.00000001  0.50000000  0.00000001  1
  Mn  Mn6  1  0.50000002  1.00000000  0.99999999  1
  O  O7  1  0.25111001  0.25111000  0.25111000  1
  O  O8  1  0.74889002  0.74889000  0.74889000  1
  O  O9  1  0.22949301  0.22949300  0.76968198  1
  O  O10  1  0.22949302  0.76968200  0.22949301  1
  O  O11  1  0.76968201  0.22949300  0.22949301  1
  O  O12  1  0.77050702  0.77050700  0.23031802  1
  O  O13  1  0.77050701  0.23031800  0.77050700  1
  O  O14  1  0.23031802  0.77050700  0.77050699  1
