# generated using pymatgen
data_Ca2PO6
_symmetry_space_group_name_H-M   'P 1'
_cell_length_a   4.17976713
_cell_length_b   4.19282818
_cell_length_c   7.93930817
_cell_angle_alpha   105.31080627
_cell_angle_beta   105.26194763
_cell_angle_gamma   90.00000000
_symmetry_Int_Tables_number   1
_chemical_formula_structural   Ca2PO6
_chemical_formula_sum   'Ca2 P1 O6'
_cell_volume   129.10387333
_cell_formula_units_Z   1
loop_
 _symmetry_equiv_pos_site_id
 _symmetry_equiv_pos_as_xyz
  1  'x, y, z'
loop_
 _atom_site_type_symbol
 _atom_site_label
 _atom_site_symmetry_multiplicity
 _atom_site_fract_x
 _atom_site_fract_y
 _atom_site_fract_z
 _atom_site_occupancy
  Ca  Ca0  1  0.17350999  0.67350896  0.34701899  1
  Ca  Ca1  1  0.82648997  0.32649098  0.65298100  1
  P  P2  1  0.49999999  0.00000000  0.00000000  1
  O  O3  1  0.76192497  0.85772996  0.11909099  1
  O  O4  1  0.35716599  0.26136099  0.11909100  1
  O  O5  1  0.64283398  0.14226999  0.88090900  1
  O  O6  1  0.23807499  0.73863896  0.88090899  1
  O  O7  1  0.24996399  0.24996399  0.49992800  1
  O  O8  1  0.75003597  0.75003596  0.50007199  1
