# generated using pymatgen
data_Li3V3(OF3)2
_symmetry_space_group_name_H-M   'P 1'
_cell_length_a   5.04776907
_cell_length_b   5.36738777
_cell_length_c   6.12042093
_cell_angle_alpha   90.00000000
_cell_angle_beta   90.66895294
_cell_angle_gamma   90.00000000
_symmetry_Int_Tables_number   1
_chemical_formula_structural   Li3V3(OF3)2
_chemical_formula_sum   'Li3 V3 O2 F6'
_cell_volume   165.81130644
_cell_formula_units_Z   1
loop_
 _symmetry_equiv_pos_site_id
 _symmetry_equiv_pos_as_xyz
  1  'x, y, z'
loop_
 _atom_site_type_symbol
 _atom_site_label
 _atom_site_symmetry_multiplicity
 _atom_site_fract_x
 _atom_site_fract_y
 _atom_site_fract_z
 _atom_site_occupancy
  Li  Li0  1  0.00178400  0.33560401  0.24699701  1
  V  V1  1  0.50178399  0.66439603  0.74699702  1
  Li  Li2  1  0.51326799  0.18210901  0.50108601  1
  Li  Li3  1  0.01326800  0.81789103  0.00108600  1
  V  V4  1  0.99765299  0.84963004  0.49993901  1
  V  V5  1  0.49765299  0.15037001  0.99993903  1
  F  F6  1  0.07237700  0.69122003  0.29537301  1
  F  F7  1  0.60720499  0.88260904  0.98299403  1
  F  F8  1  0.19113700  0.14499801  0.01672500  1
  F  F9  1  0.61390999  0.28405701  0.20600400  1
  F  F10  1  0.10720500  0.11739100  0.48299402  1
  O  O11  1  0.57237699  0.30878001  0.79537302  1
  O  O12  1  0.69113699  0.85500204  0.51672501  1
  F  F13  1  0.11391000  0.71594303  0.70600402  1
