# generated using pymatgen
data_Sc(BIr2)2
_symmetry_space_group_name_H-M   'P 1'
_cell_length_a   3.53898907
_cell_length_b   7.09822416
_cell_length_c   7.09822416
_cell_angle_alpha   90.00000000
_cell_angle_beta   90.00000000
_cell_angle_gamma   90.00000000
_symmetry_Int_Tables_number   1
_chemical_formula_structural   Sc(BIr2)2
_chemical_formula_sum   'Sc2 B4 Ir8'
_cell_volume   178.31120775
_cell_formula_units_Z   2
loop_
 _symmetry_equiv_pos_site_id
 _symmetry_equiv_pos_as_xyz
  1  'x, y, z'
loop_
 _atom_site_type_symbol
 _atom_site_label
 _atom_site_symmetry_multiplicity
 _atom_site_fract_x
 _atom_site_fract_y
 _atom_site_fract_z
 _atom_site_occupancy
  Sc  Sc0  1  0.99999998  0.49999999  0.49999999  1
  Sc  Sc1  1  0.49999999  0.00000000  -0.00000000  1
  Ir  Ir2  1  0.49999999  0.83234398  0.41862199  1
  Ir  Ir3  1  0.49999999  0.16765600  0.58137799  1
  Ir  Ir4  1  0.49999999  0.41862199  0.83234398  1
  Ir  Ir5  1  0.49999999  0.58137799  0.16765600  1
  Ir  Ir6  1  0.99999998  0.33234399  0.08137800  1
  Ir  Ir7  1  0.00000000  0.66765598  0.91862198  1
  Ir  Ir8  1  0.00000000  0.91862198  0.66765598  1
  Ir  Ir9  1  0.99999998  0.08137800  0.33234399  1
  B  B10  1  0.99999998  0.22300699  0.77699298  1
  B  B11  1  0.49999999  0.27699299  0.27699299  1
  B  B12  1  0.49999999  0.72300698  0.72300698  1
  B  B13  1  0.99999998  0.77699298  0.22300699  1
