# generated using pymatgen
data_AlSe
_symmetry_space_group_name_H-M   'P 1'
_cell_length_a   3.23141408
_cell_length_b   3.29312801
_cell_length_c   6.03223228
_cell_angle_alpha   105.84053802
_cell_angle_beta   105.53610992
_cell_angle_gamma   90.00000000
_symmetry_Int_Tables_number   1
_chemical_formula_structural   AlSe
_chemical_formula_sum   'Al2 Se2'
_cell_volume   59.31231860
_cell_formula_units_Z   2
loop_
 _symmetry_equiv_pos_site_id
 _symmetry_equiv_pos_as_xyz
  1  'x, y, z'
loop_
 _atom_site_type_symbol
 _atom_site_label
 _atom_site_symmetry_multiplicity
 _atom_site_fract_x
 _atom_site_fract_y
 _atom_site_fract_z
 _atom_site_occupancy
  Se  Se0  1  0.99711898  0.99711899  0.99423798  1
  Al  Al1  1  0.16476700  0.66476700  0.32953399  1
  Al  Al2  1  0.41792699  0.41792700  0.83585398  1
  Se  Se3  1  0.75218698  0.25218700  0.50437399  1
