# generated using pymatgen
data_HoAg
_symmetry_space_group_name_H-M   'P 1'
_cell_length_a   4.37137556
_cell_length_b   4.37137556
_cell_length_c   7.57869101
_cell_angle_alpha   73.23786163
_cell_angle_beta   73.23786163
_cell_angle_gamma   60.00000763
_symmetry_Int_Tables_number   1
_chemical_formula_structural   HoAg
_chemical_formula_sum   'Ho2 Ag2'
_cell_volume   118.25968442
_cell_formula_units_Z   2
loop_
 _symmetry_equiv_pos_site_id
 _symmetry_equiv_pos_as_xyz
  1  'x, y, z'
loop_
 _atom_site_type_symbol
 _atom_site_label
 _atom_site_symmetry_multiplicity
 _atom_site_fract_x
 _atom_site_fract_y
 _atom_site_fract_z
 _atom_site_occupancy
  Ag  Ag0  1  0.24712100  0.24712100  0.25863701  1
  Ag  Ag1  1  0.75287899  0.75287899  0.74136304  1
  Ho  Ho2  1  0.00000000  0.00000000  0.00000000  1
  Ho  Ho3  1  0.49999999  0.49999999  0.50000002  1
