# generated using pymatgen
data_In3Ag2Te9
_symmetry_space_group_name_H-M   'P 1'
_cell_length_a   7.81499434
_cell_length_b   7.81499434
_cell_length_c   7.81499434
_cell_angle_alpha   109.47122192
_cell_angle_beta   109.47122192
_cell_angle_gamma   109.47122192
_symmetry_Int_Tables_number   1
_chemical_formula_structural   In3Ag2Te9
_chemical_formula_sum   'In3 Ag2 Te9'
_cell_volume   367.42109841
_cell_formula_units_Z   1
loop_
 _symmetry_equiv_pos_site_id
 _symmetry_equiv_pos_as_xyz
  1  'x, y, z'
loop_
 _atom_site_type_symbol
 _atom_site_label
 _atom_site_symmetry_multiplicity
 _atom_site_fract_x
 _atom_site_fract_y
 _atom_site_fract_z
 _atom_site_occupancy
  Te  Te0  1  0.00000003  0.50000001  0.11113303  1
  Ag  Ag1  1  0.38886702  0.38886701  0.88886701  1
  Ag  Ag2  1  0.61113299  0.00000000  0.00000001  1
  In  In3  1  0.50000003  0.61113301  0.50000004  1
  Te  Te4  1  0.11113306  1.00000002  1.00000004  1
  In  In5  1  0.50000000  0.11113300  0.50000001  1
  In  In6  1  0.00000003  0.50000001  0.61113302  1
  Te  Te7  1  0.88886705  0.88886702  0.38886706  1
  Te  Te8  1  0.87500000  0.12500000  0.75000001  1
  Te  Te9  1  0.75000003  0.62500001  0.87500004  1
  Te  Te10  1  0.25000005  0.87500002  0.62500004  1
  Te  Te11  1  0.12500001  0.25000001  0.37500001  1
  Te  Te12  1  0.37500004  0.75000002  0.12500005  1
  Te  Te13  1  0.62500002  0.37500001  0.25000003  1
