# generated using pymatgen
data_AlAgGe2
_symmetry_space_group_name_H-M   'P 1'
_cell_length_a   2.91546106
_cell_length_b   4.05500984
_cell_length_c   4.75410700
_cell_angle_alpha   90.00000000
_cell_angle_beta   100.93193817
_cell_angle_gamma   90.00000000
_symmetry_Int_Tables_number   1
_chemical_formula_structural   AlAgGe2
_chemical_formula_sum   'Al1 Ag1 Ge2'
_cell_volume   55.18418711
_cell_formula_units_Z   1
loop_
 _symmetry_equiv_pos_site_id
 _symmetry_equiv_pos_as_xyz
  1  'x, y, z'
loop_
 _atom_site_type_symbol
 _atom_site_label
 _atom_site_symmetry_multiplicity
 _atom_site_fract_x
 _atom_site_fract_y
 _atom_site_fract_z
 _atom_site_occupancy
  Al  Al0  1  0.60448299  0.25000001  0.28466001  1
  Ag  Ag1  1  0.39551699  0.75000003  0.71534001  1
  Ge  Ge2  1  0.94334898  0.25000001  0.82802502  1
  Ge  Ge3  1  0.05665100  0.75000003  0.17197500  1
