# generated using pymatgen
data_Rb4Ga2F9
_symmetry_space_group_name_H-M   'P 1'
_cell_length_a   6.02189207
_cell_length_b   6.02189255
_cell_length_c   7.67679501
_cell_angle_alpha   90.00000000
_cell_angle_beta   90.00000000
_cell_angle_gamma   120.00000000
_symmetry_Int_Tables_number   1
_chemical_formula_structural   Rb4Ga2F9
_chemical_formula_sum   'Rb4 Ga2 F9'
_cell_volume   241.08852770
_cell_formula_units_Z   1
loop_
 _symmetry_equiv_pos_site_id
 _symmetry_equiv_pos_as_xyz
  1  'x, y, z'
loop_
 _atom_site_type_symbol
 _atom_site_label
 _atom_site_symmetry_multiplicity
 _atom_site_fract_x
 _atom_site_fract_y
 _atom_site_fract_z
 _atom_site_occupancy
  Rb  Rb0  1  0.66666668  0.33333334  0.30496800  1
  Rb  Rb1  1  0.00000000  0.00000000  0.00000000  1
  Rb  Rb2  1  0.33333336  0.66666668  0.69503200  1
  Rb  Rb3  1  0.00000000  0.00000000  0.50000000  1
  Ga  Ga4  1  0.66666668  0.33333334  0.83444700  1
  Ga  Ga5  1  0.33333336  0.66666668  0.16555300  1
  F  F6  1  0.50000005  1.00000002  -0.00000000  1
  F  F7  1  0.00000003  0.50000001  -0.00000000  1
  F  F8  1  0.50000002  0.50000001  -0.00000000  1
  F  F9  1  0.17786902  0.35573801  0.29932900  1
  F  F10  1  0.17786904  0.82213101  0.29932900  1
  F  F11  1  0.64426204  0.82213101  0.29932900  1
  F  F12  1  0.82213102  0.64426201  0.70067100  1
  F  F13  1  0.82213100  0.17786900  0.70067100  1
  F  F14  1  0.35573801  0.17786900  0.70067100  1
