# generated using pymatgen
data_In2CoS4
_symmetry_space_group_name_H-M   'P 1'
_cell_length_a   3.66951299
_cell_length_b   6.20545483
_cell_length_c   10.43869114
_cell_angle_alpha   90.31692505
_cell_angle_beta   90.00000000
_cell_angle_gamma   90.00000000
_symmetry_Int_Tables_number   1
_chemical_formula_structural   In2CoS4
_chemical_formula_sum   'In4 Co2 S8'
_cell_volume   237.69576907
_cell_formula_units_Z   2
loop_
 _symmetry_equiv_pos_site_id
 _symmetry_equiv_pos_as_xyz
  1  'x, y, z'
loop_
 _atom_site_type_symbol
 _atom_site_label
 _atom_site_symmetry_multiplicity
 _atom_site_fract_x
 _atom_site_fract_y
 _atom_site_fract_z
 _atom_site_occupancy
  In  In0  1  0.50000000  0.56469900  0.82188300  1
  In  In1  1  0.50000000  0.43530100  0.17811699  1
  In  In2  1  0.50000000  0.06583800  0.67709201  1
  In  In3  1  0.50000000  0.93416200  0.32290798  1
  Co  Co4  1  0.00000000  0.50000000  0.49999999  1
  S  S5  1  0.00000000  0.00000000  0.00000000  1
  S  S6  1  0.00000000  0.35870300  0.69109200  1
  S  S7  1  0.00000000  0.64129700  0.30890799  1
  S  S8  1  0.00000000  0.85205000  0.79359699  1
  Co  Co9  1  0.00000000  0.14795000  0.20640300  1
  S  S10  1  0.50000000  0.72610900  0.54041999  1
  S  S11  1  0.50000000  0.27389100  0.45958000  1
  S  S12  1  0.50000000  0.24107700  0.95611501  1
  S  S13  1  0.50000000  0.75892300  0.04388498  1
