# generated using pymatgen
data_Nb2Fe5B3
_symmetry_space_group_name_H-M   'P 1'
_cell_length_a   3.24184799
_cell_length_b   8.44826221
_cell_length_c   8.44826221
_cell_angle_alpha   90.00000000
_cell_angle_beta   90.00000000
_cell_angle_gamma   90.00000000
_symmetry_Int_Tables_number   1
_chemical_formula_structural   Nb2Fe5B3
_chemical_formula_sum   'Nb4 Fe10 B6'
_cell_volume   231.38085259
_cell_formula_units_Z   2
loop_
 _symmetry_equiv_pos_site_id
 _symmetry_equiv_pos_as_xyz
  1  'x, y, z'
loop_
 _atom_site_type_symbol
 _atom_site_label
 _atom_site_symmetry_multiplicity
 _atom_site_fract_x
 _atom_site_fract_y
 _atom_site_fract_z
 _atom_site_occupancy
  Nb  Nb0  1  1.00000000  0.67502898  0.17502900  1
  Nb  Nb1  1  0.00000000  0.32497099  0.82497098  1
  Nb  Nb2  1  0.00000000  0.17502900  0.32497099  1
  Nb  Nb3  1  0.00000000  0.82497098  0.67502898  1
  B  B4  1  0.00000000  0.00000000  0.00000000  1
  Fe  Fe5  1  0.00000000  0.49999999  0.49999999  1
  Fe  Fe6  1  0.50000000  0.49999999  -0.00000000  1
  Fe  Fe7  1  0.50000000  0.99999997  0.49999999  1
  Fe  Fe8  1  0.50000000  0.22081399  0.06956600  1
  Fe  Fe9  1  0.50000000  0.77918598  0.93043398  1
  B  B10  1  0.50000000  0.06956600  0.77918598  1
  Fe  Fe11  1  0.50000000  0.72081398  0.43043399  1
  Fe  Fe12  1  0.50000000  0.93043398  0.22081399  1
  Fe  Fe13  1  0.50000000  0.27918599  0.56956599  1
  Fe  Fe14  1  0.50000000  0.56956599  0.72081398  1
  Fe  Fe15  1  0.50000000  0.43043399  0.27918599  1
  B  B16  1  0.00000000  0.11790500  0.61790498  1
  B  B17  1  1.00000000  0.88209498  0.38209499  1
  B  B18  1  0.00000000  0.61790498  0.88209498  1
  B  B19  1  0.00000000  0.38209499  0.11790500  1
