# generated using pymatgen
data_Sm2Mn10Si7C
_symmetry_space_group_name_H-M   'P 1'
_cell_length_a   6.39349747
_cell_length_b   6.43637514
_cell_length_c   6.43637514
_cell_angle_alpha   83.70987701
_cell_angle_beta   83.55986023
_cell_angle_gamma   83.55986023
_symmetry_Int_Tables_number   1
_chemical_formula_structural   Sm2Mn10Si7C
_chemical_formula_sum   'Sm2 Mn10 Si7 C1'
_cell_volume   260.26618457
_cell_formula_units_Z   1
loop_
 _symmetry_equiv_pos_site_id
 _symmetry_equiv_pos_as_xyz
  1  'x, y, z'
loop_
 _atom_site_type_symbol
 _atom_site_label
 _atom_site_symmetry_multiplicity
 _atom_site_fract_x
 _atom_site_fract_y
 _atom_site_fract_z
 _atom_site_occupancy
  Sm  Sm0  1  0.34940502  0.34026000  0.34025999  1
  Sm  Sm1  1  0.65059504  0.65974001  0.65973998  1
  Mn  Mn2  1  0.15533803  0.65689801  0.65689797  1
  Si  Si3  1  0.65250202  0.14537000  0.65316402  1
  Si  Si4  1  0.65250204  0.65316401  0.14536998  1
  Mn  Mn5  1  0.84466204  0.34310200  0.34310201  1
  Si  Si6  1  0.34749804  0.85463001  0.34683596  1
  Si  Si7  1  0.34749802  0.34683600  0.85463000  1
  Mn  Mn8  1  0.50000001  0.00000000  0.00000002  1
  Mn  Mn9  1  1.00000004  0.50000001  -0.00000000  1
  Mn  Mn10  1  0.00000000  0.00000000  0.50000000  1
  Mn  Mn11  1  0.00000001  0.28651400  0.71348599  1
  Mn  Mn12  1  0.71663306  0.99651401  0.28325396  1
  Si  Si13  1  0.28336703  0.71674601  0.00348596  1
  Si  Si14  1  0.28336701  0.00348600  0.71674602  1
  Mn  Mn15  1  0.71663303  0.28325400  0.99651401  1
  Mn  Mn16  1  0.00000003  0.71348601  0.28651395  1
  Si  Si17  1  0.09468101  0.09511200  0.09511200  1
  Mn  Mn18  1  0.90531906  0.90488801  0.90488798  1
  C  C19  1  1.00000004  0.50000001  0.50000000  1
