# generated using pymatgen
data_Ba2EuNb2O8
_symmetry_space_group_name_H-M   'P 1'
_cell_length_a   3.94710898
_cell_length_b   4.07238483
_cell_length_c   11.85369778
_cell_angle_alpha   89.99982452
_cell_angle_beta   90.00006866
_cell_angle_gamma   89.99315643
_symmetry_Int_Tables_number   1
_chemical_formula_structural   Ba2EuNb2O8
_chemical_formula_sum   'Ba2 Eu1 Nb2 O8'
_cell_volume   190.53807642
_cell_formula_units_Z   1
loop_
 _symmetry_equiv_pos_site_id
 _symmetry_equiv_pos_as_xyz
  1  'x, y, z'
loop_
 _atom_site_type_symbol
 _atom_site_label
 _atom_site_symmetry_multiplicity
 _atom_site_fract_x
 _atom_site_fract_y
 _atom_site_fract_z
 _atom_site_occupancy
  Ba  Ba0  1  0.50000301  0.50000102  0.81899802  1
  Ba  Ba1  1  0.50000001  0.50000102  0.18101001  1
  Eu  Eu2  1  0.49999901  0.50000102  0.49999801  1
  Nb  Nb3  1  0.00000300  0.00000200  0.65401401  1
  Nb  Nb4  1  0.99999803  0.99999704  0.34599302  1
  O  O5  1  0.00000402  0.99999804  0.00000200  1
  O  O6  1  0.99999602  0.49999802  0.00000501  1
  O  O7  1  0.50000100  0.00000100  0.61922301  1
  O  O8  1  0.49999200  0.00000000  0.38076401  1
  O  O9  1  0.00000601  0.50000302  0.62053101  1
  O  O10  1  0.99999702  0.49999902  0.37945902  1
  O  O11  1  0.00000400  0.00000100  0.83354802  1
  O  O12  1  0.99999701  0.00000000  0.16645301  1
