# generated using pymatgen
data_CeSi
_symmetry_space_group_name_H-M   'P 1'
_cell_length_a   4.13784409
_cell_length_b   4.13784409
_cell_length_c   14.83968067
_cell_angle_alpha   90.00000000
_cell_angle_beta   90.00000000
_cell_angle_gamma   120.00000000
_symmetry_Int_Tables_number   1
_chemical_formula_structural   CeSi
_chemical_formula_sum   'Ce4 Si4'
_cell_volume   220.04090989
_cell_formula_units_Z   4
loop_
 _symmetry_equiv_pos_site_id
 _symmetry_equiv_pos_as_xyz
  1  'x, y, z'
loop_
 _atom_site_type_symbol
 _atom_site_label
 _atom_site_symmetry_multiplicity
 _atom_site_fract_x
 _atom_site_fract_y
 _atom_site_fract_z
 _atom_site_occupancy
  Si  Si0  1  0.00000000  0.00000000  0.75000002  1
  Si  Si1  1  0.00000000  0.00000000  0.25000001  1
  Si  Si2  1  0.66666665  0.33333332  0.25000001  1
  Si  Si3  1  0.33333332  0.66666665  0.75000002  1
  Ce  Ce4  1  0.66666665  0.33333332  0.88101302  1
  Ce  Ce5  1  0.33333332  0.66666665  0.11898700  1
  Ce  Ce6  1  0.33333332  0.66666665  0.38101301  1
  Ce  Ce7  1  0.66666665  0.33333332  0.61898701  1
