# generated using pymatgen
data_NbSe3
_symmetry_space_group_name_H-M   'P 1'
_cell_length_a   3.58653307
_cell_length_b   9.92195034
_cell_length_c   9.92195034
_cell_angle_alpha   120.00000000
_cell_angle_beta   90.00000000
_cell_angle_gamma   90.00000000
_symmetry_Int_Tables_number   1
_chemical_formula_structural   NbSe3
_chemical_formula_sum   'Nb2 Se6'
_cell_volume   305.77330639
_cell_formula_units_Z   2
loop_
 _symmetry_equiv_pos_site_id
 _symmetry_equiv_pos_as_xyz
  1  'x, y, z'
loop_
 _atom_site_type_symbol
 _atom_site_label
 _atom_site_symmetry_multiplicity
 _atom_site_fract_x
 _atom_site_fract_y
 _atom_site_fract_z
 _atom_site_occupancy
  Nb  Nb0  1  0.25000000  0.66666665  0.33333334  1
  Nb  Nb1  1  0.74999999  0.33333332  0.66666666  1
  Se  Se2  1  0.74999999  0.78082798  0.21917201  1
  Se  Se3  1  0.74999999  0.43834399  0.21917200  1
  Se  Se4  1  0.74999999  0.78082798  0.56165600  1
  Se  Se5  1  0.25000000  0.21917199  0.78082799  1
  Se  Se6  1  0.25000000  0.56165598  0.78082800  1
  Se  Se7  1  0.25000000  0.21917199  0.43834400  1
