# generated using pymatgen
data_KYFe2O5
_symmetry_space_group_name_H-M   'P 1'
_cell_length_a   3.90787506
_cell_length_b   3.90787506
_cell_length_c   7.69164085
_cell_angle_alpha   90.00000000
_cell_angle_beta   90.00000000
_cell_angle_gamma   90.00000000
_symmetry_Int_Tables_number   1
_chemical_formula_structural   KYFe2O5
_chemical_formula_sum   'K1 Y1 Fe2 O5'
_cell_volume   117.46279710
_cell_formula_units_Z   1
loop_
 _symmetry_equiv_pos_site_id
 _symmetry_equiv_pos_as_xyz
  1  'x, y, z'
loop_
 _atom_site_type_symbol
 _atom_site_label
 _atom_site_symmetry_multiplicity
 _atom_site_fract_x
 _atom_site_fract_y
 _atom_site_fract_z
 _atom_site_occupancy
  K  K0  1  0.00000000  0.00000000  0.00000000  1
  Y  Y1  1  0.00000000  0.00000000  0.50000001  1
  Fe  Fe2  1  0.49999999  0.49999999  0.26078300  1
  Fe  Fe3  1  0.49999999  0.49999999  0.73921701  1
  O  O4  1  0.49999999  0.49999999  -0.00000000  1
  O  O5  1  0.49999999  0.00000000  0.68353901  1
  O  O6  1  0.49999999  0.00000000  0.31646101  1
  O  O7  1  0.00000000  0.49999999  0.31646101  1
  O  O8  1  0.00000000  0.49999999  0.68353901  1
