# generated using pymatgen
data_Ba(MgGe)2
_symmetry_space_group_name_H-M   'P 1'
_cell_length_a   4.70052004
_cell_length_b   4.70052004
_cell_length_c   6.62974167
_cell_angle_alpha   110.76295471
_cell_angle_beta   110.76295471
_cell_angle_gamma   90.00000000
_symmetry_Int_Tables_number   1
_chemical_formula_structural   Ba(MgGe)2
_chemical_formula_sum   'Ba1 Mg2 Ge2'
_cell_volume   126.74463327
_cell_formula_units_Z   1
loop_
 _symmetry_equiv_pos_site_id
 _symmetry_equiv_pos_as_xyz
  1  'x, y, z'
loop_
 _atom_site_type_symbol
 _atom_site_label
 _atom_site_symmetry_multiplicity
 _atom_site_fract_x
 _atom_site_fract_y
 _atom_site_fract_z
 _atom_site_occupancy
  Ba  Ba0  1  0.00000000  0.00000000  0.00000000  1
  Mg  Mg1  1  0.24999998  0.74999998  0.49999998  1
  Mg  Mg2  1  0.74999998  0.24999999  0.49999999  1
  Ge  Ge3  1  0.61621597  0.61621599  0.23243197  1
  Ge  Ge4  1  0.38378398  0.38378399  0.76756800  1
