# generated using pymatgen
data_Sm2Ni7
_symmetry_space_group_name_H-M   'P 1'
_cell_length_a   4.92185545
_cell_length_b   4.92185545
_cell_length_c   12.35815239
_cell_angle_alpha   78.51367950
_cell_angle_beta   78.51367950
_cell_angle_gamma   60.00000763
_symmetry_Int_Tables_number   1
_chemical_formula_structural   Sm2Ni7
_chemical_formula_sum   'Sm4 Ni14'
_cell_volume   252.31679212
_cell_formula_units_Z   2
loop_
 _symmetry_equiv_pos_site_id
 _symmetry_equiv_pos_as_xyz
  1  'x, y, z'
loop_
 _atom_site_type_symbol
 _atom_site_label
 _atom_site_symmetry_multiplicity
 _atom_site_fract_x
 _atom_site_fract_y
 _atom_site_fract_z
 _atom_site_occupancy
  Sm  Sm0  1  0.94925193  0.94925199  0.15224405  1
  Sm  Sm1  1  0.85267994  0.85267999  0.44196003  1
  Sm  Sm2  1  0.14731999  0.14732000  0.55803999  1
  Sm  Sm3  1  0.05074800  0.05074800  0.84775598  1
  Ni  Ni4  1  -0.00000002  0.49999999  0.00000001  1
  Ni  Ni5  1  0.49999996  0.49999999  0.00000003  1
  Ni  Ni6  1  0.49999998  0.00000000  0.00000001  1
  Ni  Ni7  1  0.61165395  0.61165399  0.16503803  1
  Ni  Ni8  1  0.27809698  0.27809700  0.16570901  1
  Ni  Ni9  1  0.89107295  0.38981099  0.32930503  1
  Ni  Ni10  1  0.38981095  0.89107299  0.32930503  1
  Ni  Ni11  1  0.38981097  0.38981099  0.32930501  1
  Ni  Ni12  1  0.49999996  0.49999999  0.50000001  1
  Ni  Ni13  1  0.61018895  0.61018899  0.67069502  1
  Ni  Ni14  1  0.61018898  0.10892700  0.67069500  1
  Ni  Ni15  1  0.10892697  0.61018899  0.67069500  1
  Ni  Ni16  1  0.72190295  0.72190299  0.83429102  1
  Ni  Ni17  1  0.38834597  0.38834599  0.83496200  1
