# generated using pymatgen
data_K3Sr(B2O5)2
_symmetry_space_group_name_H-M   'P 1'
_cell_length_a   4.22529078
_cell_length_b   6.76494932
_cell_length_c   11.07208824
_cell_angle_alpha   106.33148193
_cell_angle_beta   90.80447388
_cell_angle_gamma   90.11711884
_symmetry_Int_Tables_number   1
_chemical_formula_structural   K3Sr(B2O5)2
_chemical_formula_sum   'K3 Sr1 B4 O10'
_cell_volume   303.67755774
_cell_formula_units_Z   1
loop_
 _symmetry_equiv_pos_site_id
 _symmetry_equiv_pos_as_xyz
  1  'x, y, z'
loop_
 _atom_site_type_symbol
 _atom_site_label
 _atom_site_symmetry_multiplicity
 _atom_site_fract_x
 _atom_site_fract_y
 _atom_site_fract_z
 _atom_site_occupancy
  K  K0  1  0.24377206  0.77628897  0.60576995  1
  Sr  Sr1  1  0.21316103  0.32269099  0.08213999  1
  K  K2  1  0.78683909  0.67730897  0.91785995  1
  K  K3  1  0.75622805  0.22371099  0.39422998  1
  B  B4  1  0.33720104  0.35213498  0.67483297  1
  B  B5  1  0.33788207  0.86431296  0.19631196  1
  B  B6  1  0.66211804  0.13568699  0.80368797  1
  B  B7  1  0.66279908  0.64786497  0.32516697  1
  O  O8  1  0.25592603  0.32834899  0.55107597  1
  O  O9  1  0.23404402  0.06379800  0.22240399  1
  O  O10  1  0.28726605  0.53215198  0.76734596  1
  O  O11  1  0.29876506  0.71879997  0.08286697  1
  O  O12  1  0.49261404  0.17885599  0.69983497  1
  O  O13  1  0.50738608  0.82114396  0.30016496  1
  O  O14  1  0.70123506  0.28119999  0.91713296  1
  O  O15  1  0.71273407  0.46784798  0.23265398  1
  O  O16  1  0.76595610  0.93620196  0.77759594  1
  O  O17  1  0.74407408  0.67165097  0.44892396  1
