# generated using pymatgen
data_LiCu(SiO3)2
_symmetry_space_group_name_H-M   'P 1'
_cell_length_a   5.37205410
_cell_length_b   5.38113070
_cell_length_c   5.64024210
_cell_angle_alpha   90.00000000
_cell_angle_beta   90.00000000
_cell_angle_gamma   119.94422150
_symmetry_Int_Tables_number   1
_chemical_formula_structural   LiCu(SiO3)2
_chemical_formula_sum   'Li1 Cu1 Si2 O6'
_cell_volume   141.28176805
_cell_formula_units_Z   1
loop_
 _symmetry_equiv_pos_site_id
 _symmetry_equiv_pos_as_xyz
  1  'x, y, z'
loop_
 _atom_site_type_symbol
 _atom_site_label
 _atom_site_symmetry_multiplicity
 _atom_site_fract_x
 _atom_site_fract_y
 _atom_site_fract_z
 _atom_site_occupancy
  Li  Li0  1  0.00000000  0.00000000  0.00000000  1
  Cu  Cu1  1  0.49999999  0.00000000  -0.00000000  1
  Si  Si2  1  0.50000002  0.50000000  0.33660099  1
  Si  Si3  1  0.00000003  0.50000000  0.66339899  1
  O  O4  1  0.84495200  0.21214500  0.82903199  1
  O  O5  1  0.36719300  0.21214500  0.17096800  1
  O  O6  1  0.75903301  0.51806600  0.49999999  1
  O  O7  1  0.24096702  0.48193400  0.49999999  1
  O  O8  1  0.63280703  0.78785500  0.17096800  1
  O  O9  1  0.15504804  0.78785500  0.82903199  1
