# generated using pymatgen
data_Li8VO6
_symmetry_space_group_name_H-M   'P 1'
_cell_length_a   5.28860712
_cell_length_b   5.35241318
_cell_length_c   5.84703064
_cell_angle_alpha   63.06259537
_cell_angle_beta   87.39758301
_cell_angle_gamma   82.26018524
_symmetry_Int_Tables_number   1
_chemical_formula_structural   Li8VO6
_chemical_formula_sum   'Li8 V1 O6'
_cell_volume   146.18614923
_cell_formula_units_Z   1
loop_
 _symmetry_equiv_pos_site_id
 _symmetry_equiv_pos_as_xyz
  1  'x, y, z'
loop_
 _atom_site_type_symbol
 _atom_site_label
 _atom_site_symmetry_multiplicity
 _atom_site_fract_x
 _atom_site_fract_y
 _atom_site_fract_z
 _atom_site_occupancy
  Li  Li0  1  0.14406599  0.46318901  0.85070198  1
  Li  Li1  1  0.11976399  0.98965503  0.18835697  1
  Li  Li2  1  0.50738998  0.83548602  0.94031596  1
  Li  Li3  1  0.60103299  0.27204501  0.16137698  1
  Li  Li4  1  0.96396797  0.93729102  0.62501495  1
  Li  Li5  1  0.81482998  0.21826701  0.82533596  1
  Li  Li6  1  0.89791598  0.57309801  0.17079696  1
  Li  Li7  1  0.61910598  0.69722402  0.50060796  1
  V  V8  1  0.31198099  0.32610201  0.50162898  1
  O  O9  1  0.18642200  0.09266300  0.81412598  1
  O  O10  1  0.23094899  0.35672101  0.19201998  1
  O  O11  1  0.24821999  0.69302702  0.51112397  1
  O  O12  1  0.68618498  0.29508001  0.48882297  1
  O  O13  1  0.76421098  0.59043002  0.84420796  1
  O  O14  1  0.74123898  0.92799502  0.15947396  1
