# generated using pymatgen
data_Ce3Ni4Sn5
_symmetry_space_group_name_H-M   'P 1'
_cell_length_a   4.53197813
_cell_length_b   7.01024914
_cell_length_c   7.90701818
_cell_angle_alpha   90.00000000
_cell_angle_beta   90.00000000
_cell_angle_gamma   90.00000000
_symmetry_Int_Tables_number   1
_chemical_formula_structural   Ce3Ni4Sn5
_chemical_formula_sum   'Ce3 Ni4 Sn5'
_cell_volume   251.20830647
_cell_formula_units_Z   1
loop_
 _symmetry_equiv_pos_site_id
 _symmetry_equiv_pos_as_xyz
  1  'x, y, z'
loop_
 _atom_site_type_symbol
 _atom_site_label
 _atom_site_symmetry_multiplicity
 _atom_site_fract_x
 _atom_site_fract_y
 _atom_site_fract_z
 _atom_site_occupancy
  Ce  Ce0  1  0.24999999  0.03806000  0.32141299  1
  Ce  Ce1  1  0.24999999  0.53805999  0.17858700  1
  Sn  Sn2  1  0.74999998  0.96193998  0.67858698  1
  Ce  Ce3  1  0.74999998  0.46193999  0.82141298  1
  Sn  Sn4  1  0.24999999  0.14290000  0.93800298  1
  Sn  Sn5  1  0.24999999  0.64289999  0.56199699  1
  Sn  Sn6  1  0.74999998  0.85709998  0.06199700  1
  Sn  Sn7  1  0.74999998  0.35709999  0.43800299  1
  Ni  Ni8  1  0.24999999  0.27722899  0.61789599  1
  Ni  Ni9  1  0.24999999  0.77722898  0.88210398  1
  Ni  Ni10  1  0.74999998  0.72277099  0.38210399  1
  Ni  Ni11  1  0.74999998  0.22277100  0.11789600  1
