# generated using pymatgen
data_La2In3Cu
_symmetry_space_group_name_H-M   'P 1'
_cell_length_a   4.47214317
_cell_length_b   8.06966591
_cell_length_c   8.74549675
_cell_angle_alpha   90.00000000
_cell_angle_beta   90.00000000
_cell_angle_gamma   90.00000000
_symmetry_Int_Tables_number   1
_chemical_formula_structural   La2In3Cu
_chemical_formula_sum   'La4 In6 Cu2'
_cell_volume   315.61361996
_cell_formula_units_Z   2
loop_
 _symmetry_equiv_pos_site_id
 _symmetry_equiv_pos_as_xyz
  1  'x, y, z'
loop_
 _atom_site_type_symbol
 _atom_site_label
 _atom_site_symmetry_multiplicity
 _atom_site_fract_x
 _atom_site_fract_y
 _atom_site_fract_z
 _atom_site_occupancy
  La  La0  1  0.00000000  0.60776701  0.25000001  1
  La  La1  1  0.00000000  0.39223300  0.75000002  1
  La  La2  1  0.49999998  0.94490901  0.25000001  1
  In  In3  1  0.49999998  0.05509100  0.75000002  1
  In  In4  1  0.49999998  0.70040701  0.56833702  1
  In  In5  1  0.49999998  0.29959300  0.43166301  1
  In  In6  1  0.00000000  0.00000000  0.00000000  1
  La  La7  1  0.49999998  0.70040701  0.93166303  1
  In  In8  1  0.49999998  0.29959300  0.06833700  1
  In  In9  1  0.00000000  0.00000000  0.50000001  1
  Cu  Cu10  1  0.00000000  0.81585801  0.75000002  1
  Cu  Cu11  1  0.00000000  0.18414200  0.25000001  1
