# generated using pymatgen
data_Nb(CrS2)4
_symmetry_space_group_name_H-M   'P 1'
_cell_length_a   6.93102455
_cell_length_b   6.93102455
_cell_length_c   6.97798109
_cell_angle_alpha   60.22234726
_cell_angle_beta   60.22234726
_cell_angle_gamma   59.99999619
_symmetry_Int_Tables_number   1
_chemical_formula_structural   Nb(CrS2)4
_chemical_formula_sum   'Nb1 Cr4 S8'
_cell_volume   237.82695372
_cell_formula_units_Z   1
loop_
 _symmetry_equiv_pos_site_id
 _symmetry_equiv_pos_as_xyz
  1  'x, y, z'
loop_
 _atom_site_type_symbol
 _atom_site_label
 _atom_site_symmetry_multiplicity
 _atom_site_fract_x
 _atom_site_fract_y
 _atom_site_fract_z
 _atom_site_occupancy
  Nb  Nb0  1  0.00000000  0.00000000  0.00000000  1
  Cr  Cr1  1  0.50000000  0.49999999  0.50000000  1
  Cr  Cr2  1  0.49999999  0.00000000  -0.00000001  1
  Cr  Cr3  1  0.00000001  0.49999999  -0.00000001  1
  Cr  Cr4  1  0.50000000  0.49999999  -0.00000002  1
  S  S5  1  0.72434499  0.25602600  0.76360301  1
  S  S6  1  0.25602601  0.72434499  0.76360301  1
  S  S7  1  0.25602600  0.25602600  0.76360302  1
  S  S8  1  0.25948100  0.25948100  0.22155700  1
  S  S9  1  0.74051900  0.74051899  0.77844300  1
  S  S10  1  0.74397399  0.27565500  0.23639699  1
  S  S11  1  0.74397400  0.74397399  0.23639698  1
  S  S12  1  0.27565501  0.74397399  0.23639699  1
