# generated using pymatgen
data_LiMnO2
_symmetry_space_group_name_H-M   'P 1'
_cell_length_a   3.08611012
_cell_length_b   5.12376690
_cell_length_c   10.01734066
_cell_angle_alpha   76.97288513
_cell_angle_beta   84.58302307
_cell_angle_gamma   87.37348175
_symmetry_Int_Tables_number   1
_chemical_formula_structural   LiMnO2
_chemical_formula_sum   'Li4 Mn4 O8'
_cell_volume   153.58423997
_cell_formula_units_Z   4
loop_
 _symmetry_equiv_pos_site_id
 _symmetry_equiv_pos_as_xyz
  1  'x, y, z'
loop_
 _atom_site_type_symbol
 _atom_site_label
 _atom_site_symmetry_multiplicity
 _atom_site_fract_x
 _atom_site_fract_y
 _atom_site_fract_z
 _atom_site_occupancy
  Li  Li0  1  0.00743897  0.25184299  0.25113098  1
  Li  Li1  1  0.49999998  0.00000000  0.49999998  1
  Li  Li2  1  0.99256089  0.74815698  0.74886895  1
  Li  Li3  1  0.49999993  0.49999999  -0.00000001  1
  Mn  Mn4  1  0.48491590  0.74976098  0.24712697  1
  Mn  Mn5  1  -0.00000005  0.49999999  0.49999997  1
  Mn  Mn6  1  0.51508395  0.25023899  0.75287296  1
  Mn  Mn7  1  0.00000000  0.00000000  0.00000000  1
  O  O8  1  0.46736297  0.10045000  0.12102699  1
  O  O9  1  0.02405691  0.85512998  0.37558696  1
  O  O10  1  0.53389392  0.60522398  0.62783296  1
  O  O11  1  0.04211296  0.35610799  0.87849596  1
  O  O12  1  0.46610594  0.39477599  0.37216697  1
  O  O13  1  0.97594295  0.14487000  0.62441297  1
  O  O14  1  0.53263689  0.89954997  0.87897294  1
  O  O15  1  0.95788690  0.64389198  0.12150398  1
