# generated using pymatgen
data_ZrV4Fe
_symmetry_space_group_name_H-M   'P 1'
_cell_length_a   5.01866245
_cell_length_b   5.01866245
_cell_length_c   5.01866245
_cell_angle_alpha   67.41656494
_cell_angle_beta   67.41656494
_cell_angle_gamma   67.41658020
_symmetry_Int_Tables_number   1
_chemical_formula_structural   ZrV4Fe
_chemical_formula_sum   'Zr1 V4 Fe1'
_cell_volume   103.53156899
_cell_formula_units_Z   1
loop_
 _symmetry_equiv_pos_site_id
 _symmetry_equiv_pos_as_xyz
  1  'x, y, z'
loop_
 _atom_site_type_symbol
 _atom_site_label
 _atom_site_symmetry_multiplicity
 _atom_site_fract_x
 _atom_site_fract_y
 _atom_site_fract_z
 _atom_site_occupancy
  Zr  Zr0  1  0.37023003  0.37023001  0.37022994  1
  V  V1  1  0.62977004  0.62977001  0.62976991  1
  Fe  Fe2  1  0.00000000  0.00000000  0.00000000  1
  V  V3  1  0.00000000  0.00000000  0.49999999  1
  V  V4  1  0.00000002  0.50000001  -0.00000004  1
  V  V5  1  0.50000001  0.00000000  -0.00000003  1
