# generated using pymatgen
data_CsKY2ScF13
_symmetry_space_group_name_H-M   'P 1'
_cell_length_a   7.80251980
_cell_length_b   8.07076359
_cell_length_c   8.07076359
_cell_angle_alpha   60.36183929
_cell_angle_beta   61.09349442
_cell_angle_gamma   61.09349442
_symmetry_Int_Tables_number   1
_chemical_formula_structural   CsKY2ScF13
_chemical_formula_sum   'Cs1 K1 Y2 Sc1 F13'
_cell_volume   366.22189297
_cell_formula_units_Z   1
loop_
 _symmetry_equiv_pos_site_id
 _symmetry_equiv_pos_as_xyz
  1  'x, y, z'
loop_
 _atom_site_type_symbol
 _atom_site_label
 _atom_site_symmetry_multiplicity
 _atom_site_fract_x
 _atom_site_fract_y
 _atom_site_fract_z
 _atom_site_occupancy
  K  K0  1  0.62332902  0.12667100  0.62667100  1
  F  F1  1  0.37667099  0.87332902  0.37332902  1
  F  F2  1  0.00000000  0.00000000  0.00000000  1
  Sc  Sc3  1  -0.00000002  0.50000001  0.50000003  1
  Y  Y4  1  0.50000000  0.50000001  -0.00000000  1
  F  F5  1  -0.00000002  0.50000001  0.00000001  1
  F  F6  1  0.06015600  0.18984401  0.68984402  1
  F  F7  1  0.69061301  0.55938702  0.05938700  1
  F  F8  1  0.07892298  0.58169002  0.65706403  1
  F  F9  1  0.68232302  0.15706400  0.08168998  1
  Cs  Cs10  1  0.68232301  0.58169002  0.65706401  1
  Y  Y11  1  0.07892300  0.15706400  0.08169000  1
  F  F12  1  0.93984401  0.81015602  0.31015600  1
  F  F13  1  0.30938700  0.44061301  0.94061303  1
  F  F14  1  0.92107703  0.41831001  0.34293599  1
  F  F15  1  0.31767699  0.84293602  0.91831004  1
  F  F16  1  0.31767700  0.41831001  0.34293601  1
  F  F17  1  0.92107701  0.84293602  0.91831002  1
