# generated using pymatgen
data_TmAlGe
_symmetry_space_group_name_H-M   'P 1'
_cell_length_a   4.06588888
_cell_length_b   6.95477200
_cell_length_c   6.95477200
_cell_angle_alpha   120.00000000
_cell_angle_beta   90.00000000
_cell_angle_gamma   90.00000000
_symmetry_Int_Tables_number   1
_chemical_formula_structural   TmAlGe
_chemical_formula_sum   'Tm3 Al3 Ge3'
_cell_volume   170.31462026
_cell_formula_units_Z   3
loop_
 _symmetry_equiv_pos_site_id
 _symmetry_equiv_pos_as_xyz
  1  'x, y, z'
loop_
 _atom_site_type_symbol
 _atom_site_label
 _atom_site_symmetry_multiplicity
 _atom_site_fract_x
 _atom_site_fract_y
 _atom_site_fract_z
 _atom_site_occupancy
  Tm  Tm0  1  0.00000000  0.58234099  -0.00000001  1
  Tm  Tm1  1  0.00000000  0.41765900  0.41765898  1
  Tm  Tm2  1  0.00000000  0.99999999  0.58234096  1
  Al  Al3  1  0.50000001  0.25318000  -0.00000000  1
  Al  Al4  1  0.50000001  0.74681999  0.74681996  1
  Al  Al5  1  0.50000001  0.99999999  0.25317997  1
  Ge  Ge6  1  0.50000001  0.33333333  0.66666664  1
  Ge  Ge7  1  0.50000001  0.66666666  0.33333331  1
  Ge  Ge8  1  0.00000000  0.00000000  0.00000000  1
