# generated using pymatgen
data_Ba3I7
_symmetry_space_group_name_H-M   'P 1'
_cell_length_a   9.29315758
_cell_length_b   10.34785366
_cell_length_c   11.23072147
_cell_angle_alpha   65.73478699
_cell_angle_beta   65.56011963
_cell_angle_gamma   63.31802368
_symmetry_Int_Tables_number   1
_chemical_formula_structural   Ba3I7
_chemical_formula_sum   'Ba6 I14'
_cell_volume   844.19096867
_cell_formula_units_Z   2
loop_
 _symmetry_equiv_pos_site_id
 _symmetry_equiv_pos_as_xyz
  1  'x, y, z'
loop_
 _atom_site_type_symbol
 _atom_site_label
 _atom_site_symmetry_multiplicity
 _atom_site_fract_x
 _atom_site_fract_y
 _atom_site_fract_z
 _atom_site_occupancy
  Ba  Ba0  1  0.30706101  0.09084300  0.30665802  1
  Ba  Ba1  1  0.70456204  0.40915698  0.19334201  1
  Ba  Ba2  1  0.29543803  0.59084297  0.80665802  1
  Ba  Ba3  1  0.69293905  0.90915696  0.69334202  1
  Ba  Ba4  1  0.98661004  0.24999999  0.75000005  1
  Ba  Ba5  1  0.01339003  0.74999996  0.24999999  1
  I  I6  1  0.75549803  0.09696600  0.07895302  1
  I  I7  1  0.92575103  0.04095800  0.35248903  1
  I  I8  1  0.37699002  0.20269499  0.53813402  1
  I  I9  1  0.61919903  0.24999999  0.75000004  1
  I  I10  1  0.31919803  0.45904198  0.14751100  1
  I  I11  1  0.93141704  0.40303398  0.42104703  1
  I  I12  1  0.11781901  0.29730499  0.96186603  1
  I  I13  1  0.88218105  0.70269497  0.03813401  1
  I  I14  1  0.06858302  0.59696597  0.57895301  1
  I  I15  1  0.68080204  0.54095797  0.85248904  1
  I  I16  1  0.38080104  0.74999996  0.25000000  1
  I  I17  1  0.62301005  0.79730496  0.46186601  1
  I  I18  1  0.07424903  0.95904196  0.64751100  1
  I  I19  1  0.24450204  0.90303396  0.92104702  1
