# generated using pymatgen
data_Tm2AlCu3
_symmetry_space_group_name_H-M   'P 1'
_cell_length_a   3.97326708
_cell_length_b   3.97326708
_cell_length_c   8.23306465
_cell_angle_alpha   90.00000000
_cell_angle_beta   90.00000000
_cell_angle_gamma   90.00000000
_symmetry_Int_Tables_number   1
_chemical_formula_structural   Tm2AlCu3
_chemical_formula_sum   'Tm2 Al1 Cu3'
_cell_volume   129.97416720
_cell_formula_units_Z   1
loop_
 _symmetry_equiv_pos_site_id
 _symmetry_equiv_pos_as_xyz
  1  'x, y, z'
loop_
 _atom_site_type_symbol
 _atom_site_label
 _atom_site_symmetry_multiplicity
 _atom_site_fract_x
 _atom_site_fract_y
 _atom_site_fract_z
 _atom_site_occupancy
  Tm  Tm0  1  0.00000000  0.49999999  0.72561503  1
  Tm  Tm1  1  0.49999999  0.00000000  0.27438501  1
  Cu  Cu2  1  0.00000000  0.49999999  0.36685702  1
  Cu  Cu3  1  0.49999999  0.00000000  0.63314303  1
  Cu  Cu4  1  0.49999999  0.49999999  -0.00000000  1
  Al  Al5  1  0.00000000  0.00000000  0.00000000  1
