# generated using pymatgen
data_Na3LuV2F12
_symmetry_space_group_name_H-M   'P 1'
_cell_length_a   4.96990108
_cell_length_b   4.96990108
_cell_length_c   10.01958084
_cell_angle_alpha   90.00000000
_cell_angle_beta   90.00000000
_cell_angle_gamma   90.00000000
_symmetry_Int_Tables_number   1
_chemical_formula_structural   Na3LuV2F12
_chemical_formula_sum   'Na3 Lu1 V2 F12'
_cell_volume   247.48281308
_cell_formula_units_Z   1
loop_
 _symmetry_equiv_pos_site_id
 _symmetry_equiv_pos_as_xyz
  1  'x, y, z'
loop_
 _atom_site_type_symbol
 _atom_site_label
 _atom_site_symmetry_multiplicity
 _atom_site_fract_x
 _atom_site_fract_y
 _atom_site_fract_z
 _atom_site_occupancy
  Lu  Lu0  1  0.49999999  0.49999999  0.33457801  1
  Na  Na1  1  0.49999999  0.49999999  0.66542201  1
  Na  Na2  1  0.00000000  0.00000000  0.16542200  1
  Na  Na3  1  0.00000000  0.00000000  0.83457801  1
  V  V4  1  0.49999999  0.49999999  -0.00000000  1
  V  V5  1  0.00000000  0.00000000  0.50000001  1
  F  F6  1  0.68394999  0.68394999  0.14724900  1
  F  F7  1  0.68394999  0.68394999  0.85275101  1
  F  F8  1  0.72046399  0.72046399  0.50000001  1
  F  F9  1  0.77953599  0.22046400  -0.00000000  1
  F  F10  1  0.81604999  0.18395000  0.35275101  1
  F  F11  1  0.81604999  0.18395000  0.64724901  1
  F  F12  1  0.18395000  0.81604999  0.35275101  1
  F  F13  1  0.18395000  0.81604999  0.64724901  1
  F  F14  1  0.22046400  0.77953599  -0.00000000  1
  F  F15  1  0.27953600  0.27953600  0.50000001  1
  F  F16  1  0.31604999  0.31604999  0.14724900  1
  F  F17  1  0.31604999  0.31604999  0.85275101  1
