# generated using pymatgen
data_Al2SiSe3S
_symmetry_space_group_name_H-M   'P 1'
_cell_length_a   3.38653207
_cell_length_b   3.38653135
_cell_length_c   13.23894024
_cell_angle_alpha   90.00000000
_cell_angle_beta   90.00000000
_cell_angle_gamma   120.00000763
_symmetry_Int_Tables_number   1
_chemical_formula_structural   Al2SiSe3S
_chemical_formula_sum   'Al2 Si1 Se3 S1'
_cell_volume   131.49042020
_cell_formula_units_Z   1
loop_
 _symmetry_equiv_pos_site_id
 _symmetry_equiv_pos_as_xyz
  1  'x, y, z'
loop_
 _atom_site_type_symbol
 _atom_site_label
 _atom_site_symmetry_multiplicity
 _atom_site_fract_x
 _atom_site_fract_y
 _atom_site_fract_z
 _atom_site_occupancy
  Al  Al0  1  0.66666666  0.33333334  0.24808800  1
  Al  Al1  1  0.00000000  0.00000000  0.75139799  1
  Si  Si2  1  0.66666666  0.33333334  0.46560799  1
  S  S3  1  0.66666666  0.33333334  0.63252499  1
  Se  Se4  1  0.00000000  0.00000000  0.36980799  1
  Se  Se5  1  0.00000000  0.00000000  0.13285200  1
  Se  Se6  1  0.66666666  0.33333334  0.86572098  1
