# generated using pymatgen
data_MnB6Mo
_symmetry_space_group_name_H-M   'P 1'
_cell_length_a   4.34615707
_cell_length_b   4.34615707
_cell_length_c   4.34615707
_cell_angle_alpha   73.93400574
_cell_angle_beta   73.93400574
_cell_angle_gamma   73.93400574
_symmetry_Int_Tables_number   1
_chemical_formula_structural   MnB6Mo
_chemical_formula_sum   'Mn1 B6 Mo1'
_cell_volume   74.00518215
_cell_formula_units_Z   1
loop_
 _symmetry_equiv_pos_site_id
 _symmetry_equiv_pos_as_xyz
  1  'x, y, z'
loop_
 _atom_site_type_symbol
 _atom_site_label
 _atom_site_symmetry_multiplicity
 _atom_site_fract_x
 _atom_site_fract_y
 _atom_site_fract_z
 _atom_site_occupancy
  Mn  Mn0  1  0.33498499  0.66501495  1.00000002  1
  B  B1  1  0.66501495  0.00000000  0.33498503  1
  B  B2  1  0.00000001  0.33498498  0.66501500  1
  B  B3  1  0.33498498  0.00000000  0.66501500  1
  B  B4  1  0.00000001  0.66501495  0.33498502  1
  B  B5  1  0.66501496  0.33498498  0.00000005  1
  Mo  Mo6  1  0.16466099  0.16466099  0.16466101  1
  B  B7  1  0.83533896  0.83533894  0.83533906  1
