# generated using pymatgen
data_HoAl2Ni
_symmetry_space_group_name_H-M   'P 1'
_cell_length_a   3.92754698
_cell_length_b   3.92754698
_cell_length_c   9.92384148
_cell_angle_alpha   90.00000000
_cell_angle_beta   90.00000000
_cell_angle_gamma   90.00000000
_symmetry_Int_Tables_number   1
_chemical_formula_structural   HoAl2Ni
_chemical_formula_sum   'Ho2 Al4 Ni2'
_cell_volume   153.08145980
_cell_formula_units_Z   2
loop_
 _symmetry_equiv_pos_site_id
 _symmetry_equiv_pos_as_xyz
  1  'x, y, z'
loop_
 _atom_site_type_symbol
 _atom_site_label
 _atom_site_symmetry_multiplicity
 _atom_site_fract_x
 _atom_site_fract_y
 _atom_site_fract_z
 _atom_site_occupancy
  Ho  Ho0  1  0.00000000  0.50000000  0.76236096  1
  Ho  Ho1  1  0.50000000  0.00000000  0.23763899  1
  Al  Al2  1  0.00000000  0.00000000  0.49999998  1
  Al  Al3  1  0.50000000  0.50000000  0.49999998  1
  Al  Al4  1  0.50000000  0.50000000  -0.00000000  1
  Al  Al5  1  0.00000000  0.00000000  0.00000000  1
  Ni  Ni6  1  0.50000000  0.00000000  0.65750497  1
  Ni  Ni7  1  0.00000000  0.50000000  0.34249498  1
