# generated using pymatgen
data_Mg4ZnCd
_symmetry_space_group_name_H-M   'P 1'
_cell_length_a   3.96126008
_cell_length_b   3.96126008
_cell_length_c   8.73891735
_cell_angle_alpha   90.00000000
_cell_angle_beta   90.00000000
_cell_angle_gamma   90.00000000
_symmetry_Int_Tables_number   1
_chemical_formula_structural   Mg4ZnCd
_chemical_formula_sum   'Mg4 Zn1 Cd1'
_cell_volume   137.12743317
_cell_formula_units_Z   1
loop_
 _symmetry_equiv_pos_site_id
 _symmetry_equiv_pos_as_xyz
  1  'x, y, z'
loop_
 _atom_site_type_symbol
 _atom_site_label
 _atom_site_symmetry_multiplicity
 _atom_site_fract_x
 _atom_site_fract_y
 _atom_site_fract_z
 _atom_site_occupancy
  Mg  Mg0  1  0.49999999  0.00000000  0.73919297  1
  Cd  Cd1  1  0.00000000  0.49999999  0.26080699  1
  Mg  Mg2  1  0.49999999  0.00000000  0.38377398  1
  Mg  Mg3  1  0.00000000  0.49999999  0.61622598  1
  Mg  Mg4  1  0.00000000  0.00000000  0.00000000  1
  Zn  Zn5  1  0.49999999  0.49999999  -0.00000000  1
