# generated using pymatgen
data_SmGdMn10Si7
_symmetry_space_group_name_H-M   'P 1'
_cell_length_a   6.40629530
_cell_length_b   6.40629530
_cell_length_c   6.40629530
_cell_angle_alpha   83.15476990
_cell_angle_beta   83.15476990
_cell_angle_gamma   83.15476227
_symmetry_Int_Tables_number   1
_chemical_formula_structural   SmGdMn10Si7
_chemical_formula_sum   'Sm1 Gd1 Mn10 Si7'
_cell_volume   257.70946564
_cell_formula_units_Z   1
loop_
 _symmetry_equiv_pos_site_id
 _symmetry_equiv_pos_as_xyz
  1  'x, y, z'
loop_
 _atom_site_type_symbol
 _atom_site_label
 _atom_site_symmetry_multiplicity
 _atom_site_fract_x
 _atom_site_fract_y
 _atom_site_fract_z
 _atom_site_occupancy
  Sm  Sm0  1  0.34177697  0.34177700  0.34177702  1
  Gd  Gd1  1  0.65822295  0.65822300  0.65822305  1
  Si  Si2  1  0.09764399  0.09764400  0.09764401  1
  Si  Si3  1  0.90235593  0.90235601  0.90235606  1
  Si  Si4  1  0.00000000  0.00000000  0.49999999  1
  Si  Si5  1  -0.00000004  0.50000000  0.00000002  1
  Mn  Mn6  1  0.50000000  0.00000000  1.00000000  1
  Mn  Mn7  1  0.70685898  0.29314100  0.00000004  1
  Mn  Mn8  1  0.29314100  0.00000000  0.70685900  1
  Mn  Mn9  1  -0.00000005  0.70685900  0.29314103  1
  Mn  Mn10  1  0.70685900  0.00000000  0.29314102  1
  Mn  Mn11  1  -0.00000002  0.29314100  0.70685900  1
  Mn  Mn12  1  0.29314095  0.70685900  1.00000003  1
  Si  Si13  1  0.65577695  0.65577700  0.15522906  1
  Si  Si14  1  0.65577699  0.15522900  0.65577702  1
  Si  Si15  1  0.15522895  0.65577700  0.65577703  1
  Mn  Mn16  1  0.34422297  0.34422300  0.84477101  1
  Mn  Mn17  1  0.34422294  0.84477101  0.34422305  1
  Mn  Mn18  1  0.84477097  0.34422300  0.34422304  1
