# generated using pymatgen
data_Dy2Fe17
_symmetry_space_group_name_H-M   'P 1'
_cell_length_a   6.28216314
_cell_length_b   6.28216314
_cell_length_c   6.28216314
_cell_angle_alpha   82.90395355
_cell_angle_beta   82.90395355
_cell_angle_gamma   82.90395355
_symmetry_Int_Tables_number   1
_chemical_formula_structural   Dy2Fe17
_chemical_formula_sum   'Dy2 Fe17'
_cell_volume   242.66543457
_cell_formula_units_Z   1
loop_
 _symmetry_equiv_pos_site_id
 _symmetry_equiv_pos_as_xyz
  1  'x, y, z'
loop_
 _atom_site_type_symbol
 _atom_site_label
 _atom_site_symmetry_multiplicity
 _atom_site_fract_x
 _atom_site_fract_y
 _atom_site_fract_z
 _atom_site_occupancy
  Dy  Dy0  1  0.34422502  0.34422499  0.34422499  1
  Dy  Dy1  1  0.65577503  0.65577499  0.65577498  1
  Fe  Fe2  1  0.00000000  0.00000000  0.50000001  1
  Fe  Fe3  1  0.49999999  0.00000000  -0.00000001  1
  Fe  Fe4  1  0.00000003  0.49999999  -0.00000001  1
  Fe  Fe5  1  0.28817504  0.71182499  -0.00000003  1
  Fe  Fe6  1  0.00000002  0.28817500  0.71182501  1
  Fe  Fe7  1  0.71182499  0.00000000  0.28817499  1
  Fe  Fe8  1  0.00000004  0.71182499  0.28817499  1
  Fe  Fe9  1  0.28817500  0.00000000  0.71182501  1
  Fe  Fe10  1  0.71182501  0.28817500  1.00000000  1
  Fe  Fe11  1  0.65454303  0.65454299  0.15002297  1
  Fe  Fe12  1  0.15002304  0.65454299  0.65454299  1
  Fe  Fe13  1  0.65454300  0.15002300  0.65454300  1
  Fe  Fe14  1  0.34545702  0.34545699  0.84997700  1
  Fe  Fe15  1  0.84997701  0.34545699  0.34545698  1
  Fe  Fe16  1  0.34545704  0.84997699  0.34545698  1
  Fe  Fe17  1  0.09649200  0.09649200  0.09649200  1
  Fe  Fe18  1  0.90350804  0.90350798  0.90350797  1
