# generated using pymatgen
data_SmLu3(Al2Si)4
_symmetry_space_group_name_H-M   'P 1'
_cell_length_a   5.58133411
_cell_length_b   7.19786882
_cell_length_c   7.20564699
_cell_angle_alpha   90.00000000
_cell_angle_beta   90.00000000
_cell_angle_gamma   90.00000000
_symmetry_Int_Tables_number   1
_chemical_formula_structural   SmLu3(Al2Si)4
_chemical_formula_sum   'Sm1 Lu3 Al8 Si4'
_cell_volume   289.47757849
_cell_formula_units_Z   1
loop_
 _symmetry_equiv_pos_site_id
 _symmetry_equiv_pos_as_xyz
  1  'x, y, z'
loop_
 _atom_site_type_symbol
 _atom_site_label
 _atom_site_symmetry_multiplicity
 _atom_site_fract_x
 _atom_site_fract_y
 _atom_site_fract_z
 _atom_site_occupancy
  Sm  Sm0  1  0.35582099  0.75000002  0.02322500  1
  Lu  Lu1  1  0.14417900  0.75000002  0.52322500  1
  Lu  Lu2  1  0.64417899  0.25000001  0.97677500  1
  Lu  Lu3  1  0.85582098  0.25000001  0.47677500  1
  Si  Si4  1  0.63825699  0.75000002  0.38017900  1
  Si  Si5  1  0.86174298  0.75000002  0.88017900  1
  Si  Si6  1  0.36174299  0.25000001  0.61982100  1
  Si  Si7  1  0.13825700  0.25000001  0.11982100  1
  Al  Al8  1  0.91254598  0.55106801  0.18552200  1
  Al  Al9  1  0.58745399  0.94893202  0.68552200  1
  Al  Al10  1  0.08745400  0.05106800  0.81447800  1
  Al  Al11  1  0.41254599  0.44893201  0.31447800  1
  Al  Al12  1  0.08745400  0.44893201  0.81447800  1
  Al  Al13  1  0.41254599  0.05106800  0.31447800  1
  Al  Al14  1  0.91254598  0.94893202  0.18552200  1
  Al  Al15  1  0.58745399  0.55106801  0.68552200  1
