# generated using pymatgen
data_Hf5AlSi7Ru5
_symmetry_space_group_name_H-M   'P 1'
_cell_length_a   6.61507177
_cell_length_b   7.27303219
_cell_length_c   7.54967594
_cell_angle_alpha   118.79508209
_cell_angle_beta   115.98291016
_cell_angle_gamma   90.00000000
_symmetry_Int_Tables_number   1
_chemical_formula_structural   Hf5AlSi7Ru5
_chemical_formula_sum   'Hf5 Al1 Si7 Ru5'
_cell_volume   275.68241922
_cell_formula_units_Z   1
loop_
 _symmetry_equiv_pos_site_id
 _symmetry_equiv_pos_as_xyz
  1  'x, y, z'
loop_
 _atom_site_type_symbol
 _atom_site_label
 _atom_site_symmetry_multiplicity
 _atom_site_fract_x
 _atom_site_fract_y
 _atom_site_fract_z
 _atom_site_occupancy
  Al  Al0  1  0.75691003  0.02485500  0.54971001  1
  Hf  Hf1  1  0.20720104  0.97514500  0.45029006  1
  Hf  Hf2  1  0.33393304  0.75076500  0.00152905  1
  Hf  Hf3  1  0.33240502  0.24923500  0.99847102  1
  Hf  Hf4  1  0.15111602  0.44666100  0.39332203  1
  Hf  Hf5  1  0.75779404  0.55333900  0.60667804  1
  Si  Si6  1  0.70688803  0.21337300  0.92674702  1
  Si  Si7  1  0.78014105  0.78662700  0.07325305  1
  Si  Si8  1  0.42155902  0.17110100  0.33463101  1
  Si  Si9  1  0.08692903  0.82889900  0.66536906  1
  Si  Si10  1  0.08692901  0.33647000  0.66536903  1
  Si  Si11  1  0.42155904  0.66353000  0.33463104  1
  Si  Si12  1  0.00483203  1.00000001  1.00000007  1
  Ru  Ru13  1  0.00483202  0.50000000  0.00000003  1
  Ru  Ru14  1  0.49994903  0.41460100  0.74661103  1
  Ru  Ru15  1  0.75333804  0.58539900  0.25338904  1
  Ru  Ru16  1  0.75333803  0.16798900  0.25338901  1
  Ru  Ru17  1  0.49994904  0.83201100  0.74661106  1
