# generated using pymatgen
data_LaSe2
_symmetry_space_group_name_H-M   'P 1'
_cell_length_a   4.25402689
_cell_length_b   8.51896954
_cell_length_c   8.60314655
_cell_angle_alpha   89.78314209
_cell_angle_beta   89.98625183
_cell_angle_gamma   89.89368439
_symmetry_Int_Tables_number   1
_chemical_formula_structural   LaSe2
_chemical_formula_sum   'La4 Se8'
_cell_volume   311.77461161
_cell_formula_units_Z   4
loop_
 _symmetry_equiv_pos_site_id
 _symmetry_equiv_pos_as_xyz
  1  'x, y, z'
loop_
 _atom_site_type_symbol
 _atom_site_label
 _atom_site_symmetry_multiplicity
 _atom_site_fract_x
 _atom_site_fract_y
 _atom_site_fract_z
 _atom_site_occupancy
  La  La0  1  0.27537994  0.62702101  0.71790901  1
  La  La1  1  0.78055893  0.86675801  0.27902799  1
  La  La2  1  0.71877998  0.37880301  0.27874199  1
  La  La3  1  0.22317799  0.12684900  0.72385002  1
  Se  Se4  1  0.31955792  0.88186501  0.00222599  1
  Se  Se5  1  0.81895796  0.61822301  0.99728001  1
  Se  Se6  1  0.68100401  0.11752800  0.99887502  1
  Se  Se7  1  0.18150597  0.38232101  0.00253299  1
  Se  Se8  1  0.75752293  0.87449801  0.63444400  1
  Se  Se9  1  0.74247798  0.37508501  0.63439900  1
  Se  Se10  1  0.24188399  0.12522900  0.36500001  1
  Se  Se11  1  0.25919194  0.62582001  0.36571400  1
