# generated using pymatgen
data_Be(ZnS2)3
_symmetry_space_group_name_H-M   'P 1'
_cell_length_a   5.89766645
_cell_length_b   5.89766645
_cell_length_c   6.09700727
_cell_angle_alpha   61.07576752
_cell_angle_beta   61.07576752
_cell_angle_gamma   59.99999237
_symmetry_Int_Tables_number   1
_chemical_formula_structural   Be(ZnS2)3
_chemical_formula_sum   'Be1 Zn3 S6'
_cell_volume   152.34762283
_cell_formula_units_Z   1
loop_
 _symmetry_equiv_pos_site_id
 _symmetry_equiv_pos_as_xyz
  1  'x, y, z'
loop_
 _atom_site_type_symbol
 _atom_site_label
 _atom_site_symmetry_multiplicity
 _atom_site_fract_x
 _atom_site_fract_y
 _atom_site_fract_z
 _atom_site_occupancy
  Zn  Zn0  1  0.36393200  0.36393201  0.90820402  1
  Zn  Zn1  1  0.63487900  0.63487902  0.09536301  1
  Zn  Zn2  1  0.14188200  0.14188200  0.57435401  1
  Be  Be3  1  0.84967000  0.84967002  0.45099002  1
  S  S4  1  0.04186798  0.74025602  0.73548102  1
  S  S5  1  0.48239501  0.04186800  0.73548101  1
  S  S6  1  0.74025600  0.48239501  0.73548102  1
  S  S7  1  0.21573499  0.56701702  0.25531201  1
  S  S8  1  0.56701699  0.96193603  0.25531202  1
  S  S9  1  0.96193601  0.21573501  0.25531201  1
