# generated using pymatgen
data_Na3SbO6
_symmetry_space_group_name_H-M   'P 1'
_cell_length_a   5.58387709
_cell_length_b   6.00227213
_cell_length_c   8.04129696
_cell_angle_alpha   90.00000000
_cell_angle_beta   90.84153748
_cell_angle_gamma   90.00000000
_symmetry_Int_Tables_number   1
_chemical_formula_structural   Na3SbO6
_chemical_formula_sum   'Na6 Sb2 O12'
_cell_volume   269.48263551
_cell_formula_units_Z   2
loop_
 _symmetry_equiv_pos_site_id
 _symmetry_equiv_pos_as_xyz
  1  'x, y, z'
loop_
 _atom_site_type_symbol
 _atom_site_label
 _atom_site_symmetry_multiplicity
 _atom_site_fract_x
 _atom_site_fract_y
 _atom_site_fract_z
 _atom_site_occupancy
  Na  Na0  1  0.00000000  0.00000000  0.00000000  1
  Na  Na1  1  0.49999999  0.49999999  0.50000003  1
  Na  Na2  1  0.48022799  0.92845298  0.25330802  1
  Na  Na3  1  0.01977200  0.42845299  0.24669201  1
  Na  Na4  1  0.51977199  0.07154700  0.74669204  1
  Na  Na5  1  0.98022798  0.57154699  0.75330804  1
  Sb  Sb6  1  0.49999999  0.49999999  0.00000000  1
  Sb  Sb7  1  0.00000000  0.00000000  0.50000002  1
  O  O8  1  0.20822500  0.67281599  0.05106500  1
  O  O9  1  0.29177500  0.17281600  0.44893502  1
  O  O10  1  0.79177499  0.32718399  0.94893505  1
  O  O11  1  0.70822499  0.82718398  0.55106503  1
  O  O12  1  0.61690999  0.54826699  0.23089702  1
  O  O13  1  0.88308999  0.04826700  0.26910302  1
  O  O14  1  0.38308999  0.45173299  0.76910304  1
  O  O15  1  0.11691000  0.95173298  0.73089704  1
  O  O16  1  0.33530999  0.21903600  0.06725201  1
  O  O17  1  0.16469000  0.71903598  0.43274802  1
  O  O18  1  0.66468999  0.78096398  0.93274805  1
  O  O19  1  0.83530999  0.28096399  0.56725203  1
