# generated using pymatgen
data_K3AlO3
_symmetry_space_group_name_H-M   'P 1'
_cell_length_a   5.26876211
_cell_length_b   7.73377180
_cell_length_c   7.73377275
_cell_angle_alpha   120.00000000
_cell_angle_beta   90.00000000
_cell_angle_gamma   90.00000000
_symmetry_Int_Tables_number   1
_chemical_formula_structural   K3AlO3
_chemical_formula_sum   'K6 Al2 O6'
_cell_volume   272.91159154
_cell_formula_units_Z   2
loop_
 _symmetry_equiv_pos_site_id
 _symmetry_equiv_pos_as_xyz
  1  'x, y, z'
loop_
 _atom_site_type_symbol
 _atom_site_label
 _atom_site_symmetry_multiplicity
 _atom_site_fract_x
 _atom_site_fract_y
 _atom_site_fract_z
 _atom_site_occupancy
  K  K0  1  0.24999999  0.36083302  0.08537503  1
  K  K1  1  0.74999998  0.08537501  0.72454202  1
  K  K2  1  0.74999998  0.27545802  0.36083302  1
  K  K3  1  0.24999999  0.72454205  0.63916706  1
  K  K4  1  0.24999999  0.91462506  0.27545807  1
  K  K5  1  0.74999998  0.63916704  0.91462506  1
  Al  Al6  1  0.74999998  0.66666671  0.33333339  1
  Al  Al7  1  0.24999999  0.33333335  0.66666670  1
  O  O8  1  0.24999999  0.12079701  0.68949002  1
  O  O9  1  0.74999998  0.68948904  0.56869206  1
  O  O10  1  0.74999998  0.43130703  0.12079603  1
  O  O11  1  0.24999999  0.56869304  0.87920405  1
  O  O12  1  0.24999999  0.31051102  0.43130803  1
  O  O13  1  0.74999998  0.87920305  0.31051007  1
