# generated using pymatgen
data_In5S9
_symmetry_space_group_name_H-M   'P 1'
_cell_length_a   7.46837139
_cell_length_b   7.46837139
_cell_length_c   7.46837139
_cell_angle_alpha   60.00000000
_cell_angle_beta   60.00000000
_cell_angle_gamma   60.00000000
_symmetry_Int_Tables_number   1
_chemical_formula_structural   In5S9
_chemical_formula_sum   'In5 S9'
_cell_volume   294.55250609
_cell_formula_units_Z   1
loop_
 _symmetry_equiv_pos_site_id
 _symmetry_equiv_pos_as_xyz
  1  'x, y, z'
loop_
 _atom_site_type_symbol
 _atom_site_label
 _atom_site_symmetry_multiplicity
 _atom_site_fract_x
 _atom_site_fract_y
 _atom_site_fract_z
 _atom_site_occupancy
  In  In0  1  0.87897399  0.87897499  0.36307600  1
  S  S1  1  0.87897399  0.87897499  0.87897499  1
  In  In2  1  0.87897399  0.36307600  0.87897499  1
  In  In3  1  0.36307500  0.87897499  0.87897499  1
  In  In4  1  0.49999999  0.49999999  0.49999999  1
  In  In5  1  0.25000000  0.25000000  0.25000000  1
  S  S6  1  0.11651600  0.11651600  0.65045199  1
  S  S7  1  0.11651600  0.11651600  0.11651600  1
  S  S8  1  0.11651600  0.65045199  0.11651600  1
  S  S9  1  0.65045199  0.11651600  0.11651600  1
  S  S10  1  0.63525599  0.63525599  0.09423200  1
  S  S11  1  0.63525599  0.63525599  0.63525599  1
  S  S12  1  0.63525599  0.09423200  0.63525599  1
  S  S13  1  0.09423200  0.63525599  0.63525599  1
