# generated using pymatgen
data_CeCuSb
_symmetry_space_group_name_H-M   'P 1'
_cell_length_a   4.59708405
_cell_length_b   4.59708452
_cell_length_c   7.84877920
_cell_angle_alpha   90.00000000
_cell_angle_beta   90.00000000
_cell_angle_gamma   120.00000000
_symmetry_Int_Tables_number   1
_chemical_formula_structural   CeCuSb
_chemical_formula_sum   'Ce2 Cu2 Sb2'
_cell_volume   143.64736903
_cell_formula_units_Z   2
loop_
 _symmetry_equiv_pos_site_id
 _symmetry_equiv_pos_as_xyz
  1  'x, y, z'
loop_
 _atom_site_type_symbol
 _atom_site_label
 _atom_site_symmetry_multiplicity
 _atom_site_fract_x
 _atom_site_fract_y
 _atom_site_fract_z
 _atom_site_occupancy
  Ce  Ce0  1  0.00000000  0.00000000  0.49999999  1
  Ce  Ce1  1  0.00000000  0.00000000  0.00000000  1
  Cu  Cu2  1  0.66666668  0.33333334  0.24999999  1
  Sb  Sb3  1  0.33333337  0.66666667  0.74999998  1
  Cu  Cu4  1  0.66666668  0.33333334  0.74999998  1
  Sb  Sb5  1  0.33333337  0.66666667  0.24999999  1
