# generated using pymatgen
data_Rb5Tl2SbO
_symmetry_space_group_name_H-M   'P 1'
_cell_length_a   7.32698393
_cell_length_b   7.32698393
_cell_length_c   7.32698393
_cell_angle_alpha   60.00000000
_cell_angle_beta   60.00000000
_cell_angle_gamma   60.00000000
_symmetry_Int_Tables_number   1
_chemical_formula_structural   Rb5Tl2SbO
_chemical_formula_sum   'Rb5 Tl2 Sb1 O1'
_cell_volume   278.13825075
_cell_formula_units_Z   1
loop_
 _symmetry_equiv_pos_site_id
 _symmetry_equiv_pos_as_xyz
  1  'x, y, z'
loop_
 _atom_site_type_symbol
 _atom_site_label
 _atom_site_symmetry_multiplicity
 _atom_site_fract_x
 _atom_site_fract_y
 _atom_site_fract_z
 _atom_site_occupancy
  Tl  Tl0  1  0.75000000  0.75000000  0.75000000  1
  Sb  Sb1  1  0.25000000  0.25000000  0.25000000  1
  O  O2  1  0.00000000  0.00000000  0.00000000  1
  Rb  Rb3  1  0.22901600  0.77098400  0.22901600  1
  Rb  Rb4  1  0.77098400  0.22901600  0.77098400  1
  Rb  Rb5  1  0.22901600  0.77098400  0.77098400  1
  Tl  Tl6  1  0.77098400  0.22901600  0.22901600  1
  Rb  Rb7  1  0.22901600  0.22901600  0.77098400  1
  Rb  Rb8  1  0.77098400  0.77098400  0.22901600  1
