# generated using pymatgen
data_Cs2MgAl2I15
_symmetry_space_group_name_H-M   'P 1'
_cell_length_a   7.81628513
_cell_length_b   9.84025002
_cell_length_c   10.84411812
_cell_angle_alpha   75.91576385
_cell_angle_beta   83.54758453
_cell_angle_gamma   76.30281830
_symmetry_Int_Tables_number   1
_chemical_formula_structural   Cs2MgAl2I15
_chemical_formula_sum   'Cs2 Mg1 Al2 I15'
_cell_volume   784.65869090
_cell_formula_units_Z   1
loop_
 _symmetry_equiv_pos_site_id
 _symmetry_equiv_pos_as_xyz
  1  'x, y, z'
loop_
 _atom_site_type_symbol
 _atom_site_label
 _atom_site_symmetry_multiplicity
 _atom_site_fract_x
 _atom_site_fract_y
 _atom_site_fract_z
 _atom_site_occupancy
  Cs  Cs0  1  0.38828808  0.85935502  0.31514697  1
  Cs  Cs1  1  0.61171201  0.14064500  0.68485300  1
  Al  Al2  1  0.87127405  0.64210501  0.62501198  1
  Al  Al3  1  0.12872603  0.35789501  0.37498800  1
  I  I4  1  0.30648107  0.70534101  0.93892600  1
  Mg  Mg5  1  0.69351902  0.29465901  0.06107397  1
  I  I6  1  0.86784307  0.87096502  0.43186296  1
  I  I7  1  0.13215701  0.12903500  0.56813701  1
  I  I8  1  0.96701607  0.78999602  0.79274298  1
  I  I9  1  0.03298402  0.21000400  0.20725700  1
  I  I10  1  0.50299507  0.76432002  0.67529199  1
  I  I11  1  0.49700502  0.23568000  0.32470799  1
  I  I12  1  0.76396004  0.48548101  0.45208098  1
  I  I13  1  0.23604005  0.51451901  0.54791900  1
  I  I14  1  0.89366502  0.34740001  0.83123099  1
  I  I15  1  0.10633506  0.65260001  0.16876898  1
  I  I16  1  0.27090409  0.97975802  0.94729000  1
  I  I17  1  0.72909599  0.02024200  0.05270998  1
  I  I18  1  0.61807005  0.62426601  0.06701097  1
  I  I19  1  0.38193003  0.37573401  0.93298901  1
