# generated using pymatgen
data_BaGe2
_symmetry_space_group_name_H-M   'P 1'
_cell_length_a   4.32378817
_cell_length_b   4.32378864
_cell_length_c   10.03955746
_cell_angle_alpha   90.00000000
_cell_angle_beta   90.00000000
_cell_angle_gamma   119.99999237
_symmetry_Int_Tables_number   1
_chemical_formula_structural   BaGe2
_chemical_formula_sum   'Ba2 Ge4'
_cell_volume   162.54518145
_cell_formula_units_Z   2
loop_
 _symmetry_equiv_pos_site_id
 _symmetry_equiv_pos_as_xyz
  1  'x, y, z'
loop_
 _atom_site_type_symbol
 _atom_site_label
 _atom_site_symmetry_multiplicity
 _atom_site_fract_x
 _atom_site_fract_y
 _atom_site_fract_z
 _atom_site_occupancy
  Ba  Ba0  1  0.33333328  0.66666665  0.75320197  1
  Ba  Ba1  1  0.33333328  0.66666665  0.24679799  1
  Ge  Ge2  1  0.00000000  0.00000000  0.49999998  1
  Ge  Ge3  1  0.66666662  0.33333332  -0.00000000  1
  Ge  Ge4  1  0.66666662  0.33333332  0.49999998  1
  Ge  Ge5  1  0.00000000  0.00000000  0.00000000  1
