# generated using pymatgen
data_SrIn
_symmetry_space_group_name_H-M   'P 1'
_cell_length_a   3.63362479
_cell_length_b   3.63362479
_cell_length_c   17.83468819
_cell_angle_alpha   84.15316010
_cell_angle_beta   84.15316010
_cell_angle_gamma   59.99998856
_symmetry_Int_Tables_number   1
_chemical_formula_structural   SrIn
_chemical_formula_sum   'Sr3 In3'
_cell_volume   202.51197717
_cell_formula_units_Z   3
loop_
 _symmetry_equiv_pos_site_id
 _symmetry_equiv_pos_as_xyz
  1  'x, y, z'
loop_
 _atom_site_type_symbol
 _atom_site_label
 _atom_site_symmetry_multiplicity
 _atom_site_fract_x
 _atom_site_fract_y
 _atom_site_fract_z
 _atom_site_occupancy
  Sr  Sr0  1  0.11217100  0.11217100  0.66348700  1
  Sr  Sr1  1  0.88892102  0.88892097  0.33323698  1
  In  In2  1  0.38780701  0.38780699  0.83657899  1
  Sr  Sr3  1  0.99894302  0.99894297  0.00317098  1
  In  In4  1  0.50018301  0.50018298  0.49945099  1
  In  In5  1  0.61197402  0.61197398  0.16407799  1
