# generated using pymatgen
data_Sr
_symmetry_space_group_name_H-M   'P 1'
_cell_length_a   5.88234806
_cell_length_b   5.88234806
_cell_length_c   6.88570404
_cell_angle_alpha   115.28632355
_cell_angle_beta   115.28632355
_cell_angle_gamma   90.00000000
_symmetry_Int_Tables_number   1
_chemical_formula_structural   Sr
_chemical_formula_sum   Sr4
_cell_volume   189.87623874
_cell_formula_units_Z   4
loop_
 _symmetry_equiv_pos_site_id
 _symmetry_equiv_pos_as_xyz
  1  'x, y, z'
loop_
 _atom_site_type_symbol
 _atom_site_label
 _atom_site_symmetry_multiplicity
 _atom_site_fract_x
 _atom_site_fract_y
 _atom_site_fract_z
 _atom_site_occupancy
  Sr  Sr0  1  0.00000000  0.00000000  0.00000000  1
  Sr  Sr1  1  0.74999996  0.24999999  0.49999994  1
  Sr  Sr2  1  0.24999995  0.74999996  0.49999993  1
  Sr  Sr3  1  0.49999995  0.49999998  0.99999993  1
