# generated using pymatgen
data_Rb(MnCl2)2
_symmetry_space_group_name_H-M   'P 1'
_cell_length_a   6.73224783
_cell_length_b   7.03461647
_cell_length_c   9.81346703
_cell_angle_alpha   90.15039063
_cell_angle_beta   99.30249786
_cell_angle_gamma   103.70575714
_symmetry_Int_Tables_number   1
_chemical_formula_structural   Rb(MnCl2)2
_chemical_formula_sum   'Rb2 Mn4 Cl8'
_cell_volume   445.17590886
_cell_formula_units_Z   2
loop_
 _symmetry_equiv_pos_site_id
 _symmetry_equiv_pos_as_xyz
  1  'x, y, z'
loop_
 _atom_site_type_symbol
 _atom_site_label
 _atom_site_symmetry_multiplicity
 _atom_site_fract_x
 _atom_site_fract_y
 _atom_site_fract_z
 _atom_site_occupancy
  Rb  Rb0  1  0.84495304  0.70462900  0.08245997  1
  Rb  Rb1  1  0.15504701  0.29537100  0.91753998  1
  Mn  Mn2  1  0.59505002  0.11831500  0.31861999  1
  Mn  Mn3  1  0.40495003  0.88168500  0.68137996  1
  Mn  Mn4  1  0.18509801  0.35576600  0.44484998  1
  Mn  Mn5  1  0.81490204  0.64423400  0.55514997  1
  Cl  Cl6  1  0.47142502  0.41901800  0.27554698  1
  Cl  Cl7  1  0.52857503  0.58098200  0.72445297  1
  Cl  Cl8  1  0.92720803  0.21360500  0.22994999  1
  Cl  Cl9  1  0.07279202  0.78639500  0.77004996  1
  Cl  Cl10  1  0.42973604  0.92983000  0.07995396  1
  Cl  Cl11  1  0.57026402  0.07017000  0.92004599  1
  Cl  Cl12  1  0.83759703  0.30533200  0.58379698  1
  Cl  Cl13  1  0.16240302  0.69466800  0.41620297  1
