# generated using pymatgen
data_Na2SmEuLuTa3O12
_symmetry_space_group_name_H-M   'P 1'
_cell_length_a   5.58463812
_cell_length_b   5.70578098
_cell_length_c   8.07138824
_cell_angle_alpha   90.00000000
_cell_angle_beta   89.90245056
_cell_angle_gamma   90.00000000
_symmetry_Int_Tables_number   1
_chemical_formula_structural   Na2SmEuLuTa3O12
_chemical_formula_sum   'Na2 Sm1 Eu1 Lu1 Ta3 O12'
_cell_volume   257.19216960
_cell_formula_units_Z   1
loop_
 _symmetry_equiv_pos_site_id
 _symmetry_equiv_pos_as_xyz
  1  'x, y, z'
loop_
 _atom_site_type_symbol
 _atom_site_label
 _atom_site_symmetry_multiplicity
 _atom_site_fract_x
 _atom_site_fract_y
 _atom_site_fract_z
 _atom_site_occupancy
  Na  Na0  1  0.74845698  0.21602000  0.99918106  1
  Na  Na1  1  0.25154299  0.71602000  0.00081900  1
  Sm  Sm2  1  0.76148298  0.29447800  0.49923503  1
  Eu  Eu3  1  0.23851699  0.79447800  0.50076503  1
  Lu  Lu4  1  0.25110099  0.24756600  0.76110804  1
  Ta  Ta5  1  0.74889898  0.74756600  0.23889201  1
  Ta  Ta6  1  0.25704699  0.23995200  0.24081601  1
  Ta  Ta7  1  0.74295298  0.73995200  0.75918404  1
  O  O8  1  0.83273598  0.77160700  0.98108805  1
  O  O9  1  0.16726400  0.27160700  0.01891200  1
  O  O10  1  0.65465699  0.71094000  0.50826703  1
  O  O11  1  0.34534299  0.21094000  0.49173303  1
  O  O12  1  0.57941999  0.44412900  0.78252004  1
  O  O13  1  0.42057999  0.94412900  0.21748001  1
  O  O14  1  0.54514899  0.41678200  0.22345501  1
  O  O15  1  0.45485099  0.91678200  0.77654504  1
  O  O16  1  0.05629800  0.50985100  0.31292202  1
  O  O17  1  0.94370198  0.00985100  0.68707804  1
  O  O18  1  0.97530298  0.04127500  0.31179402  1
  O  O19  1  0.02469700  0.54127500  0.68820604  1
