# generated using pymatgen
data_La7S8
_symmetry_space_group_name_H-M   'P 1'
_cell_length_a   7.73028135
_cell_length_b   7.73028135
_cell_length_c   7.73028183
_cell_angle_alpha   71.00939178
_cell_angle_beta   71.00939178
_cell_angle_gamma   71.00939178
_symmetry_Int_Tables_number   1
_chemical_formula_structural   La7S8
_chemical_formula_sum   'La7 S8'
_cell_volume   400.38194515
_cell_formula_units_Z   1
loop_
 _symmetry_equiv_pos_site_id
 _symmetry_equiv_pos_as_xyz
  1  'x, y, z'
loop_
 _atom_site_type_symbol
 _atom_site_label
 _atom_site_symmetry_multiplicity
 _atom_site_fract_x
 _atom_site_fract_y
 _atom_site_fract_z
 _atom_site_occupancy
  La  La0  1  0.00000000  0.00000000  0.00000000  1
  S  S1  1  0.20154101  0.20154100  0.20154097  1
  S  S2  1  0.79845903  0.79845900  0.79845889  1
  S  S3  1  0.60853302  0.83697300  0.33159890  1
  S  S4  1  0.83697302  0.33159900  0.60853292  1
  S  S5  1  0.33159902  0.60853300  0.83697293  1
  S  S6  1  0.39146701  0.16302700  0.66840095  1
  S  S7  1  0.16302702  0.66840100  0.39146694  1
  S  S8  1  0.66840102  0.39146700  0.16302693  1
  La  La9  1  0.83795601  0.04060900  0.41153294  1
  La  La10  1  0.04060901  0.41153300  0.83795596  1
  La  La11  1  0.41153302  0.83795600  0.04060892  1
  La  La12  1  0.16204402  0.95939101  0.58846692  1
  La  La13  1  0.95939102  0.58846700  0.16204390  1
  La  La14  1  0.58846701  0.16204400  0.95939094  1
