# generated using pymatgen
data_VGe
_symmetry_space_group_name_H-M   'P 1'
_cell_length_a   4.22801924
_cell_length_b   4.55238485
_cell_length_c   5.31311607
_cell_angle_alpha   90.00000000
_cell_angle_beta   90.00000000
_cell_angle_gamma   90.00000000
_symmetry_Int_Tables_number   1
_chemical_formula_structural   VGe
_chemical_formula_sum   'V4 Ge4'
_cell_volume   102.26457746
_cell_formula_units_Z   4
loop_
 _symmetry_equiv_pos_site_id
 _symmetry_equiv_pos_as_xyz
  1  'x, y, z'
loop_
 _atom_site_type_symbol
 _atom_site_label
 _atom_site_symmetry_multiplicity
 _atom_site_fract_x
 _atom_site_fract_y
 _atom_site_fract_z
 _atom_site_occupancy
  V  V0  1  0.00000000  0.16834101  0.49999999  1
  Ge  Ge1  1  0.49999997  0.83165903  -0.00000000  1
  V  V2  1  0.49999997  0.33496401  0.24899900  1
  Ge  Ge3  1  0.49999997  0.33496401  0.75100099  1
  Ge  Ge4  1  0.00000000  0.66503602  0.25100100  1
  V  V5  1  0.00000000  0.66503602  0.74899899  1
  V  V6  1  0.49999997  0.82650303  0.49999999  1
  Ge  Ge7  1  0.00000000  0.17349701  -0.00000000  1
