# generated using pymatgen
data_Mn2TeO4
_symmetry_space_group_name_H-M   'P 1'
_cell_length_a   6.31118345
_cell_length_b   6.38556957
_cell_length_c   6.38557339
_cell_angle_alpha   90.47624207
_cell_angle_beta   119.61515808
_cell_angle_gamma   119.61531830
_symmetry_Int_Tables_number   1
_chemical_formula_structural   Mn2TeO4
_chemical_formula_sum   'Mn4 Te2 O8'
_cell_volume   183.32008099
_cell_formula_units_Z   2
loop_
 _symmetry_equiv_pos_site_id
 _symmetry_equiv_pos_as_xyz
  1  'x, y, z'
loop_
 _atom_site_type_symbol
 _atom_site_label
 _atom_site_symmetry_multiplicity
 _atom_site_fract_x
 _atom_site_fract_y
 _atom_site_fract_z
 _atom_site_occupancy
  Mn  Mn0  1  0.00000798  0.98427998  0.01573802  1
  Mn  Mn1  1  0.49998698  0.76571998  0.23425098  1
  Mn  Mn2  1  0.25000999  0.37498199  0.62499599  1
  Mn  Mn3  1  0.74997699  0.37501199  0.62500796  1
  Te  Te4  1  0.75000499  0.37500199  0.12500496  1
  Te  Te5  1  0.25000198  0.87499798  0.62500200  1
  O  O6  1  0.22612398  0.62414398  0.37585600  1
  O  O7  1  0.77387698  0.62414298  0.37585596  1
  O  O8  1  0.72612499  0.12585800  0.87414596  1
  O  O9  1  0.27388000  0.12585700  0.87414498  1
  O  O10  1  0.76475199  0.16202400  0.36747796  1
  O  O11  1  0.23525198  0.63252298  0.83797699  1
  O  O12  1  0.26474800  0.11747500  0.41201898  1
  O  O13  1  0.73525098  0.58798099  0.88252296  1
