# generated using pymatgen
data_EuAg2
_symmetry_space_group_name_H-M   'P 1'
_cell_length_a   4.78035402
_cell_length_b   6.02489805
_cell_length_c   6.02489805
_cell_angle_alpha   81.20074463
_cell_angle_beta   66.62692261
_cell_angle_gamma   66.62692261
_symmetry_Int_Tables_number   1
_chemical_formula_structural   EuAg2
_chemical_formula_sum   'Eu2 Ag4'
_cell_volume   146.21205567
_cell_formula_units_Z   2
loop_
 _symmetry_equiv_pos_site_id
 _symmetry_equiv_pos_as_xyz
  1  'x, y, z'
loop_
 _atom_site_type_symbol
 _atom_site_label
 _atom_site_symmetry_multiplicity
 _atom_site_fract_x
 _atom_site_fract_y
 _atom_site_fract_z
 _atom_site_occupancy
  Eu  Eu0  1  0.24999995  0.79890002  0.70110005  1
  Eu  Eu1  1  0.74999999  0.20110000  0.29890000  1
  Ag  Ag2  1  0.06316397  0.60181601  0.27185603  1
  Ag  Ag3  1  0.93683598  0.39818401  0.72814401  1
  Ag  Ag4  1  0.43683599  0.22814400  0.89818401  1
  Ag  Ag5  1  0.56316396  0.77185602  0.10181603  1
