# generated using pymatgen
data_Al3Si2
_symmetry_space_group_name_H-M   'P 1'
_cell_length_a   4.10056591
_cell_length_b   4.10056591
_cell_length_c   6.37844992
_cell_angle_alpha   90.00000000
_cell_angle_beta   90.00000000
_cell_angle_gamma   120.00000000
_symmetry_Int_Tables_number   1
_chemical_formula_structural   Al3Si2
_chemical_formula_sum   'Al3 Si2'
_cell_volume   92.88238860
_cell_formula_units_Z   1
loop_
 _symmetry_equiv_pos_site_id
 _symmetry_equiv_pos_as_xyz
  1  'x, y, z'
loop_
 _atom_site_type_symbol
 _atom_site_label
 _atom_site_symmetry_multiplicity
 _atom_site_fract_x
 _atom_site_fract_y
 _atom_site_fract_z
 _atom_site_occupancy
  Si  Si0  1  0.33333331  0.66666662  0.24664000  1
  Si  Si1  1  0.66666667  0.33333331  0.75336001  1
  Al  Al2  1  0.33333331  0.66666662  0.64372701  1
  Al  Al3  1  0.66666667  0.33333331  0.35627300  1
  Al  Al4  1  0.00000000  0.00000000  0.00000000  1
