# generated using pymatgen
data_NaMn7O12
_symmetry_space_group_name_H-M   'P 1'
_cell_length_a   6.46440840
_cell_length_b   6.46440840
_cell_length_c   6.46440840
_cell_angle_alpha   109.47122192
_cell_angle_beta   109.47122192
_cell_angle_gamma   109.47122192
_symmetry_Int_Tables_number   1
_chemical_formula_structural   NaMn7O12
_chemical_formula_sum   'Na1 Mn7 O12'
_cell_volume   207.95264366
_cell_formula_units_Z   1
loop_
 _symmetry_equiv_pos_site_id
 _symmetry_equiv_pos_as_xyz
  1  'x, y, z'
loop_
 _atom_site_type_symbol
 _atom_site_label
 _atom_site_symmetry_multiplicity
 _atom_site_fract_x
 _atom_site_fract_y
 _atom_site_fract_z
 _atom_site_occupancy
  Na  Na0  1  0.00000000  0.00000000  0.00000000  1
  Mn  Mn1  1  0.50000008  1.00000006  0.00000007  1
  Mn  Mn2  1  0.00000000  0.00000000  0.50000001  1
  Mn  Mn3  1  0.50000005  0.50000003  0.50000005  1
  Mn  Mn4  1  1.00000006  0.50000003  1.00000007  1
  Mn  Mn5  1  0.50000001  0.00000000  0.50000002  1
  Mn  Mn6  1  1.00000006  0.50000003  0.50000006  1
  Mn  Mn7  1  0.50000005  0.50000003  0.00000004  1
  O  O8  1  0.69313703  0.17102901  0.86416604  1
  O  O9  1  0.86416607  0.69313704  0.17102906  1
  O  O10  1  0.17102906  0.86416605  0.69313707  1
  O  O11  1  0.82897103  0.13583401  0.30686303  1
  O  O12  1  0.47789203  0.30686302  0.17102903  1
  O  O13  1  0.52210806  0.69313704  0.82897107  1
  O  O14  1  0.30686306  0.82897105  0.13583406  1
  O  O15  1  0.82897106  0.52210803  0.69313706  1
  O  O16  1  0.17102903  0.47789203  0.30686304  1
  O  O17  1  0.69313707  0.82897105  0.52210807  1
  O  O18  1  0.13583402  0.30686302  0.82897104  1
  O  O19  1  0.30686302  0.17102901  0.47789203  1
