# generated using pymatgen
data_HfGa2
_symmetry_space_group_name_H-M   'P 1'
_cell_length_a   4.39607191
_cell_length_b   5.48262691
_cell_length_c   5.48262691
_cell_angle_alpha   74.57217407
_cell_angle_beta   66.36496735
_cell_angle_gamma   66.36496735
_symmetry_Int_Tables_number   1
_chemical_formula_structural   HfGa2
_chemical_formula_sum   'Hf2 Ga4'
_cell_volume   110.02708159
_cell_formula_units_Z   2
loop_
 _symmetry_equiv_pos_site_id
 _symmetry_equiv_pos_as_xyz
  1  'x, y, z'
loop_
 _atom_site_type_symbol
 _atom_site_label
 _atom_site_symmetry_multiplicity
 _atom_site_fract_x
 _atom_site_fract_y
 _atom_site_fract_z
 _atom_site_occupancy
  Hf  Hf0  1  0.47577002  0.77422997  0.27423004  1
  Hf  Hf1  1  0.52423001  0.22576999  0.72577001  1
  Ga  Ga2  1  0.16606801  0.36910898  0.29875601  1
  Ga  Ga3  1  0.83393202  0.63089097  0.70124404  1
  Ga  Ga4  1  0.16606702  0.79875697  0.86910902  1
  Ga  Ga5  1  0.83393301  0.20124299  0.13089103  1
