# generated using pymatgen
data_La2I3
_symmetry_space_group_name_H-M   'P 1'
_cell_length_a   3.39086056
_cell_length_b   3.39086056
_cell_length_c   14.03056908
_cell_angle_alpha   83.05950928
_cell_angle_beta   83.05950928
_cell_angle_gamma   59.99999237
_symmetry_Int_Tables_number   1
_chemical_formula_structural   La2I3
_chemical_formula_sum   'La2 I3'
_cell_volume   138.34273636
_cell_formula_units_Z   1
loop_
 _symmetry_equiv_pos_site_id
 _symmetry_equiv_pos_as_xyz
  1  'x, y, z'
loop_
 _atom_site_type_symbol
 _atom_site_label
 _atom_site_symmetry_multiplicity
 _atom_site_fract_x
 _atom_site_fract_y
 _atom_site_fract_z
 _atom_site_occupancy
  La  La0  1  0.59690400  0.59690398  0.20928801  1
  I  I1  1  0.19932400  0.19932399  0.40202801  1
  I  I2  1  0.80067600  0.80067597  0.59797202  1
  La  La3  1  0.40309600  0.40309598  0.79071202  1
  I  I4  1  0.00000000  0.00000000  0.00000000  1
