# generated using pymatgen
data_AgTe
_symmetry_space_group_name_H-M   'P 1'
_cell_length_a   3.97041798
_cell_length_b   4.33056593
_cell_length_c   5.81757069
_cell_angle_alpha   68.14881897
_cell_angle_beta   90.00000000
_cell_angle_gamma   90.00000000
_symmetry_Int_Tables_number   1
_chemical_formula_structural   AgTe
_chemical_formula_sum   'Ag2 Te2'
_cell_volume   92.84156716
_cell_formula_units_Z   2
loop_
 _symmetry_equiv_pos_site_id
 _symmetry_equiv_pos_as_xyz
  1  'x, y, z'
loop_
 _atom_site_type_symbol
 _atom_site_label
 _atom_site_symmetry_multiplicity
 _atom_site_fract_x
 _atom_site_fract_y
 _atom_site_fract_z
 _atom_site_occupancy
  Te  Te0  1  0.25000000  0.86219001  0.27562002  1
  Te  Te1  1  0.75000000  0.13781000  0.72438002  1
  Ag  Ag2  1  0.75000000  0.41464100  0.17071801  1
  Ag  Ag3  1  0.25000000  0.58535900  0.82928203  1
