# generated using pymatgen
data_Mg2SiP3
_symmetry_space_group_name_H-M   'P 1'
_cell_length_a   3.78925681
_cell_length_b   3.78925681
_cell_length_c   6.69884777
_cell_angle_alpha   73.57087708
_cell_angle_beta   73.57087708
_cell_angle_gamma   59.99998474
_symmetry_Int_Tables_number   1
_chemical_formula_structural   Mg2SiP3
_chemical_formula_sum   'Mg2 Si1 P3'
_cell_volume   78.73141110
_cell_formula_units_Z   1
loop_
 _symmetry_equiv_pos_site_id
 _symmetry_equiv_pos_as_xyz
  1  'x, y, z'
loop_
 _atom_site_type_symbol
 _atom_site_label
 _atom_site_symmetry_multiplicity
 _atom_site_fract_x
 _atom_site_fract_y
 _atom_site_fract_z
 _atom_site_occupancy
  Si  Si0  1  0.25923899  0.25923900  0.22228301  1
  P  P1  1  0.74076098  0.74076101  0.77771704  1
  P  P2  1  0.37835199  0.37835200  0.86494402  1
  P  P3  1  0.62164799  0.62164801  0.13505603  1
  Mg  Mg4  1  0.12973700  0.12973700  0.61078901  1
  Mg  Mg5  1  0.87026298  0.87026301  0.38921104  1
