# generated using pymatgen
data_Rb2Na2Fe2SeBr5
_symmetry_space_group_name_H-M   'P 1'
_cell_length_a   4.42784786
_cell_length_b   7.75071812
_cell_length_c   11.65004063
_cell_angle_alpha   90.00000000
_cell_angle_beta   90.00000000
_cell_angle_gamma   106.59717560
_symmetry_Int_Tables_number   1
_chemical_formula_structural   Rb2Na2Fe2SeBr5
_chemical_formula_sum   'Rb2 Na2 Fe2 Se1 Br5'
_cell_volume   383.16000737
_cell_formula_units_Z   1
loop_
 _symmetry_equiv_pos_site_id
 _symmetry_equiv_pos_as_xyz
  1  'x, y, z'
loop_
 _atom_site_type_symbol
 _atom_site_label
 _atom_site_symmetry_multiplicity
 _atom_site_fract_x
 _atom_site_fract_y
 _atom_site_fract_z
 _atom_site_occupancy
  Rb  Rb0  1  0.74813800  0.49627598  0.75000002  1
  Rb  Rb1  1  0.25186198  0.50372398  0.25000001  1
  Na  Na2  1  0.00000000  0.00000000  0.00000000  1
  Na  Na3  1  0.00000000  0.00000000  0.50000002  1
  Fe  Fe4  1  0.46509297  0.93018596  0.75000002  1
  Fe  Fe5  1  0.53490701  0.06981400  0.25000001  1
  Br  Br6  1  0.36028097  0.72056197  0.93521803  1
  Br  Br7  1  0.63971901  0.27943799  0.06478200  1
  Br  Br8  1  0.63971901  0.27943799  0.43521801  1
  Br  Br9  1  0.36028097  0.72056197  0.56478202  1
  Se  Se10  1  0.06488300  0.12976600  0.75000002  1
  Br  Br11  1  0.93511698  0.87023397  0.25000001  1
