# generated using pymatgen
data_V9Ge7
_symmetry_space_group_name_H-M   'P 1'
_cell_length_a   4.66502523
_cell_length_b   4.70032120
_cell_length_c   9.41577148
_cell_angle_alpha   89.70266724
_cell_angle_beta   90.00000000
_cell_angle_gamma   90.00000000
_symmetry_Int_Tables_number   1
_chemical_formula_structural   V9Ge7
_chemical_formula_sum   'V9 Ge7'
_cell_volume   206.45794293
_cell_formula_units_Z   1
loop_
 _symmetry_equiv_pos_site_id
 _symmetry_equiv_pos_as_xyz
  1  'x, y, z'
loop_
 _atom_site_type_symbol
 _atom_site_label
 _atom_site_symmetry_multiplicity
 _atom_site_fract_x
 _atom_site_fract_y
 _atom_site_fract_z
 _atom_site_occupancy
  V  V0  1  0.49999997  0.74976797  0.50062300  1
  V  V1  1  0.75042896  0.00222700  0.24775701  1
  Ge  Ge2  1  0.74968696  0.99868396  0.75112701  1
  Ge  Ge3  1  0.00000000  0.49670798  0.12141400  1
  V  V4  1  0.00000000  0.49721798  0.62564101  1
  V  V5  1  0.49999997  0.25736199  0.00172100  1
  V  V6  1  0.49999997  0.24797499  0.50048101  1
  V  V7  1  0.24957099  0.00222700  0.24775701  1
  V  V8  1  0.25031299  0.99868396  0.75112701  1
  Ge  Ge9  1  0.49999997  0.50155098  0.24907300  1
  Ge  Ge10  1  0.49999997  0.50094798  0.75382902  1
  Ge  Ge11  1  0.00000000  0.99531596  0.99885001  1
  Ge  Ge12  1  0.00000000  0.99965196  0.49917200  1
  V  V13  1  0.00000000  0.49926098  0.37339400  1
  Ge  Ge14  1  0.00000000  0.50043598  0.87589202  1
  V  V15  1  0.49999997  0.75198197  0.00214199  1
