# generated using pymatgen
data_NaVO3
_symmetry_space_group_name_H-M   'P 1'
_cell_length_a   3.64510989
_cell_length_b   5.32889080
_cell_length_c   14.58033466
_cell_angle_alpha   90.00000000
_cell_angle_beta   90.00000000
_cell_angle_gamma   90.00000000
_symmetry_Int_Tables_number   1
_chemical_formula_structural   NaVO3
_chemical_formula_sum   'Na4 V4 O12'
_cell_volume   283.21414430
_cell_formula_units_Z   4
loop_
 _symmetry_equiv_pos_site_id
 _symmetry_equiv_pos_as_xyz
  1  'x, y, z'
loop_
 _atom_site_type_symbol
 _atom_site_label
 _atom_site_symmetry_multiplicity
 _atom_site_fract_x
 _atom_site_fract_y
 _atom_site_fract_z
 _atom_site_occupancy
  V  V0  1  0.75000002  0.91771203  0.91910602  1
  V  V1  1  0.25000001  0.08228800  0.08089400  1
  V  V2  1  0.75000002  0.58228802  0.41910601  1
  V  V3  1  0.25000001  0.41771202  0.58089401  1
  Na  Na4  1  0.75000002  0.62995002  0.18046000  1
  Na  Na5  1  0.25000001  0.12995000  0.31954001  1
  Na  Na6  1  0.25000001  0.37005001  0.81954002  1
  Na  Na7  1  0.75000002  0.87005003  0.68046002  1
  O  O8  1  0.25000001  0.89007003  0.19270000  1
  O  O9  1  0.75000002  0.10993000  0.80730002  1
  O  O10  1  0.25000001  0.60993002  0.69270002  1
  O  O11  1  0.75000002  0.39007001  0.30730101  1
  O  O12  1  0.75000002  0.89267003  0.38930001  1
  O  O13  1  0.25000001  0.39267001  0.11070000  1
  O  O14  1  0.25000001  0.10733000  0.61070001  1
  O  O15  1  0.75000002  0.60733002  0.88930002  1
  O  O16  1  0.75000002  0.53893002  0.55578601  1
  O  O17  1  0.75000002  0.96107004  0.05578600  1
  O  O18  1  0.25000001  0.46107002  0.44421401  1
  O  O19  1  0.25000001  0.03893000  0.94421402  1
