# generated using pymatgen
data_SrCa
_symmetry_space_group_name_H-M   'P 1'
_cell_length_a   5.50377989
_cell_length_b   5.50377989
_cell_length_c   6.72933674
_cell_angle_alpha   114.13821411
_cell_angle_beta   114.13821411
_cell_angle_gamma   90.00000000
_symmetry_Int_Tables_number   1
_chemical_formula_structural   SrCa
_chemical_formula_sum   'Sr2 Ca2'
_cell_volume   166.29555096
_cell_formula_units_Z   2
loop_
 _symmetry_equiv_pos_site_id
 _symmetry_equiv_pos_as_xyz
  1  'x, y, z'
loop_
 _atom_site_type_symbol
 _atom_site_label
 _atom_site_symmetry_multiplicity
 _atom_site_fract_x
 _atom_site_fract_y
 _atom_site_fract_z
 _atom_site_occupancy
  Sr  Sr0  1  0.74999998  0.24999999  0.49999995  1
  Ca  Ca1  1  0.24999995  0.74999998  0.49999994  1
  Sr  Sr2  1  0.49999996  0.49999999  -0.00000007  1
  Ca  Ca3  1  0.00000000  0.00000000  0.00000000  1
