# generated using pymatgen
data_Te2W
_symmetry_space_group_name_H-M   'P 1'
_cell_length_a   3.49546790
_cell_length_b   3.49546790
_cell_length_c   39.66210175
_cell_angle_alpha   90.00000000
_cell_angle_beta   90.00000000
_cell_angle_gamma   120.00000000
_symmetry_Int_Tables_number   1
_chemical_formula_structural   Te2W
_chemical_formula_sum   'Te8 W4'
_cell_volume   419.67876258
_cell_formula_units_Z   4
loop_
 _symmetry_equiv_pos_site_id
 _symmetry_equiv_pos_as_xyz
  1  'x, y, z'
loop_
 _atom_site_type_symbol
 _atom_site_label
 _atom_site_symmetry_multiplicity
 _atom_site_fract_x
 _atom_site_fract_y
 _atom_site_fract_z
 _atom_site_occupancy
  Te  Te0  1  0.00000000  0.00000000  0.67198499  1
  Te  Te1  1  0.00000000  0.00000000  0.29598299  1
  Te  Te2  1  0.66666668  0.33333333  0.57656999  1
  Te  Te3  1  0.66666668  0.33333333  0.48411299  1
  Te  Te4  1  0.00000000  0.00000000  0.76445499  1
  Te  Te5  1  0.00000000  0.00000000  0.38892299  1
  W  W6  1  0.00000000  0.00000000  0.53033899  1
  W  W7  1  0.66666668  0.33333333  0.71822799  1
  W  W8  1  0.00000000  0.00000000  0.90606798  1
  W  W9  1  0.66666668  0.33333333  0.34243399  1
  Te  Te10  1  0.66666668  0.33333333  0.94701598  1
  Te  Te11  1  0.66666668  0.33333333  0.86513898  1
