# generated using pymatgen
data_Mg5Pb3
_symmetry_space_group_name_H-M   'P 1'
_cell_length_a   5.32346582
_cell_length_b   6.56347179
_cell_length_c   6.56347179
_cell_angle_alpha   120.00000000
_cell_angle_beta   90.00000000
_cell_angle_gamma   90.00000000
_symmetry_Int_Tables_number   1
_chemical_formula_structural   Mg5Pb3
_chemical_formula_sum   'Mg5 Pb3'
_cell_volume   198.60599262
_cell_formula_units_Z   1
loop_
 _symmetry_equiv_pos_site_id
 _symmetry_equiv_pos_as_xyz
  1  'x, y, z'
loop_
 _atom_site_type_symbol
 _atom_site_label
 _atom_site_symmetry_multiplicity
 _atom_site_fract_x
 _atom_site_fract_y
 _atom_site_fract_z
 _atom_site_occupancy
  Mg  Mg0  1  0.25000001  0.32155500  0.16077798  1
  Mg  Mg1  1  0.25000001  0.83922301  0.16077796  1
  Mg  Mg2  1  0.25000001  0.83922301  0.67844594  1
  Mg  Mg3  1  0.75000002  0.16077700  0.83922197  1
  Mg  Mg4  1  0.75000002  0.16077700  0.32155398  1
  Pb  Pb5  1  0.75000002  0.67844501  0.83922194  1
  Pb  Pb6  1  0.25000001  0.33333334  0.66666663  1
  Pb  Pb7  1  0.75000002  0.66666667  0.33333329  1
