# generated using pymatgen
data_Na4B2PC3
_symmetry_space_group_name_H-M   'P 1'
_cell_length_a   4.41130018
_cell_length_b   4.41130018
_cell_length_c   8.56631660
_cell_angle_alpha   90.00000000
_cell_angle_beta   90.00000000
_cell_angle_gamma   120.00000000
_symmetry_Int_Tables_number   1
_chemical_formula_structural   Na4B2PC3
_chemical_formula_sum   'Na4 B2 P1 C3'
_cell_volume   144.36369090
_cell_formula_units_Z   1
loop_
 _symmetry_equiv_pos_site_id
 _symmetry_equiv_pos_as_xyz
  1  'x, y, z'
loop_
 _atom_site_type_symbol
 _atom_site_label
 _atom_site_symmetry_multiplicity
 _atom_site_fract_x
 _atom_site_fract_y
 _atom_site_fract_z
 _atom_site_occupancy
  Na  Na0  1  0.00000000  0.00000000  0.00000000  1
  Na  Na1  1  0.00000000  0.00000000  0.50000002  1
  C  C2  1  0.33333333  0.66666666  0.75000003  1
  B  B3  1  0.66666665  0.33333333  0.25000001  1
  Na  Na4  1  0.66666665  0.33333333  0.75000003  1
  Na  Na5  1  0.33333333  0.66666666  0.25000001  1
  C  C6  1  0.66666665  0.33333333  0.06353200  1
  P  P7  1  0.33333333  0.66666666  0.93646804  1
  C  C8  1  0.66666665  0.33333333  0.43646802  1
  B  B9  1  0.33333333  0.66666666  0.56353203  1
