# generated using pymatgen
data_Sc4Ge5Pt3
_symmetry_space_group_name_H-M   'P 1'
_cell_length_a   4.03474903
_cell_length_b   6.66570282
_cell_length_c   7.63396311
_cell_angle_alpha   90.00000000
_cell_angle_beta   90.00000000
_cell_angle_gamma   90.00000000
_symmetry_Int_Tables_number   1
_chemical_formula_structural   Sc4Ge5Pt3
_chemical_formula_sum   'Sc4 Ge5 Pt3'
_cell_volume   205.31114746
_cell_formula_units_Z   1
loop_
 _symmetry_equiv_pos_site_id
 _symmetry_equiv_pos_as_xyz
  1  'x, y, z'
loop_
 _atom_site_type_symbol
 _atom_site_label
 _atom_site_symmetry_multiplicity
 _atom_site_fract_x
 _atom_site_fract_y
 _atom_site_fract_z
 _atom_site_occupancy
  Sc  Sc0  1  0.25000000  0.02219100  0.81249099  1
  Sc  Sc1  1  0.25000000  0.52219101  0.68750899  1
  Sc  Sc2  1  0.74999999  0.97780903  0.18750900  1
  Sc  Sc3  1  0.74999999  0.47780901  0.31249100  1
  Ge  Ge4  1  0.25000000  0.76801202  0.37952599  1
  Ge  Ge5  1  0.25000000  0.26801201  0.12047400  1
  Ge  Ge6  1  0.74999999  0.23198801  0.62047399  1
  Ge  Ge7  1  0.74999999  0.73198802  0.87952599  1
  Pt  Pt8  1  0.25000000  0.14681200  0.43784199  1
  Pt  Pt9  1  0.25000000  0.64681202  0.06215800  1
  Ge  Ge10  1  0.74999999  0.85318802  0.56215799  1
  Pt  Pt11  1  0.74999999  0.35318801  0.93784199  1
