# generated using pymatgen
data_TlTe6Mo
_symmetry_space_group_name_H-M   'P 1'
_cell_length_a   4.09047604
_cell_length_b   4.09047604
_cell_length_c   16.07669258
_cell_angle_alpha   90.00000000
_cell_angle_beta   90.00000000
_cell_angle_gamma   120.00000000
_symmetry_Int_Tables_number   1
_chemical_formula_structural   TlTe6Mo
_chemical_formula_sum   'Tl1 Te6 Mo1'
_cell_volume   232.95661352
_cell_formula_units_Z   1
loop_
 _symmetry_equiv_pos_site_id
 _symmetry_equiv_pos_as_xyz
  1  'x, y, z'
loop_
 _atom_site_type_symbol
 _atom_site_label
 _atom_site_symmetry_multiplicity
 _atom_site_fract_x
 _atom_site_fract_y
 _atom_site_fract_z
 _atom_site_occupancy
  Tl  Tl0  1  0.66666666  0.33333332  0.75000002  1
  Te  Te1  1  0.33333332  0.66666664  0.25000001  1
  Mo  Mo2  1  0.00000000  0.00000000  0.50000001  1
  Te  Te3  1  0.00000000  0.00000000  0.00000000  1
  Te  Te4  1  0.66666666  0.33333332  0.09032500  1
  Te  Te5  1  0.33333332  0.66666664  0.90967502  1
  Te  Te6  1  0.33333332  0.66666664  0.59032502  1
  Te  Te7  1  0.66666666  0.33333332  0.40967501  1
