# generated using pymatgen
data_Ce2Si4Ir
_symmetry_space_group_name_H-M   'P 1'
_cell_length_a   4.13663387
_cell_length_b   4.20140791
_cell_length_c   8.67709255
_cell_angle_alpha   104.01039124
_cell_angle_beta   90.00000000
_cell_angle_gamma   90.00000000
_symmetry_Int_Tables_number   1
_chemical_formula_structural   Ce2Si4Ir
_chemical_formula_sum   'Ce2 Si4 Ir1'
_cell_volume   146.31896995
_cell_formula_units_Z   1
loop_
 _symmetry_equiv_pos_site_id
 _symmetry_equiv_pos_as_xyz
  1  'x, y, z'
loop_
 _atom_site_type_symbol
 _atom_site_label
 _atom_site_symmetry_multiplicity
 _atom_site_fract_x
 _atom_site_fract_y
 _atom_site_fract_z
 _atom_site_occupancy
  Ce  Ce0  1  0.25000001  0.10955000  0.21910000  1
  Ce  Ce1  1  0.75000002  0.89625203  0.79250502  1
  Ir  Ir2  1  0.25000001  0.31512001  0.63024000  1
  Si  Si3  1  0.25000001  0.45518302  0.91036500  1
  Si  Si4  1  0.75000002  0.54622202  0.09244402  1
  Si  Si5  1  0.25000001  0.74587803  0.49175602  1
  Si  Si6  1  0.75000002  0.24779401  0.49558900  1
