# generated using pymatgen
data_Rb2MnBr7
_symmetry_space_group_name_H-M   'P 1'
_cell_length_a   6.04660892
_cell_length_b   7.68406773
_cell_length_c   9.32187462
_cell_angle_alpha   90.00000000
_cell_angle_beta   90.00000000
_cell_angle_gamma   99.37303925
_symmetry_Int_Tables_number   1
_chemical_formula_structural   Rb2MnBr7
_chemical_formula_sum   'Rb2 Mn1 Br7'
_cell_volume   427.33548850
_cell_formula_units_Z   1
loop_
 _symmetry_equiv_pos_site_id
 _symmetry_equiv_pos_as_xyz
  1  'x, y, z'
loop_
 _atom_site_type_symbol
 _atom_site_label
 _atom_site_symmetry_multiplicity
 _atom_site_fract_x
 _atom_site_fract_y
 _atom_site_fract_z
 _atom_site_occupancy
  Rb  Rb0  1  0.79654803  0.37588600  0.75000003  1
  Rb  Rb1  1  0.20345204  0.62411400  0.25000001  1
  Br  Br2  1  0.00000000  0.00000000  0.00000000  1
  Mn  Mn3  1  0.00000000  0.00000000  0.50000002  1
  Br  Br4  1  0.72035506  0.70432600  0.02290600  1
  Br  Br5  1  0.27964502  0.29567400  0.52290602  1
  Br  Br6  1  0.72035506  0.70432600  0.47709402  1
  Br  Br7  1  0.27964502  0.29567400  0.97709404  1
  Br  Br8  1  0.13684606  0.89593700  0.75000003  1
  Br  Br9  1  0.86315402  0.10406300  0.25000001  1
