# generated using pymatgen
data_Ge5Ir3
_symmetry_space_group_name_H-M   'P 1'
_cell_length_a   5.44610071
_cell_length_b   5.54219198
_cell_length_c   5.54219198
_cell_angle_alpha   91.05125427
_cell_angle_beta   118.68328094
_cell_angle_gamma   118.68328094
_symmetry_Int_Tables_number   1
_chemical_formula_structural   Ge5Ir3
_chemical_formula_sum   'Ge5 Ir3'
_cell_volume   121.83731215
_cell_formula_units_Z   1
loop_
 _symmetry_equiv_pos_site_id
 _symmetry_equiv_pos_as_xyz
  1  'x, y, z'
loop_
 _atom_site_type_symbol
 _atom_site_label
 _atom_site_symmetry_multiplicity
 _atom_site_fract_x
 _atom_site_fract_y
 _atom_site_fract_z
 _atom_site_occupancy
  Ge  Ge0  1  0.92640983  0.71461392  0.71461384  1
  Ge  Ge1  1  0.07358995  0.28538597  0.28538595  1
  Ir  Ir2  1  0.49999993  0.27411597  0.72588392  1
  Ir  Ir3  1  0.49999986  0.72588392  0.27411587  1
  Ge  Ge4  1  0.99999991  0.18446998  0.81552990  1
  Ge  Ge5  1  0.99999981  0.81552991  0.18446983  1
  Ge  Ge6  1  0.36297887  0.71663292  0.71663286  1
  Ir  Ir7  1  0.63702092  0.28336697  0.28336692  1
