# generated using pymatgen
data_Ce6C2Se3S
_symmetry_space_group_name_H-M   'P 1'
_cell_length_a   3.92976403
_cell_length_b   6.81594658
_cell_length_c   10.27778912
_cell_angle_alpha   90.00000000
_cell_angle_beta   90.00000000
_cell_angle_gamma   106.75484467
_symmetry_Int_Tables_number   1
_chemical_formula_structural   Ce6C2Se3S
_chemical_formula_sum   'Ce6 Se3 C2 S1'
_cell_volume   263.60427468
_cell_formula_units_Z   1
loop_
 _symmetry_equiv_pos_site_id
 _symmetry_equiv_pos_as_xyz
  1  'x, y, z'
loop_
 _atom_site_type_symbol
 _atom_site_label
 _atom_site_symmetry_multiplicity
 _atom_site_fract_x
 _atom_site_fract_y
 _atom_site_fract_z
 _atom_site_occupancy
  S  S0  1  0.50000005  0.99999998  0.49999999  1
  Se  Se1  1  0.50000005  0.99999998  0.99999999  1
  C  C2  1  0.03418800  0.06837600  0.74999999  1
  C  C3  1  0.96581204  0.93162398  0.25000000  1
  Se  Se4  1  0.74850702  0.49701399  0.74999999  1
  Se  Se5  1  0.25149302  0.50298599  0.25000000  1
  Ce  Ce6  1  0.57395100  0.14790200  0.25000000  1
  Ce  Ce7  1  0.42604904  0.85209798  0.74999999  1
  Ce  Ce8  1  0.86161803  0.72323599  0.06821500  1
  Ce  Ce9  1  0.86161803  0.72323599  0.43178500  1
  Ce  Ce10  1  0.13838201  0.27676399  0.93178499  1
  Ce  Ce11  1  0.13838201  0.27676399  0.56821499  1
