# generated using pymatgen
data_SrF5
_symmetry_space_group_name_H-M   'P 1'
_cell_length_a   4.46414423
_cell_length_b   4.51227617
_cell_length_c   4.58639097
_cell_angle_alpha   60.53313446
_cell_angle_beta   90.00000000
_cell_angle_gamma   90.00000000
_symmetry_Int_Tables_number   1
_chemical_formula_structural   SrF5
_chemical_formula_sum   'Sr1 F5'
_cell_volume   80.43475452
_cell_formula_units_Z   1
loop_
 _symmetry_equiv_pos_site_id
 _symmetry_equiv_pos_as_xyz
  1  'x, y, z'
loop_
 _atom_site_type_symbol
 _atom_site_label
 _atom_site_symmetry_multiplicity
 _atom_site_fract_x
 _atom_site_fract_y
 _atom_site_fract_z
 _atom_site_occupancy
  F  F0  1  0.74999996  0.22615100  1.00000000  1
  F  F1  1  0.24999999  0.77384898  0.99999998  1
  F  F2  1  0.74999996  0.54264199  0.34424298  1
  F  F3  1  0.24999999  0.11311500  0.34424300  1
  F  F4  1  0.24999999  0.45735799  0.65575699  1
  Sr  Sr5  1  0.74999996  0.88688498  0.65575697  1
