# generated using pymatgen
data_RbLa(IO3)2
_symmetry_space_group_name_H-M   'P 1'
_cell_length_a   4.12697601
_cell_length_b   7.23835325
_cell_length_c   10.34836483
_cell_angle_alpha   90.00000000
_cell_angle_beta   90.00000000
_cell_angle_gamma   106.56345367
_symmetry_Int_Tables_number   1
_chemical_formula_structural   RbLa(IO3)2
_chemical_formula_sum   'Rb1 La1 I2 O6'
_cell_volume   296.30409574
_cell_formula_units_Z   1
loop_
 _symmetry_equiv_pos_site_id
 _symmetry_equiv_pos_as_xyz
  1  'x, y, z'
loop_
 _atom_site_type_symbol
 _atom_site_label
 _atom_site_symmetry_multiplicity
 _atom_site_fract_x
 _atom_site_fract_y
 _atom_site_fract_z
 _atom_site_occupancy
  La  La0  1  0.00000000  0.00000000  0.50000001  1
  I  I1  1  0.00000000  0.00000000  0.00000000  1
  I  I2  1  0.25879804  0.51759600  0.25000000  1
  Rb  Rb3  1  0.74120204  0.48240400  0.75000001  1
  O  O4  1  0.37129606  0.74259201  0.55024101  1
  O  O5  1  0.62870402  0.25740800  0.05024100  1
  O  O6  1  0.37129606  0.74259201  0.94975902  1
  O  O7  1  0.62870402  0.25740800  0.44975901  1
  O  O8  1  0.93110207  0.86220401  0.25000000  1
  O  O9  1  0.06889801  0.13779600  0.75000001  1
