# generated using pymatgen
data_MnAl16
_symmetry_space_group_name_H-M   'P 1'
_cell_length_a   7.42484951
_cell_length_b   7.42484951
_cell_length_c   7.42484951
_cell_angle_alpha   69.37635803
_cell_angle_beta   69.37635803
_cell_angle_gamma   69.37635040
_symmetry_Int_Tables_number   1
_chemical_formula_structural   MnAl16
_chemical_formula_sum   'Mn1 Al16'
_cell_volume   346.16095051
_cell_formula_units_Z   1
loop_
 _symmetry_equiv_pos_site_id
 _symmetry_equiv_pos_as_xyz
  1  'x, y, z'
loop_
 _atom_site_type_symbol
 _atom_site_label
 _atom_site_symmetry_multiplicity
 _atom_site_fract_x
 _atom_site_fract_y
 _atom_site_fract_z
 _atom_site_occupancy
  Al  Al0  1  0.42001899  0.88038602  0.88038601  1
  Al  Al1  1  0.88038599  0.88038602  0.42001900  1
  Al  Al2  1  0.88038600  0.42001901  0.88038601  1
  Mn  Mn3  1  0.82452400  0.50687301  0.50687300  1
  Al  Al4  1  0.50687300  0.50687301  0.82452401  1
  Al  Al5  1  0.50687299  0.82452402  0.50687301  1
  Al  Al6  1  0.17476899  0.48734901  0.48734901  1
  Al  Al7  1  0.48734900  0.48734901  0.17476900  1
  Al  Al8  1  0.48734900  0.17476900  0.48734901  1
  Al  Al9  1  0.92462599  0.92462602  0.92462601  1
  Al  Al10  1  0.07928400  0.07928400  0.07928400  1
  Al  Al11  1  0.81748100  0.29754201  0.29754200  1
  Al  Al12  1  0.29754200  0.29754201  0.81748102  1
  Al  Al13  1  0.29754199  0.81748102  0.29754200  1
  Al  Al14  1  0.17675099  0.70612301  0.70612301  1
  Al  Al15  1  0.70612299  0.70612301  0.17675100  1
  Al  Al16  1  0.70612301  0.17675100  0.70612301  1
