# generated using pymatgen
data_Cr3As4
_symmetry_space_group_name_H-M   'P 1'
_cell_length_a   3.73044991
_cell_length_b   6.37955046
_cell_length_c   6.42991829
_cell_angle_alpha   119.05662537
_cell_angle_beta   90.00000000
_cell_angle_gamma   107.00023651
_symmetry_Int_Tables_number   1
_chemical_formula_structural   Cr3As4
_chemical_formula_sum   'Cr3 As4'
_cell_volume   126.05952344
_cell_formula_units_Z   1
loop_
 _symmetry_equiv_pos_site_id
 _symmetry_equiv_pos_as_xyz
  1  'x, y, z'
loop_
 _atom_site_type_symbol
 _atom_site_label
 _atom_site_symmetry_multiplicity
 _atom_site_fract_x
 _atom_site_fract_y
 _atom_site_fract_z
 _atom_site_occupancy
  Cr  Cr0  1  0.00000000  0.00000000  0.00000000  1
  Cr  Cr1  1  0.73742206  0.47484402  0.72008403  1
  Cr  Cr2  1  0.26257805  0.52515603  0.27991602  1
  As  As3  1  0.62885104  0.25770201  0.97330704  1
  As  As4  1  0.37114907  0.74229804  0.02669301  1
  As  As5  1  0.88321409  0.76642804  0.55438803  1
  As  As6  1  0.11678602  0.23357201  0.44561202  1
