# generated using pymatgen
data_Lu4Ga10Cu
_symmetry_space_group_name_H-M   'P 1'
_cell_length_a   6.46352196
_cell_length_b   6.46352196
_cell_length_c   6.46352196
_cell_angle_alpha   90.00000000
_cell_angle_beta   90.00000000
_cell_angle_gamma   90.00000000
_symmetry_Int_Tables_number   1
_chemical_formula_structural   Lu4Ga10Cu
_chemical_formula_sum   'Lu4 Ga10 Cu1'
_cell_volume   270.02730719
_cell_formula_units_Z   1
loop_
 _symmetry_equiv_pos_site_id
 _symmetry_equiv_pos_as_xyz
  1  'x, y, z'
loop_
 _atom_site_type_symbol
 _atom_site_label
 _atom_site_symmetry_multiplicity
 _atom_site_fract_x
 _atom_site_fract_y
 _atom_site_fract_z
 _atom_site_occupancy
  Lu  Lu0  1  0.50000000  0.50000000  0.00000000  1
  Lu  Lu1  1  0.50000000  0.00000000  0.50000000  1
  Lu  Lu2  1  0.00000000  0.50000000  0.50000000  1
  Lu  Lu3  1  0.50000000  0.50000000  0.50000000  1
  Ga  Ga4  1  0.20878900  0.20878900  0.79121101  1
  Ga  Ga5  1  0.20878900  0.79121101  0.20878900  1
  Ga  Ga6  1  0.79121101  0.20878900  0.20878900  1
  Ga  Ga7  1  0.79121101  0.79121101  0.79121101  1
  Ga  Ga8  1  0.79121101  0.79121101  0.20878900  1
  Ga  Ga9  1  0.79121101  0.20878900  0.79121101  1
  Ga  Ga10  1  0.20878900  0.79121101  0.79121101  1
  Ga  Ga11  1  0.20878900  0.20878900  0.20878900  1
  Cu  Cu12  1  0.00000000  0.00000000  0.50000000  1
  Ga  Ga13  1  0.00000000  0.50000000  -0.00000000  1
  Ga  Ga14  1  0.50000000  0.00000000  0.00000000  1
