# generated using pymatgen
data_In10Pt
_symmetry_space_group_name_H-M   'P 1'
_cell_length_a   3.88694811
_cell_length_b   9.35969353
_cell_length_c   9.35969353
_cell_angle_alpha   60.79179764
_cell_angle_beta   78.01574707
_cell_angle_gamma   78.01574707
_symmetry_Int_Tables_number   1
_chemical_formula_structural   In10Pt
_chemical_formula_sum   'In10 Pt1'
_cell_volume   288.47576227
_cell_formula_units_Z   1
loop_
 _symmetry_equiv_pos_site_id
 _symmetry_equiv_pos_as_xyz
  1  'x, y, z'
loop_
 _atom_site_type_symbol
 _atom_site_label
 _atom_site_symmetry_multiplicity
 _atom_site_fract_x
 _atom_site_fract_y
 _atom_site_fract_z
 _atom_site_occupancy
  In  In0  1  0.13154303  0.45352999  0.28338502  1
  In  In1  1  0.86845802  0.71661399  0.54647004  1
  In  In2  1  0.31614499  0.05986600  0.30784401  1
  In  In3  1  0.68385502  0.69215599  0.94013404  1
  In  In4  1  0.35397601  0.37930499  0.91274302  1
  In  In5  1  0.64602398  0.08725700  0.62069502  1
  In  In6  1  0.00000000  0.00072700  0.99927301  1
  In  In7  1  0.50000003  0.73577099  0.26422903  1
  In  In8  1  0.00000002  0.33880900  0.66119101  1
  Pt  Pt9  1  0.23761005  0.83494199  0.68983803  1
  In  In10  1  0.76238999  0.31016200  0.16505803  1
