# generated using pymatgen
data_LiMnAl2(NO)2
_symmetry_space_group_name_H-M   'P 1'
_cell_length_a   2.87981606
_cell_length_b   2.87981534
_cell_length_c   11.41329575
_cell_angle_alpha   90.00000000
_cell_angle_beta   90.00000000
_cell_angle_gamma   120.00000763
_symmetry_Int_Tables_number   1
_chemical_formula_structural   LiMnAl2(NO)2
_chemical_formula_sum   'Li1 Mn1 Al2 N2 O2'
_cell_volume   81.97304328
_cell_formula_units_Z   1
loop_
 _symmetry_equiv_pos_site_id
 _symmetry_equiv_pos_as_xyz
  1  'x, y, z'
loop_
 _atom_site_type_symbol
 _atom_site_label
 _atom_site_symmetry_multiplicity
 _atom_site_fract_x
 _atom_site_fract_y
 _atom_site_fract_z
 _atom_site_occupancy
  Mn  Mn0  1  0.00000000  0.00000000  0.00000000  1
  Al  Al1  1  0.00000000  0.00000000  0.50000001  1
  Al  Al2  1  0.33333332  0.66666665  0.25000001  1
  Li  Li3  1  0.66666665  0.33333333  0.75000002  1
  O  O4  1  0.66666665  0.33333333  0.58513801  1
  N  N5  1  0.33333332  0.66666665  0.08513800  1
  O  O6  1  0.66666665  0.33333333  0.91486202  1
  N  N7  1  0.33333332  0.66666665  0.41486201  1
