# generated using pymatgen
data_Rb5ZrMoS11
_symmetry_space_group_name_H-M   'P 1'
_cell_length_a   7.42677784
_cell_length_b   7.42677784
_cell_length_c   10.30570793
_cell_angle_alpha   90.00000000
_cell_angle_beta   90.00000000
_cell_angle_gamma   90.00000000
_symmetry_Int_Tables_number   1
_chemical_formula_structural   Rb5ZrMoS11
_chemical_formula_sum   'Rb5 Zr1 Mo1 S11'
_cell_volume   568.43223207
_cell_formula_units_Z   1
loop_
 _symmetry_equiv_pos_site_id
 _symmetry_equiv_pos_as_xyz
  1  'x, y, z'
loop_
 _atom_site_type_symbol
 _atom_site_label
 _atom_site_symmetry_multiplicity
 _atom_site_fract_x
 _atom_site_fract_y
 _atom_site_fract_z
 _atom_site_occupancy
  Rb  Rb0  1  0.50000001  0.00000000  0.78070201  1
  Rb  Rb1  1  0.00000000  0.50000001  0.21929800  1
  Rb  Rb2  1  0.50000001  0.00000000  0.21929800  1
  Rb  Rb3  1  0.00000000  0.50000001  0.78070201  1
  Zr  Zr4  1  0.00000000  0.00000000  0.00000000  1
  Mo  Mo5  1  0.50000001  0.50000001  0.50000000  1
  S  S6  1  0.00000000  0.00000000  0.75137300  1
  S  S7  1  0.50000001  0.50000001  0.26602400  1
  S  S8  1  0.72966502  0.72966502  0.50000000  1
  S  S9  1  0.24309601  0.24309601  -0.00000000  1
  S  S10  1  0.72966502  0.27033501  0.50000000  1
  S  S11  1  0.24309601  0.75690402  -0.00000000  1
  S  S12  1  0.00000000  0.00000000  0.24862700  1
  S  S13  1  0.50000001  0.50000001  0.73397600  1
  S  S14  1  0.27033501  0.27033501  0.50000000  1
  Rb  Rb15  1  0.75690402  0.75690402  -0.00000000  1
  S  S16  1  0.27033501  0.72966502  0.50000000  1
  S  S17  1  0.75690402  0.24309601  -0.00000000  1
