# generated using pymatgen
data_Ce5O6
_symmetry_space_group_name_H-M   'P 1'
_cell_length_a   5.34676981
_cell_length_b   5.34676981
_cell_length_c   6.86745787
_cell_angle_alpha   112.90989685
_cell_angle_beta   112.90989685
_cell_angle_gamma   90.00000000
_symmetry_Int_Tables_number   1
_chemical_formula_structural   Ce5O6
_chemical_formula_sum   'Ce5 O6'
_cell_volume   163.89648130
_cell_formula_units_Z   1
loop_
 _symmetry_equiv_pos_site_id
 _symmetry_equiv_pos_as_xyz
  1  'x, y, z'
loop_
 _atom_site_type_symbol
 _atom_site_label
 _atom_site_symmetry_multiplicity
 _atom_site_fract_x
 _atom_site_fract_y
 _atom_site_fract_z
 _atom_site_occupancy
  Ce  Ce0  1  0.50000001  0.50000002  -0.00000001  1
  Ce  Ce1  1  0.17683200  0.17683201  0.35366399  1
  Ce  Ce2  1  0.82316802  0.82316803  0.64633597  1
  O  O3  1  0.26152701  0.30314001  0.11857799  1
  Ce  Ce4  1  0.69686002  0.14294900  0.88142197  1
  Ce  Ce5  1  0.18456200  0.73847302  0.88142196  1
  O  O6  1  0.84611902  0.47788001  0.34184498  1
  O  O7  1  0.52212001  0.50427402  0.65815497  1
  O  O8  1  0.13603500  0.15388100  0.65815398  1
  O  O9  1  0.49572701  0.86396603  0.34184598  1
  O  O10  1  0.85705102  0.81543802  0.11857798  1
