# generated using pymatgen
data_Ho(Si2Rh3)2
_symmetry_space_group_name_H-M   'P 1'
_cell_length_a   3.71474600
_cell_length_b   7.01744223
_cell_length_c   7.01744175
_cell_angle_alpha   120.00000000
_cell_angle_beta   90.00000000
_cell_angle_gamma   90.00000000
_symmetry_Int_Tables_number   1
_chemical_formula_structural   Ho(Si2Rh3)2
_chemical_formula_sum   'Ho1 Si4 Rh6'
_cell_volume   158.42270244
_cell_formula_units_Z   1
loop_
 _symmetry_equiv_pos_site_id
 _symmetry_equiv_pos_as_xyz
  1  'x, y, z'
loop_
 _atom_site_type_symbol
 _atom_site_label
 _atom_site_symmetry_multiplicity
 _atom_site_fract_x
 _atom_site_fract_y
 _atom_site_fract_z
 _atom_site_occupancy
  Ho  Ho0  1  0.50000000  0.00000000  -0.00000000  1
  Si  Si1  1  0.50000000  0.33333332  0.66666669  1
  Si  Si2  1  0.00000000  0.80724897  0.18310100  1
  Si  Si3  1  0.00000000  0.81689797  0.62414702  1
  Si  Si4  1  0.00000000  0.37585199  0.19275000  1
  Rh  Rh5  1  0.50000000  0.51954198  0.45189701  1
  Rh  Rh6  1  0.50000000  0.54810298  0.06764500  1
  Rh  Rh7  1  0.50000000  0.93235497  0.48045801  1
  Rh  Rh8  1  0.00000000  0.20635999  0.81058302  1
  Rh  Rh9  1  -0.00000000  0.18941699  0.39577701  1
  Rh  Rh10  1  0.00000000  0.60422298  0.79364002  1
