# generated using pymatgen
data_Mn3O5F
_symmetry_space_group_name_H-M   'P 1'
_cell_length_a   4.65614796
_cell_length_b   5.55605507
_cell_length_c   7.50171947
_cell_angle_alpha   84.50991058
_cell_angle_beta   89.27507019
_cell_angle_gamma   88.85874176
_symmetry_Int_Tables_number   1
_chemical_formula_structural   Mn3O5F
_chemical_formula_sum   'Mn6 O10 F2'
_cell_volume   193.12827313
_cell_formula_units_Z   2
loop_
 _symmetry_equiv_pos_site_id
 _symmetry_equiv_pos_as_xyz
  1  'x, y, z'
loop_
 _atom_site_type_symbol
 _atom_site_label
 _atom_site_symmetry_multiplicity
 _atom_site_fract_x
 _atom_site_fract_y
 _atom_site_fract_z
 _atom_site_occupancy
  Mn  Mn0  1  0.51883399  0.67815801  0.34056599  1
  Mn  Mn1  1  0.48116600  0.32184201  0.65943399  1
  Mn  Mn2  1  0.50000000  0.00000000  -0.00000001  1
  Mn  Mn3  1  0.98356601  0.14598000  0.33632798  1
  Mn  Mn4  1  -0.00000001  0.50000001  0.00000000  1
  Mn  Mn5  1  0.01643398  0.85402001  0.66367201  1
  O  O6  1  0.79858900  0.19373800  0.10132298  1
  O  O7  1  0.79652398  0.86108201  0.43799299  1
  O  O8  1  0.69738601  0.04095100  0.76214699  1
  O  O9  1  0.69822800  0.36647901  0.43764799  1
  O  O10  1  0.69146599  0.69534201  0.10850799  1
  O  O11  1  0.30261398  0.95904902  0.23785300  1
  O  O12  1  0.30853399  0.30465800  0.89149200  1
  O  O13  1  0.30177198  0.63352101  0.56235200  1
  O  O14  1  0.20141098  0.80626201  0.89867701  1
  O  O15  1  0.20347600  0.13891800  0.56200700  1
  F  F16  1  0.79703499  0.53894801  0.76026599  1
  F  F17  1  0.20296499  0.46105201  0.23973400  1
