# generated using pymatgen
data_CsNb2S7
_symmetry_space_group_name_H-M   'P 1'
_cell_length_a   6.36135578
_cell_length_b   7.29414701
_cell_length_c   12.27275848
_cell_angle_alpha   91.91271973
_cell_angle_beta   90.00000000
_cell_angle_gamma   90.00000000
_symmetry_Int_Tables_number   1
_chemical_formula_structural   CsNb2S7
_chemical_formula_sum   'Cs2 Nb4 S14'
_cell_volume   569.14685837
_cell_formula_units_Z   2
loop_
 _symmetry_equiv_pos_site_id
 _symmetry_equiv_pos_as_xyz
  1  'x, y, z'
loop_
 _atom_site_type_symbol
 _atom_site_label
 _atom_site_symmetry_multiplicity
 _atom_site_fract_x
 _atom_site_fract_y
 _atom_site_fract_z
 _atom_site_occupancy
  Cs  Cs0  1  0.62574902  0.50000000  0.24999998  1
  Cs  Cs1  1  0.37425101  0.50000000  0.74999996  1
  Nb  Nb2  1  0.24130201  0.06841200  0.43084798  1
  Nb  Nb3  1  0.24130201  0.93158800  0.06915198  1
  Nb  Nb4  1  0.75869803  0.93158800  0.56915196  1
  Nb  Nb5  1  0.75869803  0.06841200  0.93084796  1
  S  S6  1  0.13013100  0.35000500  0.37915498  1
  S  S7  1  0.13013100  0.64999500  0.12084498  1
  S  S8  1  0.86986903  0.64999500  0.62084496  1
  S  S9  1  0.86986903  0.35000500  0.87915496  1
  S  S10  1  0.59371502  0.00000000  0.74999997  1
  S  S11  1  0.40628501  0.00000000  0.24999999  1
  S  S12  1  0.93125503  0.11102200  0.11126199  1
  S  S13  1  0.93125503  0.88897800  0.38873797  1
  S  S14  1  0.06874500  0.88897800  0.88873795  1
  S  S15  1  0.06874500  0.11102200  0.61126197  1
  S  S16  1  0.42306101  0.20897900  0.00195200  1
  S  S17  1  0.42306101  0.79102100  0.49804796  1
  S  S18  1  0.57693902  0.79102100  0.99804794  1
  S  S19  1  0.57693902  0.20897900  0.50195198  1
