# generated using pymatgen
data_NbC
_symmetry_space_group_name_H-M   'P 1'
_cell_length_a   2.87114596
_cell_length_b   2.87114573
_cell_length_c   11.46374226
_cell_angle_alpha   90.00000000
_cell_angle_beta   90.00000000
_cell_angle_gamma   120.00000000
_symmetry_Int_Tables_number   1
_chemical_formula_structural   NbC
_chemical_formula_sum   'Nb4 C4'
_cell_volume   81.84036399
_cell_formula_units_Z   4
loop_
 _symmetry_equiv_pos_site_id
 _symmetry_equiv_pos_as_xyz
  1  'x, y, z'
loop_
 _atom_site_type_symbol
 _atom_site_label
 _atom_site_symmetry_multiplicity
 _atom_site_fract_x
 _atom_site_fract_y
 _atom_site_fract_z
 _atom_site_occupancy
  C  C0  1  0.00000000  0.00000000  0.74999998  1
  C  C1  1  0.00000000  0.00000000  0.24999999  1
  C  C2  1  0.00000000  0.00000000  0.49999999  1
  C  C3  1  0.00000000  0.00000000  0.00000000  1
  Nb  Nb4  1  0.66666665  0.33333332  0.62933999  1
  Nb  Nb5  1  0.33333329  0.66666663  0.37065999  1
  Nb  Nb6  1  0.33333329  0.66666663  0.12934000  1
  Nb  Nb7  1  0.66666665  0.33333332  0.87065998  1
