# generated using pymatgen
data_K7O2
_symmetry_space_group_name_H-M   'P 1'
_cell_length_a   7.35942602
_cell_length_b   7.35942602
_cell_length_c   12.27021980
_cell_angle_alpha   75.51484680
_cell_angle_beta   75.51484680
_cell_angle_gamma   73.41130066
_symmetry_Int_Tables_number   1
_chemical_formula_structural   K7O2
_chemical_formula_sum   'K14 O4'
_cell_volume   605.11765905
_cell_formula_units_Z   2
loop_
 _symmetry_equiv_pos_site_id
 _symmetry_equiv_pos_as_xyz
  1  'x, y, z'
loop_
 _atom_site_type_symbol
 _atom_site_label
 _atom_site_symmetry_multiplicity
 _atom_site_fract_x
 _atom_site_fract_y
 _atom_site_fract_z
 _atom_site_occupancy
  K  K0  1  0.05843500  0.40814101  0.17955002  1
  K  K1  1  0.59185902  0.94156502  0.32045005  1
  K  K2  1  0.94156502  0.59185901  0.82045007  1
  K  K3  1  0.40814101  0.05843500  0.67955003  1
  O  O4  1  0.55151001  0.25464700  0.94381805  1
  O  O5  1  0.74535302  0.44849001  0.55618205  1
  O  O6  1  0.44849001  0.74535301  0.05618203  1
  O  O7  1  0.25464701  0.55151001  0.44381803  1
  K  K8  1  0.80165302  0.19834700  0.75000005  1
  K  K9  1  0.19834701  0.80165301  0.25000003  1
  K  K10  1  0.62436001  0.35737101  0.11495303  1
  K  K11  1  0.64262901  0.37564001  0.38504704  1
  K  K12  1  0.37564001  0.64262901  0.88504705  1
  K  K13  1  0.35737101  0.62436001  0.61495304  1
  K  K14  1  0.24852601  0.12859800  0.96901504  1
  K  K15  1  0.87140202  0.75147401  0.53098506  1
  K  K16  1  0.12859800  0.24852600  0.46901502  1
  K  K17  1  0.75147402  0.87140201  0.03098504  1
