# generated using pymatgen
data_Ti4Te3
_symmetry_space_group_name_H-M   'P 1'
_cell_length_a   3.83619809
_cell_length_b   6.89495325
_cell_length_c   7.45581150
_cell_angle_alpha   116.11708832
_cell_angle_beta   104.90767670
_cell_angle_gamma   90.00000000
_symmetry_Int_Tables_number   1
_chemical_formula_structural   Ti4Te3
_chemical_formula_sum   'Ti4 Te3'
_cell_volume   169.64969692
_cell_formula_units_Z   1
loop_
 _symmetry_equiv_pos_site_id
 _symmetry_equiv_pos_as_xyz
  1  'x, y, z'
loop_
 _atom_site_type_symbol
 _atom_site_label
 _atom_site_symmetry_multiplicity
 _atom_site_fract_x
 _atom_site_fract_y
 _atom_site_fract_z
 _atom_site_occupancy
  Te  Te0  1  0.25311999  0.29891600  0.50624000  1
  Te  Te1  1  0.74687998  0.70108400  0.49376001  1
  Te  Te2  1  0.00000000  0.00000000  0.00000000  1
  Ti  Ti3  1  0.10692700  0.44694200  0.21385400  1
  Ti  Ti4  1  0.89307298  0.55305800  0.78614601  1
  Ti  Ti5  1  0.36453299  0.03096300  0.72906600  1
  Ti  Ti6  1  0.63546699  0.96903700  0.27093401  1
