# generated using pymatgen
data_HoFe11W
_symmetry_space_group_name_H-M   'P 1'
_cell_length_a   4.69016600
_cell_length_b   6.43861628
_cell_length_c   6.43861628
_cell_angle_alpha   82.01359558
_cell_angle_beta   68.64031219
_cell_angle_gamma   68.64031219
_symmetry_Int_Tables_number   1
_chemical_formula_structural   HoFe11W
_chemical_formula_sum   'Ho1 Fe11 W1'
_cell_volume   168.63689446
_cell_formula_units_Z   1
loop_
 _symmetry_equiv_pos_site_id
 _symmetry_equiv_pos_as_xyz
  1  'x, y, z'
loop_
 _atom_site_type_symbol
 _atom_site_label
 _atom_site_symmetry_multiplicity
 _atom_site_fract_x
 _atom_site_fract_y
 _atom_site_fract_z
 _atom_site_occupancy
  Ho  Ho0  1  0.00000000  0.00000000  0.00000000  1
  Fe  Fe1  1  0.64088899  0.35911101  0.35911097  1
  W  W2  1  0.35911097  0.64088902  0.64088898  1
  Fe  Fe3  1  0.49999996  0.77379803  0.22620197  1
  Fe  Fe4  1  0.50000000  0.22620201  0.77379799  1
  Fe  Fe5  1  0.72909797  0.77090203  0.77090197  1
  Fe  Fe6  1  0.27090199  0.22909801  0.22909799  1
  Fe  Fe7  1  0.00000000  0.00000000  0.50000001  1
  Fe  Fe8  1  0.50000001  0.00000000  0.49999999  1
  Fe  Fe9  1  0.49999998  0.50000002  -0.00000003  1
  Fe  Fe10  1  0.99999999  0.50000002  0.99999997  1
  Fe  Fe11  1  -0.00000002  0.35942901  0.64057100  1
  Fe  Fe12  1  -0.00000004  0.64057102  0.35942899  1
