# generated using pymatgen
data_Cr4CoS7
_symmetry_space_group_name_H-M   'P 1'
_cell_length_a   5.77276707
_cell_length_b   5.77276707
_cell_length_c   5.77276707
_cell_angle_alpha   90.00000000
_cell_angle_beta   90.00000000
_cell_angle_gamma   90.00000000
_symmetry_Int_Tables_number   1
_chemical_formula_structural   Cr4CoS7
_chemical_formula_sum   'Cr4 Co1 S7'
_cell_volume   192.37653661
_cell_formula_units_Z   1
loop_
 _symmetry_equiv_pos_site_id
 _symmetry_equiv_pos_as_xyz
  1  'x, y, z'
loop_
 _atom_site_type_symbol
 _atom_site_label
 _atom_site_symmetry_multiplicity
 _atom_site_fract_x
 _atom_site_fract_y
 _atom_site_fract_z
 _atom_site_occupancy
  Cr  Cr0  1  0.00000000  0.49999999  0.49999999  1
  Cr  Cr1  1  0.49999999  0.49999999  -0.00000000  1
  Cr  Cr2  1  0.49999999  0.00000000  0.49999999  1
  Cr  Cr3  1  0.00000000  0.00000000  0.00000000  1
  S  S4  1  0.39091200  0.10908800  0.89091199  1
  S  S5  1  0.10908800  0.89091199  0.39091200  1
  S  S6  1  0.89091199  0.39091200  0.10908800  1
  Co  Co7  1  0.60908799  0.60908799  0.60908799  1
  S  S8  1  0.39091200  0.39091200  0.39091200  1
  S  S9  1  0.10908800  0.60908799  0.89091199  1
  S  S10  1  0.89091199  0.10908800  0.60908799  1
  S  S11  1  0.60908799  0.89091199  0.10908800  1
