# generated using pymatgen
data_In2CoTe4
_symmetry_space_group_name_H-M   'P 1'
_cell_length_a   3.87850595
_cell_length_b   6.96657801
_cell_length_c   12.04935646
_cell_angle_alpha   90.00000000
_cell_angle_beta   90.00000000
_cell_angle_gamma   90.00000000
_symmetry_Int_Tables_number   1
_chemical_formula_structural   In2CoTe4
_chemical_formula_sum   'In4 Co2 Te8'
_cell_volume   325.57257793
_cell_formula_units_Z   2
loop_
 _symmetry_equiv_pos_site_id
 _symmetry_equiv_pos_as_xyz
  1  'x, y, z'
loop_
 _atom_site_type_symbol
 _atom_site_label
 _atom_site_symmetry_multiplicity
 _atom_site_fract_x
 _atom_site_fract_y
 _atom_site_fract_z
 _atom_site_occupancy
  In  In0  1  0.50000001  0.08327200  0.68126897  1
  In  In1  1  0.50000001  0.91672800  0.31873099  1
  In  In2  1  0.50000001  0.41672800  0.18126899  1
  In  In3  1  0.50000001  0.58327200  0.81873097  1
  Co  Co4  1  0.00000000  0.50000000  0.49999998  1
  Co  Co5  1  0.00000000  0.00000000  0.00000000  1
  Te  Te6  1  0.50000001  0.73759600  0.54395598  1
  Te  Te7  1  0.50000001  0.26240400  0.45604398  1
  Te  Te8  1  0.00000000  0.12246000  0.19504199  1
  Te  Te9  1  0.00000000  0.87754000  0.80495797  1
  Te  Te10  1  0.00000000  0.62246000  0.30495799  1
  Te  Te11  1  0.00000000  0.37754000  0.69504197  1
  Te  Te12  1  0.50000001  0.23759600  0.95604396  1
  Te  Te13  1  0.50000001  0.76240400  0.04395600  1
