# generated using pymatgen
data_Zr4Al7Ni2
_symmetry_space_group_name_H-M   'P 1'
_cell_length_a   5.06587172
_cell_length_b   5.06587172
_cell_length_c   9.61748505
_cell_angle_alpha   74.73001099
_cell_angle_beta   74.73001099
_cell_angle_gamma   60.00000381
_symmetry_Int_Tables_number   1
_chemical_formula_structural   Zr4Al7Ni2
_chemical_formula_sum   'Zr4 Al7 Ni2'
_cell_volume   203.62346270
_cell_formula_units_Z   1
loop_
 _symmetry_equiv_pos_site_id
 _symmetry_equiv_pos_as_xyz
  1  'x, y, z'
loop_
 _atom_site_type_symbol
 _atom_site_label
 _atom_site_symmetry_multiplicity
 _atom_site_fract_x
 _atom_site_fract_y
 _atom_site_fract_z
 _atom_site_occupancy
  Zr  Zr0  1  0.83534498  0.83534500  0.49396500  1
  Zr  Zr1  1  0.16465500  0.16465500  0.50603498  1
  Zr  Zr2  1  0.65019598  0.65019600  0.04941201  1
  Zr  Zr3  1  0.34980399  0.34980400  0.95058796  1
  Al  Al4  1  0.54528599  0.54528600  0.36414200  1
  Al  Al5  1  0.45471399  0.45471400  0.63585798  1
  Al  Al6  1  0.00000000  0.00000000  0.00000000  1
  Al  Al7  1  0.41453798  0.90649600  0.77246998  1
  Ni  Ni8  1  0.90649598  0.90649600  0.77246999  1
  Al  Al9  1  0.90649598  0.41453800  0.77246998  1
  Al  Al10  1  0.58546199  0.09350400  0.22753000  1
  Ni  Ni11  1  0.09350400  0.09350400  0.22752999  1
  Al  Al12  1  0.09350399  0.58546200  0.22753000  1
