# generated using pymatgen
data_CsSiBPt2PbO2
_symmetry_space_group_name_H-M   'P 1'
_cell_length_a   3.88872790
_cell_length_b   3.88872790
_cell_length_c   9.11653614
_cell_angle_alpha   90.00000000
_cell_angle_beta   90.00000000
_cell_angle_gamma   90.00000000
_symmetry_Int_Tables_number   1
_chemical_formula_structural   CsSiBPt2PbO2
_chemical_formula_sum   'Cs1 Si1 B1 Pt2 Pb1 O2'
_cell_volume   137.86212573
_cell_formula_units_Z   1
loop_
 _symmetry_equiv_pos_site_id
 _symmetry_equiv_pos_as_xyz
  1  'x, y, z'
loop_
 _atom_site_type_symbol
 _atom_site_label
 _atom_site_symmetry_multiplicity
 _atom_site_fract_x
 _atom_site_fract_y
 _atom_site_fract_z
 _atom_site_occupancy
  Si  Si0  1  0.00000000  0.00000000  0.00000000  1
  B  B1  1  0.50000001  0.50000001  0.27636300  1
  Pb  Pb2  1  0.50000001  0.50000001  0.72363699  1
  Cs  Cs3  1  0.00000000  0.00000000  0.49999999  1
  Pt  Pt4  1  0.50000001  0.00000000  0.15783800  1
  O  O5  1  0.00000000  0.50000001  0.84216199  1
  Pt  Pt6  1  0.00000000  0.50000001  0.15783800  1
  O  O7  1  0.50000001  0.00000000  0.84216199  1
