# generated using pymatgen
data_EuIn12Pt
_symmetry_space_group_name_H-M   'P 1'
_cell_length_a   7.41282320
_cell_length_b   7.41282320
_cell_length_c   7.41282320
_cell_angle_alpha   71.06200409
_cell_angle_beta   70.26151276
_cell_angle_gamma   109.73848724
_symmetry_Int_Tables_number   1
_chemical_formula_structural   EuIn12Pt
_chemical_formula_sum   'Eu1 In12 Pt1'
_cell_volume   313.54571875
_cell_formula_units_Z   1
loop_
 _symmetry_equiv_pos_site_id
 _symmetry_equiv_pos_as_xyz
  1  'x, y, z'
loop_
 _atom_site_type_symbol
 _atom_site_label
 _atom_site_symmetry_multiplicity
 _atom_site_fract_x
 _atom_site_fract_y
 _atom_site_fract_z
 _atom_site_occupancy
  In  In0  1  -0.00000004  0.49999997  0.50000000  1
  In  In1  1  0.49999992  0.74999995  0.75000002  1
  In  In2  1  0.87819594  0.25319598  0.12500004  1
  In  In3  1  0.62180393  0.62499996  0.25319603  1
  In  In4  1  0.12180392  0.99680394  0.62500002  1
  Pt  Pt5  1  0.37819597  0.12499999  0.99680399  1
  In  In6  1  0.10411594  0.72965395  0.01805503  1
  In  In7  1  0.60411596  0.23194498  0.52034601  1
  In  In8  1  0.25229096  0.37446198  0.72965400  1
  In  In9  1  0.39588392  0.87553794  0.37217103  1
  In  In10  1  0.24770896  0.37217098  0.23194501  1
  In  In11  1  0.75229093  0.52034597  0.87553802  1
  Eu  Eu12  1  0.74770897  0.01805500  0.87782900  1
  In  In13  1  0.89588390  0.87782894  0.37446205  1
