# generated using pymatgen
data_Ce(MnAl3)3
_symmetry_space_group_name_H-M   'P 1'
_cell_length_a   5.20188999
_cell_length_b   6.81688404
_cell_length_c   6.81688404
_cell_angle_alpha   81.62934875
_cell_angle_beta   67.57061005
_cell_angle_gamma   67.57061005
_symmetry_Int_Tables_number   1
_chemical_formula_structural   Ce(MnAl3)3
_chemical_formula_sum   'Ce1 Mn3 Al9'
_cell_volume   206.54100333
_cell_formula_units_Z   1
loop_
 _symmetry_equiv_pos_site_id
 _symmetry_equiv_pos_as_xyz
  1  'x, y, z'
loop_
 _atom_site_type_symbol
 _atom_site_label
 _atom_site_symmetry_multiplicity
 _atom_site_fract_x
 _atom_site_fract_y
 _atom_site_fract_z
 _atom_site_occupancy
  Ce  Ce0  1  0.00000000  0.00000000  0.00000000  1
  Al  Al1  1  0.27818900  0.22181100  0.22181099  1
  Al  Al2  1  0.49999999  0.77818900  0.22181098  1
  Al  Al3  1  0.65075100  0.34924900  0.34924898  1
  Al  Al4  1  1.00000000  0.65075100  0.34924897  1
  Al  Al5  1  0.34924900  0.65075100  0.65075098  1
  Al  Al6  1  1.00000000  0.34924900  0.65075098  1
  Al  Al7  1  0.72181100  0.77818900  0.77818897  1
  Al  Al8  1  0.50000000  0.22181100  0.77818898  1
  Mn  Mn9  1  1.00000000  0.50000000  -0.00000002  1
  Mn  Mn10  1  0.50000000  0.50000000  -0.00000001  1
  Mn  Mn11  1  0.50000000  0.00000000  0.49999999  1
  Al  Al12  1  0.00000000  0.00000000  0.49999999  1
