# generated using pymatgen
data_La(B3Ir)2
_symmetry_space_group_name_H-M   'P 1'
_cell_length_a   3.10621190
_cell_length_b   5.53266287
_cell_length_c   5.53266287
_cell_angle_alpha   72.80644226
_cell_angle_beta   73.69706726
_cell_angle_gamma   73.69706726
_symmetry_Int_Tables_number   1
_chemical_formula_structural   La(B3Ir)2
_chemical_formula_sum   'La1 B6 Ir2'
_cell_volume   85.12942435
_cell_formula_units_Z   1
loop_
 _symmetry_equiv_pos_site_id
 _symmetry_equiv_pos_as_xyz
  1  'x, y, z'
loop_
 _atom_site_type_symbol
 _atom_site_label
 _atom_site_symmetry_multiplicity
 _atom_site_fract_x
 _atom_site_fract_y
 _atom_site_fract_z
 _atom_site_occupancy
  La  La0  1  0.00000001  0.49999999  0.49999995  1
  Ir  Ir1  1  0.84618003  0.15382000  0.15381998  1
  Ir  Ir2  1  0.15382002  0.84617998  0.84617991  1
  B  B3  1  0.50000002  0.13936600  0.86063396  1
  B  B4  1  0.50000003  0.86063398  0.13936593  1
  B  B5  1  0.69753402  0.03801400  0.56691797  1
  B  B6  1  0.30246502  0.43308199  0.96198693  1
  B  B7  1  0.69753503  0.56691799  0.03801296  1
  B  B8  1  0.30246603  0.96198598  0.43308192  1
