# generated using pymatgen
data_MgCr3InS8
_symmetry_space_group_name_H-M   'P 1'
_cell_length_a   7.24558163
_cell_length_b   7.24558163
_cell_length_c   7.24558163
_cell_angle_alpha   60.00000000
_cell_angle_beta   60.00000000
_cell_angle_gamma   60.00000000
_symmetry_Int_Tables_number   1
_chemical_formula_structural   MgCr3InS8
_chemical_formula_sum   'Mg1 Cr3 In1 S8'
_cell_volume   268.97056953
_cell_formula_units_Z   1
loop_
 _symmetry_equiv_pos_site_id
 _symmetry_equiv_pos_as_xyz
  1  'x, y, z'
loop_
 _atom_site_type_symbol
 _atom_site_label
 _atom_site_symmetry_multiplicity
 _atom_site_fract_x
 _atom_site_fract_y
 _atom_site_fract_z
 _atom_site_occupancy
  Cr  Cr0  1  0.39782001  0.80654002  0.39782001  1
  Cr  Cr1  1  0.80654002  0.39782001  0.39782001  1
  Cr  Cr2  1  0.39782001  0.39782001  0.80654002  1
  In  In3  1  0.39782001  0.39782001  0.39782001  1
  Mg  Mg4  1  0.00000000  0.00000000  0.00000000  1
  S  S5  1  0.10616900  0.63127701  0.63127701  1
  S  S6  1  0.63127701  0.63127701  0.10616900  1
  S  S7  1  0.63127701  0.63127701  0.63127701  1
  S  S8  1  0.63127701  0.10616900  0.63127701  1
  S  S9  1  0.58204301  0.13931900  0.13931900  1
  S  S10  1  0.13931900  0.13931900  0.58204301  1
  S  S11  1  0.13931900  0.13931900  0.13931900  1
  S  S12  1  0.13931900  0.58204301  0.13931900  1
