# generated using pymatgen
data_HgCl2
_symmetry_space_group_name_H-M   'P 1'
_cell_length_a   7.01534081
_cell_length_b   9.39031696
_cell_length_c   9.39031696
_cell_angle_alpha   79.02675629
_cell_angle_beta   72.12471771
_cell_angle_gamma   72.12471771
_symmetry_Int_Tables_number   1
_chemical_formula_structural   HgCl2
_chemical_formula_sum   'Hg5 Cl10'
_cell_volume   557.15245250
_cell_formula_units_Z   5
loop_
 _symmetry_equiv_pos_site_id
 _symmetry_equiv_pos_as_xyz
  1  'x, y, z'
loop_
 _atom_site_type_symbol
 _atom_site_label
 _atom_site_symmetry_multiplicity
 _atom_site_fract_x
 _atom_site_fract_y
 _atom_site_fract_z
 _atom_site_occupancy
  Cl  Cl0  1  0.00000000  0.00000000  0.00000000  1
  Cl  Cl1  1  0.26868404  0.72250202  0.72250205  1
  Hg  Hg2  1  0.73131600  0.27749801  0.27749805  1
  Cl  Cl3  1  0.24649404  0.74825602  0.03894702  1
  Cl  Cl4  1  0.24649399  0.03894700  0.74825605  1
  Cl  Cl5  1  0.75350599  0.25174401  0.96105308  1
  Cl  Cl6  1  0.75350604  0.96105303  0.25174405  1
  Hg  Hg7  1  0.20366703  0.47776302  0.78636505  1
  Hg  Hg8  1  0.20366705  0.78636503  0.47776304  1
  Cl  Cl9  1  0.79633301  0.52223702  0.21363505  1
  Cl  Cl10  1  0.79633299  0.21363501  0.52223706  1
  Cl  Cl11  1  0.83817103  0.87434303  0.87434309  1
  Hg  Hg12  1  0.16182900  0.12565700  0.12565701  1
  Cl  Cl13  1  0.35571501  0.34998801  0.34998804  1
  Hg  Hg14  1  0.64428502  0.65001202  0.65001207  1
