# generated using pymatgen
data_Ba4Y(WO4)3
_symmetry_space_group_name_H-M   'P 1'
_cell_length_a   5.95170307
_cell_length_b   5.96515322
_cell_length_c   8.45001221
_cell_angle_alpha   90.04738617
_cell_angle_beta   90.00000000
_cell_angle_gamma   90.00000000
_symmetry_Int_Tables_number   1
_chemical_formula_structural   Ba4Y(WO4)3
_chemical_formula_sum   'Ba4 Y1 W3 O12'
_cell_volume   299.99916592
_cell_formula_units_Z   1
loop_
 _symmetry_equiv_pos_site_id
 _symmetry_equiv_pos_as_xyz
  1  'x, y, z'
loop_
 _atom_site_type_symbol
 _atom_site_label
 _atom_site_symmetry_multiplicity
 _atom_site_fract_x
 _atom_site_fract_y
 _atom_site_fract_z
 _atom_site_occupancy
  Ba  Ba0  1  0.50420199  0.99959196  0.24976795  1
  Ba  Ba1  1  0.49579799  0.00040800  0.75023197  1
  Ba  Ba2  1  0.00420200  0.50040798  0.25023197  1
  Ba  Ba3  1  0.99579799  0.49959198  0.74976795  1
  W  W4  1  0.00000000  0.00000000  0.00000000  1
  Y  Y5  1  0.49999999  0.49999998  0.49999996  1
  W  W6  1  0.99999999  0.00000000  0.49999998  1
  W  W7  1  0.49999999  0.49999998  0.99999994  1
  O  O8  1  0.99973399  0.01996400  0.26366799  1
  O  O9  1  0.00026600  0.98003596  0.73633193  1
  O  O10  1  0.49973399  0.48003598  0.23633197  1
  O  O11  1  0.50026599  0.51996398  0.76366795  1
  O  O12  1  0.27401500  0.74565597  0.00998397  1
  O  O13  1  0.72598499  0.25434399  0.99001595  1
  O  O14  1  0.77401499  0.75434397  0.49001595  1
  O  O15  1  0.22598500  0.24565599  0.50998397  1
  O  O16  1  0.74656999  0.72625197  0.01017397  1
  O  O17  1  0.25343000  0.27374799  0.98982595  1
  O  O18  1  0.24657000  0.77374797  0.48982595  1
  O  O19  1  0.75342999  0.22625199  0.51017397  1
