# generated using pymatgen
data_CeMg7Si4
_symmetry_space_group_name_H-M   'P 1'
_cell_length_a   4.19224215
_cell_length_b   7.22546911
_cell_length_c   8.52988052
_cell_angle_alpha   90.00000000
_cell_angle_beta   90.00000000
_cell_angle_gamma   90.00000000
_symmetry_Int_Tables_number   1
_chemical_formula_structural   CeMg7Si4
_chemical_formula_sum   'Ce1 Mg7 Si4'
_cell_volume   258.37789558
_cell_formula_units_Z   1
loop_
 _symmetry_equiv_pos_site_id
 _symmetry_equiv_pos_as_xyz
  1  'x, y, z'
loop_
 _atom_site_type_symbol
 _atom_site_label
 _atom_site_symmetry_multiplicity
 _atom_site_fract_x
 _atom_site_fract_y
 _atom_site_fract_z
 _atom_site_occupancy
  Ce  Ce0  1  0.24999999  0.02830600  0.17624301  1
  Mg  Mg1  1  0.74999997  0.97169398  0.82375705  1
  Mg  Mg2  1  0.24999999  0.52830599  0.32375702  1
  Mg  Mg3  1  0.74999997  0.47169399  0.67624304  1
  Mg  Mg4  1  0.74999997  0.35184799  0.06252700  1
  Mg  Mg5  1  0.24999999  0.64815199  0.93747305  1
  Mg  Mg6  1  0.74999997  0.85184799  0.43747302  1
  Mg  Mg7  1  0.24999999  0.14815200  0.56252703  1
  Si  Si8  1  0.24999999  0.76768399  0.63322804  1
  Si  Si9  1  0.74999997  0.23231600  0.36677202  1
  Si  Si10  1  0.24999999  0.26768400  0.86677205  1
  Si  Si11  1  0.74999997  0.73231599  0.13322801  1
