# generated using pymatgen
data_EuAg2
_symmetry_space_group_name_H-M   'P 1'
_cell_length_a   4.84020996
_cell_length_b   6.14461040
_cell_length_c   6.14461040
_cell_angle_alpha   76.88849640
_cell_angle_beta   66.80522156
_cell_angle_gamma   66.80522156
_symmetry_Int_Tables_number   1
_chemical_formula_structural   EuAg2
_chemical_formula_sum   'Eu2 Ag4'
_cell_volume   153.84210407
_cell_formula_units_Z   2
loop_
 _symmetry_equiv_pos_site_id
 _symmetry_equiv_pos_as_xyz
  1  'x, y, z'
loop_
 _atom_site_type_symbol
 _atom_site_label
 _atom_site_symmetry_multiplicity
 _atom_site_fract_x
 _atom_site_fract_y
 _atom_site_fract_z
 _atom_site_occupancy
  Eu  Eu0  1  0.46578602  0.78421402  0.28421400  1
  Eu  Eu1  1  0.53421401  0.21578601  0.71578602  1
  Ag  Ag2  1  0.83548202  0.62414102  0.70489502  1
  Ag  Ag3  1  0.16451801  0.37585901  0.29510500  1
  Ag  Ag4  1  0.83548201  0.20489500  0.12414101  1
  Ag  Ag5  1  0.16451802  0.79510502  0.87585901  1
