# generated using pymatgen
data_Li11Mg5
_symmetry_space_group_name_H-M   'P 1'
_cell_length_a   4.79160786
_cell_length_b   5.98951292
_cell_length_c   10.31374645
_cell_angle_alpha   90.00000000
_cell_angle_beta   90.00000000
_cell_angle_gamma   90.00000000
_symmetry_Int_Tables_number   1
_chemical_formula_structural   Li11Mg5
_chemical_formula_sum   'Li11 Mg5'
_cell_volume   295.99830572
_cell_formula_units_Z   1
loop_
 _symmetry_equiv_pos_site_id
 _symmetry_equiv_pos_as_xyz
  1  'x, y, z'
loop_
 _atom_site_type_symbol
 _atom_site_label
 _atom_site_symmetry_multiplicity
 _atom_site_fract_x
 _atom_site_fract_y
 _atom_site_fract_z
 _atom_site_occupancy
  Mg  Mg0  1  0.50000001  0.50000001  0.33031599  1
  Li  Li1  1  0.50000001  0.00000000  0.84231896  1
  Mg  Mg2  1  0.50000001  0.74614201  0.08435200  1
  Li  Li3  1  0.50000001  0.25922900  0.58191897  1
  Mg  Mg4  1  0.50000001  0.25385800  0.08435200  1
  Mg  Mg5  1  0.50000001  0.74077101  0.58191897  1
  Li  Li6  1  0.00000000  0.00000000  0.16198399  1
  Li  Li7  1  0.00000000  0.50000001  0.65780897  1
  Li  Li8  1  0.00000000  0.73240301  0.40860098  1
  Li  Li9  1  0.00000000  0.24747500  0.92807896  1
  Mg  Mg10  1  0.00000000  0.26759700  0.40860098  1
  Li  Li11  1  0.00000000  0.75252501  0.92807896  1
  Li  Li12  1  0.00000000  0.50000001  0.16876499  1
  Li  Li13  1  0.00000000  0.00000000  0.66474597  1
  Li  Li14  1  0.50000001  0.00000000  0.33613999  1
  Li  Li15  1  0.50000001  0.50000001  0.83194996  1
