# generated using pymatgen
data_La2YAg2C3S
_symmetry_space_group_name_H-M   'P 1'
_cell_length_a   4.12984085
_cell_length_b   4.12984085
_cell_length_c   9.86690903
_cell_angle_alpha   102.08000946
_cell_angle_beta   102.08000183
_cell_angle_gamma   90.00000000
_symmetry_Int_Tables_number   1
_chemical_formula_structural   La2YAg2C3S
_chemical_formula_sum   'La2 Y1 Ag2 C3 S1'
_cell_volume   160.74660911
_cell_formula_units_Z   1
loop_
 _symmetry_equiv_pos_site_id
 _symmetry_equiv_pos_as_xyz
  1  'x, y, z'
loop_
 _atom_site_type_symbol
 _atom_site_label
 _atom_site_symmetry_multiplicity
 _atom_site_fract_x
 _atom_site_fract_y
 _atom_site_fract_z
 _atom_site_occupancy
  S  S0  1  0.41038901  0.41038902  0.82077799  1
  La  La1  1  0.58961102  0.58961102  0.17922199  1
  Ag  Ag2  1  0.00000000  0.00000000  0.00000000  1
  C  C3  1  0.25000000  0.75000003  0.50000000  1
  C  C4  1  0.75000002  0.25000001  0.49999999  1
  Y  Y5  1  0.16792600  0.16792601  0.33585200  1
  La  La6  1  0.83207402  0.83207403  0.66414799  1
  C  C7  1  0.50029602  0.00029600  0.00059200  1
  Ag  Ag8  1  0.99970403  0.49970402  0.99940798  1
