# generated using pymatgen
data_Ce(MnSb)2
_symmetry_space_group_name_H-M   'P 1'
_cell_length_a   4.35666418
_cell_length_b   4.35666418
_cell_length_c   6.29473114
_cell_angle_alpha   110.24629211
_cell_angle_beta   110.24629211
_cell_angle_gamma   90.00000000
_symmetry_Int_Tables_number   1
_chemical_formula_structural   Ce(MnSb)2
_chemical_formula_sum   'Ce1 Mn2 Sb2'
_cell_volume   104.19145770
_cell_formula_units_Z   1
loop_
 _symmetry_equiv_pos_site_id
 _symmetry_equiv_pos_as_xyz
  1  'x, y, z'
loop_
 _atom_site_type_symbol
 _atom_site_label
 _atom_site_symmetry_multiplicity
 _atom_site_fract_x
 _atom_site_fract_y
 _atom_site_fract_z
 _atom_site_occupancy
  Ce  Ce0  1  0.98748389  0.98748393  0.97496792  1
  Mn  Mn1  1  0.74917494  0.24917498  0.49834996  1
  Mn  Mn2  1  0.24917495  0.74917495  0.49834995  1
  Sb  Sb3  1  0.39338396  0.39338397  0.78676797  1
  Sb  Sb4  1  0.62078193  0.62078196  0.24156394  1
