# generated using pymatgen
data_LaAlAu
_symmetry_space_group_name_H-M   'P 1'
_cell_length_a   4.63202190
_cell_length_b   5.87100601
_cell_length_c   5.87100601
_cell_angle_alpha   80.43670654
_cell_angle_beta   66.76627350
_cell_angle_gamma   66.76627350
_symmetry_Int_Tables_number   1
_chemical_formula_structural   LaAlAu
_chemical_formula_sum   'La2 Al2 Au2'
_cell_volume   134.80362089
_cell_formula_units_Z   2
loop_
 _symmetry_equiv_pos_site_id
 _symmetry_equiv_pos_as_xyz
  1  'x, y, z'
loop_
 _atom_site_type_symbol
 _atom_site_label
 _atom_site_symmetry_multiplicity
 _atom_site_fract_x
 _atom_site_fract_y
 _atom_site_fract_z
 _atom_site_occupancy
  La  La0  1  0.95386895  0.79613100  0.29613102  1
  La  La1  1  0.04613098  0.20386900  0.70386900  1
  Au  Au2  1  0.66143794  0.77528700  0.90183702  1
  Al  Al3  1  0.33856199  0.22471300  0.09816300  1
  Au  Au4  1  0.66143798  0.40183700  0.27528700  1
  Al  Al5  1  0.33856194  0.59816300  0.72471302  1
