# generated using pymatgen
data_La2(B3Rh2)3
_symmetry_space_group_name_H-M   'P 1'
_cell_length_a   5.61662388
_cell_length_b   5.61662388
_cell_length_c   8.58554268
_cell_angle_alpha   90.00000000
_cell_angle_beta   90.00000000
_cell_angle_gamma   120.00000000
_symmetry_Int_Tables_number   1
_chemical_formula_structural   La2(B3Rh2)3
_chemical_formula_sum   'La2 B9 Rh6'
_cell_volume   234.55736120
_cell_formula_units_Z   1
loop_
 _symmetry_equiv_pos_site_id
 _symmetry_equiv_pos_as_xyz
  1  'x, y, z'
loop_
 _atom_site_type_symbol
 _atom_site_label
 _atom_site_symmetry_multiplicity
 _atom_site_fract_x
 _atom_site_fract_y
 _atom_site_fract_z
 _atom_site_occupancy
  La  La0  1  0.00000000  0.00000000  0.29391501  1
  La  La1  1  0.00000000  0.00000000  0.70608503  1
  Rh  Rh2  1  0.33333334  0.66666667  -0.00000000  1
  Rh  Rh3  1  0.66666668  0.33333334  -0.00000000  1
  Rh  Rh4  1  0.33333334  0.66666667  0.33272601  1
  Rh  Rh5  1  0.66666668  0.33333334  0.33272601  1
  Rh  Rh6  1  0.66666668  0.33333334  0.66727402  1
  Rh  Rh7  1  0.33333334  0.66666667  0.66727402  1
  B  B8  1  0.50000001  0.00000000  0.16424501  1
  B  B9  1  0.50000001  0.50000000  0.16424501  1
  B  B10  1  -0.00000000  0.50000000  0.16424501  1
  B  B11  1  0.50000001  0.00000000  0.83575503  1
  B  B12  1  0.50000001  0.50000000  0.83575503  1
  B  B13  1  -0.00000000  0.50000000  0.83575503  1
  B  B14  1  0.50000001  0.00000000  0.50000002  1
  B  B15  1  0.50000001  0.50000000  0.50000002  1
  B  B16  1  -0.00000000  0.50000000  0.50000002  1
