# generated using pymatgen
data_CuTe9
_symmetry_space_group_name_H-M   'P 1'
_cell_length_a   4.19756317
_cell_length_b   7.49083185
_cell_length_c   18.24062538
_cell_angle_alpha   90.00000000
_cell_angle_beta   90.00000000
_cell_angle_gamma   90.00000000
_symmetry_Int_Tables_number   1
_chemical_formula_structural   CuTe9
_chemical_formula_sum   'Cu2 Te18'
_cell_volume   573.54435988
_cell_formula_units_Z   2
loop_
 _symmetry_equiv_pos_site_id
 _symmetry_equiv_pos_as_xyz
  1  'x, y, z'
loop_
 _atom_site_type_symbol
 _atom_site_label
 _atom_site_symmetry_multiplicity
 _atom_site_fract_x
 _atom_site_fract_y
 _atom_site_fract_z
 _atom_site_occupancy
  Te  Te0  1  0.24999999  0.09582500  0.62528899  1
  Te  Te1  1  0.74999997  0.40417501  0.12528900  1
  Te  Te2  1  0.74999997  0.90417502  0.37471099  1
  Te  Te3  1  0.24999999  0.59582501  0.87471098  1
  Te  Te4  1  0.24999999  0.11224800  0.90481298  1
  Cu  Cu5  1  0.74999997  0.38775201  0.40481299  1
  Te  Te6  1  0.74999997  0.88775202  0.09518700  1
  Cu  Cu7  1  0.24999999  0.61224801  0.59518699  1
  Te  Te8  1  0.74999997  0.58148101  0.30066499  1
  Te  Te9  1  0.74999997  0.08148100  0.19933500  1
  Te  Te10  1  0.24999999  0.14856900  0.36768099  1
  Te  Te11  1  0.24999999  0.91851902  0.80066498  1
  Te  Te12  1  0.24999999  0.71147501  0.46849499  1
  Te  Te13  1  0.24999999  0.21147500  0.03150500  1
  Te  Te14  1  0.74999997  0.35143101  0.86768098  1
  Te  Te15  1  0.24999999  0.64856901  0.13231900  1
  Te  Te16  1  0.74999997  0.78852502  0.96849498  1
  Te  Te17  1  0.74999997  0.85143102  0.63231899  1
  Te  Te18  1  0.74999997  0.28852501  0.53150499  1
  Te  Te19  1  0.24999999  0.41851901  0.69933499  1
