# generated using pymatgen
data_Sm3ZnGe7
_symmetry_space_group_name_H-M   'P 1'
_cell_length_a   4.46496820
_cell_length_b   6.93684578
_cell_length_c   8.41496277
_cell_angle_alpha   114.34143066
_cell_angle_beta   105.38474274
_cell_angle_gamma   90.00000000
_symmetry_Int_Tables_number   1
_chemical_formula_structural   Sm3ZnGe7
_chemical_formula_sum   'Sm3 Zn1 Ge7'
_cell_volume   227.17580775
_cell_formula_units_Z   1
loop_
 _symmetry_equiv_pos_site_id
 _symmetry_equiv_pos_as_xyz
  1  'x, y, z'
loop_
 _atom_site_type_symbol
 _atom_site_label
 _atom_site_symmetry_multiplicity
 _atom_site_fract_x
 _atom_site_fract_y
 _atom_site_fract_z
 _atom_site_occupancy
  Sm  Sm0  1  0.00000000  0.00000000  0.00000000  1
  Sm  Sm1  1  0.13094700  0.63094701  0.26189397  1
  Sm  Sm2  1  0.86905297  0.36905301  0.73810597  1
  Zn  Zn3  1  0.67147898  0.36019901  0.34295798  1
  Ge  Ge4  1  0.67147898  0.98275901  0.34295796  1
  Ge  Ge5  1  0.32852099  0.63980101  0.65704195  1
  Ge  Ge6  1  0.32852099  0.01724100  0.65704197  1
  Ge  Ge7  1  0.78415098  0.78415101  0.56830196  1
  Ge  Ge8  1  0.21584899  0.21584900  0.43169797  1
  Ge  Ge9  1  0.49999998  0.29692200  -0.00000000  1
  Ge  Ge10  1  0.49999999  0.70307801  -0.00000002  1
