# generated using pymatgen
data_Ce10Ge5PtC
_symmetry_space_group_name_H-M   'P 1'
_cell_length_a   7.72551012
_cell_length_b   7.72551012
_cell_length_c   9.18390846
_cell_angle_alpha   114.87249756
_cell_angle_beta   114.87249756
_cell_angle_gamma   90.00000000
_symmetry_Int_Tables_number   1
_chemical_formula_structural   Ce10Ge5PtC
_chemical_formula_sum   'Ce10 Ge5 Pt1 C1'
_cell_volume   440.61797658
_cell_formula_units_Z   1
loop_
 _symmetry_equiv_pos_site_id
 _symmetry_equiv_pos_as_xyz
  1  'x, y, z'
loop_
 _atom_site_type_symbol
 _atom_site_label
 _atom_site_symmetry_multiplicity
 _atom_site_fract_x
 _atom_site_fract_y
 _atom_site_fract_z
 _atom_site_occupancy
  Ce  Ce0  1  0.25000002  0.75000000  0.50000000  1
  Ce  Ce1  1  0.75000000  0.25000000  0.49999999  1
  Ce  Ce2  1  0.76777901  0.76777900  0.20273702  1
  Ce  Ce3  1  0.43495801  0.43495800  0.20273701  1
  Ce  Ce4  1  0.93254700  0.28271900  0.21526601  1
  Ce  Ce5  1  0.28271802  0.93254600  0.21526402  1
  Ce  Ce6  1  0.71728201  0.71728200  0.78473499  1
  Ce  Ce7  1  0.06745300  0.06745300  0.78473496  1
  Ce  Ce8  1  0.56504200  0.23222100  0.79726298  1
  Ce  Ce9  1  0.23222101  0.56504200  0.79726298  1
  Ge  Ge10  1  1.00000000  0.50000000  0.00000003  1
  Ge  Ge11  1  0.50000000  0.00000000  0.00000001  1
  Pt  Pt12  1  0.12955400  0.12955400  0.49611998  1
  Ge  Ge13  1  0.36656601  0.36656600  0.49611999  1
  Ge  Ge14  1  0.87044601  0.63343400  0.50388001  1
  Ge  Ge15  1  0.63343402  0.87044600  0.50388001  1
  C  C16  1  0.50000001  0.50000000  0.00000002  1
