# generated using pymatgen
data_SrIn3Pt2
_symmetry_space_group_name_H-M   'P 1'
_cell_length_a   5.43061209
_cell_length_b   5.43061209
_cell_length_c   5.43061209
_cell_angle_alpha   106.51292419
_cell_angle_beta   106.51292419
_cell_angle_gamma   115.56512451
_symmetry_Int_Tables_number   1
_chemical_formula_structural   SrIn3Pt2
_chemical_formula_sum   'Sr1 In3 Pt2'
_cell_volume   122.23203941
_cell_formula_units_Z   1
loop_
 _symmetry_equiv_pos_site_id
 _symmetry_equiv_pos_as_xyz
  1  'x, y, z'
loop_
 _atom_site_type_symbol
 _atom_site_label
 _atom_site_symmetry_multiplicity
 _atom_site_fract_x
 _atom_site_fract_y
 _atom_site_fract_z
 _atom_site_occupancy
  In  In0  1  0.33798501  0.16201500  0.49999999  1
  In  In1  1  0.83798502  0.33798501  0.17596995  1
  Sr  Sr2  1  0.16201502  0.66201502  0.82402999  1
  In  In3  1  0.66201503  0.83798502  0.49999995  1
  Pt  Pt4  1  0.25000001  0.25000001  -0.00000002  1
  Pt  Pt5  1  0.75000003  0.75000002  -0.00000006  1
