# generated using pymatgen
data_ScIn15CoCu
_symmetry_space_group_name_H-M   'P 1'
_cell_length_a   6.43430185
_cell_length_b   8.48555183
_cell_length_c   8.48555279
_cell_angle_alpha   60.00000000
_cell_angle_beta   90.00000000
_cell_angle_gamma   90.00000000
_symmetry_Int_Tables_number   1
_chemical_formula_structural   ScIn15CoCu
_chemical_formula_sum   'Sc1 In15 Co1 Cu1'
_cell_volume   401.22897937
_cell_formula_units_Z   1
loop_
 _symmetry_equiv_pos_site_id
 _symmetry_equiv_pos_as_xyz
  1  'x, y, z'
loop_
 _atom_site_type_symbol
 _atom_site_label
 _atom_site_symmetry_multiplicity
 _atom_site_fract_x
 _atom_site_fract_y
 _atom_site_fract_z
 _atom_site_occupancy
  Sc  Sc0  1  0.00000000  0.66666669  0.66666661  1
  In  In1  1  0.00000000  0.33333334  0.33333331  1
  In  In2  1  0.50000001  0.33333334  0.33333331  1
  In  In3  1  0.50000001  0.66666669  0.66666661  1
  In  In4  1  0.25000001  0.22126801  -0.00000001  1
  In  In5  1  0.25000001  0.00000000  0.77873196  1
  In  In6  1  0.25000001  0.77873203  0.22126797  1
  In  In7  1  0.75000002  0.77873203  -0.00000002  1
  In  In8  1  0.75000002  0.00000000  0.22126799  1
  In  In9  1  0.75000002  0.22126801  0.77873195  1
  In  In10  1  0.25000001  0.59345402  -0.00000002  1
  In  In11  1  0.25000001  0.00000000  0.40654598  1
  In  In12  1  0.25000001  0.40654601  0.59345396  1
  In  In13  1  0.75000002  0.40654601  -0.00000001  1
  In  In14  1  0.75000002  0.00000000  0.59345397  1
  In  In15  1  0.75000002  0.59345402  0.40654596  1
  Cu  Cu16  1  0.00000000  0.00000000  0.00000000  1
  Co  Co17  1  0.50000001  0.00000000  0.00000000  1
