# generated using pymatgen
data_Pm3Mg
_symmetry_space_group_name_H-M   'P 1'
_cell_length_a   5.61662912
_cell_length_b   7.18139982
_cell_length_c   7.18140030
_cell_angle_alpha   60.00000000
_cell_angle_beta   90.00000000
_cell_angle_gamma   90.00000000
_symmetry_Int_Tables_number   1
_chemical_formula_structural   Pm3Mg
_chemical_formula_sum   'Pm6 Mg2'
_cell_volume   250.85607413
_cell_formula_units_Z   2
loop_
 _symmetry_equiv_pos_site_id
 _symmetry_equiv_pos_as_xyz
  1  'x, y, z'
loop_
 _atom_site_type_symbol
 _atom_site_label
 _atom_site_symmetry_multiplicity
 _atom_site_fract_x
 _atom_site_fract_y
 _atom_site_fract_z
 _atom_site_occupancy
  Pm  Pm0  1  0.74999998  0.66630402  0.16684799  1
  Pm  Pm1  1  0.74999998  0.16684801  0.16684799  1
  Mg  Mg2  1  0.74999998  0.16684801  0.66630398  1
  Pm  Pm3  1  0.24999999  0.33369601  0.83315198  1
  Pm  Pm4  1  0.24999999  0.83315203  0.83315197  1
  Mg  Mg5  1  0.24999999  0.83315203  0.33369598  1
  Pm  Pm6  1  0.24999999  0.33333334  0.33333332  1
  Pm  Pm7  1  0.74999998  0.66666669  0.66666664  1
