# generated using pymatgen
data_Mg2AgSb3
_symmetry_space_group_name_H-M   'P 1'
_cell_length_a   3.42216611
_cell_length_b   3.42216611
_cell_length_c   9.76851368
_cell_angle_alpha   90.00000000
_cell_angle_beta   90.00000000
_cell_angle_gamma   90.00000000
_symmetry_Int_Tables_number   1
_chemical_formula_structural   Mg2AgSb3
_chemical_formula_sum   'Mg2 Ag1 Sb3'
_cell_volume   114.40122135
_cell_formula_units_Z   1
loop_
 _symmetry_equiv_pos_site_id
 _symmetry_equiv_pos_as_xyz
  1  'x, y, z'
loop_
 _atom_site_type_symbol
 _atom_site_label
 _atom_site_symmetry_multiplicity
 _atom_site_fract_x
 _atom_site_fract_y
 _atom_site_fract_z
 _atom_site_occupancy
  Mg  Mg0  1  0.49999998  0.49999998  0.18067701  1
  Ag  Ag1  1  0.49999998  0.49999998  0.50000002  1
  Mg  Mg2  1  0.49999998  0.49999998  0.81932303  1
  Sb  Sb3  1  0.00000000  0.00000000  0.00000000  1
  Sb  Sb4  1  0.00000000  0.00000000  0.33893601  1
  Sb  Sb5  1  0.00000000  0.00000000  0.66106402  1
