# generated using pymatgen
data_La12MgSn5
_symmetry_space_group_name_H-M   'P 1'
_cell_length_a   7.14127493
_cell_length_b   9.78752041
_cell_length_c   9.78752041
_cell_angle_alpha   120.00000000
_cell_angle_beta   90.00000000
_cell_angle_gamma   90.00000000
_symmetry_Int_Tables_number   1
_chemical_formula_structural   La12MgSn5
_chemical_formula_sum   'La12 Mg1 Sn5'
_cell_volume   592.45005770
_cell_formula_units_Z   1
loop_
 _symmetry_equiv_pos_site_id
 _symmetry_equiv_pos_as_xyz
  1  'x, y, z'
loop_
 _atom_site_type_symbol
 _atom_site_label
 _atom_site_symmetry_multiplicity
 _atom_site_fract_x
 _atom_site_fract_y
 _atom_site_fract_z
 _atom_site_occupancy
  La  La0  1  0.75000001  0.27719599  0.99999996  1
  La  La1  1  0.50000000  0.66666664  0.33333332  1
  La  La2  1  0.25000000  0.72280397  0.99999996  1
  La  La3  1  0.75000001  0.00000000  0.27719599  1
  La  La4  1  0.50000000  0.33333332  0.66666664  1
  La  La5  1  0.75000001  0.72280397  0.72280397  1
  Mg  Mg6  1  0.25000000  0.27719599  0.27719599  1
  La  La7  1  0.00000000  0.66666664  0.33333332  1
  La  La8  1  0.00000000  0.33333332  0.66666664  1
  La  La9  1  0.25000000  0.00000000  0.72280397  1
  Sn  Sn10  1  0.75000001  0.61395497  0.99999996  1
  Sn  Sn11  1  0.25000000  0.38604498  0.99999996  1
  Sn  Sn12  1  0.25000000  0.61395497  0.61395498  1
  Sn  Sn13  1  0.75000001  0.00000000  0.61395498  1
  La  La14  1  0.75000001  0.38604498  0.38604499  1
  Sn  Sn15  1  0.25000000  0.00000000  0.38604499  1
  La  La16  1  0.00000000  0.00000000  0.00000000  1
  La  La17  1  0.50000000  0.00000000  -0.00000000  1
