# generated using pymatgen
data_Hf2ThSiRhCl5
_symmetry_space_group_name_H-M   'P 1'
_cell_length_a   3.46735406
_cell_length_b   6.63692904
_cell_length_c   9.31098557
_cell_angle_alpha   104.15324402
_cell_angle_beta   90.00000000
_cell_angle_gamma   90.00000000
_symmetry_Int_Tables_number   1
_chemical_formula_structural   Hf2ThSiRhCl5
_chemical_formula_sum   'Th1 Hf2 Si1 Rh1 Cl5'
_cell_volume   207.76571079
_cell_formula_units_Z   1
loop_
 _symmetry_equiv_pos_site_id
 _symmetry_equiv_pos_as_xyz
  1  'x, y, z'
loop_
 _atom_site_type_symbol
 _atom_site_label
 _atom_site_symmetry_multiplicity
 _atom_site_fract_x
 _atom_site_fract_y
 _atom_site_fract_z
 _atom_site_occupancy
  Si  Si0  1  0.74999999  0.11406700  0.63533896  1
  Th  Th1  1  0.25000000  0.88593299  0.36466095  1
  Hf  Hf2  1  0.74999999  0.31883199  0.00189299  1
  Hf  Hf3  1  0.25000000  0.68116799  0.99810693  1
  Cl  Cl4  1  0.74999999  0.72889199  0.51297995  1
  Cl  Cl5  1  0.25000000  0.27110800  0.48701997  1
  Cl  Cl6  1  0.74999999  0.97203298  0.15680696  1
  Rh  Rh7  1  0.25000000  0.02796700  0.84319296  1
  Cl  Cl8  1  0.25000000  0.47628199  0.20310498  1
  Cl  Cl9  1  0.74999999  0.52371799  0.79689494  1
