# generated using pymatgen
data_HoBeCoGe3
_symmetry_space_group_name_H-M   'P 1'
_cell_length_a   3.13594604
_cell_length_b   5.47831392
_cell_length_c   5.47831392
_cell_angle_alpha   120.00000000
_cell_angle_beta   90.00000000
_cell_angle_gamma   90.00000000
_symmetry_Int_Tables_number   1
_chemical_formula_structural   HoBeCoGe3
_chemical_formula_sum   'Ho1 Be1 Co1 Ge3'
_cell_volume   81.50664972
_cell_formula_units_Z   1
loop_
 _symmetry_equiv_pos_site_id
 _symmetry_equiv_pos_as_xyz
  1  'x, y, z'
loop_
 _atom_site_type_symbol
 _atom_site_label
 _atom_site_symmetry_multiplicity
 _atom_site_fract_x
 _atom_site_fract_y
 _atom_site_fract_z
 _atom_site_occupancy
  Ho  Ho0  1  0.00000000  0.00000000  0.00000000  1
  Be  Be1  1  0.00000000  0.66666667  0.33333333  1
  Co  Co2  1  0.99999999  0.33333334  0.66666666  1
  Ge  Ge3  1  0.49999999  0.50000000  0.49999999  1
  Ge  Ge4  1  0.49999999  0.50000000  -0.00000000  1
  Ge  Ge5  1  0.49999999  1.00000001  0.49999999  1
