# generated using pymatgen
data_Zr3Si7(NiIr3)2
_symmetry_space_group_name_H-M   'P 1'
_cell_length_a   3.89881110
_cell_length_b   8.90840054
_cell_length_c   8.93567181
_cell_angle_alpha   119.89908600
_cell_angle_beta   90.00000000
_cell_angle_gamma   90.00000000
_symmetry_Int_Tables_number   1
_chemical_formula_structural   Zr3Si7(NiIr3)2
_chemical_formula_sum   'Zr3 Si7 Ni2 Ir6'
_cell_volume   269.04845148
_cell_formula_units_Z   1
loop_
 _symmetry_equiv_pos_site_id
 _symmetry_equiv_pos_as_xyz
  1  'x, y, z'
loop_
 _atom_site_type_symbol
 _atom_site_label
 _atom_site_symmetry_multiplicity
 _atom_site_fract_x
 _atom_site_fract_y
 _atom_site_fract_z
 _atom_site_occupancy
  Zr  Zr0  1  0.00000000  0.50000001  -0.00000004  1
  Zr  Zr1  1  0.49999999  0.83334001  0.66666664  1
  Zr  Zr2  1  0.49999999  0.16666000  0.33333334  1
  Ir  Ir3  1  0.49999999  0.18473400  -0.00000001  1
  Si  Si4  1  0.49999999  0.49980501  0.68477000  1
  Ir  Ir5  1  0.49999999  0.81503501  0.31522996  1
  Ni  Ni6  1  0.49999999  0.81526601  -0.00000006  1
  Ir  Ir7  1  0.49999999  0.50019501  0.31522998  1
  Ir  Ir8  1  0.49999999  0.18496500  0.68477002  1
  Ni  Ni9  1  0.00000000  0.00000000  0.00000000  1
  Ir  Ir10  1  0.00000000  0.50000001  0.49999999  1
  Ir  Ir11  1  0.00000000  0.00000000  0.50000003  1
  Si  Si12  1  0.00000000  0.68120701  0.36241397  1
  Si  Si13  1  0.00000000  0.13772600  0.81905503  1
  Si  Si14  1  0.00000000  0.68132901  0.81905499  1
  Si  Si15  1  0.00000000  0.31879300  0.63758601  1
  Si  Si16  1  0.00000000  0.31867100  0.18094499  1
  Si  Si17  1  0.00000000  0.86227401  0.18094494  1
