# generated using pymatgen
data_Li5CuF10
_symmetry_space_group_name_H-M   'P 1'
_cell_length_a   2.84223199
_cell_length_b   5.22675705
_cell_length_c   10.19731045
_cell_angle_alpha   99.08576965
_cell_angle_beta   98.01091766
_cell_angle_gamma   90.00000000
_symmetry_Int_Tables_number   1
_chemical_formula_structural   Li5CuF10
_chemical_formula_sum   'Li5 Cu1 F10'
_cell_volume   148.08976837
_cell_formula_units_Z   1
loop_
 _symmetry_equiv_pos_site_id
 _symmetry_equiv_pos_as_xyz
  1  'x, y, z'
loop_
 _atom_site_type_symbol
 _atom_site_label
 _atom_site_symmetry_multiplicity
 _atom_site_fract_x
 _atom_site_fract_y
 _atom_site_fract_z
 _atom_site_occupancy
  Li  Li0  1  0.35880098  0.62958701  0.71760196  1
  F  F1  1  0.64119899  0.37041301  0.28239797  1
  F  F2  1  0.61015097  0.87909301  0.22030196  1
  Li  Li3  1  0.38984899  0.12090700  0.77969797  1
  Li  Li4  1  0.25235099  0.24917200  0.50470198  1
  F  F5  1  0.00000000  0.00000000  0.00000000  1
  F  F6  1  0.49999998  0.50000001  -0.00000002  1
  Cu  Cu7  1  0.74764897  0.75082801  0.49529796  1
  F  F8  1  0.19527398  0.56855801  0.39054797  1
  Li  Li9  1  0.55147699  0.17298900  0.10295398  1
  F  F10  1  0.30108697  0.91617001  0.60217395  1
  F  F11  1  0.44852297  0.82701101  0.89704595  1
  F  F12  1  0.69891299  0.08383000  0.39782598  1
  F  F13  1  0.94672699  0.27087300  0.89345396  1
  Li  Li14  1  0.05327298  0.72912701  0.10654598  1
  F  F15  1  0.80472598  0.43144201  0.60945196  1
