# generated using pymatgen
data_LuCr6(FeB)6
_symmetry_space_group_name_H-M   'P 1'
_cell_length_a   5.98439407
_cell_length_b   5.98439407
_cell_length_c   5.98439503
_cell_angle_alpha   103.96571350
_cell_angle_beta   103.96571350
_cell_angle_gamma   103.96570587
_symmetry_Int_Tables_number   1
_chemical_formula_structural   LuCr6(FeB)6
_chemical_formula_sum   'Lu1 Cr6 Fe6 B6'
_cell_volume   191.35086603
_cell_formula_units_Z   1
loop_
 _symmetry_equiv_pos_site_id
 _symmetry_equiv_pos_as_xyz
  1  'x, y, z'
loop_
 _atom_site_type_symbol
 _atom_site_label
 _atom_site_symmetry_multiplicity
 _atom_site_fract_x
 _atom_site_fract_y
 _atom_site_fract_z
 _atom_site_occupancy
  Lu  Lu0  1  0.00000000  0.00000000  0.00000000  1
  Fe  Fe1  1  0.13303702  0.86696301  0.50000003  1
  Fe  Fe2  1  0.86696301  0.50000000  0.13303705  1
  Fe  Fe3  1  0.50000000  0.13303700  0.86696301  1
  Fe  Fe4  1  0.13303701  0.50000000  0.86696301  1
  Fe  Fe5  1  0.50000002  0.86696301  0.13303705  1
  Fe  Fe6  1  0.86696300  0.13303700  0.50000003  1
  Cr  Cr7  1  0.18647901  0.45879500  0.45879502  1
  Cr  Cr8  1  0.45879501  0.45879500  0.18647903  1
  Cr  Cr9  1  0.45879501  0.18647900  0.45879502  1
  Cr  Cr10  1  0.81352102  0.54120500  0.54120504  1
  Cr  Cr11  1  0.54120502  0.54120500  0.81352103  1
  Cr  Cr12  1  0.54120502  0.81352101  0.54120504  1
  B  B13  1  0.67337201  0.23174000  0.23174003  1
  B  B14  1  0.23174001  0.23174000  0.67337201  1
  B  B15  1  0.23174002  0.67337201  0.23174003  1
  B  B16  1  0.32662802  0.76826001  0.76826003  1
  B  B17  1  0.76826002  0.76826001  0.32662805  1
  B  B18  1  0.76826001  0.32662800  0.76826003  1
