# generated using pymatgen
data_Mg3Mn(SO)2
_symmetry_space_group_name_H-M   'P 1'
_cell_length_a   3.45858693
_cell_length_b   5.77066422
_cell_length_c   5.77066422
_cell_angle_alpha   106.13494110
_cell_angle_beta   90.00000000
_cell_angle_gamma   90.00000000
_symmetry_Int_Tables_number   1
_chemical_formula_structural   Mg3Mn(SO)2
_chemical_formula_sum   'Mg3 Mn1 S2 O2'
_cell_volume   110.63622376
_cell_formula_units_Z   1
loop_
 _symmetry_equiv_pos_site_id
 _symmetry_equiv_pos_as_xyz
  1  'x, y, z'
loop_
 _atom_site_type_symbol
 _atom_site_label
 _atom_site_symmetry_multiplicity
 _atom_site_fract_x
 _atom_site_fract_y
 _atom_site_fract_z
 _atom_site_occupancy
  S  S0  1  0.00000000  0.00000000  0.00000000  1
  S  S1  1  -0.00000000  0.50000002  0.50000000  1
  O  O2  1  0.50000001  0.00000000  0.50000002  1
  O  O3  1  0.50000001  0.50000002  -0.00000002  1
  Mg  Mg4  1  0.86563502  0.25000001  0.75000002  1
  Mg  Mg5  1  0.50000001  0.75000002  0.75000001  1
  Mn  Mn6  1  0.50000001  0.25000001  0.25000000  1
  Mg  Mg7  1  0.13436500  0.75000002  0.24999999  1
