# generated using pymatgen
data_Zr3(V3Sn2)2
_symmetry_space_group_name_H-M   'P 1'
_cell_length_a   5.45538998
_cell_length_b   5.45538950
_cell_length_c   8.99316216
_cell_angle_alpha   90.00000000
_cell_angle_beta   90.00000000
_cell_angle_gamma   120.00000000
_symmetry_Int_Tables_number   1
_chemical_formula_structural   Zr3(V3Sn2)2
_chemical_formula_sum   'Zr3 V6 Sn4'
_cell_volume   231.78996013
_cell_formula_units_Z   1
loop_
 _symmetry_equiv_pos_site_id
 _symmetry_equiv_pos_as_xyz
  1  'x, y, z'
loop_
 _atom_site_type_symbol
 _atom_site_label
 _atom_site_symmetry_multiplicity
 _atom_site_fract_x
 _atom_site_fract_y
 _atom_site_fract_z
 _atom_site_occupancy
  Zr  Zr0  1  0.00000000  0.00000000  0.00000000  1
  V  V1  1  0.99999999  0.50000001  0.24856800  1
  V  V2  1  0.99999999  0.50000001  0.75143199  1
  V  V3  1  0.50000000  0.00000000  0.75143199  1
  V  V4  1  0.49999999  0.50000001  0.75143199  1
  V  V5  1  0.50000000  0.00000000  0.24856800  1
  V  V6  1  0.49999999  0.50000001  0.24856800  1
  Sn  Sn7  1  0.00000000  0.00000000  0.33344099  1
  Sn  Sn8  1  0.66666666  0.33333334  0.49999999  1
  Sn  Sn9  1  0.33333331  0.66666668  -0.00000000  1
  Sn  Sn10  1  0.66666666  0.33333334  -0.00000000  1
  Zr  Zr11  1  0.00000000  0.00000000  0.66655899  1
  Zr  Zr12  1  0.33333331  0.66666668  0.49999999  1
