# generated using pymatgen
data_LiSb5S6
_symmetry_space_group_name_H-M   'P 1'
_cell_length_a   6.23738813
_cell_length_b   6.23738813
_cell_length_c   6.23738813
_cell_angle_alpha   90.00000000
_cell_angle_beta   90.00000000
_cell_angle_gamma   90.00000000
_symmetry_Int_Tables_number   1
_chemical_formula_structural   LiSb5S6
_chemical_formula_sum   'Li1 Sb5 S6'
_cell_volume   242.66565231
_cell_formula_units_Z   1
loop_
 _symmetry_equiv_pos_site_id
 _symmetry_equiv_pos_as_xyz
  1  'x, y, z'
loop_
 _atom_site_type_symbol
 _atom_site_label
 _atom_site_symmetry_multiplicity
 _atom_site_fract_x
 _atom_site_fract_y
 _atom_site_fract_z
 _atom_site_occupancy
  S  S0  1  0.26567099  0.73432898  0.23432899  1
  S  S1  1  0.76567098  0.76567098  0.76567098  1
  S  S2  1  0.23432899  0.26567099  0.73432898  1
  S  S3  1  0.73432898  0.23432899  0.26567099  1
  Sb  Sb4  1  0.38299999  0.88299998  0.61699999  1
  Sb  Sb5  1  0.88299998  0.61699999  0.38299999  1
  Sb  Sb6  1  0.61699999  0.38299999  0.88299998  1
  S  S7  1  0.11700000  0.11700000  0.11700000  1
  Sb  Sb8  1  0.37878499  0.37878499  0.37878499  1
  Li  Li9  1  0.62121499  0.87878498  0.12121500  1
  Sb  Sb10  1  0.87878498  0.12121500  0.62121499  1
  S  S11  1  0.12121500  0.62121499  0.87878498  1
