# generated using pymatgen
data_Lu4Ga7Ni
_symmetry_space_group_name_H-M   'P 1'
_cell_length_a   4.33452415
_cell_length_b   6.95705986
_cell_length_c   7.56785297
_cell_angle_alpha   90.00000000
_cell_angle_beta   90.00000000
_cell_angle_gamma   90.00000000
_symmetry_Int_Tables_number   1
_chemical_formula_structural   Lu4Ga7Ni
_chemical_formula_sum   'Lu4 Ga7 Ni1'
_cell_volume   228.21272341
_cell_formula_units_Z   1
loop_
 _symmetry_equiv_pos_site_id
 _symmetry_equiv_pos_as_xyz
  1  'x, y, z'
loop_
 _atom_site_type_symbol
 _atom_site_label
 _atom_site_symmetry_multiplicity
 _atom_site_fract_x
 _atom_site_fract_y
 _atom_site_fract_z
 _atom_site_occupancy
  Lu  Lu0  1  0.24999999  0.50137801  0.69583200  1
  Lu  Lu1  1  0.24999999  0.00137800  0.80416800  1
  Lu  Lu2  1  0.74999997  0.49862201  0.30416800  1
  Lu  Lu3  1  0.74999997  0.99862202  0.19583200  1
  Ga  Ga4  1  0.24999999  0.78882302  0.39546800  1
  Ni  Ni5  1  0.24999999  0.28882301  0.10453200  1
  Ga  Ga6  1  0.74999997  0.21117700  0.60453200  1
  Ga  Ga7  1  0.74999997  0.71117701  0.89546800  1
  Ga  Ga8  1  0.24999999  0.15588500  0.43237800  1
  Ga  Ga9  1  0.24999999  0.65588501  0.06762200  1
  Ga  Ga10  1  0.74999997  0.84411502  0.56762200  1
  Ga  Ga11  1  0.74999997  0.34411501  0.93237800  1
