# generated using pymatgen
data_Al6Tl5S9
_symmetry_space_group_name_H-M   'P 1'
_cell_length_a   4.11218977
_cell_length_b   4.11218977
_cell_length_c   26.22118568
_cell_angle_alpha   90.00000000
_cell_angle_beta   90.00000000
_cell_angle_gamma   90.00000000
_symmetry_Int_Tables_number   1
_chemical_formula_structural   Al6Tl5S9
_chemical_formula_sum   'Al6 Tl5 S9'
_cell_volume   443.40299534
_cell_formula_units_Z   1
loop_
 _symmetry_equiv_pos_site_id
 _symmetry_equiv_pos_as_xyz
  1  'x, y, z'
loop_
 _atom_site_type_symbol
 _atom_site_label
 _atom_site_symmetry_multiplicity
 _atom_site_fract_x
 _atom_site_fract_y
 _atom_site_fract_z
 _atom_site_occupancy
  Tl  Tl0  1  0.50000003  0.50000003  0.07781200  1
  S  S1  1  0.00000000  0.00000000  0.32918500  1
  S  S2  1  0.50000003  0.50000003  0.57918001  1
  Al  Al3  1  0.00000000  0.00000000  0.82949901  1
  Al  Al4  1  0.00000000  0.00000000  0.17050100  1
  S  S5  1  0.50000003  0.50000003  0.42082001  1
  S  S6  1  0.00000000  0.00000000  0.67081501  1
  Tl  Tl7  1  0.50000003  0.50000003  0.92218801  1
  Tl  Tl8  1  0.50000003  0.50000003  0.24997700  1
  Tl  Tl9  1  0.00000000  0.00000000  0.50000001  1
  S  S10  1  0.50000003  0.50000003  0.75002301  1
  Tl  Tl11  1  0.00000000  0.00000000  0.00000000  1
  S  S12  1  0.50000003  0.00000000  0.12441300  1
  Al  Al13  1  0.00000000  0.50000003  0.37500400  1
  Al  Al14  1  0.50000003  0.00000000  0.62499601  1
  S  S15  1  0.00000000  0.50000003  0.87558701  1
  S  S16  1  0.00000000  0.50000003  0.12441300  1
  Al  Al17  1  0.50000003  0.00000000  0.37500400  1
  Al  Al18  1  0.00000000  0.50000003  0.62499601  1
  S  S19  1  0.50000003  0.00000000  0.87558701  1
