# generated using pymatgen
data_Sm2GaNi16
_symmetry_space_group_name_H-M   'P 1'
_cell_length_a   6.32029152
_cell_length_b   6.32029152
_cell_length_c   6.32029152
_cell_angle_alpha   83.10366058
_cell_angle_beta   83.10366058
_cell_angle_gamma   83.10366058
_symmetry_Int_Tables_number   1
_chemical_formula_structural   Sm2GaNi16
_chemical_formula_sum   'Sm2 Ga1 Ni16'
_cell_volume   247.39694029
_cell_formula_units_Z   1
loop_
 _symmetry_equiv_pos_site_id
 _symmetry_equiv_pos_as_xyz
  1  'x, y, z'
loop_
 _atom_site_type_symbol
 _atom_site_label
 _atom_site_symmetry_multiplicity
 _atom_site_fract_x
 _atom_site_fract_y
 _atom_site_fract_z
 _atom_site_occupancy
  Sm  Sm0  1  0.65536300  0.65536297  0.65536297  1
  Sm  Sm1  1  0.34463700  0.34463699  0.34463698  1
  Ni  Ni2  1  0.90422000  0.90421997  0.90421995  1
  Ni  Ni3  1  0.09578000  0.09578000  0.09578000  1
  Ni  Ni4  1  0.00000000  0.00000000  0.49999999  1
  Ni  Ni5  1  0.49999998  0.00000000  -0.00000001  1
  Ni  Ni6  1  0.00000002  0.49999998  0.99999998  1
  Ni  Ni7  1  0.71503099  0.28496899  -0.00000002  1
  Ni  Ni8  1  0.00000003  0.71503097  0.28496898  1
  Ni  Ni9  1  0.28496899  0.00000000  0.71503099  1
  Ni  Ni10  1  0.28496902  0.71503097  -0.00000002  1
  Ni  Ni11  1  0.00000001  0.28496899  0.71503099  1
  Ni  Ni12  1  0.71503098  0.00000000  0.28496898  1
  Ni  Ni13  1  0.34299002  0.85157597  0.34298997  1
  Ni  Ni14  1  0.34299000  0.34298999  0.85157598  1
  Ni  Ni15  1  0.85157598  0.34298999  0.34298997  1
  Ni  Ni16  1  0.14842402  0.65700997  0.65700998  1
  Ga  Ga17  1  0.65700998  0.14842399  0.65700998  1
  Ni  Ni18  1  0.65701000  0.65700997  0.14842397  1
