# generated using pymatgen
data_Mn6O11F
_symmetry_space_group_name_H-M   'P 1'
_cell_length_a   4.69724703
_cell_length_b   5.58230066
_cell_length_c   7.75104141
_cell_angle_alpha   85.92091370
_cell_angle_beta   88.59358978
_cell_angle_gamma   88.43078613
_symmetry_Int_Tables_number   1
_chemical_formula_structural   Mn6O11F
_chemical_formula_sum   'Mn6 O11 F1'
_cell_volume   202.60058118
_cell_formula_units_Z   1
loop_
 _symmetry_equiv_pos_site_id
 _symmetry_equiv_pos_as_xyz
  1  'x, y, z'
loop_
 _atom_site_type_symbol
 _atom_site_label
 _atom_site_symmetry_multiplicity
 _atom_site_fract_x
 _atom_site_fract_y
 _atom_site_fract_z
 _atom_site_occupancy
  Mn  Mn0  1  0.45894103  0.48705899  0.00590902  1
  Mn  Mn1  1  0.51575106  0.84499398  0.67500702  1
  Mn  Mn2  1  0.54294601  0.17783399  0.32773301  1
  Mn  Mn3  1  0.99248002  0.32377499  0.66772202  1
  Mn  Mn4  1  0.98983304  0.65895298  0.33670203  1
  Mn  Mn5  1  0.99907999  0.00718700  0.98572602  1
  O  O6  1  0.81033102  0.37667999  0.44645902  1
  O  O7  1  0.81123600  0.03523900  0.76528101  1
  O  O8  1  0.69777201  0.20732799  0.09496102  1
  O  O9  1  0.69567706  0.87485997  0.43530303  1
  O  O10  1  0.30737203  0.46020799  0.23835601  1
  O  O11  1  0.30394505  0.79403398  0.90085202  1
  O  O12  1  0.18468202  0.28566299  0.88968501  1
  F  F13  1  0.80369305  0.71273198  0.08671503  1
  O  O14  1  0.68834803  0.52373398  0.78157602  1
  O  O15  1  0.30586401  0.14104200  0.55007101  1
  O  O16  1  0.20634004  0.62842898  0.58427501  1
  O  O17  1  0.18571007  0.96024997  0.22766602  1
