# generated using pymatgen
data_Rb15NiS4
_symmetry_space_group_name_H-M   'P 1'
_cell_length_a   3.81319594
_cell_length_b   12.40178394
_cell_length_c   12.40178394
_cell_angle_alpha   90.00000000
_cell_angle_beta   90.00000000
_cell_angle_gamma   90.00000000
_symmetry_Int_Tables_number   1
_chemical_formula_structural   Rb15NiS4
_chemical_formula_sum   'Rb15 Ni1 S4'
_cell_volume   586.48572308
_cell_formula_units_Z   1
loop_
 _symmetry_equiv_pos_site_id
 _symmetry_equiv_pos_as_xyz
  1  'x, y, z'
loop_
 _atom_site_type_symbol
 _atom_site_label
 _atom_site_symmetry_multiplicity
 _atom_site_fract_x
 _atom_site_fract_y
 _atom_site_fract_z
 _atom_site_occupancy
  Rb  Rb0  1  0.50000001  0.00000000  0.50000000  1
  Ni  Ni1  1  0.50000001  0.50000000  -0.00000000  1
  Rb  Rb2  1  0.00000000  0.32284600  0.82284600  1
  Rb  Rb3  1  0.00000000  0.67715400  0.17715400  1
  Rb  Rb4  1  0.00000000  0.17715400  0.32284600  1
  Rb  Rb5  1  0.00000000  0.82284600  0.67715400  1
  Rb  Rb6  1  0.50000001  0.55786800  0.70548100  1
  S  S7  1  0.50000001  0.44213200  0.29451900  1
  S  S8  1  0.50000001  0.94213200  0.20548100  1
  Rb  Rb9  1  0.50000001  0.05786800  0.79451900  1
  S  S10  1  0.50000001  0.70548100  0.44213200  1
  Rb  Rb11  1  0.50000001  0.29451900  0.55786800  1
  Rb  Rb12  1  0.50000001  0.20548100  0.05786800  1
  Rb  Rb13  1  0.50000001  0.79451900  0.94213200  1
  Rb  Rb14  1  0.00000000  0.50000000  0.50000000  1
  Rb  Rb15  1  0.00000000  0.00000000  0.00000000  1
  S  S16  1  0.00000000  0.12904400  0.62904400  1
  Rb  Rb17  1  0.00000000  0.87095600  0.37095600  1
  Rb  Rb18  1  0.00000000  0.37095600  0.12904400  1
  Rb  Rb19  1  0.00000000  0.62904400  0.87095600  1
