# generated using pymatgen
data_In9SO4
_symmetry_space_group_name_H-M   'P 1'
_cell_length_a   7.00998926
_cell_length_b   7.00998926
_cell_length_c   7.00998926
_cell_angle_alpha   60.00000000
_cell_angle_beta   60.00000000
_cell_angle_gamma   60.00000000
_symmetry_Int_Tables_number   1
_chemical_formula_structural   In9SO4
_chemical_formula_sum   'In9 S1 O4'
_cell_volume   243.57743916
_cell_formula_units_Z   1
loop_
 _symmetry_equiv_pos_site_id
 _symmetry_equiv_pos_as_xyz
  1  'x, y, z'
loop_
 _atom_site_type_symbol
 _atom_site_label
 _atom_site_symmetry_multiplicity
 _atom_site_fract_x
 _atom_site_fract_y
 _atom_site_fract_z
 _atom_site_occupancy
  In  In0  1  0.50000001  0.50000001  0.50000001  1
  S  S1  1  0.25000000  0.25000000  0.25000000  1
  In  In2  1  0.87500001  0.87500001  0.37500000  1
  In  In3  1  0.37500000  0.87500001  0.87500001  1
  In  In4  1  0.87500001  0.87500001  0.87500001  1
  In  In5  1  0.87500001  0.37500000  0.87500001  1
  O  O6  1  0.09803000  0.63399001  0.63399001  1
  In  In7  1  0.11601100  0.11601000  0.65196901  1
  In  In8  1  0.11601100  0.65196901  0.11601000  1
  In  In9  1  0.11601100  0.11601000  0.11601000  1
  O  O10  1  0.63398901  0.09803100  0.63399001  1
  O  O11  1  0.63398901  0.63399001  0.63399001  1
  In  In12  1  0.65197001  0.11601000  0.11601000  1
  O  O13  1  0.63398901  0.63399001  0.09803100  1
