# generated using pymatgen
data_Ce2U2Sn7Pd
_symmetry_space_group_name_H-M   'P 1'
_cell_length_a   4.11909914
_cell_length_b   7.66655016
_cell_length_c   10.15277767
_cell_angle_alpha   90.00000000
_cell_angle_beta   90.00000000
_cell_angle_gamma   90.00000000
_symmetry_Int_Tables_number   1
_chemical_formula_structural   Ce2U2Sn7Pd
_chemical_formula_sum   'Ce2 U2 Sn7 Pd1'
_cell_volume   320.61741060
_cell_formula_units_Z   1
loop_
 _symmetry_equiv_pos_site_id
 _symmetry_equiv_pos_as_xyz
  1  'x, y, z'
loop_
 _atom_site_type_symbol
 _atom_site_label
 _atom_site_symmetry_multiplicity
 _atom_site_fract_x
 _atom_site_fract_y
 _atom_site_fract_z
 _atom_site_occupancy
  Ce  Ce0  1  0.24999999  0.72822098  0.84190203  1
  Ce  Ce1  1  0.74999997  0.27177899  0.15809801  1
  U  U2  1  0.74999997  0.77177898  0.34190201  1
  U  U3  1  0.24999999  0.22822100  0.65809802  1
  Sn  Sn4  1  0.24999999  0.58864399  0.14853900  1
  Sn  Sn5  1  0.74999997  0.41135599  0.85146103  1
  Sn  Sn6  1  0.74999997  0.91135598  0.64853902  1
  Sn  Sn7  1  0.24999999  0.08864400  0.35146101  1
  Sn  Sn8  1  0.24999999  0.59460799  0.53911702  1
  Pd  Pd9  1  0.74999997  0.40539199  0.46088301  1
  Sn  Sn10  1  0.74999997  0.90539198  0.03911700  1
  Sn  Sn11  1  0.24999999  0.09460800  0.96088303  1
