# generated using pymatgen
data_LiTmSb
_symmetry_space_group_name_H-M   'P 1'
_cell_length_a   4.23541689
_cell_length_b   7.54350615
_cell_length_c   7.54350710
_cell_angle_alpha   119.99999237
_cell_angle_beta   90.00000000
_cell_angle_gamma   90.00000000
_symmetry_Int_Tables_number   1
_chemical_formula_structural   LiTmSb
_chemical_formula_sum   'Li3 Tm3 Sb3'
_cell_volume   208.72447677
_cell_formula_units_Z   3
loop_
 _symmetry_equiv_pos_site_id
 _symmetry_equiv_pos_as_xyz
  1  'x, y, z'
loop_
 _atom_site_type_symbol
 _atom_site_label
 _atom_site_symmetry_multiplicity
 _atom_site_fract_x
 _atom_site_fract_y
 _atom_site_fract_z
 _atom_site_occupancy
  Tm  Tm0  1  0.50000001  0.58498697  -0.00000004  1
  Tm  Tm1  1  0.50000001  0.41501298  0.41501297  1
  Tm  Tm2  1  0.50000001  0.99999995  0.58498693  1
  Li  Li3  1  0.00000000  0.24545599  -0.00000002  1
  Li  Li4  1  0.00000000  0.75454396  0.75454394  1
  Li  Li5  1  1.00000003  0.00000000  0.24545600  1
  Sb  Sb6  1  0.00000000  0.33333332  0.66666664  1
  Sb  Sb7  1  0.00000000  0.66666663  0.33333329  1
  Sb  Sb8  1  0.50000001  0.00000000  -0.00000000  1
