# generated using pymatgen
data_Mg2Al
_symmetry_space_group_name_H-M   'P 1'
_cell_length_a   4.73275995
_cell_length_b   4.73276043
_cell_length_c   7.50502920
_cell_angle_alpha   90.00000000
_cell_angle_beta   90.00000000
_cell_angle_gamma   120.00000000
_symmetry_Int_Tables_number   1
_chemical_formula_structural   Mg2Al
_chemical_formula_sum   'Mg4 Al2'
_cell_volume   145.58345327
_cell_formula_units_Z   2
loop_
 _symmetry_equiv_pos_site_id
 _symmetry_equiv_pos_as_xyz
  1  'x, y, z'
loop_
 _atom_site_type_symbol
 _atom_site_label
 _atom_site_symmetry_multiplicity
 _atom_site_fract_x
 _atom_site_fract_y
 _atom_site_fract_z
 _atom_site_occupancy
  Al  Al0  1  0.33333339  0.66666671  0.35035599  1
  Al  Al1  1  0.66666670  0.33333335  0.64964398  1
  Mg  Mg2  1  0.00000000  0.00000000  0.49999999  1
  Mg  Mg3  1  0.00000000  0.00000000  0.00000000  1
  Mg  Mg4  1  0.33333339  0.66666671  0.74447698  1
  Mg  Mg5  1  0.66666670  0.33333335  0.25552299  1
