# generated using pymatgen
data_ZrCN
_symmetry_space_group_name_H-M   'P 1'
_cell_length_a   2.90698576
_cell_length_b   2.90698576
_cell_length_c   5.27543354
_cell_angle_alpha   74.00693512
_cell_angle_beta   74.00693512
_cell_angle_gamma   60.00000763
_symmetry_Int_Tables_number   1
_chemical_formula_structural   ZrCN
_chemical_formula_sum   'Zr1 C1 N1'
_cell_volume   36.60179224
_cell_formula_units_Z   1
loop_
 _symmetry_equiv_pos_site_id
 _symmetry_equiv_pos_as_xyz
  1  'x, y, z'
loop_
 _atom_site_type_symbol
 _atom_site_label
 _atom_site_symmetry_multiplicity
 _atom_site_fract_x
 _atom_site_fract_y
 _atom_site_fract_z
 _atom_site_occupancy
  C  C0  1  0.75695601  0.75695598  0.72913200  1
  N  N1  1  0.24304400  0.24304399  0.27086800  1
  Zr  Zr2  1  0.00000000  0.00000000  0.00000000  1
