# generated using pymatgen
data_SmLu3(CoO3)4
_symmetry_space_group_name_H-M   'P 1'
_cell_length_a   5.15877199
_cell_length_b   5.53103495
_cell_length_c   7.41340351
_cell_angle_alpha   90.00000000
_cell_angle_beta   89.72940826
_cell_angle_gamma   90.00000000
_symmetry_Int_Tables_number   1
_chemical_formula_structural   SmLu3(CoO3)4
_chemical_formula_sum   'Sm1 Lu3 Co4 O12'
_cell_volume   211.52686451
_cell_formula_units_Z   1
loop_
 _symmetry_equiv_pos_site_id
 _symmetry_equiv_pos_as_xyz
  1  'x, y, z'
loop_
 _atom_site_type_symbol
 _atom_site_label
 _atom_site_symmetry_multiplicity
 _atom_site_fract_x
 _atom_site_fract_y
 _atom_site_fract_z
 _atom_site_occupancy
  Lu  Lu0  1  0.47872200  0.57786601  0.24916299  1
  Lu  Lu1  1  0.97872200  0.92213401  0.74916299  1
  Lu  Lu2  1  0.52127800  0.42213400  0.75083700  1
  Sm  Sm3  1  0.02127800  0.07786600  0.25083700  1
  Co  Co4  1  0.00000000  0.50000000  0.50000001  1
  Co  Co5  1  0.50000000  0.00000000  -0.00000001  1
  Co  Co6  1  0.00000000  0.50000000  -0.00000000  1
  Co  Co7  1  0.50000000  0.00000000  0.50000000  1
  O  O8  1  0.61220200  0.96222601  0.25586099  1
  O  O9  1  0.11220200  0.53777401  0.75586101  1
  O  O10  1  0.38779800  0.03777400  0.74413901  1
  O  O11  1  0.88779800  0.46222600  0.24413898  1
  O  O12  1  0.19741300  0.81304601  0.44584000  1
  O  O13  1  0.69741300  0.68695401  0.94584000  1
  O  O14  1  0.80258700  0.18695400  0.55415999  1
  O  O15  1  0.30258700  0.31304600  0.05415999  1
  O  O16  1  0.68345800  0.70165001  0.55771399  1
  O  O17  1  0.18345800  0.79835001  0.05771400  1
  O  O18  1  0.31654200  0.29835000  0.44228600  1
  O  O19  1  0.81654200  0.20165000  0.94228600  1
