# generated using pymatgen
data_V3(OF2)2
_symmetry_space_group_name_H-M   'P 1'
_cell_length_a   5.66634798
_cell_length_b   6.03406858
_cell_length_c   7.11221790
_cell_angle_alpha   74.67398834
_cell_angle_beta   72.05272675
_cell_angle_gamma   67.01171112
_symmetry_Int_Tables_number   1
_chemical_formula_structural   V3(OF2)2
_chemical_formula_sum   'V6 O4 F8'
_cell_volume   210.07266346
_cell_formula_units_Z   2
loop_
 _symmetry_equiv_pos_site_id
 _symmetry_equiv_pos_as_xyz
  1  'x, y, z'
loop_
 _atom_site_type_symbol
 _atom_site_label
 _atom_site_symmetry_multiplicity
 _atom_site_fract_x
 _atom_site_fract_y
 _atom_site_fract_z
 _atom_site_occupancy
  V  V0  1  0.02008294  0.99439702  0.99329502  1
  V  V1  1  0.00248794  0.99734202  0.49981601  1
  V  V2  1  0.66513897  0.66666668  0.33433900  1
  V  V3  1  0.64744097  0.68785501  0.83398202  1
  V  V4  1  0.33834598  0.32965601  0.16629000  1
  V  V5  1  0.33376199  0.30613001  0.68029802  1
  O  O6  1  0.35553695  0.96552702  0.83697901  1
  F  F7  1  0.91739696  0.91513202  0.79025001  1
  O  O8  1  0.74905397  0.75648702  0.54420900  1
  F  F9  1  0.57574497  0.58651301  0.12165499  1
  O  O10  1  0.30818896  0.70605701  0.49199701  1
  F  F11  1  0.95945099  0.39851001  0.82066602  1
  F  F12  1  0.02619296  0.61573001  0.17928400  1
  F  F13  1  0.69053299  0.28053101  0.51344101  1
  F  F14  1  0.65345701  0.04763000  0.15152500  1
  F  F15  1  0.41756498  0.41632101  0.87727102  1
  O  O16  1  0.24943699  0.24692000  0.45521301  1
  F  F17  1  0.09018200  0.08258100  0.20948901  1
