# generated using pymatgen
data_Na2MnSiO5
_symmetry_space_group_name_H-M   'P 1'
_cell_length_a   5.52764797
_cell_length_b   6.55907202
_cell_length_c   6.55907202
_cell_angle_alpha   90.00000000
_cell_angle_beta   90.00000000
_cell_angle_gamma   90.00000000
_symmetry_Int_Tables_number   1
_chemical_formula_structural   Na2MnSiO5
_chemical_formula_sum   'Na4 Mn2 Si2 O10'
_cell_volume   237.80729671
_cell_formula_units_Z   2
loop_
 _symmetry_equiv_pos_site_id
 _symmetry_equiv_pos_as_xyz
  1  'x, y, z'
loop_
 _atom_site_type_symbol
 _atom_site_label
 _atom_site_symmetry_multiplicity
 _atom_site_fract_x
 _atom_site_fract_y
 _atom_site_fract_z
 _atom_site_occupancy
  Mn  Mn0  1  0.93691800  0.00000000  0.50000000  1
  Mn  Mn1  1  0.06308200  0.50000000  -0.00000000  1
  Si  Si2  1  1.00000001  0.50000000  0.50000000  1
  Si  Si3  1  0.00000000  0.00000000  0.00000000  1
  Na  Na4  1  0.50000000  0.25000000  0.25000000  1
  Na  Na5  1  0.50000000  0.75000000  0.75000000  1
  Na  Na6  1  0.50000000  0.25000000  0.75000000  1
  Na  Na7  1  0.50000000  0.75000000  0.25000000  1
  O  O8  1  0.83170500  0.29249300  0.50000000  1
  O  O9  1  0.83170500  0.70750700  0.50000000  1
  O  O10  1  0.16829500  0.79249300  -0.00000000  1
  O  O11  1  0.16829500  0.20750700  -0.00000000  1
  O  O12  1  0.16829500  0.50000000  0.70750700  1
  O  O13  1  0.16829500  0.50000000  0.29249300  1
  O  O14  1  0.83170500  0.00000000  0.20750700  1
  O  O15  1  0.83170500  1.00000000  0.79249300  1
  O  O16  1  0.24655300  0.00000000  0.50000000  1
  O  O17  1  0.75344700  0.50000000  -0.00000000  1
