# generated using pymatgen
data_RbN6
_symmetry_space_group_name_H-M   'P 1'
_cell_length_a   6.29314566
_cell_length_b   6.29314566
_cell_length_c   6.29314566
_cell_angle_alpha   60.00000000
_cell_angle_beta   60.00000000
_cell_angle_gamma   60.00000000
_symmetry_Int_Tables_number   1
_chemical_formula_structural   RbN6
_chemical_formula_sum   'Rb2 N12'
_cell_volume   176.23345413
_cell_formula_units_Z   2
loop_
 _symmetry_equiv_pos_site_id
 _symmetry_equiv_pos_as_xyz
  1  'x, y, z'
loop_
 _atom_site_type_symbol
 _atom_site_label
 _atom_site_symmetry_multiplicity
 _atom_site_fract_x
 _atom_site_fract_y
 _atom_site_fract_z
 _atom_site_occupancy
  Rb  Rb0  1  0.75000001  0.75000001  0.75000001  1
  Rb  Rb1  1  0.25000000  0.25000000  0.25000000  1
  N  N2  1  0.86255801  0.13744200  0.13744200  1
  N  N3  1  0.86255801  0.86255801  0.13744200  1
  N  N4  1  0.86255801  0.13744200  0.86255801  1
  N  N5  1  0.13744200  0.13744200  0.86255801  1
  N  N6  1  0.13744200  0.86255801  0.86255801  1
  N  N7  1  0.13744200  0.86255801  0.13744200  1
  N  N8  1  0.72686301  0.72686301  0.27313700  1
  N  N9  1  0.72686301  0.27313700  0.27313700  1
  N  N10  1  0.72686301  0.27313700  0.72686301  1
  N  N11  1  0.27313700  0.27313700  0.72686301  1
  N  N12  1  0.27313700  0.72686301  0.72686301  1
  N  N13  1  0.27313700  0.72686301  0.27313700  1
