# generated using pymatgen
data_ReBI9Cl
_symmetry_space_group_name_H-M   'P 1'
_cell_length_a   6.89413118
_cell_length_b   7.43966532
_cell_length_c   9.98428535
_cell_angle_alpha   109.82231903
_cell_angle_beta   90.84693146
_cell_angle_gamma   116.19844818
_symmetry_Int_Tables_number   1
_chemical_formula_structural   ReBI9Cl
_chemical_formula_sum   'Re1 B1 I9 Cl1'
_cell_volume   423.97510592
_cell_formula_units_Z   1
loop_
 _symmetry_equiv_pos_site_id
 _symmetry_equiv_pos_as_xyz
  1  'x, y, z'
loop_
 _atom_site_type_symbol
 _atom_site_label
 _atom_site_symmetry_multiplicity
 _atom_site_fract_x
 _atom_site_fract_y
 _atom_site_fract_z
 _atom_site_occupancy
  Re  Re0  1  0.89827000  0.28863599  0.78566599  1
  B  B1  1  0.10172998  0.71136398  0.21433399  1
  I  I2  1  0.23127598  0.67773198  0.95842998  1
  I  I3  1  0.76872400  0.32226799  0.04157000  1
  I  I4  1  0.57309798  0.93712797  0.66622499  1
  Cl  Cl5  1  0.42690200  0.06287200  0.33377500  1
  I  I6  1  0.06329899  0.31304999  0.57444099  1
  I  I7  1  0.93670099  0.68694998  0.42555899  1
  I  I8  1  0.11343300  0.13179000  0.85066798  1
  I  I9  1  0.88656698  0.86820998  0.14933200  1
  I  I10  1  0.70551999  0.48700199  0.75775099  1
  I  I11  1  0.29447999  0.51299799  0.24224899  1
