# generated using pymatgen
data_Ce3SeI
_symmetry_space_group_name_H-M   'P 1'
_cell_length_a   4.26650810
_cell_length_b   4.26650858
_cell_length_c   10.21738911
_cell_angle_alpha   90.00000000
_cell_angle_beta   90.00000000
_cell_angle_gamma   119.99999237
_symmetry_Int_Tables_number   1
_chemical_formula_structural   Ce3SeI
_chemical_formula_sum   'Ce3 Se1 I1'
_cell_volume   161.07042178
_cell_formula_units_Z   1
loop_
 _symmetry_equiv_pos_site_id
 _symmetry_equiv_pos_as_xyz
  1  'x, y, z'
loop_
 _atom_site_type_symbol
 _atom_site_label
 _atom_site_symmetry_multiplicity
 _atom_site_fract_x
 _atom_site_fract_y
 _atom_site_fract_z
 _atom_site_occupancy
  Ce  Ce0  1  0.66666663  0.33333332  0.16062400  1
  Ce  Ce1  1  0.33333328  0.66666665  0.83937599  1
  Se  Se2  1  0.00000000  0.00000000  0.00000000  1
  I  I3  1  0.33333328  0.66666665  0.34411500  1
  Ce  Ce4  1  0.66666663  0.33333332  0.65588499  1
