# generated using pymatgen
data_Rb3Tl2Te7
_symmetry_space_group_name_H-M   'P 1'
_cell_length_a   5.10501623
_cell_length_b   8.64847660
_cell_length_c   10.00531769
_cell_angle_alpha   90.00000000
_cell_angle_beta   90.00000000
_cell_angle_gamma   90.00000000
_symmetry_Int_Tables_number   1
_chemical_formula_structural   Rb3Tl2Te7
_chemical_formula_sum   'Rb3 Tl2 Te7'
_cell_volume   441.74091343
_cell_formula_units_Z   1
loop_
 _symmetry_equiv_pos_site_id
 _symmetry_equiv_pos_as_xyz
  1  'x, y, z'
loop_
 _atom_site_type_symbol
 _atom_site_label
 _atom_site_symmetry_multiplicity
 _atom_site_fract_x
 _atom_site_fract_y
 _atom_site_fract_z
 _atom_site_occupancy
  Rb  Rb0  1  0.49999998  0.02021200  0.42229701  1
  Tl  Tl1  1  0.00000000  0.34491802  0.33939001  1
  Rb  Rb2  1  0.49999998  0.52021202  0.57770302  1
  Te  Te3  1  0.00000000  0.84491804  0.66061002  1
  Te  Te4  1  0.00000000  0.99900805  0.04985700  1
  Rb  Rb5  1  0.00000000  0.49900802  0.95014303  1
  Te  Te6  1  0.49999998  0.15400101  0.82295003  1
  Te  Te7  1  0.49999998  0.65400103  0.17705001  1
  Te  Te8  1  0.00000000  0.23907101  0.68070002  1
  Te  Te9  1  0.49999998  0.28839101  0.11331000  1
  Tl  Tl10  1  0.00000000  0.73907103  0.31930001  1
  Te  Te11  1  0.49999998  0.78839104  0.88669003  1
