# generated using pymatgen
data_HoFe2B3
_symmetry_space_group_name_H-M   'P 1'
_cell_length_a   2.75673509
_cell_length_b   5.16564178
_cell_length_c   5.16564178
_cell_angle_alpha   120.00000000
_cell_angle_beta   90.00000000
_cell_angle_gamma   90.00000000
_symmetry_Int_Tables_number   1
_chemical_formula_structural   HoFe2B3
_chemical_formula_sum   'Ho1 Fe2 B3'
_cell_volume   63.70510536
_cell_formula_units_Z   1
loop_
 _symmetry_equiv_pos_site_id
 _symmetry_equiv_pos_as_xyz
  1  'x, y, z'
loop_
 _atom_site_type_symbol
 _atom_site_label
 _atom_site_symmetry_multiplicity
 _atom_site_fract_x
 _atom_site_fract_y
 _atom_site_fract_z
 _atom_site_occupancy
  Ho  Ho0  1  0.00000000  0.00000000  0.00000000  1
  B  B1  1  0.49999998  0.50000002  -0.00000001  1
  B  B2  1  0.49999998  0.50000002  0.49999999  1
  B  B3  1  0.49999998  0.00000000  0.50000000  1
  Fe  Fe4  1  -0.00000000  0.33333334  0.66666667  1
  Fe  Fe5  1  0.99999997  0.66666669  0.33333332  1
