# generated using pymatgen
data_Lu5(CoB3)2
_symmetry_space_group_name_H-M   'P 1'
_cell_length_a   5.34535599
_cell_length_b   5.34535599
_cell_length_c   7.94982100
_cell_angle_alpha   70.35487366
_cell_angle_beta   70.35487366
_cell_angle_gamma   60.00000000
_symmetry_Int_Tables_number   1
_chemical_formula_structural   Lu5(CoB3)2
_chemical_formula_sum   'Lu5 Co2 B6'
_cell_volume   181.28900327
_cell_formula_units_Z   1
loop_
 _symmetry_equiv_pos_site_id
 _symmetry_equiv_pos_as_xyz
  1  'x, y, z'
loop_
 _atom_site_type_symbol
 _atom_site_label
 _atom_site_symmetry_multiplicity
 _atom_site_fract_x
 _atom_site_fract_y
 _atom_site_fract_z
 _atom_site_occupancy
  Lu  Lu0  1  0.25602299  0.25602300  0.23193001  1
  Lu  Lu1  1  0.74397698  0.74397699  0.76807002  1
  Lu  Lu2  1  0.41201299  0.41201299  0.76396001  1
  Lu  Lu3  1  0.58798698  0.58798699  0.23604003  1
  Lu  Lu4  1  0.00000000  0.00000000  0.00000000  1
  Co  Co5  1  0.11330300  0.11330300  0.66009199  1
  Co  Co6  1  0.88669697  0.88669699  0.33990804  1
  B  B7  1  0.83273798  0.49999999  0.50000003  1
  B  B8  1  0.49999999  0.16726200  0.50000001  1
  B  B9  1  0.16726199  0.83273799  0.50000001  1
  B  B10  1  0.49999998  0.83273799  0.50000002  1
  B  B11  1  0.83273798  0.16726200  0.50000003  1
  B  B12  1  0.16726199  0.49999999  0.50000000  1
