# generated using pymatgen
data_Mg3Ir
_symmetry_space_group_name_H-M   'P 1'
_cell_length_a   3.98316956
_cell_length_b   3.98316956
_cell_length_c   8.07938385
_cell_angle_alpha   75.72938538
_cell_angle_beta   75.72938538
_cell_angle_gamma   60.00000763
_symmetry_Int_Tables_number   1
_chemical_formula_structural   Mg3Ir
_chemical_formula_sum   'Mg3 Ir1'
_cell_volume   106.41922184
_cell_formula_units_Z   1
loop_
 _symmetry_equiv_pos_site_id
 _symmetry_equiv_pos_as_xyz
  1  'x, y, z'
loop_
 _atom_site_type_symbol
 _atom_site_label
 _atom_site_symmetry_multiplicity
 _atom_site_fract_x
 _atom_site_fract_y
 _atom_site_fract_z
 _atom_site_occupancy
  Ir  Ir0  1  0.00000000  0.00000000  0.00000000  1
  Mg  Mg1  1  0.49999996  0.49999999  0.50000001  1
  Mg  Mg2  1  0.73134295  0.73134299  0.80597101  1
  Mg  Mg3  1  0.26865698  0.26865700  0.19402901  1
