# generated using pymatgen
data_Rb2Nb3CuS4
_symmetry_space_group_name_H-M   'P 1'
_cell_length_a   3.98561811
_cell_length_b   3.98561811
_cell_length_c   14.99190044
_cell_angle_alpha   90.00000000
_cell_angle_beta   90.00000000
_cell_angle_gamma   90.00000000
_symmetry_Int_Tables_number   1
_chemical_formula_structural   Rb2Nb3CuS4
_chemical_formula_sum   'Rb2 Nb3 Cu1 S4'
_cell_volume   238.14861364
_cell_formula_units_Z   1
loop_
 _symmetry_equiv_pos_site_id
 _symmetry_equiv_pos_as_xyz
  1  'x, y, z'
loop_
 _atom_site_type_symbol
 _atom_site_label
 _atom_site_symmetry_multiplicity
 _atom_site_fract_x
 _atom_site_fract_y
 _atom_site_fract_z
 _atom_site_occupancy
  Nb  Nb0  1  0.49999999  0.49999999  0.00000000  1
  Rb  Rb1  1  0.49999999  0.00000000  0.70673198  1
  Rb  Rb2  1  0.00000000  0.49999999  0.29326799  1
  Nb  Nb3  1  0.00000000  0.00000000  0.49999999  1
  Cu  Cu4  1  0.00000000  0.00000000  0.00000000  1
  Nb  Nb5  1  0.49999999  0.49999999  0.49999999  1
  S  S6  1  0.00000000  0.49999999  0.89962897  1
  S  S7  1  0.49999999  0.00000000  0.39457199  1
  S  S8  1  0.49999999  0.00000000  0.10037100  1
  S  S9  1  0.00000000  0.49999999  0.60542798  1
