# generated using pymatgen
data_Zr9Sn3BIr4C
_symmetry_space_group_name_H-M   'P 1'
_cell_length_a   5.62451077
_cell_length_b   8.33852386
_cell_length_c   8.33852386
_cell_angle_alpha   120.00000000
_cell_angle_beta   90.00000000
_cell_angle_gamma   90.00000000
_symmetry_Int_Tables_number   1
_chemical_formula_structural   Zr9Sn3BIr4C
_chemical_formula_sum   'Zr9 Sn3 B1 Ir4 C1'
_cell_volume   338.68326366
_cell_formula_units_Z   1
loop_
 _symmetry_equiv_pos_site_id
 _symmetry_equiv_pos_as_xyz
  1  'x, y, z'
loop_
 _atom_site_type_symbol
 _atom_site_label
 _atom_site_symmetry_multiplicity
 _atom_site_fract_x
 _atom_site_fract_y
 _atom_site_fract_z
 _atom_site_occupancy
  Zr  Zr0  1  0.00000000  0.33333334  0.66666671  1
  Zr  Zr1  1  0.00000000  0.66666669  0.33333337  1
  Zr  Zr2  1  0.75000003  0.77614002  0.77614006  1
  Ir  Ir3  1  0.75000003  0.00000000  0.22386001  1
  Ir  Ir4  1  0.75000003  0.22386001  0.00000001  1
  Ir  Ir5  1  0.50000002  0.33333334  0.66666671  1
  Ir  Ir6  1  0.50000002  0.66666669  0.33333337  1
  Zr  Zr7  1  0.25000001  0.22386001  0.22386002  1
  Zr  Zr8  1  0.25000001  1.00000003  0.77614007  1
  Zr  Zr9  1  0.25000001  0.77614002  1.00000008  1
  Zr  Zr10  1  0.75000003  0.40016201  0.40016203  1
  Zr  Zr11  1  0.75000003  0.00000000  0.59983803  1
  Zr  Zr12  1  0.75000003  0.59983802  1.00000007  1
  Sn  Sn13  1  0.25000001  0.59983802  0.59983805  1
  Sn  Sn14  1  0.25000001  0.00000000  0.40016202  1
  Sn  Sn15  1  0.25000001  0.40016201  1.00000007  1
  C  C16  1  0.00000000  0.00000000  0.00000000  1
  B  B17  1  0.50000002  0.00000000  -0.00000000  1
