# generated using pymatgen
data_SrCa3(IrO3)4
_symmetry_space_group_name_H-M   'P 1'
_cell_length_a   5.53038883
_cell_length_b   5.72589493
_cell_length_c   7.96073198
_cell_angle_alpha   90.00000000
_cell_angle_beta   90.00000000
_cell_angle_gamma   90.00000000
_symmetry_Int_Tables_number   1
_chemical_formula_structural   SrCa3(IrO3)4
_chemical_formula_sum   'Sr1 Ca3 Ir4 O12'
_cell_volume   252.08792518
_cell_formula_units_Z   1
loop_
 _symmetry_equiv_pos_site_id
 _symmetry_equiv_pos_as_xyz
  1  'x, y, z'
loop_
 _atom_site_type_symbol
 _atom_site_label
 _atom_site_symmetry_multiplicity
 _atom_site_fract_x
 _atom_site_fract_y
 _atom_site_fract_z
 _atom_site_occupancy
  Sr  Sr0  1  0.98728003  0.05284000  0.25000000  1
  Ca  Ca1  1  0.48728001  0.44716001  0.75000000  1
  Ca  Ca2  1  0.51272002  0.55284001  0.25000000  1
  Ca  Ca3  1  0.01272000  0.94716001  0.75000000  1
  Ir  Ir4  1  0.50000002  0.00000000  0.00000000  1
  Ir  Ir5  1  0.50000002  0.00000000  0.50000000  1
  Ir  Ir6  1  0.00000000  0.50000001  -0.00000000  1
  Ir  Ir7  1  0.00000000  0.50000001  0.50000000  1
  O  O8  1  0.60693702  0.04105100  0.75000000  1
  O  O9  1  0.19339701  0.19612000  0.55543200  1
  O  O10  1  0.19339701  0.19612000  0.94456800  1
  O  O11  1  0.69339702  0.30388000  0.05543200  1
  O  O12  1  0.69339702  0.30388000  0.44456800  1
  O  O13  1  0.10693700  0.45894901  0.25000000  1
  O  O14  1  0.89306303  0.54105101  0.75000000  1
  O  O15  1  0.30660301  0.69612001  0.55543200  1
  O  O16  1  0.30660301  0.69612001  0.94456800  1
  O  O17  1  0.80660302  0.80388001  0.05543200  1
  O  O18  1  0.80660302  0.80388001  0.44456800  1
  O  O19  1  0.39306301  0.95894901  0.25000000  1
