# generated using pymatgen
data_LaTi(AlC2)2
_symmetry_space_group_name_H-M   'P 1'
_cell_length_a   3.06908798
_cell_length_b   3.06908703
_cell_length_c   13.73636627
_cell_angle_alpha   90.00000000
_cell_angle_beta   90.00000000
_cell_angle_gamma   120.00000763
_symmetry_Int_Tables_number   1
_chemical_formula_structural   LaTi(AlC2)2
_chemical_formula_sum   'La1 Ti1 Al2 C4'
_cell_volume   112.05235876
_cell_formula_units_Z   1
loop_
 _symmetry_equiv_pos_site_id
 _symmetry_equiv_pos_as_xyz
  1  'x, y, z'
loop_
 _atom_site_type_symbol
 _atom_site_label
 _atom_site_symmetry_multiplicity
 _atom_site_fract_x
 _atom_site_fract_y
 _atom_site_fract_z
 _atom_site_occupancy
  C  C0  1  0.66666665  0.33333332  0.91651398  1
  C  C1  1  0.33333329  0.66666663  0.41651399  1
  Ti  Ti2  1  0.33333329  0.66666663  0.08348600  1
  C  C3  1  0.66666665  0.33333332  0.58348599  1
  Al  Al4  1  0.66666665  0.33333332  0.25000000  1
  La  La5  1  0.33333329  0.66666663  0.74999999  1
  C  C6  1  0.00000000  0.00000000  0.00000000  1
  Al  Al7  1  0.00000000  0.00000000  0.49999999  1
