# generated using pymatgen
data_In3Au
_symmetry_space_group_name_H-M   'P 1'
_cell_length_a   4.31137323
_cell_length_b   7.55425406
_cell_length_c   7.55425501
_cell_angle_alpha   119.99999237
_cell_angle_beta   90.00000000
_cell_angle_gamma   90.00000000
_symmetry_Int_Tables_number   1
_chemical_formula_structural   In3Au
_chemical_formula_sum   'In6 Au2'
_cell_volume   213.07353634
_cell_formula_units_Z   2
loop_
 _symmetry_equiv_pos_site_id
 _symmetry_equiv_pos_as_xyz
  1  'x, y, z'
loop_
 _atom_site_type_symbol
 _atom_site_label
 _atom_site_symmetry_multiplicity
 _atom_site_fract_x
 _atom_site_fract_y
 _atom_site_fract_z
 _atom_site_occupancy
  Au  Au0  1  0.24999999  0.33333332  0.66666664  1
  Au  Au1  1  0.74999996  0.66666664  0.33333329  1
  In  In2  1  0.24999999  0.39117498  0.08601997  1
  In  In3  1  0.74999996  0.08602100  0.69484599  1
  In  In4  1  0.74999996  0.60882498  0.91397996  1
  In  In5  1  0.24999999  0.91397896  0.30515394  1
  In  In6  1  0.24999999  0.69484497  0.60882395  1
  In  In7  1  0.74999996  0.30515499  0.39117598  1
