# generated using pymatgen
data_NaTb5O8
_symmetry_space_group_name_H-M   'P 1'
_cell_length_a   7.09153605
_cell_length_b   7.09143448
_cell_length_c   7.09313631
_cell_angle_alpha   119.98088837
_cell_angle_beta   119.99134064
_cell_angle_gamma   90.00151062
_symmetry_Int_Tables_number   1
_chemical_formula_structural   NaTb5O8
_chemical_formula_sum   'Na1 Tb5 O8'
_cell_volume   252.33308338
_cell_formula_units_Z   1
loop_
 _symmetry_equiv_pos_site_id
 _symmetry_equiv_pos_as_xyz
  1  'x, y, z'
loop_
 _atom_site_type_symbol
 _atom_site_label
 _atom_site_symmetry_multiplicity
 _atom_site_fract_x
 _atom_site_fract_y
 _atom_site_fract_z
 _atom_site_occupancy
  Na  Na0  1  0.12544197  0.87540196  0.25089896  1
  Tb  Tb1  1  0.87454197  0.12460399  0.74909697  1
  Tb  Tb2  1  0.99999295  0.49998298  0.49999297  1
  Tb  Tb3  1  0.49999597  0.50000598  0.49998397  1
  Tb  Tb4  1  0.50000897  0.49999698  0.00000299  1
  Tb  Tb5  1  0.49999998  0.00000100  0.00000400  1
  O  O6  1  0.27026597  0.74682897  0.54053296  1
  O  O7  1  0.30131998  0.26108299  0.02217699  1
  O  O8  1  0.72086897  0.26109799  0.02220399  1
  O  O9  1  0.72972895  0.70628097  0.45942096  1
  O  O10  1  0.27915797  0.73889997  0.97783295  1
  O  O11  1  0.27029698  0.29372799  0.54059197  1
  O  O12  1  0.72970897  0.25317599  0.45945898  1
  O  O13  1  0.69866895  0.73891597  0.97780395  1
