# generated using pymatgen
data_LiMnSiO5
_symmetry_space_group_name_H-M   'P 1'
_cell_length_a   4.62912798
_cell_length_b   6.32951212
_cell_length_c   6.32951212
_cell_angle_alpha   89.85939789
_cell_angle_beta   90.00000000
_cell_angle_gamma   90.00000000
_symmetry_Int_Tables_number   1
_chemical_formula_structural   LiMnSiO5
_chemical_formula_sum   'Li2 Mn2 Si2 O10'
_cell_volume   185.45491666
_cell_formula_units_Z   2
loop_
 _symmetry_equiv_pos_site_id
 _symmetry_equiv_pos_as_xyz
  1  'x, y, z'
loop_
 _atom_site_type_symbol
 _atom_site_label
 _atom_site_symmetry_multiplicity
 _atom_site_fract_x
 _atom_site_fract_y
 _atom_site_fract_z
 _atom_site_occupancy
  Li  Li0  1  0.50000000  0.00000000  0.49999999  1
  Li  Li1  1  0.50000000  0.49999999  -0.00000001  1
  Mn  Mn2  1  0.10440100  0.74999999  0.74999997  1
  Mn  Mn3  1  0.89559900  0.25000000  0.24999999  1
  Si  Si4  1  0.00000000  0.74999999  0.24999998  1
  Si  Si5  1  1.00000000  0.25000000  0.74999998  1
  O  O6  1  0.78990800  0.95964198  0.25547698  1
  O  O7  1  0.75168600  0.74999999  0.74999997  1
  O  O8  1  0.21009200  0.75547699  0.45964198  1
  O  O9  1  0.21009200  0.74452299  0.04035799  1
  O  O10  1  0.78990800  0.54035799  0.24452299  1
  O  O11  1  0.21009200  0.45964199  0.75547698  1
  O  O12  1  0.78990800  0.25547700  0.95964198  1
  O  O13  1  0.78990800  0.24452300  0.54035799  1
  O  O14  1  0.24831400  0.25000000  0.24999999  1
  O  O15  1  0.21009200  0.04035800  0.74452299  1
