# generated using pymatgen
data_AlNi2
_symmetry_space_group_name_H-M   'P 1'
_cell_length_a   3.64971209
_cell_length_b   6.37445545
_cell_length_c   10.08008766
_cell_angle_alpha   90.00000000
_cell_angle_beta   90.00000000
_cell_angle_gamma   106.63516235
_symmetry_Int_Tables_number   1
_chemical_formula_structural   AlNi2
_chemical_formula_sum   'Al6 Ni12'
_cell_volume   224.69746859
_cell_formula_units_Z   6
loop_
 _symmetry_equiv_pos_site_id
 _symmetry_equiv_pos_as_xyz
  1  'x, y, z'
loop_
 _atom_site_type_symbol
 _atom_site_label
 _atom_site_symmetry_multiplicity
 _atom_site_fract_x
 _atom_site_fract_y
 _atom_site_fract_z
 _atom_site_occupancy
  Al  Al0  1  0.05751801  0.11503600  0.10911800  1
  Al  Al1  1  0.94248209  0.88496403  0.89088203  1
  Al  Al2  1  0.05751801  0.11503600  0.39088201  1
  Al  Al3  1  0.94248209  0.88496403  0.60911802  1
  Ni  Ni4  1  0.14935003  0.29870001  0.62523702  1
  Ni  Ni5  1  0.85065007  0.70130002  0.37476301  1
  Ni  Ni6  1  0.14935003  0.29870001  0.87476303  1
  Al  Al7  1  0.85065007  0.70130002  0.12523700  1
  Ni  Ni8  1  0.35228608  0.70457202  0.75000003  1
  Ni  Ni9  1  0.64771402  0.29542801  0.25000001  1
  Ni  Ni10  1  0.31944007  0.63888002  0.51356202  1
  Ni  Ni11  1  0.68056003  0.36112001  0.48643802  1
  Ni  Ni12  1  0.31944007  0.63888002  0.98643803  1
  Ni  Ni13  1  0.68056003  0.36112001  0.01356200  1
  Al  Al14  1  0.54509100  0.09018200  0.75000003  1
  Ni  Ni15  1  0.45490910  0.90981803  0.25000001  1
  Ni  Ni16  1  0.74003104  0.48006202  0.75000003  1
  Ni  Ni17  1  0.25996906  0.51993802  0.25000001  1
