# generated using pymatgen
data_LiCaV4O8
_symmetry_space_group_name_H-M   'P 1'
_cell_length_a   5.19210052
_cell_length_b   5.94416714
_cell_length_c   6.62913275
_cell_angle_alpha   116.63658142
_cell_angle_beta   103.42652893
_cell_angle_gamma   90.00439453
_symmetry_Int_Tables_number   1
_chemical_formula_structural   LiCaV4O8
_chemical_formula_sum   'Li1 Ca1 V4 O8'
_cell_volume   176.59925285
_cell_formula_units_Z   1
loop_
 _symmetry_equiv_pos_site_id
 _symmetry_equiv_pos_as_xyz
  1  'x, y, z'
loop_
 _atom_site_type_symbol
 _atom_site_label
 _atom_site_symmetry_multiplicity
 _atom_site_fract_x
 _atom_site_fract_y
 _atom_site_fract_z
 _atom_site_occupancy
  Li  Li0  1  0.25001696  0.68932997  0.99648799  1
  Ca  Ca1  1  0.74993101  0.30688698  0.99648102  1
  V  V2  1  0.24664700  0.12693499  0.50711101  1
  V  V3  1  0.25169697  0.62177097  0.49405298  1
  V  V4  1  0.75174297  0.87231796  0.49401597  1
  V  V5  1  0.74657800  0.38035998  0.50726500  1
  O  O6  1  0.96595402  0.21756899  0.68893002  1
  O  O7  1  0.52626298  0.53612097  0.31082998  1
  O  O8  1  0.02631995  0.77474096  0.31092496  1
  O  O9  1  0.46588798  0.47147898  0.68904700  1
  O  O10  1  0.53999002  0.02237900  0.32548901  1
  O  O11  1  0.96948898  0.73075296  0.67698299  1
  O  O12  1  0.46956695  0.94621395  0.67690097  1
  O  O13  1  0.03991498  0.30314298  0.32548199  1
