# generated using pymatgen
data_Ca4MnWO8
_symmetry_space_group_name_H-M   'P 1'
_cell_length_a   3.52553296
_cell_length_b   5.76803017
_cell_length_c   9.90968800
_cell_angle_alpha   90.00000000
_cell_angle_beta   90.00000000
_cell_angle_gamma   90.00000000
_symmetry_Int_Tables_number   1
_chemical_formula_structural   Ca4MnWO8
_chemical_formula_sum   'Ca4 Mn1 W1 O8'
_cell_volume   201.51727575
_cell_formula_units_Z   1
loop_
 _symmetry_equiv_pos_site_id
 _symmetry_equiv_pos_as_xyz
  1  'x, y, z'
loop_
 _atom_site_type_symbol
 _atom_site_label
 _atom_site_symmetry_multiplicity
 _atom_site_fract_x
 _atom_site_fract_y
 _atom_site_fract_z
 _atom_site_occupancy
  Ca  Ca0  1  0.50000001  0.44303399  0.18286700  1
  Ca  Ca1  1  0.50000001  0.05696600  0.68286700  1
  Ca  Ca2  1  0.50000001  0.94303397  0.31713300  1
  Ca  Ca3  1  0.50000001  0.55696598  0.81713300  1
  W  W4  1  0.00000000  0.00000000  0.00000000  1
  Mn  Mn5  1  0.00000000  0.49999999  0.50000000  1
  O  O6  1  0.00000000  0.35542199  0.67701400  1
  O  O7  1  0.50000001  0.29137399  0.44691700  1
  O  O8  1  0.00000000  0.85542198  0.82298600  1
  O  O9  1  0.50000001  0.70862598  0.55308300  1
  O  O10  1  0.00000000  0.64457798  0.32298600  1
  O  O11  1  0.50000001  0.20862599  0.94691700  1
  O  O12  1  0.00000000  0.14457800  0.17701400  1
  O  O13  1  0.50000001  0.79137398  0.05308300  1
