# generated using pymatgen
data_BPRh4
_symmetry_space_group_name_H-M   'P 1'
_cell_length_a   3.92847395
_cell_length_b   3.92847395
_cell_length_c   5.61481285
_cell_angle_alpha   90.00000000
_cell_angle_beta   90.00000000
_cell_angle_gamma   90.00000000
_symmetry_Int_Tables_number   1
_chemical_formula_structural   BPRh4
_chemical_formula_sum   'B1 P1 Rh4'
_cell_volume   86.65288776
_cell_formula_units_Z   1
loop_
 _symmetry_equiv_pos_site_id
 _symmetry_equiv_pos_as_xyz
  1  'x, y, z'
loop_
 _atom_site_type_symbol
 _atom_site_label
 _atom_site_symmetry_multiplicity
 _atom_site_fract_x
 _atom_site_fract_y
 _atom_site_fract_z
 _atom_site_occupancy
  B  B0  1  0.00000000  0.00000000  0.00000000  1
  P  P1  1  0.50000001  0.50000001  0.50000001  1
  Rh  Rh2  1  0.00000000  0.50000001  0.74562802  1
  Rh  Rh3  1  0.50000001  0.00000000  0.25437201  1
  Rh  Rh4  1  0.00000000  0.50000001  0.21961501  1
  Rh  Rh5  1  0.50000001  0.00000000  0.78038502  1
