# generated using pymatgen
data_La6Sb9As
_symmetry_space_group_name_H-M   'P 1'
_cell_length_a   8.64872265
_cell_length_b   8.64872265
_cell_length_c   8.64872265
_cell_angle_alpha   90.82718658
_cell_angle_beta   119.52358246
_cell_angle_gamma   119.52358246
_symmetry_Int_Tables_number   1
_chemical_formula_structural   La6Sb9As
_chemical_formula_sum   'La6 Sb9 As1'
_cell_volume   460.68922800
_cell_formula_units_Z   1
loop_
 _symmetry_equiv_pos_site_id
 _symmetry_equiv_pos_as_xyz
  1  'x, y, z'
loop_
 _atom_site_type_symbol
 _atom_site_label
 _atom_site_symmetry_multiplicity
 _atom_site_fract_x
 _atom_site_fract_y
 _atom_site_fract_z
 _atom_site_occupancy
  La  La0  1  0.00000012  0.75000006  0.75000009  1
  La  La1  1  0.00000004  0.25000002  0.25000003  1
  La  La2  1  0.82600913  0.66300505  0.16300513  1
  La  La3  1  0.17399106  0.33699503  0.83699505  1
  La  La4  1  0.50000004  0.16300401  0.33699605  1
  La  La5  1  0.50000014  0.83699607  0.66300413  1
  Sb  Sb6  1  0.21325211  0.67198606  0.17198609  1
  Sb  Sb7  1  0.78674817  0.95873408  0.45873416  1
  Sb  Sb8  1  0.50000004  0.17198601  0.95873405  1
  Sb  Sb9  1  0.50000009  0.45873404  0.67198609  1
  Sb  Sb10  1  0.78674808  0.32801403  0.82801409  1
  Sb  Sb11  1  0.21325201  0.04126600  0.54126602  1
  Sb  Sb12  1  0.50000014  0.82801407  0.04126613  1
  Sb  Sb13  1  0.50000010  0.54126604  0.32801409  1
  Sb  Sb14  1  0.00000000  0.00000000  0.00000000  1
  As  As15  1  0.00000008  0.50000004  0.50000006  1
