# generated using pymatgen
data_SrEu4(C4O)2
_symmetry_space_group_name_H-M   'P 1'
_cell_length_a   4.27630997
_cell_length_b   4.27630997
_cell_length_c   13.90473843
_cell_angle_alpha   97.46241760
_cell_angle_beta   97.46241760
_cell_angle_gamma   98.93991089
_symmetry_Int_Tables_number   1
_chemical_formula_structural   SrEu4(C4O)2
_chemical_formula_sum   'Sr1 Eu4 C8 O2'
_cell_volume   246.11700918
_cell_formula_units_Z   1
loop_
 _symmetry_equiv_pos_site_id
 _symmetry_equiv_pos_as_xyz
  1  'x, y, z'
loop_
 _atom_site_type_symbol
 _atom_site_label
 _atom_site_symmetry_multiplicity
 _atom_site_fract_x
 _atom_site_fract_y
 _atom_site_fract_z
 _atom_site_occupancy
  Sr  Sr0  1  0.40105302  0.40105302  0.80210601  1
  Eu  Eu1  1  0.80044004  0.80044004  0.60088002  1
  Eu  Eu2  1  0.19956001  0.19956001  0.39912000  1
  Eu  Eu3  1  0.59894703  0.59894703  0.19789402  1
  Eu  Eu4  1  0.00000000  0.00000000  0.00000000  1
  C  C5  1  0.19488401  0.99551805  0.19040202  1
  C  C6  1  0.79982904  0.59998803  0.39981702  1
  C  C7  1  0.40001202  0.20017101  0.60018301  1
  C  C8  1  0.60037103  0.39962902  0.00000002  1
  O  O9  1  0.00448200  0.80511604  0.80959801  1
  C  C10  1  0.59998803  0.79982904  0.39981702  1
  C  C11  1  0.20017101  0.40001202  0.60018301  1
  O  O12  1  0.80511604  0.00448200  0.80959801  1
  C  C13  1  0.99551805  0.19488401  0.19040202  1
  C  C14  1  0.39962902  0.60037103  0.00000002  1
