# generated using pymatgen
data_SrIn
_symmetry_space_group_name_H-M   'P 1'
_cell_length_a   3.56370807
_cell_length_b   5.99370956
_cell_length_c   6.46240044
_cell_angle_alpha   107.79265594
_cell_angle_beta   106.00530243
_cell_angle_gamma   90.00000000
_symmetry_Int_Tables_number   1
_chemical_formula_structural   SrIn
_chemical_formula_sum   'Sr2 In2'
_cell_volume   125.80202694
_cell_formula_units_Z   2
loop_
 _symmetry_equiv_pos_site_id
 _symmetry_equiv_pos_as_xyz
  1  'x, y, z'
loop_
 _atom_site_type_symbol
 _atom_site_label
 _atom_site_symmetry_multiplicity
 _atom_site_fract_x
 _atom_site_fract_y
 _atom_site_fract_z
 _atom_site_occupancy
  Sr  Sr0  1  0.10361399  0.81766398  0.20722800  1
  Sr  Sr1  1  0.89638597  0.18233600  0.79277198  1
  In  In2  1  0.35173898  0.65455698  0.70347799  1
  In  In3  1  0.64826098  0.34544299  0.29652199  1
