# generated using pymatgen
data_Li4Cr4O5F
_symmetry_space_group_name_H-M   'P 1'
_cell_length_a   5.92867899
_cell_length_b   5.92867899
_cell_length_c   5.92867899
_cell_angle_alpha   60.34379196
_cell_angle_beta   60.34379196
_cell_angle_gamma   60.34379196
_symmetry_Int_Tables_number   1
_chemical_formula_structural   Li4Cr4O5F
_chemical_formula_sum   'Li4 Cr4 O5 F1'
_cell_volume   148.49898613
_cell_formula_units_Z   1
loop_
 _symmetry_equiv_pos_site_id
 _symmetry_equiv_pos_as_xyz
  1  'x, y, z'
loop_
 _atom_site_type_symbol
 _atom_site_label
 _atom_site_symmetry_multiplicity
 _atom_site_fract_x
 _atom_site_fract_y
 _atom_site_fract_z
 _atom_site_occupancy
  Li  Li0  1  0.87327200  0.87327198  0.87327204  1
  O  O1  1  0.12672800  0.12672800  0.12672801  1
  O  O2  1  0.00000001  0.49999999  0.50000002  1
  O  O3  1  0.49999999  0.00000000  0.50000002  1
  O  O4  1  0.50000000  0.49999999  0.00000000  1
  O  O5  1  0.50000000  0.49999999  0.50000002  1
  F  F6  1  0.73817400  0.73817399  0.73817403  1
  Li  Li7  1  0.73519400  0.73519399  0.28553201  1
  Li  Li8  1  0.73519399  0.28553199  0.73519403  1
  Li  Li9  1  0.28553200  0.73519399  0.73519403  1
  Cr  Cr10  1  0.71446799  0.26480600  0.26480601  1
  Cr  Cr11  1  0.26480600  0.71446799  0.26480601  1
  Cr  Cr12  1  0.26480600  0.26480600  0.71446803  1
  Cr  Cr13  1  0.26182600  0.26182600  0.26182601  1
