# generated using pymatgen
data_CeDy2(GaNi2)5
_symmetry_space_group_name_H-M   'P 1'
_cell_length_a   3.88581395
_cell_length_b   8.88329029
_cell_length_c   8.88329029
_cell_angle_alpha   120.00000000
_cell_angle_beta   90.00000000
_cell_angle_gamma   90.00000000
_symmetry_Int_Tables_number   1
_chemical_formula_structural   CeDy2(GaNi2)5
_chemical_formula_sum   'Ce1 Dy2 Ga5 Ni10'
_cell_volume   265.55858360
_cell_formula_units_Z   1
loop_
 _symmetry_equiv_pos_site_id
 _symmetry_equiv_pos_as_xyz
  1  'x, y, z'
loop_
 _atom_site_type_symbol
 _atom_site_label
 _atom_site_symmetry_multiplicity
 _atom_site_fract_x
 _atom_site_fract_y
 _atom_site_fract_z
 _atom_site_occupancy
  Ce  Ce0  1  0.00000000  0.00000000  0.00000000  1
  Dy  Dy1  1  0.50000001  0.33333332  0.66666665  1
  Dy  Dy2  1  0.50000001  0.66666665  0.33333331  1
  Ga  Ga3  1  0.50000001  0.31697599  0.99999998  1
  Ni  Ni4  1  0.50000001  0.68302398  0.68302397  1
  Ga  Ga5  1  0.50000001  0.00000000  0.31697600  1
  Ga  Ga6  1  0.50000001  0.68302398  0.99999997  1
  Ni  Ni7  1  0.50000001  0.31697599  0.31697599  1
  Ga  Ga8  1  0.50000001  0.00000000  0.68302399  1
  Ni  Ni9  1  1.00000001  0.49999999  0.99999997  1
  Ga  Ga10  1  1.00000001  0.49999999  0.49999998  1
  Ni  Ni11  1  0.00000000  0.00000000  0.49999999  1
  Ni  Ni12  1  1.00000001  0.18088600  0.36177199  1
  Ni  Ni13  1  1.00000001  0.18088600  0.81911298  1
  Ni  Ni14  1  1.00000001  0.63822698  0.81911297  1
  Ni  Ni15  1  1.00000001  0.81911398  0.63822797  1
  Ni  Ni16  1  1.00000001  0.36177299  0.18088699  1
  Ni  Ni17  1  1.00000001  0.81911398  0.18088698  1
