# generated using pymatgen
data_LiCu2Si2BH
_symmetry_space_group_name_H-M   'P 1'
_cell_length_a   3.91735196
_cell_length_b   3.91735172
_cell_length_c   8.36116600
_cell_angle_alpha   90.00000000
_cell_angle_beta   90.00000000
_cell_angle_gamma   120.00000000
_symmetry_Int_Tables_number   1
_chemical_formula_structural   LiCu2Si2BH
_chemical_formula_sum   'Li1 Si2 Cu2 B1 H1'
_cell_volume   111.11754499
_cell_formula_units_Z   1
loop_
 _symmetry_equiv_pos_site_id
 _symmetry_equiv_pos_as_xyz
  1  'x, y, z'
loop_
 _atom_site_type_symbol
 _atom_site_label
 _atom_site_symmetry_multiplicity
 _atom_site_fract_x
 _atom_site_fract_y
 _atom_site_fract_z
 _atom_site_occupancy
  Si  Si0  1  0.66666666  0.33333332  0.67800900  1
  Si  Si1  1  0.33333330  0.66666665  0.32199100  1
  H  H2  1  0.00000000  0.00000000  0.00000000  1
  Li  Li3  1  0.00000000  0.00000000  0.85203400  1
  B  B4  1  0.00000000  0.00000000  0.14796600  1
  Cu  Cu5  1  0.66666666  0.33333332  0.39515600  1
  Cu  Cu6  1  0.33333330  0.66666665  0.60484400  1
