# generated using pymatgen
data_RbSc(WO4)2
_symmetry_space_group_name_H-M   'P 1'
_cell_length_a   5.92725420
_cell_length_b   5.92725420
_cell_length_c   8.10579681
_cell_angle_alpha   90.00000000
_cell_angle_beta   90.00000000
_cell_angle_gamma   120.00000000
_symmetry_Int_Tables_number   1
_chemical_formula_structural   RbSc(WO4)2
_chemical_formula_sum   'Rb1 Sc1 W2 O8'
_cell_volume   246.62292883
_cell_formula_units_Z   1
loop_
 _symmetry_equiv_pos_site_id
 _symmetry_equiv_pos_as_xyz
  1  'x, y, z'
loop_
 _atom_site_type_symbol
 _atom_site_label
 _atom_site_symmetry_multiplicity
 _atom_site_fract_x
 _atom_site_fract_y
 _atom_site_fract_z
 _atom_site_occupancy
  Rb  Rb0  1  0.00000000  0.00000000  0.00000000  1
  Sc  Sc1  1  0.00000000  0.00000000  0.50000001  1
  W  W2  1  0.66666666  0.33333335  0.72634602  1
  W  W3  1  0.33333335  0.66666670  0.27365401  1
  O  O4  1  0.83578700  0.67157404  0.65656902  1
  O  O5  1  0.16421301  0.32842602  0.34343101  1
  O  O6  1  0.83578698  0.16421301  0.65656902  1
  O  O7  1  0.16421303  0.83578705  0.34343101  1
  O  O8  1  0.32842600  0.16421301  0.65656902  1
  O  O9  1  0.67157401  0.83578705  0.34343101  1
  O  O10  1  0.66666666  0.33333335  0.94589402  1
  O  O11  1  0.33333335  0.66666670  0.05410600  1
