# generated using pymatgen
data_Nb10(SbIr)3
_symmetry_space_group_name_H-M   'P 1'
_cell_length_a   5.19889498
_cell_length_b   5.20215321
_cell_length_c   10.39360809
_cell_angle_alpha   90.00000000
_cell_angle_beta   90.00000000
_cell_angle_gamma   90.00000000
_symmetry_Int_Tables_number   1
_chemical_formula_structural   Nb10(SbIr)3
_chemical_formula_sum   'Nb10 Sb3 Ir3'
_cell_volume   281.09978903
_cell_formula_units_Z   1
loop_
 _symmetry_equiv_pos_site_id
 _symmetry_equiv_pos_as_xyz
  1  'x, y, z'
loop_
 _atom_site_type_symbol
 _atom_site_label
 _atom_site_symmetry_multiplicity
 _atom_site_fract_x
 _atom_site_fract_y
 _atom_site_fract_z
 _atom_site_occupancy
  Nb  Nb0  1  0.50000000  0.00000000  0.37510100  1
  Ir  Ir1  1  0.50000000  0.00000000  0.87495899  1
  Nb  Nb2  1  0.75068400  0.49999998  -0.00000000  1
  Nb  Nb3  1  0.75006400  0.49999998  0.50000000  1
  Nb  Nb4  1  0.00000000  0.74969597  0.25022800  1
  Ir  Ir5  1  0.00000000  0.74969597  0.74977199  1
  Nb  Nb6  1  0.50000000  0.00000000  0.12504100  1
  Nb  Nb7  1  0.50000000  0.00000000  0.62489899  1
  Nb  Nb8  1  0.24931600  0.49999998  -0.00000000  1
  Nb  Nb9  1  0.24993600  0.49999998  0.50000000  1
  Nb  Nb10  1  0.00000000  0.25030399  0.25022800  1
  Nb  Nb11  1  0.00000000  0.25030399  0.74977199  1
  Sb  Sb12  1  0.50000000  0.49999998  0.25013700  1
  Sb  Sb13  1  0.50000000  0.49999998  0.74986299  1
  Ir  Ir14  1  0.00000000  0.00000000  0.00000000  1
  Sb  Sb15  1  0.00000000  0.00000000  0.50000000  1
