# generated using pymatgen
data_CaMnO3
_symmetry_space_group_name_H-M   'P 1'
_cell_length_a   5.47837687
_cell_length_b   5.71097612
_cell_length_c   7.82325792
_cell_angle_alpha   90.00000000
_cell_angle_beta   90.00000000
_cell_angle_gamma   90.00000000
_symmetry_Int_Tables_number   1
_chemical_formula_structural   CaMnO3
_chemical_formula_sum   'Ca4 Mn4 O12'
_cell_volume   244.76532775
_cell_formula_units_Z   4
loop_
 _symmetry_equiv_pos_site_id
 _symmetry_equiv_pos_as_xyz
  1  'x, y, z'
loop_
 _atom_site_type_symbol
 _atom_site_label
 _atom_site_symmetry_multiplicity
 _atom_site_fract_x
 _atom_site_fract_y
 _atom_site_fract_z
 _atom_site_occupancy
  Ca  Ca0  1  0.23555901  0.44571299  0.50000000  1
  Ca  Ca1  1  0.76444102  0.94571298  0.50000000  1
  Ca  Ca2  1  0.26349001  0.56895199  -0.00000000  1
  Ca  Ca3  1  0.73651002  0.06895200  -0.00000000  1
  Mn  Mn4  1  0.75058102  0.50187599  0.75560501  1
  Mn  Mn5  1  0.24941901  0.00187600  0.24439500  1
  Mn  Mn6  1  0.75058102  0.50187599  0.24439500  1
  Mn  Mn7  1  0.24941901  0.00187600  0.75560501  1
  O  O8  1  0.13681700  0.96043598  -0.00000000  1
  O  O9  1  0.86318302  0.46043599  -0.00000000  1
  O  O10  1  0.32897701  0.01689800  0.50000000  1
  O  O11  1  0.67102302  0.51689799  0.50000000  1
  O  O12  1  0.55277201  0.80077198  0.80907201  1
  O  O13  1  0.44722801  0.30077199  0.19092800  1
  O  O14  1  0.94591402  0.20135200  0.28907100  1
  O  O15  1  0.05408600  0.70135198  0.71092901  1
  O  O16  1  0.94591402  0.20135200  0.71092901  1
  O  O17  1  0.05408600  0.70135198  0.28907100  1
  O  O18  1  0.55277201  0.80077198  0.19092800  1
  O  O19  1  0.44722801  0.30077199  0.80907201  1
