# generated using pymatgen
data_MnBeP11Ru3
_symmetry_space_group_name_H-M   'P 1'
_cell_length_a   5.54730988
_cell_length_b   5.54730988
_cell_length_c   6.47824192
_cell_angle_alpha   115.35016632
_cell_angle_beta   115.35016632
_cell_angle_gamma   90.00000000
_symmetry_Int_Tables_number   1
_chemical_formula_structural   MnBeP11Ru3
_chemical_formula_sum   'Mn1 Be1 P11 Ru3'
_cell_volume   158.65470166
_cell_formula_units_Z   1
loop_
 _symmetry_equiv_pos_site_id
 _symmetry_equiv_pos_as_xyz
  1  'x, y, z'
loop_
 _atom_site_type_symbol
 _atom_site_label
 _atom_site_symmetry_multiplicity
 _atom_site_fract_x
 _atom_site_fract_y
 _atom_site_fract_z
 _atom_site_occupancy
  Be  Be0  1  0.49999996  0.49999999  -0.00000008  1
  Ru  Ru1  1  0.00000000  0.00000000  0.00000000  1
  P  P2  1  0.19248400  0.02985700  0.72234098  1
  P  P3  1  0.52985694  0.69248398  0.72234090  1
  P  P4  1  0.69248398  0.19248400  0.72234094  1
  Ru  Ru5  1  0.02985696  0.52985699  0.72234095  1
  P  P6  1  0.80751592  0.97014298  0.27765886  1
  P  P7  1  0.47014297  0.30751599  0.27765894  1
  P  P8  1  0.30751594  0.80751598  0.27765891  1
  P  P9  1  0.97014296  0.47014299  0.27765890  1
  P  P10  1  0.11821497  0.38178499  -0.00000004  1
  P  P11  1  0.88178495  0.61821499  -0.00000011  1
  P  P12  1  0.61821499  0.11821500  -0.00000005  1
  P  P13  1  0.38178493  0.88178498  -0.00000010  1
  Mn  Mn14  1  0.24999998  0.24999999  0.49999996  1
  Ru  Ru15  1  0.74999994  0.74999998  0.49999988  1
