# generated using pymatgen
data_Mg5AlNi7
_symmetry_space_group_name_H-M   'P 1'
_cell_length_a   4.93865919
_cell_length_b   4.93865919
_cell_length_c   9.45788670
_cell_angle_alpha   74.86544037
_cell_angle_beta   74.86543274
_cell_angle_gamma   59.99999237
_symmetry_Int_Tables_number   1
_chemical_formula_structural   Mg5AlNi7
_chemical_formula_sum   'Mg5 Al1 Ni7'
_cell_volume   190.48088600
_cell_formula_units_Z   1
loop_
 _symmetry_equiv_pos_site_id
 _symmetry_equiv_pos_as_xyz
  1  'x, y, z'
loop_
 _atom_site_type_symbol
 _atom_site_label
 _atom_site_symmetry_multiplicity
 _atom_site_fract_x
 _atom_site_fract_y
 _atom_site_fract_z
 _atom_site_occupancy
  Al  Al0  1  0.00000000  0.00000000  0.00000000  1
  Mg  Mg1  1  0.16687399  0.16687400  0.49937898  1
  Mg  Mg2  1  0.83312596  0.83312599  0.50062097  1
  Mg  Mg3  1  0.34758598  0.34758600  0.95724095  1
  Mg  Mg4  1  0.65241397  0.65241399  0.04275899  1
  Mg  Mg5  1  0.45090698  0.45090699  0.64727897  1
  Ni  Ni6  1  0.54909297  0.54909299  0.35272098  1
  Ni  Ni7  1  0.09187200  0.09187200  0.23422299  1
  Ni  Ni8  1  0.09187198  0.58203399  0.23422300  1
  Ni  Ni9  1  0.58203398  0.09187200  0.23422297  1
  Ni  Ni10  1  0.90812795  0.90812799  0.76577696  1
  Ni  Ni11  1  0.90812797  0.41796599  0.76577694  1
  Ni  Ni12  1  0.41796596  0.90812799  0.76577698  1
