# generated using pymatgen
data_Tm2CdPd2
_symmetry_space_group_name_H-M   'P 1'
_cell_length_a   3.94656491
_cell_length_b   7.49467611
_cell_length_c   7.49467611
_cell_angle_alpha   90.00000000
_cell_angle_beta   90.00000000
_cell_angle_gamma   90.00000000
_symmetry_Int_Tables_number   1
_chemical_formula_structural   Tm2CdPd2
_chemical_formula_sum   'Tm4 Cd2 Pd4'
_cell_volume   221.67922223
_cell_formula_units_Z   2
loop_
 _symmetry_equiv_pos_site_id
 _symmetry_equiv_pos_as_xyz
  1  'x, y, z'
loop_
 _atom_site_type_symbol
 _atom_site_label
 _atom_site_symmetry_multiplicity
 _atom_site_fract_x
 _atom_site_fract_y
 _atom_site_fract_z
 _atom_site_occupancy
  Tm  Tm0  1  0.50000001  0.33382199  0.83382199  1
  Tm  Tm1  1  0.50000001  0.83382199  0.66617799  1
  Tm  Tm2  1  0.50000001  0.16617800  0.33382199  1
  Tm  Tm3  1  0.50000001  0.66617799  0.16617800  1
  Cd  Cd4  1  0.00000000  0.00000000  0.00000000  1
  Cd  Cd5  1  0.00000000  0.49999999  0.49999999  1
  Pd  Pd6  1  0.00000000  0.36606799  0.13393200  1
  Pd  Pd7  1  1.00000002  0.86606799  0.36606799  1
  Pd  Pd8  1  0.00000000  0.13393200  0.63393199  1
  Pd  Pd9  1  1.00000002  0.63393199  0.86606799  1
