# generated using pymatgen
data_RbAl4O7
_symmetry_space_group_name_H-M   'P 1'
_cell_length_a   5.36329603
_cell_length_b   5.36329651
_cell_length_c   9.56356335
_cell_angle_alpha   90.00000000
_cell_angle_beta   90.00000000
_cell_angle_gamma   120.00000000
_symmetry_Int_Tables_number   1
_chemical_formula_structural   RbAl4O7
_chemical_formula_sum   'Rb1 Al4 O7'
_cell_volume   238.23959767
_cell_formula_units_Z   1
loop_
 _symmetry_equiv_pos_site_id
 _symmetry_equiv_pos_as_xyz
  1  'x, y, z'
loop_
 _atom_site_type_symbol
 _atom_site_label
 _atom_site_symmetry_multiplicity
 _atom_site_fract_x
 _atom_site_fract_y
 _atom_site_fract_z
 _atom_site_occupancy
  Rb  Rb0  1  0.00000000  0.00000000  0.49999998  1
  Al  Al1  1  0.66666668  0.33333333  0.21472099  1
  Al  Al2  1  0.33333336  0.66666666  0.21472099  1
  Al  Al3  1  0.33333336  0.66666666  0.78527897  1
  Al  Al4  1  0.66666668  0.33333333  0.78527897  1
  O  O5  1  0.00000000  0.00000000  0.00000000  1
  O  O6  1  0.50000000  0.00000000  0.68091698  1
  O  O7  1  0.00000002  0.50000000  0.31908299  1
  O  O8  1  0.50000000  0.00000000  0.31908299  1
  O  O9  1  0.50000002  0.50000000  0.31908299  1
  O  O10  1  0.00000002  0.50000000  0.68091698  1
  O  O11  1  0.50000002  0.50000000  0.68091698  1
