# generated using pymatgen
data_Lu4MnRhS7O
_symmetry_space_group_name_H-M   'P 1'
_cell_length_a   6.98743820
_cell_length_b   6.98743820
_cell_length_c   6.98743820
_cell_angle_alpha   60.00000000
_cell_angle_beta   60.00000000
_cell_angle_gamma   60.00000000
_symmetry_Int_Tables_number   1
_chemical_formula_structural   Lu4MnRhS7O
_chemical_formula_sum   'Lu4 Mn1 Rh1 S7 O1'
_cell_volume   241.23423544
_cell_formula_units_Z   1
loop_
 _symmetry_equiv_pos_site_id
 _symmetry_equiv_pos_as_xyz
  1  'x, y, z'
loop_
 _atom_site_type_symbol
 _atom_site_label
 _atom_site_symmetry_multiplicity
 _atom_site_fract_x
 _atom_site_fract_y
 _atom_site_fract_z
 _atom_site_occupancy
  Rh  Rh0  1  0.25000000  0.25000000  0.25000000  1
  Mn  Mn1  1  0.50000001  0.50000001  0.50000001  1
  Lu  Lu2  1  0.87500001  0.37500000  0.87500001  1
  Lu  Lu3  1  0.87500001  0.87500001  0.87500001  1
  Lu  Lu4  1  0.87500001  0.87500001  0.37500000  1
  Lu  Lu5  1  0.37500000  0.87500001  0.87500001  1
  S  S6  1  0.11571100  0.11571200  0.11571200  1
  S  S7  1  0.63428901  0.09713500  0.63428801  1
  S  S8  1  0.09713600  0.63428801  0.63428801  1
  S  S9  1  0.63428901  0.63428801  0.09713500  1
  S  S10  1  0.65286401  0.11571200  0.11571200  1
  S  S11  1  0.11571100  0.11571200  0.65286501  1
  O  O12  1  0.63428901  0.63428801  0.63428801  1
  S  S13  1  0.11571100  0.65286501  0.11571200  1
