# generated using pymatgen
data_KAu3
_symmetry_space_group_name_H-M   'P 1'
_cell_length_a   6.42554617
_cell_length_b   6.42554617
_cell_length_c   8.85494518
_cell_angle_alpha   111.27363586
_cell_angle_beta   111.27363586
_cell_angle_gamma   90.00000000
_symmetry_Int_Tables_number   1
_chemical_formula_structural   KAu3
_chemical_formula_sum   'K3 Au9'
_cell_volume   313.80301586
_cell_formula_units_Z   3
loop_
 _symmetry_equiv_pos_site_id
 _symmetry_equiv_pos_as_xyz
  1  'x, y, z'
loop_
 _atom_site_type_symbol
 _atom_site_label
 _atom_site_symmetry_multiplicity
 _atom_site_fract_x
 _atom_site_fract_y
 _atom_site_fract_z
 _atom_site_occupancy
  K  K0  1  0.00000000  0.00000000  0.00000000  1
  K  K1  1  0.37208901  0.87208899  0.74417802  1
  K  K2  1  0.12791101  0.62791099  0.25582201  1
  Au  Au3  1  0.50000000  0.49999999  0.00000002  1
  Au  Au4  1  0.43072700  0.22324300  0.44648601  1
  Au  Au5  1  0.77675700  0.56927299  0.55351502  1
  Au  Au6  1  0.77675700  0.98424098  0.55351403  1
  Au  Au7  1  0.01575800  0.22324200  0.44648500  1
  Au  Au8  1  0.69729699  0.39122899  0.78245701  1
  Au  Au9  1  0.60877199  0.30270400  0.21754401  1
  Au  Au10  1  0.60877201  0.91483999  0.21754303  1
  Au  Au11  1  0.08516001  0.39122799  0.78245600  1
