# generated using pymatgen
data_AlTe7
_symmetry_space_group_name_H-M   'P 1'
_cell_length_a   6.28464508
_cell_length_b   7.49463415
_cell_length_c   7.49463463
_cell_angle_alpha   60.00000381
_cell_angle_beta   90.00000000
_cell_angle_gamma   90.00000000
_symmetry_Int_Tables_number   1
_chemical_formula_structural   AlTe7
_chemical_formula_sum   'Al1 Te7'
_cell_volume   305.71187440
_cell_formula_units_Z   1
loop_
 _symmetry_equiv_pos_site_id
 _symmetry_equiv_pos_as_xyz
  1  'x, y, z'
loop_
 _atom_site_type_symbol
 _atom_site_label
 _atom_site_symmetry_multiplicity
 _atom_site_fract_x
 _atom_site_fract_y
 _atom_site_fract_z
 _atom_site_occupancy
  Te  Te0  1  0.49999999  0.00000000  0.00000000  1
  Te  Te1  1  0.00000000  0.00000000  0.00000000  1
  Al  Al2  1  0.25000000  0.00000000  0.29606699  1
  Te  Te3  1  0.74999999  0.29606699  0.99999999  1
  Te  Te4  1  0.74999999  0.00000000  0.70393299  1
  Te  Te5  1  0.25000000  0.70393297  0.00000002  1
  Te  Te6  1  0.25000000  0.29606699  0.70393300  1
  Te  Te7  1  0.74999999  0.70393297  0.29606702  1
