# generated using pymatgen
data_LaNiSn2Ge
_symmetry_space_group_name_H-M   'P 1'
_cell_length_a   4.60879993
_cell_length_b   4.60879993
_cell_length_c   6.11690235
_cell_angle_alpha   112.13106537
_cell_angle_beta   112.13106537
_cell_angle_gamma   90.00000000
_symmetry_Int_Tables_number   1
_chemical_formula_structural   LaNiSn2Ge
_chemical_formula_sum   'La1 Ni1 Sn2 Ge1'
_cell_volume   109.95387220
_cell_formula_units_Z   1
loop_
 _symmetry_equiv_pos_site_id
 _symmetry_equiv_pos_as_xyz
  1  'x, y, z'
loop_
 _atom_site_type_symbol
 _atom_site_label
 _atom_site_symmetry_multiplicity
 _atom_site_fract_x
 _atom_site_fract_y
 _atom_site_fract_z
 _atom_site_occupancy
  La  La0  1  0.58985096  0.58985099  0.17970193  1
  Ge  Ge1  1  0.00174400  0.00174400  0.00348800  1
  Sn  Sn2  1  0.34114094  0.84114098  0.68228193  1
  Sn  Sn3  1  0.84114097  0.34114099  0.68228194  1
  Ni  Ni4  1  0.24112398  0.24112399  0.48224797  1
