# generated using pymatgen
data_LiCa4Cu3O8
_symmetry_space_group_name_H-M   'P 1'
_cell_length_a   3.44881511
_cell_length_b   5.36572790
_cell_length_c   11.41555977
_cell_angle_alpha   90.00000000
_cell_angle_beta   90.00000000
_cell_angle_gamma   90.00000000
_symmetry_Int_Tables_number   1
_chemical_formula_structural   LiCa4Cu3O8
_chemical_formula_sum   'Li1 Ca4 Cu3 O8'
_cell_volume   211.24953911
_cell_formula_units_Z   1
loop_
 _symmetry_equiv_pos_site_id
 _symmetry_equiv_pos_as_xyz
  1  'x, y, z'
loop_
 _atom_site_type_symbol
 _atom_site_label
 _atom_site_symmetry_multiplicity
 _atom_site_fract_x
 _atom_site_fract_y
 _atom_site_fract_z
 _atom_site_occupancy
  Li  Li0  1  0.74999998  0.40167101  0.06559500  1
  Cu  Cu1  1  0.24999999  0.90167102  0.43440501  1
  Cu  Cu2  1  0.74999998  0.09832900  0.56559501  1
  Cu  Cu3  1  0.24999999  0.59832901  0.93440502  1
  Ca  Ca4  1  0.24999999  0.54750901  0.64046201  1
  Ca  Ca5  1  0.74999998  0.45249101  0.35953801  1
  Ca  Ca6  1  0.74999998  0.04750900  0.85953802  1
  Ca  Ca7  1  0.24999999  0.95249102  0.14046200  1
  O  O8  1  0.24999999  0.24426700  0.97386402  1
  O  O9  1  0.24999999  0.25573300  0.47386401  1
  O  O10  1  0.74999998  0.75573301  0.02613600  1
  O  O11  1  0.74999998  0.74426701  0.52613601  1
  O  O12  1  0.24999999  0.80666601  0.79607302  1
  O  O13  1  0.74999998  0.19333400  0.20392700  1
  O  O14  1  0.74999998  0.30666601  0.70392701  1
  O  O15  1  0.24999999  0.69333401  0.29607301  1
