# generated using pymatgen
data_NaTl(GaS2)2
_symmetry_space_group_name_H-M   'P 1'
_cell_length_a   3.54416609
_cell_length_b   3.54416609
_cell_length_c   13.75339985
_cell_angle_alpha   90.00000000
_cell_angle_beta   90.00000000
_cell_angle_gamma   120.00000000
_symmetry_Int_Tables_number   1
_chemical_formula_structural   NaTl(GaS2)2
_chemical_formula_sum   'Na1 Tl1 Ga2 S4'
_cell_volume   149.61282815
_cell_formula_units_Z   1
loop_
 _symmetry_equiv_pos_site_id
 _symmetry_equiv_pos_as_xyz
  1  'x, y, z'
loop_
 _atom_site_type_symbol
 _atom_site_label
 _atom_site_symmetry_multiplicity
 _atom_site_fract_x
 _atom_site_fract_y
 _atom_site_fract_z
 _atom_site_occupancy
  Na  Na0  1  0.66666666  0.33333335  0.25000000  1
  Tl  Tl1  1  0.33333335  0.66666670  0.75000001  1
  Ga  Ga2  1  0.00000000  0.00000000  0.00000000  1
  Ga  Ga3  1  0.00000000  0.00000000  0.50000001  1
  S  S4  1  0.66666666  0.33333335  0.58180601  1
  S  S5  1  0.66666666  0.33333335  0.91819401  1
  S  S6  1  0.33333335  0.66666670  0.41819400  1
  S  S7  1  0.33333335  0.66666670  0.08180600  1
