# generated using pymatgen
data_Ce(MnAl2)4
_symmetry_space_group_name_H-M   'P 1'
_cell_length_a   5.11984396
_cell_length_b   6.72034359
_cell_length_c   6.72034359
_cell_angle_alpha   81.65686798
_cell_angle_beta   67.60923767
_cell_angle_gamma   67.60923004
_symmetry_Int_Tables_number   1
_chemical_formula_structural   Ce(MnAl2)4
_chemical_formula_sum   'Ce1 Mn4 Al8'
_cell_volume   197.67622714
_cell_formula_units_Z   1
loop_
 _symmetry_equiv_pos_site_id
 _symmetry_equiv_pos_as_xyz
  1  'x, y, z'
loop_
 _atom_site_type_symbol
 _atom_site_label
 _atom_site_symmetry_multiplicity
 _atom_site_fract_x
 _atom_site_fract_y
 _atom_site_fract_z
 _atom_site_occupancy
  Ce  Ce0  1  0.00000000  0.00000000  0.00000000  1
  Al  Al1  1  0.28195300  0.21804701  0.21804700  1
  Al  Al2  1  0.50000000  0.78195302  0.21804701  1
  Al  Al3  1  -0.00000000  0.65238302  0.34761700  1
  Al  Al4  1  0.65238300  0.34761701  0.34761700  1
  Al  Al5  1  -0.00000000  0.34761701  0.65238299  1
  Al  Al6  1  0.34761700  0.65238302  0.65238299  1
  Al  Al7  1  0.50000000  0.21804701  0.78195298  1
  Al  Al8  1  0.71804700  0.78195302  0.78195299  1
  Mn  Mn9  1  -0.00000000  0.50000001  0.00000001  1
  Mn  Mn10  1  0.50000000  0.50000001  0.00000001  1
  Mn  Mn11  1  0.50000000  1.00000002  0.50000001  1
  Mn  Mn12  1  1.00000001  0.00000000  0.49999998  1
