# generated using pymatgen
data_K2WI6
_symmetry_space_group_name_H-M   'P 1'
_cell_length_a   8.00736713
_cell_length_b   8.06790829
_cell_length_c   11.65005207
_cell_angle_alpha   90.00000000
_cell_angle_beta   89.51507568
_cell_angle_gamma   90.00000000
_symmetry_Int_Tables_number   1
_chemical_formula_structural   K2WI6
_chemical_formula_sum   'K4 W2 I12'
_cell_volume   752.59790595
_cell_formula_units_Z   2
loop_
 _symmetry_equiv_pos_site_id
 _symmetry_equiv_pos_as_xyz
  1  'x, y, z'
loop_
 _atom_site_type_symbol
 _atom_site_label
 _atom_site_symmetry_multiplicity
 _atom_site_fract_x
 _atom_site_fract_y
 _atom_site_fract_z
 _atom_site_occupancy
  K  K0  1  0.98528198  0.45687598  0.74898905  1
  K  K1  1  0.51471799  0.95687597  0.75101103  1
  K  K2  1  0.48528199  0.04312400  0.24898902  1
  K  K3  1  0.01471800  0.54312398  0.25101100  1
  W  W4  1  0.00000000  0.00000000  0.00000000  1
  W  W5  1  0.49999999  0.49999998  0.50000003  1
  I  I6  1  0.27827000  0.80184497  0.02608701  1
  I  I7  1  0.45021499  0.49880498  0.73434703  1
  I  I8  1  0.54978499  0.50119498  0.26565303  1
  I  I9  1  0.19655700  0.27926699  0.01954501  1
  I  I10  1  0.22173000  0.30184499  0.47391302  1
  I  I11  1  0.69655699  0.22073299  0.51954504  1
  I  I12  1  0.72172999  0.19815499  0.97391304  1
  I  I13  1  0.30344299  0.77926697  0.48045502  1
  I  I14  1  0.80344299  0.72073297  0.98045505  1
  I  I15  1  0.04978500  0.99880496  0.76565301  1
  I  I16  1  0.95021498  0.00119500  0.23434704  1
  I  I17  1  0.77826999  0.69815498  0.52608704  1
