# generated using pymatgen
data_Hf2Ni7
_symmetry_space_group_name_H-M   'P 1'
_cell_length_a   4.66883135
_cell_length_b   4.73313046
_cell_length_c   6.26332521
_cell_angle_alpha   82.16819000
_cell_angle_beta   73.96142578
_cell_angle_gamma   60.44836807
_symmetry_Int_Tables_number   1
_chemical_formula_structural   Hf2Ni7
_chemical_formula_sum   'Hf2 Ni7'
_cell_volume   115.71627194
_cell_formula_units_Z   1
loop_
 _symmetry_equiv_pos_site_id
 _symmetry_equiv_pos_as_xyz
  1  'x, y, z'
loop_
 _atom_site_type_symbol
 _atom_site_label
 _atom_site_symmetry_multiplicity
 _atom_site_fract_x
 _atom_site_fract_y
 _atom_site_fract_z
 _atom_site_occupancy
  Hf  Hf0  1  0.10035000  0.00000000  0.23185801  1
  Hf  Hf1  1  0.89965002  0.00000000  0.76814205  1
  Ni  Ni2  1  0.50000001  0.49999999  0.50000005  1
  Ni  Ni3  1  -0.00000001  0.49999999  0.50000003  1
  Ni  Ni4  1  0.54490001  0.66394699  0.84506407  1
  Ni  Ni5  1  0.20884700  0.33605299  0.84506404  1
  Ni  Ni6  1  0.45510001  0.33605299  0.15493603  1
  Ni  Ni7  1  0.79115301  0.66394699  0.15493606  1
  Ni  Ni8  1  0.50000001  0.00000000  0.50000003  1
