# generated using pymatgen
data_MnNb6B7
_symmetry_space_group_name_H-M   'P 1'
_cell_length_a   3.16269708
_cell_length_b   4.52843142
_cell_length_c   10.79061222
_cell_angle_alpha   90.00000000
_cell_angle_beta   90.00000000
_cell_angle_gamma   110.43865967
_symmetry_Int_Tables_number   1
_chemical_formula_structural   MnNb6B7
_chemical_formula_sum   'Mn1 Nb6 B7'
_cell_volume   144.81470302
_cell_formula_units_Z   1
loop_
 _symmetry_equiv_pos_site_id
 _symmetry_equiv_pos_as_xyz
  1  'x, y, z'
loop_
 _atom_site_type_symbol
 _atom_site_label
 _atom_site_symmetry_multiplicity
 _atom_site_fract_x
 _atom_site_fract_y
 _atom_site_fract_z
 _atom_site_occupancy
  Mn  Mn0  1  0.49999999  0.00000000  0.49999999  1
  B  B1  1  0.49999999  0.00000000  0.00000000  1
  B  B2  1  0.91343599  0.82687197  0.39701799  1
  B  B3  1  0.08656400  0.17312799  0.60298199  1
  B  B4  1  0.91343599  0.82687197  0.10298200  1
  B  B5  1  0.08656400  0.17312799  0.89701798  1
  B  B6  1  0.79142899  0.58285898  0.24999999  1
  B  B7  1  0.20857100  0.41714098  0.74999998  1
  Nb  Nb8  1  0.21207500  0.42414998  0.39276899  1
  Nb  Nb9  1  0.78792499  0.57584998  0.60723099  1
  Nb  Nb10  1  0.21207500  0.42414998  0.10723100  1
  Nb  Nb11  1  0.78792499  0.57584998  0.89276898  1
  Nb  Nb12  1  0.49713701  0.99427296  0.24999999  1
  Nb  Nb13  1  0.50286299  0.00572700  0.74999998  1
