# generated using pymatgen
data_La2AlPd
_symmetry_space_group_name_H-M   'P 1'
_cell_length_a   5.37226820
_cell_length_b   5.99084330
_cell_length_c   5.99084330
_cell_angle_alpha   102.72998047
_cell_angle_beta   90.00000000
_cell_angle_gamma   90.00000000
_symmetry_Int_Tables_number   1
_chemical_formula_structural   La2AlPd
_chemical_formula_sum   'La4 Al2 Pd2'
_cell_volume   188.07236372
_cell_formula_units_Z   2
loop_
 _symmetry_equiv_pos_site_id
 _symmetry_equiv_pos_as_xyz
  1  'x, y, z'
loop_
 _atom_site_type_symbol
 _atom_site_label
 _atom_site_symmetry_multiplicity
 _atom_site_fract_x
 _atom_site_fract_y
 _atom_site_fract_z
 _atom_site_occupancy
  La  La0  1  0.74999997  0.36862600  0.98630999  1
  La  La1  1  0.24999999  0.63137399  0.01368999  1
  La  La2  1  0.74999997  0.98630999  0.36862599  1
  La  La3  1  0.24999999  0.01369000  0.63137400  1
  Pd  Pd4  1  0.74999997  0.82640999  0.82640999  1
  Pd  Pd5  1  0.24999999  0.17359000  0.17359000  1
  Al  Al6  1  0.99999996  0.50000000  0.49999999  1
  Al  Al7  1  0.49999998  0.50000000  0.49999999  1
