# generated using pymatgen
data_La9Sb3O2
_symmetry_space_group_name_H-M   'P 1'
_cell_length_a   4.93531990
_cell_length_b   4.93531990
_cell_length_c   14.98903561
_cell_angle_alpha   99.47579956
_cell_angle_beta   99.47579956
_cell_angle_gamma   90.00000000
_symmetry_Int_Tables_number   1
_chemical_formula_structural   La9Sb3O2
_chemical_formula_sum   'La9 Sb3 O2'
_cell_volume   355.06054552
_cell_formula_units_Z   1
loop_
 _symmetry_equiv_pos_site_id
 _symmetry_equiv_pos_as_xyz
  1  'x, y, z'
loop_
 _atom_site_type_symbol
 _atom_site_label
 _atom_site_symmetry_multiplicity
 _atom_site_fract_x
 _atom_site_fract_y
 _atom_site_fract_z
 _atom_site_occupancy
  La  La0  1  0.16883200  0.66883201  0.33766399  1
  La  La1  1  0.00079600  0.50079601  0.00159200  1
  La  La2  1  0.33116801  0.83116802  0.66233598  1
  La  La3  1  0.41883201  0.41883201  0.83766398  1
  La  La4  1  0.58116801  0.58116801  0.16233599  1
  La  La5  1  0.49920401  0.99920402  0.99840797  1
  La  La6  1  0.74920401  0.74920401  0.49840799  1
  La  La7  1  0.25079600  0.25079600  0.50159199  1
  La  La8  1  0.90950202  0.90950202  0.81900398  1
  Sb  Sb9  1  0.65950201  0.15950200  0.31900399  1
  Sb  Sb10  1  0.09049800  0.09049800  0.18099600  1
  Sb  Sb11  1  0.84049802  0.34049801  0.68099598  1
  O  O12  1  0.25000000  0.75000001  0.49999999  1
  O  O13  1  0.50000001  0.50000001  -0.00000000  1
