# generated using pymatgen
data_Nb3CrC4
_symmetry_space_group_name_H-M   'P 1'
_cell_length_a   3.24809790
_cell_length_b   5.04167223
_cell_length_c   5.64088297
_cell_angle_alpha   89.61723328
_cell_angle_beta   90.00000000
_cell_angle_gamma   90.00000000
_symmetry_Int_Tables_number   1
_chemical_formula_structural   Nb3CrC4
_chemical_formula_sum   'Nb3 Cr1 C4'
_cell_volume   92.37216366
_cell_formula_units_Z   1
loop_
 _symmetry_equiv_pos_site_id
 _symmetry_equiv_pos_as_xyz
  1  'x, y, z'
loop_
 _atom_site_type_symbol
 _atom_site_label
 _atom_site_symmetry_multiplicity
 _atom_site_fract_x
 _atom_site_fract_y
 _atom_site_fract_z
 _atom_site_occupancy
  Cr  Cr0  1  0.50000002  0.99998295  0.20060802  1
  Nb  Nb1  1  0.00000000  0.49784998  0.70337300  1
  Nb  Nb2  1  0.00000000  0.99674495  0.80004701  1
  Nb  Nb3  1  0.50000002  0.50148398  0.30138401  1
  C  C4  1  0.50000002  0.70000397  0.91295500  1
  C  C5  1  0.50000002  0.18515199  0.58148899  1
  C  C6  1  0.00000000  0.29857899  0.07337201  1
  C  C7  1  0.00000000  0.82020296  0.42677301  1
