# generated using pymatgen
data_Mg8ZrGa7
_symmetry_space_group_name_H-M   'P 1'
_cell_length_a   5.24313021
_cell_length_b   7.88231134
_cell_length_c   7.94967842
_cell_angle_alpha   83.70326996
_cell_angle_beta   70.74518585
_cell_angle_gamma   70.57404327
_symmetry_Int_Tables_number   1
_chemical_formula_structural   Mg8ZrGa7
_chemical_formula_sum   'Mg8 Zr1 Ga7'
_cell_volume   292.50876203
_cell_formula_units_Z   1
loop_
 _symmetry_equiv_pos_site_id
 _symmetry_equiv_pos_as_xyz
  1  'x, y, z'
loop_
 _atom_site_type_symbol
 _atom_site_label
 _atom_site_symmetry_multiplicity
 _atom_site_fract_x
 _atom_site_fract_y
 _atom_site_fract_z
 _atom_site_occupancy
  Zr  Zr0  1  0.06916797  0.21279501  0.64886902  1
  Mg  Mg1  1  0.93630287  0.78651602  0.34087805  1
  Mg  Mg2  1  0.57395390  0.64658902  0.20550304  1
  Mg  Mg3  1  0.42042594  0.36405501  0.79509303  1
  Mg  Mg4  1  0.77945690  0.64658902  0.79449704  1
  Mg  Mg5  1  0.21551895  0.36405501  0.20490703  1
  Mg  Mg6  1  0.71803695  0.21279501  0.35113100  1
  Mg  Mg7  1  0.27718089  0.78651602  0.65912206  1
  Mg  Mg8  1  0.25474987  0.98841703  0.00000008  1
  Ga  Ga9  1  0.75683285  0.98841703  0.00000007  1
  Ga  Ga10  1  0.83372393  0.33255201  0.00000001  1
  Ga  Ga11  1  0.66835298  0.00229000  0.66100399  1
  Ga  Ga12  1  0.32935699  0.00229000  0.33899600  1
  Ga  Ga13  1  0.24943393  0.50113202  0.50000004  1
  Ga  Ga14  1  0.74943391  0.50113202  0.50000003  1
  Ga  Ga15  1  0.16807091  0.66385802  0.00000005  1
