# generated using pymatgen
data_TmGeIr
_symmetry_space_group_name_H-M   'P 1'
_cell_length_a   4.26024485
_cell_length_b   6.93366194
_cell_length_c   7.38183308
_cell_angle_alpha   90.00000000
_cell_angle_beta   90.00000000
_cell_angle_gamma   90.00000000
_symmetry_Int_Tables_number   1
_chemical_formula_structural   TmGeIr
_chemical_formula_sum   'Tm4 Ge4 Ir4'
_cell_volume   218.05268724
_cell_formula_units_Z   4
loop_
 _symmetry_equiv_pos_site_id
 _symmetry_equiv_pos_as_xyz
  1  'x, y, z'
loop_
 _atom_site_type_symbol
 _atom_site_label
 _atom_site_symmetry_multiplicity
 _atom_site_fract_x
 _atom_site_fract_y
 _atom_site_fract_z
 _atom_site_occupancy
  Tm  Tm0  1  0.25000001  0.49850900  0.18921300  1
  Tm  Tm1  1  0.75000003  0.50149100  0.81078699  1
  Tm  Tm2  1  0.75000003  0.00149100  0.68921299  1
  Tm  Tm3  1  0.25000001  0.99850901  0.31078700  1
  Ge  Ge4  1  0.25000001  0.79613801  0.89575699  1
  Ge  Ge5  1  0.75000003  0.20386200  0.10424300  1
  Ge  Ge6  1  0.75000003  0.70386201  0.39575700  1
  Ge  Ge7  1  0.25000001  0.29613800  0.60424299  1
  Ir  Ir8  1  0.25000001  0.65398201  0.56965099  1
  Ir  Ir9  1  0.75000003  0.34601800  0.43034900  1
  Ir  Ir10  1  0.75000003  0.84601801  0.06965100  1
  Ir  Ir11  1  0.25000001  0.15398200  0.93034899  1
