# generated using pymatgen
data_K2MgSnP2HO7
_symmetry_space_group_name_H-M   'P 1'
_cell_length_a   5.21460819
_cell_length_b   5.45029116
_cell_length_c   7.66533327
_cell_angle_alpha   89.50502777
_cell_angle_beta   109.88554382
_cell_angle_gamma   90.00000000
_symmetry_Int_Tables_number   1
_chemical_formula_structural   K2MgSnP2HO7
_chemical_formula_sum   'K2 Mg1 Sn1 P2 H1 O7'
_cell_volume   204.85883737
_cell_formula_units_Z   1
loop_
 _symmetry_equiv_pos_site_id
 _symmetry_equiv_pos_as_xyz
  1  'x, y, z'
loop_
 _atom_site_type_symbol
 _atom_site_label
 _atom_site_symmetry_multiplicity
 _atom_site_fract_x
 _atom_site_fract_y
 _atom_site_fract_z
 _atom_site_occupancy
  Mg  Mg0  1  0.29852899  0.18591399  0.49996200  1
  Sn  Sn1  1  0.79856695  0.81408597  0.50003797  1
  K  K2  1  0.10891798  0.74835198  0.19081997  1
  K  K3  1  0.91809796  0.25164799  0.80918000  1
  P  P4  1  0.41754397  0.68824098  0.71984497  1
  P  P5  1  0.69769897  0.31175899  0.28015499  1
  O  O6  1  0.42187997  0.76649798  0.89719397  1
  H  H7  1  0.52468598  0.23350199  0.10280599  1
  O  O8  1  0.20677497  0.85297297  0.57544896  1
  O  O9  1  0.33849098  0.41512499  0.70494399  1
  O  O10  1  0.71172696  0.72629198  0.72051497  1
  O  O11  1  0.99121196  0.27370799  0.27948500  1
  O  O12  1  0.63354697  0.58487498  0.29505598  1
  O  O13  1  0.63132598  0.14702700  0.42455100  1
