# generated using pymatgen
data_Al2CuTe4
_symmetry_space_group_name_H-M   'P 1'
_cell_length_a   4.17206144
_cell_length_b   7.26649761
_cell_length_c   7.30808640
_cell_angle_alpha   98.58904266
_cell_angle_beta   90.00000000
_cell_angle_gamma   106.68292999
_symmetry_Int_Tables_number   1
_chemical_formula_structural   Al2CuTe4
_chemical_formula_sum   'Al2 Cu1 Te4'
_cell_volume   209.63307673
_cell_formula_units_Z   1
loop_
 _symmetry_equiv_pos_site_id
 _symmetry_equiv_pos_as_xyz
  1  'x, y, z'
loop_
 _atom_site_type_symbol
 _atom_site_label
 _atom_site_symmetry_multiplicity
 _atom_site_fract_x
 _atom_site_fract_y
 _atom_site_fract_z
 _atom_site_occupancy
  Te  Te0  1  0.99801203  0.99602397  0.98341896  1
  Cu  Cu1  1  0.25087601  0.50175299  0.73710998  1
  Al  Al2  1  0.49685602  0.99371197  0.51693295  1
  Te  Te3  1  0.30910001  0.61819998  0.41856097  1
  Te  Te4  1  0.57389601  0.14779300  0.19190999  1
  Al  Al5  1  0.80474102  0.60948198  0.96633698  1
  Te  Te6  1  0.06651800  0.13303600  0.68573100  1
