# generated using pymatgen
data_NaCaWF11
_symmetry_space_group_name_H-M   'P 1'
_cell_length_a   5.85456705
_cell_length_b   5.85456705
_cell_length_c   7.99087000
_cell_angle_alpha   70.21934509
_cell_angle_beta   70.21934509
_cell_angle_gamma   72.46371460
_symmetry_Int_Tables_number   1
_chemical_formula_structural   NaCaWF11
_chemical_formula_sum   'Na1 Ca1 W1 F11'
_cell_volume   237.06894306
_cell_formula_units_Z   1
loop_
 _symmetry_equiv_pos_site_id
 _symmetry_equiv_pos_as_xyz
  1  'x, y, z'
loop_
 _atom_site_type_symbol
 _atom_site_label
 _atom_site_symmetry_multiplicity
 _atom_site_fract_x
 _atom_site_fract_y
 _atom_site_fract_z
 _atom_site_occupancy
  Na  Na0  1  0.53317300  0.46682702  0.24999998  1
  Ca  Ca1  1  0.46682699  0.53317302  0.74999997  1
  F  F2  1  0.00000000  0.00000000  0.00000000  1
  W  W3  1  0.00000000  0.00000000  0.49999999  1
  F  F4  1  0.10894296  0.89105704  0.74999997  1
  F  F5  1  0.89105703  0.10894300  0.24999998  1
  F  F6  1  0.73219099  0.78275603  0.62960996  1
  F  F7  1  0.21724400  0.26780901  0.87038998  1
  F  F8  1  0.68358401  0.29487101  0.96920296  1
  F  F9  1  0.70512901  0.31641601  0.53079697  1
  F  F10  1  0.31641598  0.70512903  0.03079698  1
  F  F11  1  0.29487098  0.68358403  0.46920298  1
  F  F12  1  0.78275600  0.73219103  0.12960997  1
  F  F13  1  0.26780900  0.21724401  0.37038998  1
