# generated using pymatgen
data_Li2I
_symmetry_space_group_name_H-M   'P 1'
_cell_length_a   3.08425808
_cell_length_b   5.51746130
_cell_length_c   7.11099339
_cell_angle_alpha   107.87731934
_cell_angle_beta   90.00000000
_cell_angle_gamma   106.23034668
_symmetry_Int_Tables_number   1
_chemical_formula_structural   Li2I
_chemical_formula_sum   'Li4 I2'
_cell_volume   110.08847963
_cell_formula_units_Z   2
loop_
 _symmetry_equiv_pos_site_id
 _symmetry_equiv_pos_as_xyz
  1  'x, y, z'
loop_
 _atom_site_type_symbol
 _atom_site_label
 _atom_site_symmetry_multiplicity
 _atom_site_fract_x
 _atom_site_fract_y
 _atom_site_fract_z
 _atom_site_occupancy
  Li  Li0  1  0.52170598  0.04341200  0.78038101  1
  I  I1  1  0.47829388  0.95658798  0.21961904  1
  I  I2  1  0.14697296  0.29394599  0.54347502  1
  Li  Li3  1  0.85302690  0.70605398  0.45652503  1
  Li  Li4  1  0.17994796  0.35989599  0.11769401  1
  Li  Li5  1  0.82005191  0.64010399  0.88230603  1
