# generated using pymatgen
data_LuB2Ru
_symmetry_space_group_name_H-M   'P 1'
_cell_length_a   5.35173607
_cell_length_b   5.93961811
_cell_length_c   6.37029791
_cell_angle_alpha   90.00000000
_cell_angle_beta   90.00000000
_cell_angle_gamma   90.00000000
_symmetry_Int_Tables_number   1
_chemical_formula_structural   LuB2Ru
_chemical_formula_sum   'Lu4 B8 Ru4'
_cell_volume   202.49436991
_cell_formula_units_Z   4
loop_
 _symmetry_equiv_pos_site_id
 _symmetry_equiv_pos_as_xyz
  1  'x, y, z'
loop_
 _atom_site_type_symbol
 _atom_site_label
 _atom_site_symmetry_multiplicity
 _atom_site_fract_x
 _atom_site_fract_y
 _atom_site_fract_z
 _atom_site_occupancy
  Lu  Lu0  1  0.25000000  0.00947700  0.33803300  1
  Lu  Lu1  1  0.25000000  0.50947699  0.16196700  1
  Lu  Lu2  1  0.74999999  0.99052298  0.66196701  1
  Lu  Lu3  1  0.74999999  0.49052299  0.83803301  1
  B  B4  1  0.08470700  0.37020999  0.53898901  1
  B  B5  1  0.41529299  0.87020998  0.96101101  1
  B  B6  1  0.58470699  0.62978999  0.46101101  1
  B  B7  1  0.91529299  0.12979000  0.03898900  1
  B  B8  1  0.91529299  0.62978999  0.46101101  1
  B  B9  1  0.58470699  0.12979000  0.03898900  1
  B  B10  1  0.41529299  0.37020999  0.53898901  1
  B  B11  1  0.08470700  0.87020998  0.96101101  1
  Ru  Ru12  1  0.25000000  0.18119000  0.81899101  1
  Ru  Ru13  1  0.25000000  0.68118999  0.68100901  1
  Ru  Ru14  1  0.74999999  0.81880998  0.18100900  1
  Ru  Ru15  1  0.74999999  0.31880999  0.31899100  1
