# generated using pymatgen
data_TlFe2S3
_symmetry_space_group_name_H-M   'P 1'
_cell_length_a   3.13609409
_cell_length_b   5.46347380
_cell_length_c   5.46347475
_cell_angle_alpha   120.00000000
_cell_angle_beta   90.00000000
_cell_angle_gamma   90.00000000
_symmetry_Int_Tables_number   1
_chemical_formula_structural   TlFe2S3
_chemical_formula_sum   'Tl1 Fe2 S3'
_cell_volume   81.06950495
_cell_formula_units_Z   1
loop_
 _symmetry_equiv_pos_site_id
 _symmetry_equiv_pos_as_xyz
  1  'x, y, z'
loop_
 _atom_site_type_symbol
 _atom_site_label
 _atom_site_symmetry_multiplicity
 _atom_site_fract_x
 _atom_site_fract_y
 _atom_site_fract_z
 _atom_site_occupancy
  Tl  Tl0  1  0.00000000  0.00000000  0.00000000  1
  Fe  Fe1  1  0.99999997  0.33333336  0.66666668  1
  Fe  Fe2  1  0.99999997  0.66666672  0.33333338  1
  S  S3  1  0.49999999  0.50000004  1.00000002  1
  S  S4  1  0.49999999  0.50000004  0.50000003  1
  S  S5  1  0.49999999  0.00000000  0.49999999  1
