# generated using pymatgen
data_EuCl2
_symmetry_space_group_name_H-M   'P 1'
_cell_length_a   3.62317753
_cell_length_b   3.62317753
_cell_length_c   9.10015583
_cell_angle_alpha   78.51727295
_cell_angle_beta   78.51727295
_cell_angle_gamma   60.00000763
_symmetry_Int_Tables_number   1
_chemical_formula_structural   EuCl2
_chemical_formula_sum   'Eu1 Cl2'
_cell_volume   100.68631299
_cell_formula_units_Z   1
loop_
 _symmetry_equiv_pos_site_id
 _symmetry_equiv_pos_as_xyz
  1  'x, y, z'
loop_
 _atom_site_type_symbol
 _atom_site_label
 _atom_site_symmetry_multiplicity
 _atom_site_fract_x
 _atom_site_fract_y
 _atom_site_fract_z
 _atom_site_occupancy
  Cl  Cl0  1  0.22425000  0.22425000  0.32725000  1
  Cl  Cl1  1  0.99806001  0.99806001  0.00581996  1
  Eu  Eu2  1  0.77769101  0.77769101  0.66692698  1
