# generated using pymatgen
data_CaDyCr2O6
_symmetry_space_group_name_H-M   'P 1'
_cell_length_a   5.35469007
_cell_length_b   5.55372000
_cell_length_c   7.57726288
_cell_angle_alpha   89.99977875
_cell_angle_beta   90.00004578
_cell_angle_gamma   89.97758484
_symmetry_Int_Tables_number   1
_chemical_formula_structural   CaDyCr2O6
_chemical_formula_sum   'Ca2 Dy2 Cr4 O12'
_cell_volume   225.33603107
_cell_formula_units_Z   2
loop_
 _symmetry_equiv_pos_site_id
 _symmetry_equiv_pos_as_xyz
  1  'x, y, z'
loop_
 _atom_site_type_symbol
 _atom_site_label
 _atom_site_symmetry_multiplicity
 _atom_site_fract_x
 _atom_site_fract_y
 _atom_site_fract_z
 _atom_site_occupancy
  Ca  Ca0  1  0.51126703  0.55306901  0.25000200  1
  Dy  Dy1  1  0.01129404  0.94698202  0.74999999  1
  Ca  Ca2  1  0.98371801  0.06349400  0.24999802  1
  Dy  Dy3  1  0.48372202  0.43645501  0.75000301  1
  Cr  Cr4  1  0.99944603  0.50378001  0.00013801  1
  Cr  Cr5  1  0.49946705  0.99621402  0.50008799  1
  Cr  Cr6  1  0.99944903  0.50379301  0.49985502  1
  Cr  Cr7  1  0.49946405  0.99622602  0.99991400  1
  O  O8  1  0.80275304  0.80215502  0.04978300  1
  O  O9  1  0.70792002  0.29102701  0.45337602  1
  O  O10  1  0.20777101  0.20902900  0.54664301  1
  O  O11  1  0.30263703  0.69780301  0.95024200  1
  O  O12  1  0.20779001  0.20900100  0.95336001  1
  O  O13  1  0.30263803  0.69781301  0.54976700  1
  O  O14  1  0.80277004  0.80212902  0.45021800  1
  O  O15  1  0.70791902  0.29103801  0.04661401  1
  O  O16  1  0.39928604  0.97371002  0.25001599  1
  O  O17  1  0.08567302  0.46838501  0.24999199  1
  O  O18  1  0.58567000  0.03162700  0.74998802  1
  O  O19  1  0.89934703  0.52627001  0.75000502  1
