# generated using pymatgen
data_Ce8Si5Pd
_symmetry_space_group_name_H-M   'P 1'
_cell_length_a   7.53539658
_cell_length_b   7.53539658
_cell_length_c   7.53539658
_cell_angle_alpha   109.44603729
_cell_angle_beta   109.48381042
_cell_angle_gamma   109.48381042
_symmetry_Int_Tables_number   1
_chemical_formula_structural   Ce8Si5Pd
_chemical_formula_sum   'Ce8 Si5 Pd1'
_cell_volume   329.37939133
_cell_formula_units_Z   1
loop_
 _symmetry_equiv_pos_site_id
 _symmetry_equiv_pos_as_xyz
  1  'x, y, z'
loop_
 _atom_site_type_symbol
 _atom_site_label
 _atom_site_symmetry_multiplicity
 _atom_site_fract_x
 _atom_site_fract_y
 _atom_site_fract_z
 _atom_site_occupancy
  Ce  Ce0  1  0.12243297  0.24845597  0.62470295  1
  Si  Si1  1  0.49999990  0.74999992  0.24999990  1
  Si  Si2  1  0.87756691  0.50226995  0.12602291  1
  Si  Si3  1  0.37624689  0.87397691  0.75154387  1
  Si  Si4  1  0.62375293  0.37529696  0.49772992  1
  Si  Si5  1  0.00000000  0.00000000  0.00000000  1
  Ce  Ce6  1  0.90195388  0.77818992  0.52965087  1
  Ce  Ce7  1  0.39482295  0.27226497  0.02406996  1
  Ce  Ce8  1  0.75180395  0.12255699  0.72773494  1
  Ce  Ce9  1  0.60517691  0.62924594  0.87744189  1
  Ce  Ce10  1  0.75146095  0.12376399  0.22180995  1
  Ce  Ce11  1  0.24853894  0.47034895  0.37230293  1
  Pd  Pd12  1  0.09804593  0.62769694  0.87623590  1
  Ce  Ce13  1  0.24819588  0.97593090  0.37075388  1
