# generated using pymatgen
data_KAgF3
_symmetry_space_group_name_H-M   'P 1'
_cell_length_a   6.15465403
_cell_length_b   6.18161678
_cell_length_c   8.69229794
_cell_angle_alpha   89.60423279
_cell_angle_beta   90.00000000
_cell_angle_gamma   90.00000000
_symmetry_Int_Tables_number   1
_chemical_formula_structural   KAgF3
_chemical_formula_sum   'K4 Ag4 F12'
_cell_volume   330.69677989
_cell_formula_units_Z   4
loop_
 _symmetry_equiv_pos_site_id
 _symmetry_equiv_pos_as_xyz
  1  'x, y, z'
loop_
 _atom_site_type_symbol
 _atom_site_label
 _atom_site_symmetry_multiplicity
 _atom_site_fract_x
 _atom_site_fract_y
 _atom_site_fract_z
 _atom_site_occupancy
  K  K0  1  0.48487200  0.49445402  0.74887403  1
  K  K1  1  0.01512800  0.99445403  0.24887401  1
  K  K2  1  0.98487200  0.00554600  0.75112604  1
  K  K3  1  0.51512800  0.50554602  0.25112601  1
  Ag  Ag4  1  0.50000000  0.00000000  0.50000002  1
  Ag  Ag5  1  0.00000000  0.50000002  -0.00000000  1
  Ag  Ag6  1  0.50000000  0.00000000  -0.00000000  1
  Ag  Ag7  1  0.00000000  0.50000002  0.50000002  1
  F  F8  1  0.00956000  0.56507102  0.72933003  1
  F  F9  1  0.50956000  0.93492903  0.77067003  1
  F  F10  1  0.99044000  0.43492902  0.27067001  1
  F  F11  1  0.49044000  0.06507100  0.22933001  1
  F  F12  1  0.21272200  0.25240401  0.53441603  1
  F  F13  1  0.71272200  0.24759601  0.96558405  1
  F  F14  1  0.78727800  0.74759603  0.46558402  1
  F  F15  1  0.28727800  0.75240403  0.03441600  1
  F  F16  1  0.75142500  0.79066503  0.03562400  1
  F  F17  1  0.25142500  0.70933502  0.46437602  1
  F  F18  1  0.24857500  0.20933501  0.96437605  1
  F  F19  1  0.74857500  0.29066501  0.53562403  1
