# generated using pymatgen
data_LaAlAu
_symmetry_space_group_name_H-M   'P 1'
_cell_length_a   4.82948589
_cell_length_b   5.98333645
_cell_length_c   6.07666016
_cell_angle_alpha   77.71616364
_cell_angle_beta   66.58551025
_cell_angle_gamma   66.19795227
_symmetry_Int_Tables_number   1
_chemical_formula_structural   LaAlAu
_chemical_formula_sum   'La2 Al2 Au2'
_cell_volume   147.14197514
_cell_formula_units_Z   2
loop_
 _symmetry_equiv_pos_site_id
 _symmetry_equiv_pos_as_xyz
  1  'x, y, z'
loop_
 _atom_site_type_symbol
 _atom_site_label
 _atom_site_symmetry_multiplicity
 _atom_site_fract_x
 _atom_site_fract_y
 _atom_site_fract_z
 _atom_site_occupancy
  La  La0  1  0.04714602  0.70550297  0.20020501  1
  La  La1  1  0.95035404  0.30026399  0.79902801  1
  Al  Al2  1  0.66981703  0.26693299  0.39343300  1
  Au  Au3  1  0.34720703  0.70120797  0.60437801  1
  Au  Au4  1  0.32618301  0.11878199  0.22885200  1
  Al  Al5  1  0.65929205  0.90731196  0.77410402  1
