# generated using pymatgen
data_NbCl7
_symmetry_space_group_name_H-M   'P 1'
_cell_length_a   6.57011080
_cell_length_b   6.94012785
_cell_length_c   12.42191601
_cell_angle_alpha   100.54271698
_cell_angle_beta   90.00000000
_cell_angle_gamma   118.25147247
_symmetry_Int_Tables_number   1
_chemical_formula_structural   NbCl7
_chemical_formula_sum   'Nb2 Cl14'
_cell_volume   488.05423275
_cell_formula_units_Z   2
loop_
 _symmetry_equiv_pos_site_id
 _symmetry_equiv_pos_as_xyz
  1  'x, y, z'
loop_
 _atom_site_type_symbol
 _atom_site_label
 _atom_site_symmetry_multiplicity
 _atom_site_fract_x
 _atom_site_fract_y
 _atom_site_fract_z
 _atom_site_occupancy
  Cl  Cl0  1  0.88840603  0.00000000  0.74999999  1
  Cl  Cl1  1  0.11159400  0.00000000  0.25000000  1
  Nb  Nb2  1  0.50000003  0.50000002  0.00000001  1
  Nb  Nb3  1  0.00000002  0.50000002  0.50000001  1
  Cl  Cl4  1  0.45564802  0.15314901  0.89104199  1
  Cl  Cl5  1  0.54435205  0.84685103  0.10895802  1
  Cl  Cl6  1  0.30249904  0.84685103  0.60895802  1
  Cl  Cl7  1  0.69750103  0.15314901  0.39104200  1
  Cl  Cl8  1  0.37121603  0.57286902  0.83703001  1
  Cl  Cl9  1  0.62878403  0.42713102  0.16297001  1
  Cl  Cl10  1  0.79834804  0.42713102  0.66297000  1
  Cl  Cl11  1  0.20165203  0.57286902  0.33703001  1
  Cl  Cl12  1  0.80069305  0.69956902  0.46047301  1
  Cl  Cl13  1  0.19930702  0.30043101  0.53952700  1
  Cl  Cl14  1  0.10112401  0.30043101  0.03952701  1
  Cl  Cl15  1  0.89887605  0.69956902  0.96047301  1
