# generated using pymatgen
data_Sr(SbAu)2
_symmetry_space_group_name_H-M   'P 1'
_cell_length_a   7.09604168
_cell_length_b   7.09604168
_cell_length_c   7.09604168
_cell_angle_alpha   106.16865540
_cell_angle_beta   106.16865540
_cell_angle_gamma   116.29982758
_symmetry_Int_Tables_number   1
_chemical_formula_structural   Sr(SbAu)2
_chemical_formula_sum   'Sr2 Sb4 Au4'
_cell_volume   272.09548422
_cell_formula_units_Z   2
loop_
 _symmetry_equiv_pos_site_id
 _symmetry_equiv_pos_as_xyz
  1  'x, y, z'
loop_
 _atom_site_type_symbol
 _atom_site_label
 _atom_site_symmetry_multiplicity
 _atom_site_fract_x
 _atom_site_fract_y
 _atom_site_fract_z
 _atom_site_occupancy
  Sr  Sr0  1  0.75251498  0.75251500  -0.00000007  1
  Sr  Sr1  1  0.25251499  0.25251500  -0.00000002  1
  Au  Au2  1  0.49325097  0.99325100  0.21712793  1
  Au  Au3  1  0.27612299  0.49325200  0.49999998  1
  Au  Au4  1  0.77612300  0.27612300  0.78287198  1
  Au  Au5  1  0.99325099  0.77612200  0.49999993  1
  Sb  Sb6  1  0.14400298  0.64400300  0.80705198  1
  Sb  Sb7  1  0.64400298  0.83695100  0.49999994  1
  Sb  Sb8  1  0.33695100  0.14400300  0.49999999  1
  Sb  Sb9  1  0.83695100  0.33695100  0.19294795  1
