# generated using pymatgen
data_LaMgS2
_symmetry_space_group_name_H-M   'P 1'
_cell_length_a   6.78475714
_cell_length_b   7.55121613
_cell_length_c   7.24848843
_cell_angle_alpha   90.00000000
_cell_angle_beta   83.35379791
_cell_angle_gamma   90.00000000
_symmetry_Int_Tables_number   1
_chemical_formula_structural   LaMgS2
_chemical_formula_sum   'La4 Mg4 S8'
_cell_volume   368.86737297
_cell_formula_units_Z   4
loop_
 _symmetry_equiv_pos_site_id
 _symmetry_equiv_pos_as_xyz
  1  'x, y, z'
loop_
 _atom_site_type_symbol
 _atom_site_label
 _atom_site_symmetry_multiplicity
 _atom_site_fract_x
 _atom_site_fract_y
 _atom_site_fract_z
 _atom_site_occupancy
  La  La0  1  0.69296598  0.45387299  0.70065605  1
  La  La1  1  0.30703399  0.95387298  0.79934404  1
  La  La2  1  0.30703399  0.54612699  0.29934402  1
  La  La3  1  0.69296598  0.04612700  0.20065604  1
  Mg  Mg4  1  0.06842700  0.16067900  0.45371602  1
  Mg  Mg5  1  0.93157298  0.83932099  0.54628406  1
  Mg  Mg6  1  0.06842700  0.33932099  0.95371603  1
  Mg  Mg7  1  0.93157298  0.66067899  0.04628404  1
  S  S8  1  0.41641799  0.27639200  0.99796605  1
  S  S9  1  0.41641799  0.22360800  0.49796603  1
  S  S10  1  0.58358198  0.77639199  0.50203404  1
  S  S11  1  0.58358198  0.72360799  0.00203403  1
  S  S12  1  0.90329798  0.38796299  0.27835705  1
  S  S13  1  0.09670200  0.88796299  0.22164301  1
  S  S14  1  0.09670200  0.61203699  0.72164302  1
  S  S15  1  0.90329798  0.11203700  0.77835706  1
