# generated using pymatgen
data_LuNi3
_symmetry_space_group_name_H-M   'P 1'
_cell_length_a   5.05486917
_cell_length_b   5.05486917
_cell_length_c   8.79364681
_cell_angle_alpha   73.29667664
_cell_angle_beta   73.29667664
_cell_angle_gamma   60.00000763
_symmetry_Int_Tables_number   1
_chemical_formula_structural   LuNi3
_chemical_formula_sum   'Lu3 Ni9'
_cell_volume   183.56056596
_cell_formula_units_Z   3
loop_
 _symmetry_equiv_pos_site_id
 _symmetry_equiv_pos_as_xyz
  1  'x, y, z'
loop_
 _atom_site_type_symbol
 _atom_site_label
 _atom_site_symmetry_multiplicity
 _atom_site_fract_x
 _atom_site_fract_y
 _atom_site_fract_z
 _atom_site_occupancy
  Lu  Lu0  1  0.86119006  0.86119004  0.41642993  1
  Lu  Lu1  1  0.13881001  0.13881001  0.58356998  1
  Lu  Lu2  1  0.00000000  0.00000000  0.00000000  1
  Ni  Ni3  1  0.91743606  0.42015702  0.24224995  1
  Ni  Ni4  1  0.42015703  0.42015702  0.24224996  1
  Ni  Ni5  1  0.42015703  0.91743605  0.24224995  1
  Ni  Ni6  1  0.08256401  0.57984303  0.75774996  1
  Ni  Ni7  1  0.57984304  0.57984303  0.75774994  1
  Ni  Ni8  1  0.57984303  0.08256400  0.75774996  1
  Ni  Ni9  1  0.66760204  0.66760203  0.99719393  1
  Ni  Ni10  1  0.33239802  0.33239802  0.00280598  1
  Ni  Ni11  1  0.50000003  0.50000003  0.49999995  1
