# generated using pymatgen
data_La3Ge7Pd
_symmetry_space_group_name_H-M   'P 1'
_cell_length_a   4.23864603
_cell_length_b   4.43272209
_cell_length_c   13.06560421
_cell_angle_alpha   99.76649475
_cell_angle_beta   99.33497620
_cell_angle_gamma   90.00000000
_symmetry_Int_Tables_number   1
_chemical_formula_structural   La3Ge7Pd
_chemical_formula_sum   'La3 Ge7 Pd1'
_cell_volume   238.62900371
_cell_formula_units_Z   1
loop_
 _symmetry_equiv_pos_site_id
 _symmetry_equiv_pos_as_xyz
  1  'x, y, z'
loop_
 _atom_site_type_symbol
 _atom_site_label
 _atom_site_symmetry_multiplicity
 _atom_site_fract_x
 _atom_site_fract_y
 _atom_site_fract_z
 _atom_site_occupancy
  La  La0  1  0.14827799  0.64827798  0.29655599  1
  La  La1  1  0.85172198  0.35172199  0.70344399  1
  La  La2  1  0.00000000  0.00000000  0.00000000  1
  Ge  Ge3  1  0.54974298  0.54974299  0.09948598  1
  Ge  Ge4  1  0.45025699  0.45025699  0.90051400  1
  Pd  Pd5  1  0.30359898  0.80359898  0.60719799  1
  Ge  Ge6  1  0.69640099  0.19640099  0.39280199  1
  Ge  Ge7  1  0.59697699  0.09697700  0.19395399  1
  Ge  Ge8  1  0.25017599  0.25017599  0.50035200  1
  Ge  Ge9  1  0.74982398  0.74982398  0.49964798  1
  Ge  Ge10  1  0.40302298  0.90302298  0.80604599  1
