# generated using pymatgen
data_BaPaO6
_symmetry_space_group_name_H-M   'P 1'
_cell_length_a   5.26807594
_cell_length_b   5.26807594
_cell_length_c   5.26807594
_cell_angle_alpha   96.62362671
_cell_angle_beta   96.62362671
_cell_angle_gamma   96.62362671
_symmetry_Int_Tables_number   1
_chemical_formula_structural   BaPaO6
_chemical_formula_sum   'Ba1 Pa1 O6'
_cell_volume   143.02622767
_cell_formula_units_Z   1
loop_
 _symmetry_equiv_pos_site_id
 _symmetry_equiv_pos_as_xyz
  1  'x, y, z'
loop_
 _atom_site_type_symbol
 _atom_site_label
 _atom_site_symmetry_multiplicity
 _atom_site_fract_x
 _atom_site_fract_y
 _atom_site_fract_z
 _atom_site_occupancy
  Ba  Ba0  1  0.50000001  0.49999999  0.49999998  1
  Pa  Pa1  1  0.00000000  0.00000000  0.00000000  1
  O  O2  1  0.78880401  0.70520999  0.08082696  1
  O  O3  1  0.70520999  0.08082700  0.78880399  1
  O  O4  1  0.91917299  0.21119600  0.29478997  1
  O  O5  1  0.29479003  0.91917299  0.21119597  1
  O  O6  1  0.21119601  0.29479000  0.91917300  1
  O  O7  1  0.08082703  0.78880399  0.70520999  1
