# generated using pymatgen
data_TePt
_symmetry_space_group_name_H-M   'P 1'
_cell_length_a   2.66510510
_cell_length_b   2.66510510
_cell_length_c   4.04785252
_cell_angle_alpha   90.00000000
_cell_angle_beta   90.00000000
_cell_angle_gamma   95.98630524
_symmetry_Int_Tables_number   1
_chemical_formula_structural   TePt
_chemical_formula_sum   'Te1 Pt1'
_cell_volume   28.59424339
_cell_formula_units_Z   1
loop_
 _symmetry_equiv_pos_site_id
 _symmetry_equiv_pos_as_xyz
  1  'x, y, z'
loop_
 _atom_site_type_symbol
 _atom_site_label
 _atom_site_symmetry_multiplicity
 _atom_site_fract_x
 _atom_site_fract_y
 _atom_site_fract_z
 _atom_site_occupancy
  Te  Te0  1  0.00000000  0.00000000  0.00000000  1
  Pt  Pt1  1  0.49999997  0.49999998  0.50000001  1
