# generated using pymatgen
data_Li5Mn3O8
_symmetry_space_group_name_H-M   'P 1'
_cell_length_a   5.13758135
_cell_length_b   5.13800621
_cell_length_c   5.82978010
_cell_angle_alpha   90.00053406
_cell_angle_beta   90.00202179
_cell_angle_gamma   69.71910858
_symmetry_Int_Tables_number   1
_chemical_formula_structural   Li5Mn3O8
_chemical_formula_sum   'Li5 Mn3 O8'
_cell_volume   144.34790077
_cell_formula_units_Z   1
loop_
 _symmetry_equiv_pos_site_id
 _symmetry_equiv_pos_as_xyz
  1  'x, y, z'
loop_
 _atom_site_type_symbol
 _atom_site_label
 _atom_site_symmetry_multiplicity
 _atom_site_fract_x
 _atom_site_fract_y
 _atom_site_fract_z
 _atom_site_occupancy
  Li  Li0  1  0.00000498  0.50000500  0.74999300  1
  Li  Li1  1  0.00000698  0.50000300  0.24999398  1
  Li  Li2  1  0.49998995  0.99998400  0.24999595  1
  Li  Li3  1  0.99998900  0.00000800  0.50168303  1
  Mn  Mn4  1  0.50000398  0.49999600  0.99834401  1
  Mn  Mn5  1  0.50000300  0.00000300  0.74999103  1
  Li  Li6  1  0.99999300  0.00000900  0.99874504  1
  Mn  Mn7  1  0.50000298  0.49998700  0.50125699  1
  O  O8  1  0.72896196  0.77112100  0.98893800  1
  O  O9  1  0.72889296  0.77108500  0.51106798  1
  O  O10  1  0.27105299  0.22885700  0.98892602  1
  O  O11  1  0.27110299  0.22892600  0.51105301  1
  O  O12  1  0.25037696  0.75033500  0.74999899  1
  O  O13  1  0.24767996  0.74766400  0.25000797  1
  O  O14  1  0.74962099  0.24967000  0.75001002  1
  O  O15  1  0.75231699  0.25234600  0.24999500  1
