# generated using pymatgen
data_NaTiO3
_symmetry_space_group_name_H-M   'P 1'
_cell_length_a   5.33344412
_cell_length_b   5.39895296
_cell_length_c   7.57146502
_cell_angle_alpha   90.00000000
_cell_angle_beta   90.00000000
_cell_angle_gamma   90.00000000
_symmetry_Int_Tables_number   1
_chemical_formula_structural   NaTiO3
_chemical_formula_sum   'Na4 Ti4 O12'
_cell_volume   218.02044048
_cell_formula_units_Z   4
loop_
 _symmetry_equiv_pos_site_id
 _symmetry_equiv_pos_as_xyz
  1  'x, y, z'
loop_
 _atom_site_type_symbol
 _atom_site_label
 _atom_site_symmetry_multiplicity
 _atom_site_fract_x
 _atom_site_fract_y
 _atom_site_fract_z
 _atom_site_occupancy
  Na  Na0  1  0.50824499  0.54378700  0.25000000  1
  Na  Na1  1  0.99175498  0.04378700  0.25000000  1
  Na  Na2  1  0.49175499  0.45621300  0.75000000  1
  Na  Na3  1  0.00824500  0.95621301  0.75000000  1
  Ti  Ti4  1  0.00000000  0.50000000  0.00000000  1
  Ti  Ti5  1  0.49999999  0.00000000  0.50000000  1
  Ti  Ti6  1  0.00000000  0.50000000  0.50000000  1
  Ti  Ti7  1  0.49999999  0.00000000  0.00000000  1
  O  O8  1  0.42225299  0.98152901  0.25000000  1
  O  O9  1  0.07774700  0.48152900  0.25000000  1
  O  O10  1  0.57774699  0.01847100  0.75000000  1
  O  O11  1  0.92225298  0.51847100  0.75000000  1
  O  O12  1  0.79401498  0.79201501  0.04008500  1
  O  O13  1  0.70598498  0.29201500  0.45991500  1
  O  O14  1  0.20598500  0.20798500  0.54008500  1
  O  O15  1  0.29401499  0.70798501  0.95991500  1
  O  O16  1  0.20598500  0.20798500  0.95991500  1
  O  O17  1  0.29401499  0.70798501  0.54008500  1
  O  O18  1  0.79401498  0.79201501  0.45991500  1
  O  O19  1  0.70598498  0.29201500  0.04008500  1
