# generated using pymatgen
data_Lu2Te5
_symmetry_space_group_name_H-M   'P 1'
_cell_length_a   4.15689564
_cell_length_b   4.15689564
_cell_length_c   14.22082901
_cell_angle_alpha   81.59581757
_cell_angle_beta   81.59581757
_cell_angle_gamma   60.00000381
_symmetry_Int_Tables_number   1
_chemical_formula_structural   Lu2Te5
_chemical_formula_sum   'Lu2 Te5'
_cell_volume   209.75835781
_cell_formula_units_Z   1
loop_
 _symmetry_equiv_pos_site_id
 _symmetry_equiv_pos_as_xyz
  1  'x, y, z'
loop_
 _atom_site_type_symbol
 _atom_site_label
 _atom_site_symmetry_multiplicity
 _atom_site_fract_x
 _atom_site_fract_y
 _atom_site_fract_z
 _atom_site_occupancy
  Te  Te0  1  0.99698007  0.99698003  0.00906002  1
  Lu  Lu1  1  0.50331103  0.50331102  0.49006702  1
  Lu  Lu2  1  0.41626503  0.41626501  0.75120502  1
  Te  Te3  1  0.29334602  0.29334601  0.11996201  1
  Te  Te4  1  0.70812505  0.70812502  0.87562503  1
  Te  Te5  1  0.12415601  0.12415600  0.62753201  1
  Te  Te6  1  0.87281806  0.87281803  0.38154602  1
