# generated using pymatgen
data_HoTe3Pt
_symmetry_space_group_name_H-M   'P 1'
_cell_length_a   4.56213474
_cell_length_b   4.56213474
_cell_length_c   7.83897734
_cell_angle_alpha   73.08273315
_cell_angle_beta   73.08273315
_cell_angle_gamma   59.99998856
_symmetry_Int_Tables_number   1
_chemical_formula_structural   HoTe3Pt
_chemical_formula_sum   'Ho1 Te3 Pt1'
_cell_volume   133.07986147
_cell_formula_units_Z   1
loop_
 _symmetry_equiv_pos_site_id
 _symmetry_equiv_pos_as_xyz
  1  'x, y, z'
loop_
 _atom_site_type_symbol
 _atom_site_label
 _atom_site_symmetry_multiplicity
 _atom_site_fract_x
 _atom_site_fract_y
 _atom_site_fract_z
 _atom_site_occupancy
  Te  Te0  1  0.99618702  0.99618701  0.01143892  1
  Ho  Ho1  1  0.50510801  0.50510801  0.48467595  1
  Pt  Pt2  1  0.37252201  0.37252200  0.88243396  1
  Te  Te3  1  0.74608601  0.74608601  0.76174193  1
  Te  Te4  1  0.25509700  0.25509700  0.23470898  1
