# generated using pymatgen
data_YLuMgSc5Sn8
_symmetry_space_group_name_H-M   'P 1'
_cell_length_a   6.39545679
_cell_length_b   8.49278641
_cell_length_c   8.49278545
_cell_angle_alpha   120.00000000
_cell_angle_beta   90.00000000
_cell_angle_gamma   90.00000000
_symmetry_Int_Tables_number   1
_chemical_formula_structural   YLuMgSc5Sn8
_chemical_formula_sum   'Y1 Lu1 Mg1 Sc5 Sn8'
_cell_volume   399.48691204
_cell_formula_units_Z   1
loop_
 _symmetry_equiv_pos_site_id
 _symmetry_equiv_pos_as_xyz
  1  'x, y, z'
loop_
 _atom_site_type_symbol
 _atom_site_label
 _atom_site_symmetry_multiplicity
 _atom_site_fract_x
 _atom_site_fract_y
 _atom_site_fract_z
 _atom_site_occupancy
  Lu  Lu0  1  0.74749702  0.66666662  0.33333332  1
  Sc  Sc1  1  0.74749702  0.33333331  0.66666667  1
  Mg  Mg2  1  0.25250301  0.33333331  0.66666667  1
  Sc  Sc3  1  0.25250301  0.66666662  0.33333332  1
  Sn  Sn4  1  1.00000003  0.00000000  0.75461202  1
  Sn  Sn5  1  0.00000000  0.75461195  1.00000000  1
  Sc  Sc6  1  0.00000000  0.24538798  0.24538800  1
  Sc  Sc7  1  0.50000002  0.00000000  0.24514201  1
  Sc  Sc8  1  0.50000002  0.24514198  -0.00000001  1
  Y  Y9  1  0.50000002  0.75485795  0.75485799  1
  Sn  Sn10  1  0.50000002  0.00000000  0.60832001  1
  Sn  Sn11  1  0.50000002  0.60831996  -0.00000002  1
  Sn  Sn12  1  0.50000002  0.39167998  0.39168000  1
  Sn  Sn13  1  1.00000003  0.00000000  0.39164001  1
  Sn  Sn14  1  0.00000000  0.39163998  -0.00000001  1
  Sn  Sn15  1  0.00000000  0.60835996  0.60836000  1
