# generated using pymatgen
data_SrF2
_symmetry_space_group_name_H-M   'P 1'
_cell_length_a   4.71258211
_cell_length_b   4.72051048
_cell_length_c   6.51204014
_cell_angle_alpha   90.00000000
_cell_angle_beta   90.00000000
_cell_angle_gamma   119.94445801
_symmetry_Int_Tables_number   1
_chemical_formula_structural   SrF2
_chemical_formula_sum   'Sr3 F6'
_cell_volume   125.52735859
_cell_formula_units_Z   3
loop_
 _symmetry_equiv_pos_site_id
 _symmetry_equiv_pos_as_xyz
  1  'x, y, z'
loop_
 _atom_site_type_symbol
 _atom_site_label
 _atom_site_symmetry_multiplicity
 _atom_site_fract_x
 _atom_site_fract_y
 _atom_site_fract_z
 _atom_site_occupancy
  Sr  Sr0  1  0.50000000  0.49999999  0.33344599  1
  Sr  Sr1  1  0.00000001  0.49999999  0.66655399  1
  F  F2  1  0.83429900  0.66859799  -0.00000000  1
  F  F3  1  0.84386499  0.16044300  0.33253099  1
  F  F4  1  0.31657800  0.16044300  0.66746899  1
  F  F5  1  0.16570101  0.33140199  -0.00000000  1
  F  F6  1  0.15613502  0.83955698  0.33253099  1
  F  F7  1  0.68342201  0.83955698  0.66746899  1
  Sr  Sr8  1  0.50000002  0.99999998  -0.00000000  1
