# generated using pymatgen
data_ZrO2
_symmetry_space_group_name_H-M   'P 1'
_cell_length_a   5.19435978
_cell_length_b   6.37894154
_cell_length_c   6.37894154
_cell_angle_alpha   80.45801544
_cell_angle_beta   65.97413635
_cell_angle_gamma   65.97413635
_symmetry_Int_Tables_number   1
_chemical_formula_structural   ZrO2
_chemical_formula_sum   'Zr5 O10'
_cell_volume   176.32541785
_cell_formula_units_Z   5
loop_
 _symmetry_equiv_pos_site_id
 _symmetry_equiv_pos_as_xyz
  1  'x, y, z'
loop_
 _atom_site_type_symbol
 _atom_site_label
 _atom_site_symmetry_multiplicity
 _atom_site_fract_x
 _atom_site_fract_y
 _atom_site_fract_z
 _atom_site_occupancy
  Zr  Zr0  1  0.50000001  0.00000000  0.00000003  1
  Zr  Zr1  1  0.10229304  0.59776900  0.19764504  1
  Zr  Zr2  1  0.89770704  0.40223100  0.80235509  1
  Zr  Zr3  1  0.29993806  0.80235500  0.59776907  1
  Zr  Zr4  1  0.70006202  0.19764500  0.40223106  1
  O  O5  1  0.44961805  0.69068400  0.89367008  1
  O  O6  1  0.96602706  0.69068400  0.89367111  1
  O  O7  1  0.25000004  0.50000000  0.50000005  1
  O  O8  1  0.03397302  0.30931600  0.10632902  1
  O  O9  1  0.75000004  0.50000000  0.50000008  1
  O  O10  1  0.14030206  0.89367000  0.30931706  1
  O  O11  1  0.65671207  0.89367000  0.30931609  1
  O  O12  1  0.55038203  0.30931600  0.10633005  1
  O  O13  1  0.34328801  0.10633000  0.69068404  1
  O  O14  1  0.85969802  0.10633000  0.69068307  1
