# generated using pymatgen
data_LiTiTeN
_symmetry_space_group_name_H-M   'P 1'
_cell_length_a   2.83736992
_cell_length_b   2.83737040
_cell_length_c   7.19688606
_cell_angle_alpha   90.00000000
_cell_angle_beta   90.00000000
_cell_angle_gamma   119.99999237
_symmetry_Int_Tables_number   1
_chemical_formula_structural   LiTiTeN
_chemical_formula_sum   'Li1 Ti1 Te1 N1'
_cell_volume   50.17729965
_cell_formula_units_Z   1
loop_
 _symmetry_equiv_pos_site_id
 _symmetry_equiv_pos_as_xyz
  1  'x, y, z'
loop_
 _atom_site_type_symbol
 _atom_site_label
 _atom_site_symmetry_multiplicity
 _atom_site_fract_x
 _atom_site_fract_y
 _atom_site_fract_z
 _atom_site_occupancy
  Li  Li0  1  0.66666667  0.33333333  0.80153299  1
  Ti  Ti1  1  0.66666667  0.33333333  0.19846700  1
  Te  Te2  1  0.33333331  0.66666666  0.50000000  1
  N  N3  1  0.33333331  0.66666666  -0.00000000  1
