# generated using pymatgen
data_CsMgI3
_symmetry_space_group_name_H-M   'P 1'
_cell_length_a   7.01280212
_cell_length_b   8.35872841
_cell_length_c   8.35872746
_cell_angle_alpha   120.00000000
_cell_angle_beta   90.00000000
_cell_angle_gamma   90.00000000
_symmetry_Int_Tables_number   1
_chemical_formula_structural   CsMgI3
_chemical_formula_sum   'Cs2 Mg2 I6'
_cell_volume   424.32888464
_cell_formula_units_Z   2
loop_
 _symmetry_equiv_pos_site_id
 _symmetry_equiv_pos_as_xyz
  1  'x, y, z'
loop_
 _atom_site_type_symbol
 _atom_site_label
 _atom_site_symmetry_multiplicity
 _atom_site_fract_x
 _atom_site_fract_y
 _atom_site_fract_z
 _atom_site_occupancy
  Cs  Cs0  1  0.25000000  0.66666662  0.33333329  1
  Cs  Cs1  1  0.74999999  0.33333331  0.66666664  1
  Mg  Mg2  1  0.00000000  0.00000000  0.00000000  1
  Mg  Mg3  1  0.49999999  0.00000000  -0.00000000  1
  I  I4  1  0.74999999  0.83901994  0.16097895  1
  I  I5  1  0.25000000  0.16097999  0.32195999  1
  I  I6  1  0.25000000  0.67804095  0.83902095  1
  I  I7  1  0.74999999  0.32195898  0.16097898  1
  I  I8  1  0.74999999  0.83901994  0.67803994  1
  I  I9  1  0.25000000  0.16097999  0.83902098  1
