# generated using pymatgen
data_V3O5
_symmetry_space_group_name_H-M   'P 1'
_cell_length_a   2.99788809
_cell_length_b   5.49012613
_cell_length_c   5.97358990
_cell_angle_alpha   105.93910980
_cell_angle_beta   90.00000000
_cell_angle_gamma   90.00000000
_symmetry_Int_Tables_number   1
_chemical_formula_structural   V3O5
_chemical_formula_sum   'V3 O5'
_cell_volume   94.53809759
_cell_formula_units_Z   1
loop_
 _symmetry_equiv_pos_site_id
 _symmetry_equiv_pos_as_xyz
  1  'x, y, z'
loop_
 _atom_site_type_symbol
 _atom_site_label
 _atom_site_symmetry_multiplicity
 _atom_site_fract_x
 _atom_site_fract_y
 _atom_site_fract_z
 _atom_site_occupancy
  V  V0  1  0.49999999  0.00000000  0.50000002  1
  O  O1  1  0.00000000  0.00000000  0.00000000  1
  V  V2  1  0.49999999  0.49999999  0.00000002  1
  V  V3  1  -0.00000000  0.49999999  0.50000004  1
  O  O4  1  0.49999999  0.37627700  0.67512904  1
  O  O5  1  -0.00000000  0.93237199  0.68728406  1
  O  O6  1  0.49999999  0.62372299  0.32487103  1
  O  O7  1  0.99999997  0.06762800  0.31271601  1
