# generated using pymatgen
data_CeCu2SbS
_symmetry_space_group_name_H-M   'P 1'
_cell_length_a   4.24372768
_cell_length_b   4.24372768
_cell_length_c   5.91730261
_cell_angle_alpha   110.98241425
_cell_angle_beta   110.98241425
_cell_angle_gamma   90.08068848
_symmetry_Int_Tables_number   1
_chemical_formula_structural   CeCu2SbS
_chemical_formula_sum   'Ce1 Cu2 Sb1 S1'
_cell_volume   91.86908657
_cell_formula_units_Z   1
loop_
 _symmetry_equiv_pos_site_id
 _symmetry_equiv_pos_as_xyz
  1  'x, y, z'
loop_
 _atom_site_type_symbol
 _atom_site_label
 _atom_site_symmetry_multiplicity
 _atom_site_fract_x
 _atom_site_fract_y
 _atom_site_fract_z
 _atom_site_occupancy
  Ce  Ce0  1  0.00437300  0.00437300  0.00874600  1
  Cu  Cu1  1  0.75584704  0.25584601  0.51169302  1
  Cu  Cu2  1  0.25584702  0.75584604  0.51169302  1
  Sb  Sb3  1  0.59000904  0.59000903  0.18001803  1
  S  S4  1  0.36292502  0.36292502  0.72585001  1
