# generated using pymatgen
data_Mg7Zn
_symmetry_space_group_name_H-M   'P 1'
_cell_length_a   4.76309299
_cell_length_b   6.06670618
_cell_length_c   6.06670666
_cell_angle_alpha   60.00000381
_cell_angle_beta   90.00000000
_cell_angle_gamma   90.00000000
_symmetry_Int_Tables_number   1
_chemical_formula_structural   Mg7Zn
_chemical_formula_sum   'Mg7 Zn1'
_cell_volume   151.81883943
_cell_formula_units_Z   1
loop_
 _symmetry_equiv_pos_site_id
 _symmetry_equiv_pos_as_xyz
  1  'x, y, z'
loop_
 _atom_site_type_symbol
 _atom_site_label
 _atom_site_symmetry_multiplicity
 _atom_site_fract_x
 _atom_site_fract_y
 _atom_site_fract_z
 _atom_site_occupancy
  Mg  Mg0  1  0.25000000  0.33333332  0.33333333  1
  Zn  Zn1  1  0.75000000  0.66666664  0.66666666  1
  Mg  Mg2  1  0.75000000  0.67941197  0.16029401  1
  Mg  Mg3  1  0.75000000  0.16029399  0.16029400  1
  Mg  Mg4  1  0.75000000  0.16029399  0.67941198  1
  Mg  Mg5  1  0.25000000  0.32058799  0.83970598  1
  Mg  Mg6  1  0.25000000  0.83970596  0.83970599  1
  Mg  Mg7  1  0.25000000  0.83970596  0.32058801  1
