# generated using pymatgen
data_Sc7VO12
_symmetry_space_group_name_H-M   'P 1'
_cell_length_a   5.34687042
_cell_length_b   5.45652866
_cell_length_c   7.86214638
_cell_angle_alpha   89.99832916
_cell_angle_beta   90.00894165
_cell_angle_gamma   89.93670654
_symmetry_Int_Tables_number   1
_chemical_formula_structural   Sc7VO12
_chemical_formula_sum   'Sc7 V1 O12'
_cell_volume   229.38074299
_cell_formula_units_Z   1
loop_
 _symmetry_equiv_pos_site_id
 _symmetry_equiv_pos_as_xyz
  1  'x, y, z'
loop_
 _atom_site_type_symbol
 _atom_site_label
 _atom_site_symmetry_multiplicity
 _atom_site_fract_x
 _atom_site_fract_y
 _atom_site_fract_z
 _atom_site_occupancy
  Sc  Sc0  1  0.49855702  0.00147000  0.49658801  1
  Sc  Sc1  1  0.00159098  0.50148902  0.00341701  1
  Sc  Sc2  1  0.99799200  0.95635903  0.24314002  1
  Sc  Sc3  1  0.50196700  0.45633901  0.25681701  1
  Sc  Sc4  1  0.50573600  0.54895602  0.74186203  1
  Sc  Sc5  1  0.99426103  0.04924800  0.75828301  1
  V  V6  1  0.00263598  0.50075702  0.50142403  1
  Sc  Sc7  1  0.49732402  0.00091300  0.99846702  1
  O  O8  1  0.84267900  0.79749802  0.57546302  1
  O  O9  1  0.34396599  0.69980202  0.07601101  1
  O  O10  1  0.15609400  0.19970301  0.42401401  1
  O  O11  1  0.65724201  0.29747101  0.92450302  1
  O  O12  1  0.69634501  0.32470401  0.55774901  1
  O  O13  1  0.18350000  0.16460601  0.05153800  1
  O  O14  1  0.31649399  0.66447802  0.44838102  1
  O  O15  1  0.80365300  0.82474303  0.94231104  1
  O  O16  1  0.37708498  0.92844603  0.76658604  1
  O  O17  1  0.88068101  0.57724302  0.26827901  1
  O  O18  1  0.61931302  0.07732200  0.23176800  1
  O  O19  1  0.12288499  0.42845101  0.73339903  1
