# generated using pymatgen
data_Lu(SiNi2)2
_symmetry_space_group_name_H-M   'P 1'
_cell_length_a   3.89857602
_cell_length_b   7.01738405
_cell_length_c   7.29358578
_cell_angle_alpha   90.00000000
_cell_angle_beta   90.00000000
_cell_angle_gamma   90.00000000
_symmetry_Int_Tables_number   1
_chemical_formula_structural   Lu(SiNi2)2
_chemical_formula_sum   'Lu2 Si4 Ni8'
_cell_volume   199.53649889
_cell_formula_units_Z   2
loop_
 _symmetry_equiv_pos_site_id
 _symmetry_equiv_pos_as_xyz
  1  'x, y, z'
loop_
 _atom_site_type_symbol
 _atom_site_label
 _atom_site_symmetry_multiplicity
 _atom_site_fract_x
 _atom_site_fract_y
 _atom_site_fract_z
 _atom_site_occupancy
  Lu  Lu0  1  0.99999999  0.50000000  0.50000002  1
  Lu  Lu1  1  0.50000000  0.00000000  -0.00000000  1
  Ni  Ni2  1  0.50000000  0.85524999  0.40128101  1
  Ni  Ni3  1  0.50000000  0.14475000  0.59871902  1
  Ni  Ni4  1  0.00000000  0.64475000  0.90128103  1
  Ni  Ni5  1  0.00000000  0.35525000  0.09871900  1
  Ni  Ni6  1  0.50000000  0.58802600  0.14622700  1
  Ni  Ni7  1  0.50000000  0.41197400  0.85377303  1
  Ni  Ni8  1  0.99999999  0.91197399  0.64622702  1
  Ni  Ni9  1  0.00000000  0.08802600  0.35377301  1
  Si  Si10  1  0.50000000  0.27888300  0.29116101  1
  Si  Si11  1  0.50000000  0.72111699  0.70883902  1
  Si  Si12  1  0.00000000  0.22111700  0.79116102  1
  Si  Si13  1  0.99999999  0.77888299  0.20883901  1
