# generated using pymatgen
data_Rb2I7
_symmetry_space_group_name_H-M   'P 1'
_cell_length_a   7.88000059
_cell_length_b   7.88000059
_cell_length_c   7.88000059
_cell_angle_alpha   60.00000000
_cell_angle_beta   60.00000000
_cell_angle_gamma   60.00000000
_symmetry_Int_Tables_number   1
_chemical_formula_structural   Rb2I7
_chemical_formula_sum   'Rb2 I7'
_cell_volume   345.99016384
_cell_formula_units_Z   1
loop_
 _symmetry_equiv_pos_site_id
 _symmetry_equiv_pos_as_xyz
  1  'x, y, z'
loop_
 _atom_site_type_symbol
 _atom_site_label
 _atom_site_symmetry_multiplicity
 _atom_site_fract_x
 _atom_site_fract_y
 _atom_site_fract_z
 _atom_site_occupancy
  Rb  Rb0  1  0.75000002  0.75000002  0.75000002  1
  Rb  Rb1  1  0.25000001  0.25000001  0.25000001  1
  I  I2  1  0.00000000  0.00000000  0.00000000  1
  I  I3  1  0.76431702  0.23568301  0.23568301  1
  I  I4  1  0.23568301  0.23568301  0.76431702  1
  I  I5  1  0.76431702  0.76431702  0.23568301  1
  I  I6  1  0.23568301  0.76431702  0.76431702  1
  I  I7  1  0.76431702  0.23568301  0.76431702  1
  I  I8  1  0.23568301  0.76431702  0.23568301  1
