# generated using pymatgen
data_Li5O3
_symmetry_space_group_name_H-M   'P 1'
_cell_length_a   4.07094622
_cell_length_b   5.29410648
_cell_length_c   7.84522915
_cell_angle_alpha   74.39076996
_cell_angle_beta   74.96265411
_cell_angle_gamma   67.38921356
_symmetry_Int_Tables_number   1
_chemical_formula_structural   Li5O3
_chemical_formula_sum   'Li10 O6'
_cell_volume   147.99610885
_cell_formula_units_Z   2
loop_
 _symmetry_equiv_pos_site_id
 _symmetry_equiv_pos_as_xyz
  1  'x, y, z'
loop_
 _atom_site_type_symbol
 _atom_site_label
 _atom_site_symmetry_multiplicity
 _atom_site_fract_x
 _atom_site_fract_y
 _atom_site_fract_z
 _atom_site_occupancy
  Li  Li0  1  0.24546201  0.38251201  0.12648100  1
  O  O1  1  0.24027703  0.88884402  0.63064599  1
  Li  Li2  1  0.51032601  0.73502802  0.24441800  1
  Li  Li3  1  0.49138799  0.26232001  0.75498901  1
  Li  Li4  1  0.99791298  0.50323101  0.50109802  1
  Li  Li5  1  0.00025204  0.99910202  0.00023498  1
  O  O6  1  0.75306999  0.61950402  0.87390801  1
  Li  Li7  1  0.75097097  0.12446700  0.37341002  1
  Li  Li8  1  0.98265597  0.27070501  0.76422502  1
  O  O9  1  0.97934599  0.78658702  0.25503201  1
  Li  Li10  1  0.52438302  0.96445802  0.98683900  1
  O  O11  1  0.52133400  0.46694401  0.49054901  1
  O  O12  1  0.76267198  0.35557601  0.11890201  1
  Li  Li13  1  0.77229200  0.84226502  0.61324201  1
  Li  Li14  1  0.23816902  0.64322502  0.88034500  1
  O  O15  1  0.22949000  0.15523100  0.38568001  1
