# generated using pymatgen
data_ZrAl7Cr5
_symmetry_space_group_name_H-M   'P 1'
_cell_length_a   5.11422110
_cell_length_b   5.11422157
_cell_length_c   8.32366943
_cell_angle_alpha   90.00000000
_cell_angle_beta   90.00000000
_cell_angle_gamma   120.00282288
_symmetry_Int_Tables_number   1
_chemical_formula_structural   ZrAl7Cr5
_chemical_formula_sum   'Zr1 Al7 Cr5'
_cell_volume   188.53506755
_cell_formula_units_Z   1
loop_
 _symmetry_equiv_pos_site_id
 _symmetry_equiv_pos_as_xyz
  1  'x, y, z'
loop_
 _atom_site_type_symbol
 _atom_site_label
 _atom_site_symmetry_multiplicity
 _atom_site_fract_x
 _atom_site_fract_y
 _atom_site_fract_z
 _atom_site_occupancy
  Zr  Zr0  1  0.00002200  0.00002200  0.99999995  1
  Cr  Cr1  1  0.50001399  0.50001402  0.74901896  1
  Cr  Cr2  1  0.50001299  0.00001200  0.74897196  1
  Cr  Cr3  1  0.00001200  0.50001302  0.74897196  1
  Al  Al4  1  0.50001399  0.50001402  0.25098099  1
  Cr  Cr5  1  0.50001299  0.00001200  0.25102799  1
  Cr  Cr6  1  0.00001200  0.50001302  0.25102799  1
  Al  Al7  1  0.66666665  0.33333335  0.99999995  1
  Al  Al8  1  0.33333333  0.66666669  0.99999995  1
  Al  Al9  1  0.66666665  0.33333335  0.49999997  1
  Al  Al10  1  0.33333333  0.66661636  0.49999997  1
  Al  Al11  1  0.00001000  0.00001000  0.65376297  1
  Al  Al12  1  0.00001000  0.00001000  0.34623698  1
