# generated using pymatgen
data_Sr3Ag4
_symmetry_space_group_name_H-M   'P 1'
_cell_length_a   4.63893414
_cell_length_b   4.63893414
_cell_length_c   10.25013733
_cell_angle_alpha   90.00000000
_cell_angle_beta   90.00000000
_cell_angle_gamma   90.00000000
_symmetry_Int_Tables_number   1
_chemical_formula_structural   Sr3Ag4
_chemical_formula_sum   'Sr3 Ag4'
_cell_volume   220.57998189
_cell_formula_units_Z   1
loop_
 _symmetry_equiv_pos_site_id
 _symmetry_equiv_pos_as_xyz
  1  'x, y, z'
loop_
 _atom_site_type_symbol
 _atom_site_label
 _atom_site_symmetry_multiplicity
 _atom_site_fract_x
 _atom_site_fract_y
 _atom_site_fract_z
 _atom_site_occupancy
  Sr  Sr0  1  0.49999999  0.00000000  0.73929398  1
  Sr  Sr1  1  0.00000000  0.49999999  0.26070599  1
  Ag  Ag2  1  0.49999999  0.49999999  0.49999998  1
  Ag  Ag3  1  0.49999999  0.00000000  0.34351999  1
  Ag  Ag4  1  0.00000000  0.49999999  0.65647998  1
  Ag  Ag5  1  0.49999999  0.49999999  -0.00000000  1
  Sr  Sr6  1  0.00000000  0.00000000  0.00000000  1
