# generated using pymatgen
data_Ba5Y(WO6)2
_symmetry_space_group_name_H-M   'P 1'
_cell_length_a   5.98435879
_cell_length_b   6.01234388
_cell_length_c   10.37892246
_cell_angle_alpha   73.65523529
_cell_angle_beta   73.25045776
_cell_angle_gamma   60.15636444
_symmetry_Int_Tables_number   1
_chemical_formula_structural   Ba5Y(WO6)2
_chemical_formula_sum   'Ba5 Y1 W2 O12'
_cell_volume   305.85787655
_cell_formula_units_Z   1
loop_
 _symmetry_equiv_pos_site_id
 _symmetry_equiv_pos_as_xyz
  1  'x, y, z'
loop_
 _atom_site_type_symbol
 _atom_site_label
 _atom_site_symmetry_multiplicity
 _atom_site_fract_x
 _atom_site_fract_y
 _atom_site_fract_z
 _atom_site_occupancy
  Ba  Ba0  1  0.62483606  0.62466998  0.12569098  1
  Ba  Ba1  1  0.12514701  0.12533600  0.62431501  1
  Ba  Ba2  1  0.37474704  0.37505499  0.87487801  1
  Ba  Ba3  1  0.87529409  0.87493497  0.37515897  1
  Ba  Ba4  1  0.99973510  0.99989596  0.00054596  1
  Y  Y5  1  0.50026005  0.50009598  0.49946899  1
  W  W6  1  0.75068107  0.75035497  0.74878399  1
  W  W7  1  0.24930002  0.24963799  0.25122200  1
  O  O8  1  0.13365204  0.59588898  0.13655499  1
  O  O9  1  0.63613404  0.09465200  0.63328000  1
  O  O10  1  0.86451806  0.40515598  0.86449900  1
  O  O11  1  0.36570806  0.90436997  0.36562699  1
  O  O12  1  0.30388403  0.38954399  0.38273700  1
  O  O13  1  0.81087208  0.88291897  0.88200699  1
  O  O14  1  0.18947101  0.11808600  0.11756000  1
  O  O15  1  0.69185106  0.62104898  0.61380799  1
  O  O16  1  0.88810406  0.33950199  0.34725098  1
  O  O17  1  0.38888306  0.84632697  0.84640000  1
  O  O18  1  0.61456504  0.14932199  0.15711899  1
  O  O19  1  0.11235704  0.65320298  0.65309300  1
