# generated using pymatgen
data_Li6SmSi9
_symmetry_space_group_name_H-M   'P 1'
_cell_length_a   5.50889111
_cell_length_b   6.98463488
_cell_length_c   7.28515720
_cell_angle_alpha   90.00000000
_cell_angle_beta   90.00000000
_cell_angle_gamma   90.00000000
_symmetry_Int_Tables_number   1
_chemical_formula_structural   Li6SmSi9
_chemical_formula_sum   'Li6 Sm1 Si9'
_cell_volume   280.31531343
_cell_formula_units_Z   1
loop_
 _symmetry_equiv_pos_site_id
 _symmetry_equiv_pos_as_xyz
  1  'x, y, z'
loop_
 _atom_site_type_symbol
 _atom_site_label
 _atom_site_symmetry_multiplicity
 _atom_site_fract_x
 _atom_site_fract_y
 _atom_site_fract_z
 _atom_site_occupancy
  Sm  Sm0  1  0.35667799  0.75000001  0.02790600  1
  Li  Li1  1  0.14332200  0.75000001  0.52790599  1
  Si  Si2  1  0.64332199  0.25000000  0.97209397  1
  Li  Li3  1  0.85667798  0.25000000  0.47209399  1
  Si  Si4  1  0.64298799  0.75000001  0.37804699  1
  Si  Si5  1  0.85701198  0.75000001  0.87804698  1
  Li  Li6  1  0.35701199  0.25000000  0.62195298  1
  Li  Li7  1  0.14298800  0.25000000  0.12195300  1
  Li  Li8  1  0.90601898  0.55033101  0.17864200  1
  Si  Si9  1  0.59398099  0.94966902  0.67864198  1
  Si  Si10  1  0.09398100  0.05033100  0.82135798  1
  Si  Si11  1  0.40601899  0.44966901  0.32135799  1
  Si  Si12  1  0.09398100  0.44966901  0.82135798  1
  Si  Si13  1  0.40601899  0.05033100  0.32135799  1
  Si  Si14  1  0.90601898  0.94966902  0.17864200  1
  Li  Li15  1  0.59398099  0.55033101  0.67864198  1
