# generated using pymatgen
data_Li8InO6
_symmetry_space_group_name_H-M   'P 1'
_cell_length_a   5.48751354
_cell_length_b   5.48751354
_cell_length_c   5.96489620
_cell_angle_alpha   62.61392975
_cell_angle_beta   62.61392975
_cell_angle_gamma   60.00000381
_symmetry_Int_Tables_number   1
_chemical_formula_structural   Li8InO6
_chemical_formula_sum   'Li8 In1 O6'
_cell_volume   131.79914838
_cell_formula_units_Z   1
loop_
 _symmetry_equiv_pos_site_id
 _symmetry_equiv_pos_as_xyz
  1  'x, y, z'
loop_
 _atom_site_type_symbol
 _atom_site_label
 _atom_site_symmetry_multiplicity
 _atom_site_fract_x
 _atom_site_fract_y
 _atom_site_fract_z
 _atom_site_occupancy
  Li  Li0  1  0.34272402  0.34272401  0.97182797  1
  Li  Li1  1  0.51425604  0.90132803  0.35150697  1
  Li  Li2  1  0.23290902  0.51425602  0.35150698  1
  Li  Li3  1  0.90132804  0.23290901  0.35150698  1
  Li  Li4  1  0.48574402  0.09867200  0.64849298  1
  Li  Li5  1  0.76709104  0.48574402  0.64849297  1
  Li  Li6  1  0.65727604  0.65727602  0.02817198  1
  Li  Li7  1  0.09867202  0.76709103  0.64849297  1
  In  In8  1  0.00000000  0.00000000  0.00000000  1
  O  O9  1  0.23643603  0.90694503  0.24054198  1
  O  O10  1  0.09305501  0.38392301  0.75945798  1
  O  O11  1  0.76356403  0.09305500  0.75945798  1
  O  O12  1  0.61607703  0.23643601  0.24054199  1
  O  O13  1  0.90694505  0.61607702  0.24054198  1
  O  O14  1  0.38392303  0.76356403  0.75945797  1
