# generated using pymatgen
data_NaMn4Sn
_symmetry_space_group_name_H-M   'P 1'
_cell_length_a   4.82540846
_cell_length_b   4.82540846
_cell_length_c   4.82540846
_cell_angle_alpha   60.00000000
_cell_angle_beta   60.00000000
_cell_angle_gamma   60.00000000
_symmetry_Int_Tables_number   1
_chemical_formula_structural   NaMn4Sn
_chemical_formula_sum   'Na1 Mn4 Sn1'
_cell_volume   79.44878238
_cell_formula_units_Z   1
loop_
 _symmetry_equiv_pos_site_id
 _symmetry_equiv_pos_as_xyz
  1  'x, y, z'
loop_
 _atom_site_type_symbol
 _atom_site_label
 _atom_site_symmetry_multiplicity
 _atom_site_fract_x
 _atom_site_fract_y
 _atom_site_fract_z
 _atom_site_occupancy
  Na  Na0  1  0.00000000  0.00000000  0.00000000  1
  Mn  Mn1  1  0.37523300  0.87429899  0.37523400  1
  Mn  Mn2  1  0.37523300  0.37523400  0.37523400  1
  Mn  Mn3  1  0.37523300  0.37523400  0.87429899  1
  Mn  Mn4  1  0.87429799  0.37523400  0.37523400  1
  Sn  Sn5  1  0.74999999  0.74999999  0.74999999  1
