# generated using pymatgen
data_ErTaRe2B3C
_symmetry_space_group_name_H-M   'P 1'
_cell_length_a   3.12864900
_cell_length_b   3.23020506
_cell_length_c   9.45171833
_cell_angle_alpha   90.00000000
_cell_angle_beta   90.00000000
_cell_angle_gamma   90.00000000
_symmetry_Int_Tables_number   1
_chemical_formula_structural   ErTaRe2B3C
_chemical_formula_sum   'Er1 Ta1 Re2 B3 C1'
_cell_volume   95.52074611
_cell_formula_units_Z   1
loop_
 _symmetry_equiv_pos_site_id
 _symmetry_equiv_pos_as_xyz
  1  'x, y, z'
loop_
 _atom_site_type_symbol
 _atom_site_label
 _atom_site_symmetry_multiplicity
 _atom_site_fract_x
 _atom_site_fract_y
 _atom_site_fract_z
 _atom_site_occupancy
  Er  Er0  1  0.25000000  0.00000000  0.15024299  1
  B  B1  1  0.25000000  0.00000000  0.46206998  1
  B  B2  1  0.25000000  0.49999999  0.91870697  1
  C  C3  1  0.75000000  0.49999999  0.00487300  1
  B  B4  1  0.75000000  0.00000000  0.57386398  1
  Ta  Ta5  1  0.25000000  0.49999999  0.65264298  1
  Re  Re6  1  0.75000000  0.49999999  0.39837399  1
  Re  Re7  1  0.75000000  0.00000000  0.83922597  1
