# generated using pymatgen
data_Bi
_symmetry_space_group_name_H-M   'P 1'
_cell_length_a   3.54602218
_cell_length_b   3.54602218
_cell_length_c   8.73281765
_cell_angle_alpha   78.28589630
_cell_angle_beta   78.28589630
_cell_angle_gamma   60.00000000
_symmetry_Int_Tables_number   1
_chemical_formula_structural   Bi
_chemical_formula_sum   Bi3
_cell_volume   92.44700789
_cell_formula_units_Z   3
loop_
 _symmetry_equiv_pos_site_id
 _symmetry_equiv_pos_as_xyz
  1  'x, y, z'
loop_
 _atom_site_type_symbol
 _atom_site_label
 _atom_site_symmetry_multiplicity
 _atom_site_fract_x
 _atom_site_fract_y
 _atom_site_fract_z
 _atom_site_occupancy
  Bi  Bi0  1  0.77701998  0.77701996  0.66894001  1
  Bi  Bi1  1  0.22297999  0.22297999  0.33106000  1
  Bi  Bi2  1  0.00000000  0.00000000  0.00000000  1
