# generated using pymatgen
data_Ti(CoTe)4
_symmetry_space_group_name_H-M   'P 1'
_cell_length_a   5.82629013
_cell_length_b   5.82629013
_cell_length_c   5.82629013
_cell_angle_alpha   90.00000000
_cell_angle_beta   90.00000000
_cell_angle_gamma   90.00000000
_symmetry_Int_Tables_number   1
_chemical_formula_structural   Ti(CoTe)4
_chemical_formula_sum   'Ti1 Co4 Te4'
_cell_volume   197.77724453
_cell_formula_units_Z   1
loop_
 _symmetry_equiv_pos_site_id
 _symmetry_equiv_pos_as_xyz
  1  'x, y, z'
loop_
 _atom_site_type_symbol
 _atom_site_label
 _atom_site_symmetry_multiplicity
 _atom_site_fract_x
 _atom_site_fract_y
 _atom_site_fract_z
 _atom_site_occupancy
  Ti  Ti0  1  0.49999999  0.49999999  0.49999999  1
  Co  Co1  1  0.00000000  0.00000000  0.00000000  1
  Co  Co2  1  0.00000000  0.49999999  -0.00000000  1
  Co  Co3  1  0.00000000  0.00000000  0.49999999  1
  Co  Co4  1  0.49999999  0.00000000  0.00000000  1
  Te  Te5  1  0.23067299  0.23067299  0.23067299  1
  Te  Te6  1  0.76932698  0.76932698  0.23067299  1
  Te  Te7  1  0.23067299  0.76932698  0.76932698  1
  Te  Te8  1  0.76932698  0.23067299  0.76932698  1
