# generated using pymatgen
data_Sr3MnN3
_symmetry_space_group_name_H-M   'P 1'
_cell_length_a   5.32376003
_cell_length_b   7.64266205
_cell_length_c   7.64266253
_cell_angle_alpha   120.00000000
_cell_angle_beta   90.00000000
_cell_angle_gamma   90.00000000
_symmetry_Int_Tables_number   1
_chemical_formula_structural   Sr3MnN3
_chemical_formula_sum   'Sr6 Mn2 N6'
_cell_volume   269.30129517
_cell_formula_units_Z   2
loop_
 _symmetry_equiv_pos_site_id
 _symmetry_equiv_pos_as_xyz
  1  'x, y, z'
loop_
 _atom_site_type_symbol
 _atom_site_label
 _atom_site_symmetry_multiplicity
 _atom_site_fract_x
 _atom_site_fract_y
 _atom_site_fract_z
 _atom_site_occupancy
  Sr  Sr0  1  0.75000000  0.27419700  0.36033101  1
  Sr  Sr1  1  0.25000000  0.36033101  0.08613401  1
  Sr  Sr2  1  0.25000000  0.91386601  0.27419704  1
  Sr  Sr3  1  0.75000000  0.08613400  0.72580300  1
  Sr  Sr4  1  0.75000000  0.63966901  0.91386602  1
  Sr  Sr5  1  0.25000000  0.72580301  0.63966903  1
  Mn  Mn6  1  0.75000000  0.66666668  0.33333336  1
  Mn  Mn7  1  0.25000000  0.33333334  0.66666668  1
  N  N8  1  0.25000000  0.31299300  0.42864001  1
  N  N9  1  0.75000000  0.42864001  0.11564702  1
  N  N10  1  0.75000000  0.88435301  0.31299304  1
  N  N11  1  0.25000000  0.11564700  0.68700700  1
  N  N12  1  0.25000000  0.57136001  0.88435302  1
  N  N13  1  0.75000000  0.68700701  0.57136003  1
