# generated using pymatgen
data_Mg
_symmetry_space_group_name_H-M   'P 1'
_cell_length_a   6.53872585
_cell_length_b   6.53872633
_cell_length_c   10.36562729
_cell_angle_alpha   90.00000000
_cell_angle_beta   90.00000000
_cell_angle_gamma   120.00000000
_symmetry_Int_Tables_number   1
_chemical_formula_structural   Mg
_chemical_formula_sum   Mg16
_cell_volume   383.80666384
_cell_formula_units_Z   16
loop_
 _symmetry_equiv_pos_site_id
 _symmetry_equiv_pos_as_xyz
  1  'x, y, z'
loop_
 _atom_site_type_symbol
 _atom_site_label
 _atom_site_symmetry_multiplicity
 _atom_site_fract_x
 _atom_site_fract_y
 _atom_site_fract_z
 _atom_site_occupancy
  Mg  Mg0  1  0.33333335  0.66666665  0.99999997  1
  Mg  Mg1  1  0.33333335  0.66666665  0.49999999  1
  Mg  Mg2  1  0.83031002  0.16969000  0.99999997  1
  Mg  Mg3  1  0.83360602  0.16639400  0.49999999  1
  Mg  Mg4  1  0.83031003  0.66061999  -0.00000000  1
  Mg  Mg5  1  0.83360603  0.66721199  0.49999999  1
  Mg  Mg6  1  0.33938001  0.16969000  0.99999997  1
  Mg  Mg7  1  0.33278801  0.16639400  0.49999999  1
  Mg  Mg8  1  0.99674103  0.49836999  0.74491898  1
  Mg  Mg9  1  0.99674103  0.49836999  0.25508099  1
  Mg  Mg10  1  0.50162901  0.00325800  0.74491898  1
  Mg  Mg11  1  0.50162901  0.00325800  0.25508099  1
  Mg  Mg12  1  0.50162902  0.49836999  0.74491898  1
  Mg  Mg13  1  0.50162902  0.49836999  0.25508099  1
  Mg  Mg14  1  0.00000000  0.00000000  0.75215898  1
  Mg  Mg15  1  0.00000000  0.00000000  0.24784099  1
