# generated using pymatgen
data_CeB5Rh3
_symmetry_space_group_name_H-M   'P 1'
_cell_length_a   5.39486408
_cell_length_b   5.39486408
_cell_length_c   7.44503498
_cell_angle_alpha   90.00000000
_cell_angle_beta   90.00000000
_cell_angle_gamma   90.00000000
_symmetry_Int_Tables_number   1
_chemical_formula_structural   CeB5Rh3
_chemical_formula_sum   'Ce2 B10 Rh6'
_cell_volume   216.68445589
_cell_formula_units_Z   2
loop_
 _symmetry_equiv_pos_site_id
 _symmetry_equiv_pos_as_xyz
  1  'x, y, z'
loop_
 _atom_site_type_symbol
 _atom_site_label
 _atom_site_symmetry_multiplicity
 _atom_site_fract_x
 _atom_site_fract_y
 _atom_site_fract_z
 _atom_site_occupancy
  Ce  Ce0  1  0.00000000  0.00000000  0.00000000  1
  Ce  Ce1  1  0.49999999  0.49999999  0.50000000  1
  Rh  Rh2  1  0.82754699  0.49999999  0.15318800  1
  Rh  Rh3  1  0.17245300  0.49999999  0.15318800  1
  Rh  Rh4  1  0.00000000  0.32754700  0.65318800  1
  B  B5  1  0.00000000  0.67245299  0.65318800  1
  B  B6  1  0.67245299  0.00000000  0.34681200  1
  Rh  Rh7  1  0.32754700  0.00000000  0.34681200  1
  Rh  Rh8  1  0.49999999  0.17245300  0.84681200  1
  Rh  Rh9  1  0.49999999  0.82754699  0.84681200  1
  B  B10  1  0.25113000  0.49999999  0.85506100  1
  B  B11  1  0.74886999  0.49999999  0.85506100  1
  B  B12  1  0.00000000  0.75112999  0.35506100  1
  B  B13  1  0.00000000  0.24887000  0.35506100  1
  B  B14  1  0.24887000  0.00000000  0.64493900  1
  B  B15  1  0.75112999  0.00000000  0.64493900  1
  B  B16  1  0.49999999  0.74886999  0.14493900  1
  B  B17  1  0.49999999  0.25113000  0.14493900  1
