# generated using pymatgen
data_Ce6Pd
_symmetry_space_group_name_H-M   'P 1'
_cell_length_a   5.88672209
_cell_length_b   8.23145580
_cell_length_c   8.23145580
_cell_angle_alpha   114.50421143
_cell_angle_beta   103.79113770
_cell_angle_gamma   103.79113770
_symmetry_Int_Tables_number   1
_chemical_formula_structural   Ce6Pd
_chemical_formula_sum   'Ce12 Pd2'
_cell_volume   325.79846153
_cell_formula_units_Z   2
loop_
 _symmetry_equiv_pos_site_id
 _symmetry_equiv_pos_as_xyz
  1  'x, y, z'
loop_
 _atom_site_type_symbol
 _atom_site_label
 _atom_site_symmetry_multiplicity
 _atom_site_fract_x
 _atom_site_fract_y
 _atom_site_fract_z
 _atom_site_occupancy
  Ce  Ce0  1  0.72056306  0.74805901  0.12497503  1
  Ce  Ce1  1  0.59558807  0.87502501  0.62308403  1
  Ce  Ce2  1  0.97250404  0.37691600  0.25194103  1
  Ce  Ce3  1  0.27943702  0.25194100  0.87502500  1
  Ce  Ce4  1  0.40441201  0.12497500  0.37691601  1
  Ce  Ce5  1  0.02749604  0.62308401  0.74805901  1
  Ce  Ce6  1  0.00000000  0.00000000  0.00000000  1
  Pd  Pd7  1  0.50000001  0.00000000  1.00000000  1
  Ce  Ce8  1  0.44707204  0.50561101  0.66928802  1
  Ce  Ce9  1  0.77778403  0.33071200  0.83632301  1
  Ce  Ce10  1  0.94146102  0.16367700  0.49438901  1
  Ce  Ce11  1  0.55292804  0.49438901  0.33071202  1
  Ce  Ce12  1  0.22221605  0.66928801  0.16367702  1
  Pd  Pd13  1  0.05853906  0.83632301  0.50561102  1
