# generated using pymatgen
data_Be(P2Ru)5
_symmetry_space_group_name_H-M   'P 1'
_cell_length_a   5.55864096
_cell_length_b   5.55864096
_cell_length_c   6.49026537
_cell_angle_alpha   115.35522461
_cell_angle_beta   115.35523224
_cell_angle_gamma   90.00000000
_symmetry_Int_Tables_number   1
_chemical_formula_structural   Be(P2Ru)5
_chemical_formula_sum   'Be1 P10 Ru5'
_cell_volume   159.58194135
_cell_formula_units_Z   1
loop_
 _symmetry_equiv_pos_site_id
 _symmetry_equiv_pos_as_xyz
  1  'x, y, z'
loop_
 _atom_site_type_symbol
 _atom_site_label
 _atom_site_symmetry_multiplicity
 _atom_site_fract_x
 _atom_site_fract_y
 _atom_site_fract_z
 _atom_site_occupancy
  Be  Be0  1  0.50000003  0.50000002  0.00000005  1
  Ru  Ru1  1  0.00000000  0.00000000  0.00000000  1
  P  P2  1  0.19613300  0.02967500  0.72580802  1
  P  P3  1  0.52967504  0.69613303  0.72580808  1
  Ru  Ru4  1  0.69613302  0.19613301  0.72580805  1
  Ru  Ru5  1  0.02967503  0.52967502  0.72580806  1
  P  P6  1  0.80386706  0.97032505  0.27419210  1
  P  P7  1  0.47032502  0.30386701  0.27419204  1
  P  P8  1  0.30386704  0.80386704  0.27419207  1
  P  P9  1  0.97032504  0.47032502  0.27419206  1
  Ru  Ru10  1  0.25000002  0.25000001  0.50000004  1
  Ru  Ru11  1  0.75000005  0.75000003  0.50000009  1
  P  P12  1  0.12099502  0.37900502  0.00000003  1
  P  P13  1  0.87900505  0.62099503  0.00000007  1
  P  P14  1  0.62099502  0.12099501  0.00000002  1
  P  P15  1  0.37900505  0.87900504  0.00000008  1
