# generated using pymatgen
data_Ho2Ti2Fe(GeIr)4
_symmetry_space_group_name_H-M   'P 1'
_cell_length_a   5.29554415
_cell_length_b   5.29554510
_cell_length_c   8.72265911
_cell_angle_alpha   90.00000000
_cell_angle_beta   90.00000000
_cell_angle_gamma   119.99999237
_symmetry_Int_Tables_number   1
_chemical_formula_structural   Ho2Ti2Fe(GeIr)4
_chemical_formula_sum   'Ho2 Ti2 Fe1 Ge4 Ir4'
_cell_volume   211.83651812
_cell_formula_units_Z   1
loop_
 _symmetry_equiv_pos_site_id
 _symmetry_equiv_pos_as_xyz
  1  'x, y, z'
loop_
 _atom_site_type_symbol
 _atom_site_label
 _atom_site_symmetry_multiplicity
 _atom_site_fract_x
 _atom_site_fract_y
 _atom_site_fract_z
 _atom_site_occupancy
  Ho  Ho0  1  0.00000000  0.00000000  0.00000000  1
  Ge  Ge1  1  0.49999998  1.00000001  0.23166500  1
  Fe  Fe2  1  0.49999998  1.00000001  0.76833499  1
  Ir  Ir3  1  -0.00000000  0.50000001  0.23166500  1
  Ir  Ir4  1  -0.00000000  0.50000001  0.76833499  1
  Ir  Ir5  1  0.49999998  0.50000001  0.23166500  1
  Ir  Ir6  1  0.49999998  0.50000001  0.76833499  1
  Ti  Ti7  1  0.33333332  0.66666668  0.49999999  1
  Ti  Ti8  1  0.66666665  0.33333334  0.49999999  1
  Ge  Ge9  1  0.00000000  0.00000000  0.33655700  1
  Ho  Ho10  1  0.00000000  0.00000000  0.66344299  1
  Ge  Ge11  1  0.33333332  0.66666668  -0.00000000  1
  Ge  Ge12  1  0.66666665  0.33333334  -0.00000000  1
