# generated using pymatgen
data_LiSmYNi6B8C
_symmetry_space_group_name_H-M   'P 1'
_cell_length_a   4.99984789
_cell_length_b   4.99984789
_cell_length_c   6.95832920
_cell_angle_alpha   90.00000000
_cell_angle_beta   90.00000000
_cell_angle_gamma   90.00000000
_symmetry_Int_Tables_number   1
_chemical_formula_structural   LiSmYNi6B8C
_chemical_formula_sum   'Li1 Sm1 Y1 Ni6 B8 C1'
_cell_volume   173.94764579
_cell_formula_units_Z   1
loop_
 _symmetry_equiv_pos_site_id
 _symmetry_equiv_pos_as_xyz
  1  'x, y, z'
loop_
 _atom_site_type_symbol
 _atom_site_label
 _atom_site_symmetry_multiplicity
 _atom_site_fract_x
 _atom_site_fract_y
 _atom_site_fract_z
 _atom_site_occupancy
  Sm  Sm0  1  0.75000002  0.25000001  0.24999999  1
  Y  Y1  1  0.25000001  0.75000002  0.74999998  1
  Ni  Ni2  1  0.00338900  0.75000002  0.11199400  1
  Ni  Ni3  1  0.49661101  0.75000002  0.11199400  1
  B  B4  1  0.75000002  0.00338900  0.61199398  1
  Li  Li5  1  0.75000002  0.49661101  0.61199398  1
  Ni  Ni6  1  0.99661102  0.25000001  0.88800597  1
  Ni  Ni7  1  0.50338901  0.25000001  0.88800597  1
  Ni  Ni8  1  0.25000001  0.99661102  0.38800599  1
  Ni  Ni9  1  0.25000001  0.50338901  0.38800599  1
  C  C10  1  0.57507401  0.75000002  0.40747499  1
  B  B11  1  0.92492602  0.75000002  0.40747499  1
  B  B12  1  0.75000002  0.57507401  0.90747497  1
  B  B13  1  0.75000002  0.92492602  0.90747497  1
  B  B14  1  0.42492601  0.25000001  0.59252498  1
  B  B15  1  0.07507400  0.25000001  0.59252498  1
  B  B16  1  0.25000001  0.42492601  0.09252500  1
  B  B17  1  0.25000001  0.07507400  0.09252500  1
