# generated using pymatgen
data_VOF
_symmetry_space_group_name_H-M   'P 1'
_cell_length_a   4.60051918
_cell_length_b   5.12339592
_cell_length_c   5.62605381
_cell_angle_alpha   91.46633911
_cell_angle_beta   90.00007629
_cell_angle_gamma   90.00010681
_symmetry_Int_Tables_number   1
_chemical_formula_structural   VOF
_chemical_formula_sum   'V4 O4 F4'
_cell_volume   132.56424547
_cell_formula_units_Z   4
loop_
 _symmetry_equiv_pos_site_id
 _symmetry_equiv_pos_as_xyz
  1  'x, y, z'
loop_
 _atom_site_type_symbol
 _atom_site_label
 _atom_site_symmetry_multiplicity
 _atom_site_fract_x
 _atom_site_fract_y
 _atom_site_fract_z
 _atom_site_occupancy
  V  V0  1  0.01599898  0.72547597  0.85102700  1
  V  V1  1  0.51599897  0.27451899  0.64897302  1
  V  V2  1  0.48401096  0.72542297  0.35102001  1
  V  V3  1  0.98400995  0.27458499  0.14897904  1
  O  O4  1  0.22391698  0.58056097  0.11457900  1
  O  O5  1  0.27608797  0.58055497  0.61457901  1
  O  O6  1  0.72391596  0.41943998  0.38542103  1
  O  O7  1  0.77608896  0.41944298  0.88542004  1
  F  F8  1  0.75892095  0.92083696  0.11249802  1
  F  F9  1  0.74106395  0.92083596  0.61251502  1
  F  F10  1  0.25891999  0.07916300  0.38750301  1
  F  F11  1  0.24106599  0.07916200  0.88748502  1
