# generated using pymatgen
data_MgAlSiB8
_symmetry_space_group_name_H-M   'P 1'
_cell_length_a   3.83491707
_cell_length_b   6.38458824
_cell_length_c   6.38458824
_cell_angle_alpha   118.91206360
_cell_angle_beta   90.00000000
_cell_angle_gamma   90.00000000
_symmetry_Int_Tables_number   1
_chemical_formula_structural   MgAlSiB8
_chemical_formula_sum   'Mg1 Al1 Si1 B8'
_cell_volume   136.83897967
_cell_formula_units_Z   1
loop_
 _symmetry_equiv_pos_site_id
 _symmetry_equiv_pos_as_xyz
  1  'x, y, z'
loop_
 _atom_site_type_symbol
 _atom_site_label
 _atom_site_symmetry_multiplicity
 _atom_site_fract_x
 _atom_site_fract_y
 _atom_site_fract_z
 _atom_site_occupancy
  B  B0  1  0.00000000  0.00000000  0.00000000  1
  B  B1  1  -0.00000000  0.30379300  0.69620699  1
  B  B2  1  -0.00000000  0.69620699  0.30379300  1
  B  B3  1  -0.00000000  0.04413800  0.33751799  1
  B  B4  1  -0.00000000  0.33751800  0.04413800  1
  B  B5  1  0.49999999  0.00000000  -0.00000000  1
  B  B6  1  0.49999999  0.31420800  0.68579199  1
  Si  Si7  1  0.49999999  0.68579199  0.31420800  1
  Mg  Mg8  1  0.99999998  0.66248199  0.95586199  1
  B  B9  1  0.99999998  0.95586199  0.66248200  1
  Al  Al10  1  -0.00000000  0.49999999  0.50000000  1
