# generated using pymatgen
data_Ce2Sm5AlTl
_symmetry_space_group_name_H-M   'P 1'
_cell_length_a   6.39054108
_cell_length_b   6.39054108
_cell_length_c   6.39054108
_cell_angle_alpha   60.00000000
_cell_angle_beta   60.00000000
_cell_angle_gamma   60.00000000
_symmetry_Int_Tables_number   1
_chemical_formula_structural   Ce2Sm5AlTl
_chemical_formula_sum   'Ce2 Sm5 Al1 Tl1'
_cell_volume   184.54313510
_cell_formula_units_Z   1
loop_
 _symmetry_equiv_pos_site_id
 _symmetry_equiv_pos_as_xyz
  1  'x, y, z'
loop_
 _atom_site_type_symbol
 _atom_site_label
 _atom_site_symmetry_multiplicity
 _atom_site_fract_x
 _atom_site_fract_y
 _atom_site_fract_z
 _atom_site_occupancy
  Tl  Tl0  1  0.75000001  0.75000001  0.75000001  1
  Al  Al1  1  0.25000000  0.25000000  0.25000000  1
  Sm  Sm2  1  0.00000000  0.00000000  0.00000000  1
  Sm  Sm3  1  0.22171600  0.77828401  0.22171600  1
  Ce  Ce4  1  0.77828401  0.22171600  0.77828401  1
  Sm  Sm5  1  0.22171600  0.77828401  0.77828401  1
  Sm  Sm6  1  0.77828401  0.22171600  0.22171600  1
  Sm  Sm7  1  0.22171600  0.22171600  0.77828401  1
  Ce  Ce8  1  0.77828401  0.77828401  0.22171600  1
