# generated using pymatgen
data_LaLuC4
_symmetry_space_group_name_H-M   'P 1'
_cell_length_a   5.60521746
_cell_length_b   5.60521746
_cell_length_c   6.26954794
_cell_angle_alpha   82.22100830
_cell_angle_beta   82.22100830
_cell_angle_gamma   60.34316254
_symmetry_Int_Tables_number   1
_chemical_formula_structural   LaLuC4
_chemical_formula_sum   'La2 Lu2 C8'
_cell_volume   169.06518292
_cell_formula_units_Z   2
loop_
 _symmetry_equiv_pos_site_id
 _symmetry_equiv_pos_as_xyz
  1  'x, y, z'
loop_
 _atom_site_type_symbol
 _atom_site_label
 _atom_site_symmetry_multiplicity
 _atom_site_fract_x
 _atom_site_fract_y
 _atom_site_fract_z
 _atom_site_occupancy
  La  La0  1  0.16737199  0.16737200  0.75772502  1
  La  La1  1  0.83262796  0.83262800  0.24227506  1
  Lu  Lu2  1  0.49999997  0.50000000  0.50000004  1
  Lu  Lu3  1  0.49999997  0.50000000  0.00000003  1
  C  C4  1  0.16692499  0.16692500  0.24875002  1
  C  C5  1  0.83307496  0.83307500  0.75125007  1
  C  C6  1  0.11120798  0.68445500  0.79069004  1
  C  C7  1  0.31554497  0.88879200  0.20931004  1
  C  C8  1  0.88879197  0.31554500  0.20931004  1
  C  C9  1  0.68445498  0.11120800  0.79069004  1
  C  C10  1  0.29585098  0.29585100  0.32258503  1
  C  C11  1  0.70414896  0.70414900  0.67741506  1
