# generated using pymatgen
data_Na5Sn3
_symmetry_space_group_name_H-M   'P 1'
_cell_length_a   5.39605093
_cell_length_b   6.54550791
_cell_length_c   6.54550791
_cell_angle_alpha   112.20913696
_cell_angle_beta   90.00000000
_cell_angle_gamma   90.00000000
_symmetry_Int_Tables_number   1
_chemical_formula_structural   Na5Sn3
_chemical_formula_sum   'Na5 Sn3'
_cell_volume   214.03498215
_cell_formula_units_Z   1
loop_
 _symmetry_equiv_pos_site_id
 _symmetry_equiv_pos_as_xyz
  1  'x, y, z'
loop_
 _atom_site_type_symbol
 _atom_site_label
 _atom_site_symmetry_multiplicity
 _atom_site_fract_x
 _atom_site_fract_y
 _atom_site_fract_z
 _atom_site_occupancy
  Na  Na0  1  0.25000000  0.17366301  0.82633702  1
  Sn  Sn1  1  0.75000001  0.82633703  0.17366305  1
  Sn  Sn2  1  0.25000000  0.62608502  0.37391504  1
  Sn  Sn3  1  0.75000001  0.37391501  0.62608503  1
  Na  Na4  1  0.75000001  0.88098403  0.69353906  1
  Na  Na5  1  0.25000000  0.11901600  0.30646101  1
  Na  Na6  1  0.25000000  0.69353902  0.88098405  1
  Na  Na7  1  0.75000001  0.30646101  0.11901602  1
