# generated using pymatgen
data_Cr5InO8
_symmetry_space_group_name_H-M   'P 1'
_cell_length_a   6.18917370
_cell_length_b   6.19165134
_cell_length_c   6.21308899
_cell_angle_alpha   117.48792267
_cell_angle_beta   117.45436096
_cell_angle_gamma   62.82412338
_symmetry_Int_Tables_number   1
_chemical_formula_structural   Cr5InO8
_chemical_formula_sum   'Cr5 In1 O8'
_cell_volume   178.20207809
_cell_formula_units_Z   1
loop_
 _symmetry_equiv_pos_site_id
 _symmetry_equiv_pos_as_xyz
  1  'x, y, z'
loop_
 _atom_site_type_symbol
 _atom_site_label
 _atom_site_symmetry_multiplicity
 _atom_site_fract_x
 _atom_site_fract_y
 _atom_site_fract_z
 _atom_site_occupancy
  Cr  Cr0  1  0.12184900  0.12192300  0.87809999  1
  Cr  Cr1  1  0.87814397  0.87807400  0.12188200  1
  Cr  Cr2  1  0.49999898  0.49999900  0.00000700  1
  Cr  Cr3  1  0.49999898  0.00000400  0.49999996  1
  Cr  Cr4  1  0.00000500  0.50000000  0.49999903  1
  In  In5  1  0.49999798  0.49999700  0.49999900  1
  O  O6  1  0.74377598  0.26541500  0.25311997  1
  O  O7  1  0.26546799  0.74370300  0.25349503  1
  O  O8  1  0.74395797  0.74361000  0.25893100  1
  O  O9  1  0.25316699  0.25285000  0.26543300  1
  O  O10  1  0.25604499  0.25639300  0.74106799  1
  O  O11  1  0.73452698  0.25630700  0.74651896  1
  O  O12  1  0.74683097  0.74714300  0.73455199  1
  O  O13  1  0.25623399  0.73458300  0.74689402  1
