# generated using pymatgen
data_CsRbB2F6
_symmetry_space_group_name_H-M   'P 1'
_cell_length_a   5.21069813
_cell_length_b   5.72366905
_cell_length_c   6.25279808
_cell_angle_alpha   90.00000000
_cell_angle_beta   90.00000000
_cell_angle_gamma   90.00000000
_symmetry_Int_Tables_number   1
_chemical_formula_structural   CsRbB2F6
_chemical_formula_sum   'Cs1 Rb1 B2 F6'
_cell_volume   186.48539841
_cell_formula_units_Z   1
loop_
 _symmetry_equiv_pos_site_id
 _symmetry_equiv_pos_as_xyz
  1  'x, y, z'
loop_
 _atom_site_type_symbol
 _atom_site_label
 _atom_site_symmetry_multiplicity
 _atom_site_fract_x
 _atom_site_fract_y
 _atom_site_fract_z
 _atom_site_occupancy
  Rb  Rb0  1  0.59596999  0.50000000  0.00000000  1
  Cs  Cs1  1  0.40402999  0.00000000  0.49999999  1
  B  B2  1  0.00367400  0.00000000  0.00000000  1
  B  B3  1  0.99632598  0.50000000  0.49999999  1
  F  F4  1  0.11807700  0.50000000  0.67600999  1
  F  F5  1  0.88192298  0.00000000  0.82398999  1
  F  F6  1  0.75196498  0.50000000  0.49999999  1
  F  F7  1  0.24803499  0.00000000  -0.00000000  1
  F  F8  1  0.11807700  0.50000000  0.32399000  1
  F  F9  1  0.88192298  0.00000000  0.17601000  1
