# generated using pymatgen
data_LaGdCl6
_symmetry_space_group_name_H-M   'P 1'
_cell_length_a   6.17377186
_cell_length_b   7.07360506
_cell_length_c   9.68939972
_cell_angle_alpha   90.00000000
_cell_angle_beta   90.00000000
_cell_angle_gamma   90.00000000
_symmetry_Int_Tables_number   1
_chemical_formula_structural   LaGdCl6
_chemical_formula_sum   'La2 Gd2 Cl12'
_cell_volume   423.14406844
_cell_formula_units_Z   2
loop_
 _symmetry_equiv_pos_site_id
 _symmetry_equiv_pos_as_xyz
  1  'x, y, z'
loop_
 _atom_site_type_symbol
 _atom_site_label
 _atom_site_symmetry_multiplicity
 _atom_site_fract_x
 _atom_site_fract_y
 _atom_site_fract_z
 _atom_site_occupancy
  Cl  Cl0  1  0.34586101  0.66872299  0.05932000  1
  Cl  Cl1  1  0.15413900  0.16872300  0.44068001  1
  Cl  Cl2  1  0.65413902  0.33127700  0.55932002  1
  Cl  Cl3  1  0.84586102  0.83127699  0.94068003  1
  Cl  Cl4  1  0.65413902  0.33127700  0.94068003  1
  Cl  Cl5  1  0.84586102  0.83127699  0.55932002  1
  Cl  Cl6  1  0.34586101  0.66872299  0.44068001  1
  Cl  Cl7  1  0.15413900  0.16872300  0.05932000  1
  Cl  Cl8  1  0.85433402  0.53697000  0.25000001  1
  Cl  Cl9  1  0.64566601  0.03697000  0.25000001  1
  Cl  Cl10  1  0.14566600  0.46303000  0.75000002  1
  Cl  Cl11  1  0.35433401  0.96302999  0.75000002  1
  La  La12  1  0.07481800  0.87291499  0.25000001  1
  La  La13  1  0.42518201  0.37291500  0.25000001  1
  Gd  Gd14  1  0.92518202  0.12708500  0.75000002  1
  Gd  Gd15  1  0.57481801  0.62708499  0.75000002  1
