# generated using pymatgen
data_Ce3Pt8
_symmetry_space_group_name_H-M   'P 1'
_cell_length_a   4.52431917
_cell_length_b   6.93886614
_cell_length_c   8.48703384
_cell_angle_alpha   114.12898254
_cell_angle_beta   105.45866394
_cell_angle_gamma   90.00000000
_symmetry_Int_Tables_number   1
_chemical_formula_structural   Ce3Pt8
_chemical_formula_sum   'Ce3 Pt8'
_cell_volume   232.55765157
_cell_formula_units_Z   1
loop_
 _symmetry_equiv_pos_site_id
 _symmetry_equiv_pos_as_xyz
  1  'x, y, z'
loop_
 _atom_site_type_symbol
 _atom_site_label
 _atom_site_symmetry_multiplicity
 _atom_site_fract_x
 _atom_site_fract_y
 _atom_site_fract_z
 _atom_site_occupancy
  Ce  Ce0  1  0.13229601  0.63229599  0.26459200  1
  Ce  Ce1  1  0.86770398  0.36770399  0.73540802  1
  Ce  Ce2  1  0.00000000  0.00000000  0.00000000  1
  Pt  Pt3  1  0.66946900  0.98221398  0.33893801  1
  Pt  Pt4  1  0.33053099  0.01778600  0.66106201  1
  Pt  Pt5  1  0.66946899  0.35672399  0.33893801  1
  Pt  Pt6  1  0.33053100  0.64327598  0.66106201  1
  Pt  Pt7  1  0.78429099  0.78429098  0.56858202  1
  Pt  Pt8  1  0.21570900  0.21570899  0.43141801  1
  Pt  Pt9  1  0.50000000  0.70159598  0.00000001  1
  Pt  Pt10  1  0.49999999  0.29840399  0.00000001  1
