# generated using pymatgen
data_KNa3LiCoCl8
_symmetry_space_group_name_H-M   'P 1'
_cell_length_a   6.41002846
_cell_length_b   6.41002846
_cell_length_c   10.11599922
_cell_angle_alpha   90.00000000
_cell_angle_beta   90.00000000
_cell_angle_gamma   110.33263397
_symmetry_Int_Tables_number   1
_chemical_formula_structural   KNa3LiCoCl8
_chemical_formula_sum   'K1 Na3 Li1 Co1 Cl8'
_cell_volume   389.75216175
_cell_formula_units_Z   1
loop_
 _symmetry_equiv_pos_site_id
 _symmetry_equiv_pos_as_xyz
  1  'x, y, z'
loop_
 _atom_site_type_symbol
 _atom_site_label
 _atom_site_symmetry_multiplicity
 _atom_site_fract_x
 _atom_site_fract_y
 _atom_site_fract_z
 _atom_site_occupancy
  K  K0  1  0.79101403  0.79101400  0.49999999  1
  Na  Na1  1  0.79101403  0.79101400  0.99999998  1
  Na  Na2  1  0.52175300  0.14394200  0.24999999  1
  Na  Na3  1  0.14394203  0.52175300  0.74999998  1
  Co  Co4  1  0.09703903  0.54364400  0.24999999  1
  Li  Li5  1  0.54364399  0.09703900  0.74999998  1
  Cl  Cl6  1  0.89761900  0.35492600  0.44346599  1
  Cl  Cl7  1  0.35492605  0.89761900  0.55653399  1
  Cl  Cl8  1  0.89761900  0.35492600  0.05653400  1
  Cl  Cl9  1  0.35492605  0.89761900  0.94346598  1
  Cl  Cl10  1  0.49355903  0.61799800  0.24999999  1
  Cl  Cl11  1  0.61799802  0.49355900  0.74999998  1
  Cl  Cl12  1  0.90556298  0.04812400  0.74999998  1
  Cl  Cl13  1  0.04812406  0.90556300  0.24999999  1
