# generated using pymatgen
data_EuAg3
_symmetry_space_group_name_H-M   'P 1'
_cell_length_a   4.55874920
_cell_length_b   7.56832409
_cell_length_c   8.94570732
_cell_angle_alpha   90.00000000
_cell_angle_beta   90.00000000
_cell_angle_gamma   90.00000000
_symmetry_Int_Tables_number   1
_chemical_formula_structural   EuAg3
_chemical_formula_sum   'Eu3 Ag9'
_cell_volume   308.64561144
_cell_formula_units_Z   3
loop_
 _symmetry_equiv_pos_site_id
 _symmetry_equiv_pos_as_xyz
  1  'x, y, z'
loop_
 _atom_site_type_symbol
 _atom_site_label
 _atom_site_symmetry_multiplicity
 _atom_site_fract_x
 _atom_site_fract_y
 _atom_site_fract_z
 _atom_site_occupancy
  Eu  Eu0  1  0.74999997  0.46107399  0.81664997  1
  Eu  Eu1  1  0.24999999  0.03892600  0.31664999  1
  Ag  Ag2  1  0.74999997  0.96107399  0.68334998  1
  Eu  Eu3  1  0.24999999  0.53892599  0.18334999  1
  Ag  Ag4  1  0.24999999  0.64512699  0.56019198  1
  Ag  Ag5  1  0.24999999  0.14512700  0.93980797  1
  Ag  Ag6  1  0.74999997  0.35487300  0.43980798  1
  Ag  Ag7  1  0.74999997  0.85487299  0.06019200  1
  Ag  Ag8  1  0.24999999  0.75527499  0.87430197  1
  Ag  Ag9  1  0.24999999  0.25527500  0.62569798  1
  Ag  Ag10  1  0.74999997  0.74472499  0.37430199  1
  Ag  Ag11  1  0.74999997  0.24472500  0.12569800  1
