# generated using pymatgen
data_V4OF11
_symmetry_space_group_name_H-M   'P 1'
_cell_length_a   5.26783419
_cell_length_b   5.28089571
_cell_length_c   9.50073624
_cell_angle_alpha   74.41452789
_cell_angle_beta   73.90487671
_cell_angle_gamma   60.08178329
_symmetry_Int_Tables_number   1
_chemical_formula_structural   V4OF11
_chemical_formula_sum   'V4 O1 F11'
_cell_volume   217.38434849
_cell_formula_units_Z   1
loop_
 _symmetry_equiv_pos_site_id
 _symmetry_equiv_pos_as_xyz
  1  'x, y, z'
loop_
 _atom_site_type_symbol
 _atom_site_label
 _atom_site_symmetry_multiplicity
 _atom_site_fract_x
 _atom_site_fract_y
 _atom_site_fract_z
 _atom_site_occupancy
  V  V0  1  0.73947695  0.35968799  0.86766606  1
  V  V1  1  0.50325997  0.12725700  0.62840804  1
  V  V2  1  0.25892497  0.87274298  0.37159202  1
  V  V3  1  0.96683094  0.64031199  0.13233403  1
  O  O4  1  0.70133296  0.18225400  0.75757605  1
  F  F5  1  0.64116295  0.81774598  0.24242403  1
  F  F6  1  0.28162498  0.09591300  0.49905903  1
  F  F7  1  0.96822295  0.00000000  0.00000003  1
  F  F8  1  0.03924899  0.24636699  0.24413701  1
  F  F9  1  0.11885899  0.34781199  0.75187904  1
  F  F10  1  0.87659693  0.90408698  0.50094104  1
  F  F11  1  0.36554897  0.42239899  0.00566001  1
  F  F12  1  0.47214996  0.49999999  0.50000003  1
  F  F13  1  0.79360795  0.57760099  0.99434007  1
  F  F14  1  0.52975295  0.75363298  0.75586305  1
  F  F15  1  0.21854997  0.65218799  0.24812101  1
