# generated using pymatgen
data_HfAl11
_symmetry_space_group_name_H-M   'P 1'
_cell_length_a   4.15244198
_cell_length_b   4.15244198
_cell_length_c   12.29375935
_cell_angle_alpha   99.72294617
_cell_angle_beta   99.72294617
_cell_angle_gamma   90.00000000
_symmetry_Int_Tables_number   1
_chemical_formula_structural   HfAl11
_chemical_formula_sum   'Hf1 Al11'
_cell_volume   205.84372724
_cell_formula_units_Z   1
loop_
 _symmetry_equiv_pos_site_id
 _symmetry_equiv_pos_as_xyz
  1  'x, y, z'
loop_
 _atom_site_type_symbol
 _atom_site_label
 _atom_site_symmetry_multiplicity
 _atom_site_fract_x
 _atom_site_fract_y
 _atom_site_fract_z
 _atom_site_occupancy
  Al  Al0  1  0.16604700  0.16604700  0.33209399  1
  Al  Al1  1  0.00097900  0.00097900  0.00195800  1
  Al  Al2  1  0.91612800  0.41612800  0.83225598  1
  Al  Al3  1  0.41612800  0.91612800  0.83225598  1
  Al  Al4  1  0.08422900  0.58422900  0.16845799  1
  Al  Al5  1  0.58422900  0.08422900  0.16845799  1
  Hf  Hf6  1  0.50027100  0.50027100  0.00054199  1
  Al  Al7  1  0.74957300  0.24957300  0.49914599  1
  Al  Al8  1  0.24957300  0.74957300  0.49914599  1
  Al  Al9  1  0.33104600  0.33104600  0.66209199  1
  Al  Al10  1  0.66762300  0.66762300  0.33524599  1
  Al  Al11  1  0.83417500  0.83417500  0.66834998  1
