# generated using pymatgen
data_Ce2S3
_symmetry_space_group_name_H-M   'P 1'
_cell_length_a   3.88764501
_cell_length_b   7.13451481
_cell_length_c   14.84566879
_cell_angle_alpha   90.00000000
_cell_angle_beta   90.00000000
_cell_angle_gamma   90.00000000
_symmetry_Int_Tables_number   1
_chemical_formula_structural   Ce2S3
_chemical_formula_sum   'Ce8 S12'
_cell_volume   411.76631152
_cell_formula_units_Z   4
loop_
 _symmetry_equiv_pos_site_id
 _symmetry_equiv_pos_as_xyz
  1  'x, y, z'
loop_
 _atom_site_type_symbol
 _atom_site_label
 _atom_site_symmetry_multiplicity
 _atom_site_fract_x
 _atom_site_fract_y
 _atom_site_fract_z
 _atom_site_occupancy
  S  S0  1  0.25000000  0.00098600  0.39599001  1
  S  S1  1  0.25000000  0.50098601  0.10401000  1
  S  S2  1  0.75000000  0.99901403  0.60401001  1
  S  S3  1  0.75000000  0.49901401  0.89599001  1
  S  S4  1  0.25000000  0.16951700  0.77633901  1
  S  S5  1  0.25000000  0.66951702  0.72366101  1
  S  S6  1  0.75000000  0.83048302  0.22366100  1
  S  S7  1  0.75000000  0.33048301  0.27633900  1
  S  S8  1  0.25000000  0.36509901  0.56950001  1
  S  S9  1  0.25000000  0.86509902  0.93050001  1
  S  S10  1  0.75000000  0.63490102  0.43050001  1
  S  S11  1  0.75000000  0.13490100  0.06950000  1
  Ce  Ce12  1  0.25000000  0.11555700  0.20589400  1
  Ce  Ce13  1  0.25000000  0.61555702  0.29410600  1
  Ce  Ce14  1  0.75000000  0.88444302  0.79410601  1
  Ce  Ce15  1  0.75000000  0.38444301  0.70589401  1
  Ce  Ce16  1  0.25000000  0.25612001  0.95696101  1
  Ce  Ce17  1  0.25000000  0.75612002  0.54303901  1
  Ce  Ce18  1  0.75000000  0.74388002  0.04303900  1
  Ce  Ce19  1  0.75000000  0.24388001  0.45696101  1
