# generated using pymatgen
data_Ce(GePd)2
_symmetry_space_group_name_H-M   'P 1'
_cell_length_a   4.09989595
_cell_length_b   4.09989595
_cell_length_c   6.18325424
_cell_angle_alpha   109.36180115
_cell_angle_beta   109.36180115
_cell_angle_gamma   90.00000000
_symmetry_Int_Tables_number   1
_chemical_formula_structural   Ce(GePd)2
_chemical_formula_sum   'Ce1 Ge2 Pd2'
_cell_volume   91.80327446
_cell_formula_units_Z   1
loop_
 _symmetry_equiv_pos_site_id
 _symmetry_equiv_pos_as_xyz
  1  'x, y, z'
loop_
 _atom_site_type_symbol
 _atom_site_label
 _atom_site_symmetry_multiplicity
 _atom_site_fract_x
 _atom_site_fract_y
 _atom_site_fract_z
 _atom_site_occupancy
  Ce  Ce0  1  0.00000000  0.00000000  0.00000000  1
  Pd  Pd1  1  0.75000001  0.25000000  0.49999999  1
  Pd  Pd2  1  0.25000000  0.75000001  0.49999999  1
  Ge  Ge3  1  0.38962800  0.38962800  0.77925599  1
  Ge  Ge4  1  0.61037200  0.61037201  0.22074399  1
