# generated using pymatgen
data_LiMgCuTe3
_symmetry_space_group_name_H-M   'P 1'
_cell_length_a   3.61677003
_cell_length_b   3.61677003
_cell_length_c   8.67605019
_cell_angle_alpha   90.00000000
_cell_angle_beta   90.00000000
_cell_angle_gamma   90.00000000
_symmetry_Int_Tables_number   1
_chemical_formula_structural   LiMgCuTe3
_chemical_formula_sum   'Li1 Mg1 Cu1 Te3'
_cell_volume   113.49163323
_cell_formula_units_Z   1
loop_
 _symmetry_equiv_pos_site_id
 _symmetry_equiv_pos_as_xyz
  1  'x, y, z'
loop_
 _atom_site_type_symbol
 _atom_site_label
 _atom_site_symmetry_multiplicity
 _atom_site_fract_x
 _atom_site_fract_y
 _atom_site_fract_z
 _atom_site_occupancy
  Mg  Mg0  1  0.00000000  0.50000000  0.75079098  1
  Li  Li1  1  0.50000000  0.00000000  0.24920899  1
  Cu  Cu2  1  0.00000000  0.00000000  0.00000000  1
  Te  Te3  1  0.50000000  0.50000000  -0.00000000  1
  Te  Te4  1  0.50000000  0.00000000  0.62764699  1
  Te  Te5  1  0.00000000  0.50000000  0.37235299  1
