# generated using pymatgen
data_La2SICl4
_symmetry_space_group_name_H-M   'P 1'
_cell_length_a   3.94800997
_cell_length_b   6.68390512
_cell_length_c   8.69146824
_cell_angle_alpha   70.57324982
_cell_angle_beta   76.87243652
_cell_angle_gamma   72.82225037
_symmetry_Int_Tables_number   1
_chemical_formula_structural   La2SICl4
_chemical_formula_sum   'La2 S1 I1 Cl4'
_cell_volume   204.52045180
_cell_formula_units_Z   1
loop_
 _symmetry_equiv_pos_site_id
 _symmetry_equiv_pos_as_xyz
  1  'x, y, z'
loop_
 _atom_site_type_symbol
 _atom_site_label
 _atom_site_symmetry_multiplicity
 _atom_site_fract_x
 _atom_site_fract_y
 _atom_site_fract_z
 _atom_site_occupancy
  S  S0  1  0.00000000  0.00000000  0.00000000  1
  La  La1  1  0.79094302  0.67561100  0.74250296  1
  La  La2  1  0.20905701  0.32438900  0.25749698  1
  Cl  Cl3  1  0.83602500  0.02370500  0.30424500  1
  Cl  Cl4  1  0.16397503  0.97629501  0.69575495  1
  Cl  Cl5  1  0.62223302  0.69917000  0.05636400  1
  Cl  Cl6  1  0.37776701  0.30083000  0.94363595  1
  I  I7  1  0.50000001  0.50000000  0.49999997  1
