# generated using pymatgen
data_ZnN
_symmetry_space_group_name_H-M   'P 1'
_cell_length_a   3.02198553
_cell_length_b   3.02198553
_cell_length_c   12.43769073
_cell_angle_alpha   83.02217102
_cell_angle_beta   83.02217102
_cell_angle_gamma   60.00001144
_symmetry_Int_Tables_number   1
_chemical_formula_structural   ZnN
_chemical_formula_sum   'Zn5 N5'
_cell_volume   97.39564118
_cell_formula_units_Z   5
loop_
 _symmetry_equiv_pos_site_id
 _symmetry_equiv_pos_as_xyz
  1  'x, y, z'
loop_
 _atom_site_type_symbol
 _atom_site_label
 _atom_site_symmetry_multiplicity
 _atom_site_fract_x
 _atom_site_fract_y
 _atom_site_fract_z
 _atom_site_occupancy
  Zn  Zn0  1  0.60028000  0.60027999  0.19915998  1
  Zn  Zn1  1  0.00000000  0.00000000  0.00000000  1
  Zn  Zn2  1  0.39972000  0.39971999  0.80083996  1
  Zn  Zn3  1  0.19976600  0.19976600  0.40070198  1
  Zn  Zn4  1  0.80023401  0.80023399  0.59929796  1
  N  N5  1  0.50000000  0.49999999  0.49999997  1
  N  N6  1  0.09927900  0.09927900  0.70216297  1
  N  N7  1  0.70002501  0.70002499  0.89992495  1
  N  N8  1  0.29997500  0.29997500  0.10007499  1
  N  N9  1  0.90072101  0.90072099  0.29783697  1
