# generated using pymatgen
data_La5I13
_symmetry_space_group_name_H-M   'P 1'
_cell_length_a   8.97438335
_cell_length_b   8.97438335
_cell_length_c   11.92077637
_cell_angle_alpha   92.91825867
_cell_angle_beta   92.91825867
_cell_angle_gamma   119.30135345
_symmetry_Int_Tables_number   1
_chemical_formula_structural   La5I13
_chemical_formula_sum   'La5 I13'
_cell_volume   832.99638958
_cell_formula_units_Z   1
loop_
 _symmetry_equiv_pos_site_id
 _symmetry_equiv_pos_as_xyz
  1  'x, y, z'
loop_
 _atom_site_type_symbol
 _atom_site_label
 _atom_site_symmetry_multiplicity
 _atom_site_fract_x
 _atom_site_fract_y
 _atom_site_fract_z
 _atom_site_occupancy
  I  I0  1  0.96842001  0.03158000  0.74999996  1
  La  La1  1  0.03158001  0.96842001  0.24999997  1
  La  La2  1  0.60581001  0.29565600  0.44491497  1
  La  La3  1  0.70434401  0.39419000  0.05508498  1
  La  La4  1  0.29565601  0.60581001  0.94491496  1
  La  La5  1  0.39419001  0.70434401  0.55508496  1
  I  I6  1  0.38972801  0.30334900  0.86603396  1
  I  I7  1  0.54763202  0.93369001  0.80535395  1
  I  I8  1  0.75752200  0.02211300  0.46685797  1
  I  I9  1  0.97788701  0.24247800  0.03314198  1
  I  I10  1  0.06631001  0.45236801  0.69464597  1
  I  I11  1  0.69665101  0.61027201  0.63396596  1
  I  I12  1  0.30334901  0.38972800  0.36603398  1
  I  I13  1  0.93369001  0.54763201  0.30535396  1
  I  I14  1  0.02211301  0.75752201  0.96685796  1
  I  I15  1  0.24247802  0.97788701  0.53314196  1
  I  I16  1  0.45236800  0.06631000  0.19464598  1
  I  I17  1  0.61027201  0.69665101  0.13396597  1
