# generated using pymatgen
data_Al6Ni
_symmetry_space_group_name_H-M   'P 1'
_cell_length_a   4.96433067
_cell_length_b   4.96433067
_cell_length_c   8.81915283
_cell_angle_alpha   90.00000000
_cell_angle_beta   90.00000000
_cell_angle_gamma   98.81539917
_symmetry_Int_Tables_number   1
_chemical_formula_structural   Al6Ni
_chemical_formula_sum   'Al12 Ni2'
_cell_volume   214.77687028
_cell_formula_units_Z   2
loop_
 _symmetry_equiv_pos_site_id
 _symmetry_equiv_pos_as_xyz
  1  'x, y, z'
loop_
 _atom_site_type_symbol
 _atom_site_label
 _atom_site_symmetry_multiplicity
 _atom_site_fract_x
 _atom_site_fract_y
 _atom_site_fract_z
 _atom_site_occupancy
  Ni  Ni0  1  0.54314103  0.54314102  0.25000000  1
  Ni  Ni1  1  0.45685903  0.45685901  0.75000001  1
  Al  Al2  1  0.03128201  0.39619901  0.25000000  1
  Al  Al3  1  0.96871805  0.60380102  0.75000001  1
  Al  Al4  1  0.32666403  0.67333602  1.00000002  1
  Al  Al5  1  0.67333603  0.32666401  0.50000001  1
  Al  Al6  1  0.67333603  0.32666401  -0.00000000  1
  Al  Al7  1  0.32666403  0.67333602  0.50000001  1
  Al  Al8  1  0.14022801  0.14022800  0.89957702  1
  Al  Al9  1  0.85977205  0.85977203  0.39957701  1
  Al  Al10  1  0.14022801  0.14022800  0.60042301  1
  Al  Al11  1  0.85977205  0.85977203  0.10042300  1
  Al  Al12  1  0.60380105  0.96871803  0.75000001  1
  Al  Al13  1  0.39619901  0.03128200  0.25000000  1
