# generated using pymatgen
data_TiB2Ir3
_symmetry_space_group_name_H-M   'P 1'
_cell_length_a   3.19368410
_cell_length_b   8.58416176
_cell_length_c   8.58518982
_cell_angle_alpha   119.99604034
_cell_angle_beta   90.00000000
_cell_angle_gamma   90.00000000
_symmetry_Int_Tables_number   1
_chemical_formula_structural   TiB2Ir3
_chemical_formula_sum   'Ti3 B6 Ir9'
_cell_volume   203.83920164
_cell_formula_units_Z   3
loop_
 _symmetry_equiv_pos_site_id
 _symmetry_equiv_pos_as_xyz
  1  'x, y, z'
loop_
 _atom_site_type_symbol
 _atom_site_label
 _atom_site_symmetry_multiplicity
 _atom_site_fract_x
 _atom_site_fract_y
 _atom_site_fract_z
 _atom_site_occupancy
  Ti  Ti0  1  0.00000000  0.58954602  0.00000000  1
  Ti  Ti1  1  0.00000000  0.41032701  0.41034999  1
  Ti  Ti2  1  0.00000000  0.99997703  0.58964999  1
  Ir  Ir3  1  0.00000000  0.83040602  0.82968299  1
  Ir  Ir4  1  0.00000000  0.00072400  0.17031700  1
  Ir  Ir5  1  0.00000000  0.16957300  0.00000000  1
  B  B6  1  0.49999998  0.99973403  0.00000000  1
  B  B7  1  0.49999998  0.79728102  0.00000000  1
  B  B8  1  0.49999998  0.20283701  0.20278600  1
  B  B9  1  0.49999998  0.00005200  0.79721399  1
  B  B10  1  0.00000000  0.33348501  0.66694999  1
  B  B11  1  0.00000000  0.66653502  0.33305000  1
  Ir  Ir12  1  0.49999998  0.53850102  0.72329399  1
  Ir  Ir13  1  0.49999998  0.18478901  0.46168799  1
  Ir  Ir14  1  0.49999998  0.27659301  0.81536199  1
  Ir  Ir15  1  0.49999998  0.81520702  0.27670600  1
  Ir  Ir16  1  0.49999998  0.72310102  0.53831199  1
  Ir  Ir17  1  0.49999998  0.46123101  0.18463800  1
