# generated using pymatgen
data_In3Co2Te3
_symmetry_space_group_name_H-M   'P 1'
_cell_length_a   6.44440222
_cell_length_b   6.44440222
_cell_length_c   7.51167345
_cell_angle_alpha   115.40151978
_cell_angle_beta   115.40151978
_cell_angle_gamma   90.00000000
_symmetry_Int_Tables_number   1
_chemical_formula_structural   In3Co2Te3
_chemical_formula_sum   'In3 Co2 Te3'
_cell_volume   248.00272821
_cell_formula_units_Z   1
loop_
 _symmetry_equiv_pos_site_id
 _symmetry_equiv_pos_as_xyz
  1  'x, y, z'
loop_
 _atom_site_type_symbol
 _atom_site_label
 _atom_site_symmetry_multiplicity
 _atom_site_fract_x
 _atom_site_fract_y
 _atom_site_fract_z
 _atom_site_occupancy
  Te  Te0  1  0.00000000  0.00000000  0.00000000  1
  Te  Te1  1  0.74999994  0.24999998  0.49999993  1
  Co  Co2  1  0.49999993  0.49999996  0.99999992  1
  Co  Co3  1  0.24999993  0.74999994  0.49999992  1
  Te  Te4  1  0.87499989  0.84507893  0.24999987  1
  In  In5  1  0.37499995  0.40492097  0.24999994  1
  In  In6  1  0.15492095  0.62499995  0.74999993  1
  In  In7  1  0.59507895  0.12499999  0.74999995  1
