# generated using pymatgen
data_La13Zn3PdI3
_symmetry_space_group_name_H-M   'P 1'
_cell_length_a   4.50052977
_cell_length_b   11.51087379
_cell_length_c   11.51087379
_cell_angle_alpha   90.00000000
_cell_angle_beta   90.00000000
_cell_angle_gamma   90.00000000
_symmetry_Int_Tables_number   1
_chemical_formula_structural   La13Zn3PdI3
_chemical_formula_sum   'La13 Zn3 Pd1 I3'
_cell_volume   596.32116393
_cell_formula_units_Z   1
loop_
 _symmetry_equiv_pos_site_id
 _symmetry_equiv_pos_as_xyz
  1  'x, y, z'
loop_
 _atom_site_type_symbol
 _atom_site_label
 _atom_site_symmetry_multiplicity
 _atom_site_fract_x
 _atom_site_fract_y
 _atom_site_fract_z
 _atom_site_occupancy
  La  La0  1  1.00000005  0.70589801  0.29410201  1
  La  La1  1  1.00000005  0.29410201  0.70589801  1
  La  La2  1  0.50000003  0.79410201  0.79410201  1
  I  I3  1  0.50000003  0.20589800  0.20589800  1
  La  La4  1  1.00000005  0.39204801  0.39204801  1
  La  La5  1  0.00000000  0.60795201  0.60795201  1
  La  La6  1  0.50000003  0.89204802  0.10795200  1
  I  I7  1  0.50000003  0.10795200  0.89204802  1
  La  La8  1  0.00000000  0.33773601  0.00138800  1
  La  La9  1  0.00000000  0.66226401  0.99861202  1
  La  La10  1  0.50000003  0.50138801  0.16226400  1
  La  La11  1  0.50000003  0.83773601  0.49861201  1
  La  La12  1  0.50000003  0.49861201  0.83773601  1
  La  La13  1  0.50000003  0.16226400  0.50138801  1
  La  La14  1  0.00000000  0.00138800  0.33773601  1
  I  I15  1  0.00000000  0.99861202  0.66226401  1
  Zn  Zn16  1  1.00000005  0.08715100  0.08715100  1
  Zn  Zn17  1  1.00000005  0.91284902  0.91284902  1
  Pd  Pd18  1  0.50000003  0.58715101  0.41284901  1
  Zn  Zn19  1  0.50000003  0.41284901  0.58715101  1
