# generated using pymatgen
data_Ac3Pr3Tl2Pd
_symmetry_space_group_name_H-M   'P 1'
_cell_length_a   7.18360376
_cell_length_b   7.18360376
_cell_length_c   7.18360376
_cell_angle_alpha   60.00000000
_cell_angle_beta   60.00000000
_cell_angle_gamma   60.00000000
_symmetry_Int_Tables_number   1
_chemical_formula_structural   Ac3Pr3Tl2Pd
_chemical_formula_sum   'Ac3 Pr3 Tl2 Pd1'
_cell_volume   262.12721306
_cell_formula_units_Z   1
loop_
 _symmetry_equiv_pos_site_id
 _symmetry_equiv_pos_as_xyz
  1  'x, y, z'
loop_
 _atom_site_type_symbol
 _atom_site_label
 _atom_site_symmetry_multiplicity
 _atom_site_fract_x
 _atom_site_fract_y
 _atom_site_fract_z
 _atom_site_occupancy
  Tl  Tl0  1  0.75000001  0.75000001  0.75000001  1
  Tl  Tl1  1  0.25000000  0.25000000  0.25000000  1
  Pd  Pd2  1  0.00000000  0.00000000  0.00000000  1
  Ac  Ac3  1  0.77413001  0.22587000  0.22587000  1
  Ac  Ac4  1  0.22587000  0.77413001  0.77413001  1
  Pr  Pr5  1  0.77413001  0.77413001  0.22587000  1
  Pr  Pr6  1  0.77413001  0.22587000  0.77413001  1
  Ac  Ac7  1  0.22587000  0.77413001  0.22587000  1
  Pr  Pr8  1  0.22587000  0.22587000  0.77413001  1
