# generated using pymatgen
data_NaLiV2O9
_symmetry_space_group_name_H-M   'P 1'
_cell_length_a   5.55158520
_cell_length_b   5.55158520
_cell_length_c   7.26418972
_cell_angle_alpha   69.14579773
_cell_angle_beta   69.14579773
_cell_angle_gamma   71.72309113
_symmetry_Int_Tables_number   1
_chemical_formula_structural   NaLiV2O9
_chemical_formula_sum   'Na1 Li1 V2 O9'
_cell_volume   190.98113647
_cell_formula_units_Z   1
loop_
 _symmetry_equiv_pos_site_id
 _symmetry_equiv_pos_as_xyz
  1  'x, y, z'
loop_
 _atom_site_type_symbol
 _atom_site_label
 _atom_site_symmetry_multiplicity
 _atom_site_fract_x
 _atom_site_fract_y
 _atom_site_fract_z
 _atom_site_occupancy
  Li  Li0  1  0.53986804  0.46013199  -0.00000004  1
  V  V1  1  0.03062008  0.98352098  0.24817596  1
  V  V2  1  0.01647908  0.96937998  0.75182398  1
  O  O3  1  0.72136007  0.85571299  0.37269495  1
  O  O4  1  0.14428702  0.27864000  0.62730500  1
  O  O5  1  0.24974202  0.19751900  0.12210799  1
  O  O6  1  0.80248106  0.75025799  0.87789197  1
  Na  Na7  1  0.94399800  0.05600200  1.00000000  1
  O  O8  1  0.06288008  0.93711998  0.49999997  1
  O  O9  1  0.72343802  0.24740400  0.29618098  1
  O  O10  1  0.75259602  0.27656200  0.70381899  1
  O  O11  1  0.24272706  0.68647699  0.21807797  1
  O  O12  1  0.31352306  0.75727299  0.78192198  1
