# generated using pymatgen
data_CsAgBr3
_symmetry_space_group_name_H-M   'P 1'
_cell_length_a   5.76365423
_cell_length_b   8.08559036
_cell_length_c   8.08559036
_cell_angle_alpha   89.96148682
_cell_angle_beta   90.00000000
_cell_angle_gamma   90.00000000
_symmetry_Int_Tables_number   1
_chemical_formula_structural   CsAgBr3
_chemical_formula_sum   'Cs2 Ag2 Br6'
_cell_volume   376.80902067
_cell_formula_units_Z   2
loop_
 _symmetry_equiv_pos_site_id
 _symmetry_equiv_pos_as_xyz
  1  'x, y, z'
loop_
 _atom_site_type_symbol
 _atom_site_label
 _atom_site_symmetry_multiplicity
 _atom_site_fract_x
 _atom_site_fract_y
 _atom_site_fract_z
 _atom_site_occupancy
  Cs  Cs0  1  0.49999998  0.50097900  0.50097899  1
  Cs  Cs1  1  0.49999998  0.00040900  0.00040900  1
  Ag  Ag2  1  0.00000000  0.49545200  0.99704400  1
  Ag  Ag3  1  0.99999996  0.99704401  0.49545198  1
  Br  Br4  1  0.99999996  0.78571701  0.20288499  1
  Br  Br5  1  0.49999998  0.97277501  0.47267198  1
  Br  Br6  1  0.49999998  0.47267200  0.97277500  1
  Br  Br7  1  0.99999996  0.29101800  0.29101800  1
  Br  Br8  1  0.99999996  0.70904901  0.70904899  1
  Br  Br9  1  0.00000000  0.20288500  0.78571700  1
