# generated using pymatgen
data_CeSi2Ir
_symmetry_space_group_name_H-M   'P 1'
_cell_length_a   4.25134611
_cell_length_b   8.89572620
_cell_length_c   9.45570564
_cell_angle_alpha   118.05957031
_cell_angle_beta   102.99131012
_cell_angle_gamma   90.00000000
_symmetry_Int_Tables_number   1
_chemical_formula_structural   CeSi2Ir
_chemical_formula_sum   'Ce4 Si8 Ir4'
_cell_volume   305.15913371
_cell_formula_units_Z   4
loop_
 _symmetry_equiv_pos_site_id
 _symmetry_equiv_pos_as_xyz
  1  'x, y, z'
loop_
 _atom_site_type_symbol
 _atom_site_label
 _atom_site_symmetry_multiplicity
 _atom_site_fract_x
 _atom_site_fract_y
 _atom_site_fract_z
 _atom_site_occupancy
  Ce  Ce0  1  0.79522000  0.29521999  0.59043998  1
  Ce  Ce1  1  1.00000001  0.73612597  0.99999994  1
  Ce  Ce2  1  0.20478002  0.70477997  0.40955995  1
  Ce  Ce3  1  0.00000001  0.26387399  -0.00000001  1
  Si  Si4  1  0.79845202  0.95072896  0.59690495  1
  Si  Si5  1  0.20154800  0.04927100  0.40309498  1
  Si  Si6  1  0.20154701  0.35382398  0.40309397  1
  Si  Si7  1  0.79845301  0.64617597  0.59690596  1
  Si  Si8  1  0.42327601  0.42327598  0.84655195  1
  Si  Si9  1  0.57766599  0.07766600  0.15533200  1
  Si  Si10  1  0.42233402  0.92233396  0.84466793  1
  Si  Si11  1  0.57672401  0.57672397  0.15344798  1
  Ir  Ir12  1  0.64504600  0.39468298  0.29009198  1
  Ir  Ir13  1  0.35495401  0.60531697  0.70990795  1
  Ir  Ir14  1  0.35495400  0.10459100  0.70990797  1
  Ir  Ir15  1  0.64504602  0.89540896  0.29009196  1
