# generated using pymatgen
data_RbMn12P5
_symmetry_space_group_name_H-M   'P 1'
_cell_length_a   6.65455675
_cell_length_b   6.65520668
_cell_length_c   6.65520668
_cell_angle_alpha   60.00234222
_cell_angle_beta   80.40553284
_cell_angle_gamma   99.59446716
_symmetry_Int_Tables_number   1
_chemical_formula_structural   RbMn12P5
_chemical_formula_sum   'Rb1 Mn12 P5'
_cell_volume   240.66145244
_cell_formula_units_Z   1
loop_
 _symmetry_equiv_pos_site_id
 _symmetry_equiv_pos_as_xyz
  1  'x, y, z'
loop_
 _atom_site_type_symbol
 _atom_site_label
 _atom_site_symmetry_multiplicity
 _atom_site_fract_x
 _atom_site_fract_y
 _atom_site_fract_z
 _atom_site_occupancy
  P  P0  1  0.50000004  0.49999999  0.49999998  1
  P  P1  1  0.50000006  0.83330099  0.83330098  1
  P  P2  1  0.50000002  0.16669900  0.16669898  1
  P  P3  1  0.00000004  0.66666666  0.66666667  1
  Rb  Rb4  1  0.00000000  0.00000000  0.00000000  1
  P  P5  1  0.00000002  0.33333333  0.33333333  1
  Mn  Mn6  1  0.62927407  0.88434199  0.11565799  1
  Mn  Mn7  1  0.87667108  0.95783799  0.70775197  1
  Mn  Mn8  1  0.12332904  0.70775199  0.95783799  1
  Mn  Mn9  1  0.88422806  0.62923899  0.37076097  1
  Mn  Mn10  1  0.87667104  0.29224800  0.04216197  1
  Mn  Mn11  1  0.37076305  0.79801799  0.54281199  1
  Mn  Mn12  1  0.37072602  0.11565800  0.88434197  1
  Mn  Mn13  1  0.62923703  0.20198200  0.45718797  1
  Mn  Mn14  1  0.11577202  0.37076099  0.62923899  1
  Mn  Mn15  1  0.12332901  0.04216200  0.29224799  1
  Mn  Mn16  1  0.62923705  0.54281199  0.79801797  1
  Mn  Mn17  1  0.37076304  0.45718799  0.20198199  1
