# generated using pymatgen
data_Nb4CuP
_symmetry_space_group_name_H-M   'P 1'
_cell_length_a   4.99120522
_cell_length_b   6.16434908
_cell_length_c   6.16434908
_cell_angle_alpha   90.00000000
_cell_angle_beta   90.00000000
_cell_angle_gamma   90.00000000
_symmetry_Int_Tables_number   1
_chemical_formula_structural   Nb4CuP
_chemical_formula_sum   'Nb8 Cu2 P2'
_cell_volume   189.66180307
_cell_formula_units_Z   2
loop_
 _symmetry_equiv_pos_site_id
 _symmetry_equiv_pos_as_xyz
  1  'x, y, z'
loop_
 _atom_site_type_symbol
 _atom_site_label
 _atom_site_symmetry_multiplicity
 _atom_site_fract_x
 _atom_site_fract_y
 _atom_site_fract_z
 _atom_site_occupancy
  Nb  Nb0  1  0.49999998  0.66042799  0.16426800  1
  Nb  Nb1  1  0.49999998  0.33957200  0.83573199  1
  Nb  Nb2  1  0.49999998  0.83573199  0.66042799  1
  Nb  Nb3  1  0.49999998  0.16426800  0.33957200  1
  Nb  Nb4  1  0.00000000  0.33957200  0.16426800  1
  Nb  Nb5  1  0.00000000  0.66042799  0.83573199  1
  Nb  Nb6  1  0.99999996  0.16426800  0.66042799  1
  Nb  Nb7  1  0.00000000  0.83573199  0.33957200  1
  Cu  Cu8  1  0.24999999  0.00000000  -0.00000000  1
  Cu  Cu9  1  0.74999997  0.00000000  -0.00000000  1
  P  P10  1  0.24999999  0.49999999  0.49999999  1
  P  P11  1  0.74999997  0.49999999  0.49999999  1
