# generated using pymatgen
data_Hf4Si5Rh3
_symmetry_space_group_name_H-M   'P 1'
_cell_length_a   4.94628620
_cell_length_b   4.98368073
_cell_length_c   8.05810833
_cell_angle_alpha   90.00000000
_cell_angle_beta   90.00000000
_cell_angle_gamma   119.75209808
_symmetry_Int_Tables_number   1
_chemical_formula_structural   Hf4Si5Rh3
_chemical_formula_sum   'Hf4 Si5 Rh3'
_cell_volume   172.45375454
_cell_formula_units_Z   1
loop_
 _symmetry_equiv_pos_site_id
 _symmetry_equiv_pos_as_xyz
  1  'x, y, z'
loop_
 _atom_site_type_symbol
 _atom_site_label
 _atom_site_symmetry_multiplicity
 _atom_site_fract_x
 _atom_site_fract_y
 _atom_site_fract_z
 _atom_site_occupancy
  Hf  Hf0  1  0.66658597  0.33317199  0.68470697  1
  Hf  Hf1  1  0.33353198  0.66706398  0.81166197  1
  Hf  Hf2  1  0.33353198  0.66706398  0.18833799  1
  Hf  Hf3  1  0.66658597  0.33317199  0.31529299  1
  Si  Si4  1  0.33668399  0.16613699  -0.00000000  1
  Si  Si5  1  0.82945297  0.16613699  -0.00000000  1
  Rh  Rh6  1  0.00079400  0.00158800  0.74563797  1
  Rh  Rh7  1  0.00079400  0.00158800  0.25436199  1
  Si  Si8  1  0.16903799  0.33807599  0.49999998  1
  Rh  Rh9  1  0.65977297  0.82962097  0.49999998  1
  Si  Si10  1  0.16984799  0.82962097  0.49999998  1
  Si  Si11  1  0.83163196  0.66326398  0.99999996  1
