# generated using pymatgen
data_KNaCoCl5
_symmetry_space_group_name_H-M   'P 1'
_cell_length_a   5.09845400
_cell_length_b   6.50470448
_cell_length_c   6.84423685
_cell_angle_alpha   115.51123047
_cell_angle_beta   90.00000000
_cell_angle_gamma   113.07308960
_symmetry_Int_Tables_number   1
_chemical_formula_structural   KNaCoCl5
_chemical_formula_sum   'K1 Na1 Co1 Cl5'
_cell_volume   184.52915149
_cell_formula_units_Z   1
loop_
 _symmetry_equiv_pos_site_id
 _symmetry_equiv_pos_as_xyz
  1  'x, y, z'
loop_
 _atom_site_type_symbol
 _atom_site_label
 _atom_site_symmetry_multiplicity
 _atom_site_fract_x
 _atom_site_fract_y
 _atom_site_fract_z
 _atom_site_occupancy
  Na  Na0  1  0.31736396  0.63472802  0.35920502  1
  K  K1  1  0.68263597  0.36527201  0.64079500  1
  Cl  Cl2  1  0.74944300  0.00000000  0.99999998  1
  Co  Co3  1  0.25055693  1.00000003  1.00000002  1
  Cl  Cl4  1  0.65661598  0.31323201  0.06647601  1
  Cl  Cl5  1  0.34338395  0.68676802  0.93352401  1
  Cl  Cl6  1  0.95967794  0.91935603  0.72520703  1
  Cl  Cl7  1  0.04032199  0.08064400  0.27479300  1
