# generated using pymatgen
data_TmMg6Ge5
_symmetry_space_group_name_H-M   'P 1'
_cell_length_a   4.50043821
_cell_length_b   7.08143997
_cell_length_c   7.83904696
_cell_angle_alpha   90.00000000
_cell_angle_beta   90.00000000
_cell_angle_gamma   90.00000000
_symmetry_Int_Tables_number   1
_chemical_formula_structural   TmMg6Ge5
_chemical_formula_sum   'Tm1 Mg6 Ge5'
_cell_volume   249.82715801
_cell_formula_units_Z   1
loop_
 _symmetry_equiv_pos_site_id
 _symmetry_equiv_pos_as_xyz
  1  'x, y, z'
loop_
 _atom_site_type_symbol
 _atom_site_label
 _atom_site_symmetry_multiplicity
 _atom_site_fract_x
 _atom_site_fract_y
 _atom_site_fract_z
 _atom_site_occupancy
  Tm  Tm0  1  0.24999999  0.98163200  0.29722900  1
  Mg  Mg1  1  0.24999999  0.48163200  0.20277100  1
  Mg  Mg2  1  0.74999996  0.01836800  0.70277100  1
  Mg  Mg3  1  0.74999996  0.51836800  0.79722900  1
  Mg  Mg4  1  0.24999999  0.32370300  0.57870000  1
  Mg  Mg5  1  0.24999999  0.82370300  0.92130001  1
  Mg  Mg6  1  0.74999996  0.67629700  0.42130000  1
  Ge  Ge7  1  0.74999996  0.17629700  0.07870000  1
  Ge  Ge8  1  0.24999999  0.21999600  0.90650101  1
  Ge  Ge9  1  0.24999999  0.71999600  0.59349900  1
  Ge  Ge10  1  0.74999996  0.78000400  0.09349900  1
  Ge  Ge11  1  0.74999996  0.28000400  0.40650100  1
