# generated using pymatgen
data_LiF2
_symmetry_space_group_name_H-M   'P 1'
_cell_length_a   3.35918808
_cell_length_b   3.35918880
_cell_length_c   9.99707508
_cell_angle_alpha   90.00000000
_cell_angle_beta   90.00000000
_cell_angle_gamma   119.99999237
_symmetry_Int_Tables_number   1
_chemical_formula_structural   LiF2
_chemical_formula_sum   'Li2 F4'
_cell_volume   97.69500341
_cell_formula_units_Z   2
loop_
 _symmetry_equiv_pos_site_id
 _symmetry_equiv_pos_as_xyz
  1  'x, y, z'
loop_
 _atom_site_type_symbol
 _atom_site_label
 _atom_site_symmetry_multiplicity
 _atom_site_fract_x
 _atom_site_fract_y
 _atom_site_fract_z
 _atom_site_occupancy
  Li  Li0  1  0.66666665  0.33333333  0.35087000  1
  Li  Li1  1  0.33333332  0.66666665  0.64912999  1
  F  F2  1  0.66666665  0.33333333  0.55609200  1
  F  F3  1  0.33333332  0.66666665  0.44390800  1
  F  F4  1  0.66666665  0.33333333  0.82579599  1
  F  F5  1  0.33333332  0.66666665  0.17420400  1
