# generated using pymatgen
data_VCoP
_symmetry_space_group_name_H-M   'P 1'
_cell_length_a   3.60066509
_cell_length_b   5.75563002
_cell_length_c   6.71716118
_cell_angle_alpha   90.00000000
_cell_angle_beta   90.00000000
_cell_angle_gamma   90.00000000
_symmetry_Int_Tables_number   1
_chemical_formula_structural   VCoP
_chemical_formula_sum   'V4 Co4 P4'
_cell_volume   139.20709368
_cell_formula_units_Z   4
loop_
 _symmetry_equiv_pos_site_id
 _symmetry_equiv_pos_as_xyz
  1  'x, y, z'
loop_
 _atom_site_type_symbol
 _atom_site_label
 _atom_site_symmetry_multiplicity
 _atom_site_fract_x
 _atom_site_fract_y
 _atom_site_fract_z
 _atom_site_occupancy
  V  V0  1  0.24999999  0.02608400  0.32161599  1
  V  V1  1  0.24999999  0.52608400  0.17838400  1
  V  V2  1  0.74999998  0.97391600  0.67838398  1
  V  V3  1  0.74999998  0.47391600  0.82161598  1
  Co  Co4  1  0.24999999  0.14553800  0.94225197  1
  Co  Co5  1  0.24999999  0.64553800  0.55774799  1
  Co  Co6  1  0.74999998  0.85446200  0.05774800  1
  Co  Co7  1  0.74999998  0.35446200  0.44225199  1
  P  P8  1  0.24999999  0.26062700  0.62482398  1
  P  P9  1  0.24999999  0.76062700  0.87517598  1
  P  P10  1  0.74999998  0.73937300  0.37517599  1
  P  P11  1  0.74999998  0.23937300  0.12482400  1
