# generated using pymatgen
data_MgAu
_symmetry_space_group_name_H-M   'P 1'
_cell_length_a   3.81628990
_cell_length_b   4.16752481
_cell_length_c   10.97130489
_cell_angle_alpha   90.00000000
_cell_angle_beta   90.00000000
_cell_angle_gamma   90.00000000
_symmetry_Int_Tables_number   1
_chemical_formula_structural   MgAu
_chemical_formula_sum   'Mg4 Au4'
_cell_volume   174.49293069
_cell_formula_units_Z   4
loop_
 _symmetry_equiv_pos_site_id
 _symmetry_equiv_pos_as_xyz
  1  'x, y, z'
loop_
 _atom_site_type_symbol
 _atom_site_label
 _atom_site_symmetry_multiplicity
 _atom_site_fract_x
 _atom_site_fract_y
 _atom_site_fract_z
 _atom_site_occupancy
  Mg  Mg0  1  0.00000000  0.75000003  0.86308201  1
  Mg  Mg1  1  0.00000000  0.25000001  0.14330800  1
  Mg  Mg2  1  0.50000001  0.25000001  0.63201701  1
  Mg  Mg3  1  0.50000001  0.75000003  0.36061800  1
  Au  Au4  1  0.50000001  0.75000003  0.09287700  1
  Au  Au5  1  0.00000000  0.75000003  0.59589301  1
  Au  Au6  1  0.00000000  0.25000001  0.40921400  1
  Au  Au7  1  0.50000001  0.25000001  0.90299101  1
