# generated using pymatgen
data_ZnS
_symmetry_space_group_name_H-M   'P 1'
_cell_length_a   3.29083514
_cell_length_b   3.29083514
_cell_length_c   13.50751209
_cell_angle_alpha   83.00313568
_cell_angle_beta   83.00313568
_cell_angle_gamma   60.00001907
_symmetry_Int_Tables_number   1
_chemical_formula_structural   ZnS
_chemical_formula_sum   'Zn5 S5'
_cell_volume   125.42351275
_cell_formula_units_Z   5
loop_
 _symmetry_equiv_pos_site_id
 _symmetry_equiv_pos_as_xyz
  1  'x, y, z'
loop_
 _atom_site_type_symbol
 _atom_site_label
 _atom_site_symmetry_multiplicity
 _atom_site_fract_x
 _atom_site_fract_y
 _atom_site_fract_z
 _atom_site_occupancy
  S  S0  1  0.10221800  0.10221800  0.69334601  1
  S  S1  1  0.70071197  0.70071198  0.89786403  1
  S  S2  1  0.29928799  0.29928799  0.10213601  1
  S  S3  1  0.89778196  0.89778197  0.30665403  1
  S  S4  1  0.49999998  0.49999998  0.50000002  1
  Zn  Zn5  1  0.59806397  0.59806398  0.20580802  1
  Zn  Zn6  1  0.40193598  0.40193599  0.79419202  1
  Zn  Zn7  1  0.00000000  0.00000000  0.00000000  1
  Zn  Zn8  1  0.19559699  0.19559699  0.41320901  1
  Zn  Zn9  1  0.80440296  0.80440298  0.58679103  1
