# generated using pymatgen
data_NaLiMn6O12
_symmetry_space_group_name_H-M   'P 1'
_cell_length_a   6.33358049
_cell_length_b   6.35780668
_cell_length_c   6.36395550
_cell_angle_alpha   70.31761932
_cell_angle_beta   70.73462677
_cell_angle_gamma   109.35863495
_symmetry_Int_Tables_number   1
_chemical_formula_structural   NaLiMn6O12
_chemical_formula_sum   'Na1 Li1 Mn6 O12'
_cell_volume   197.52893749
_cell_formula_units_Z   1
loop_
 _symmetry_equiv_pos_site_id
 _symmetry_equiv_pos_as_xyz
  1  'x, y, z'
loop_
 _atom_site_type_symbol
 _atom_site_label
 _atom_site_symmetry_multiplicity
 _atom_site_fract_x
 _atom_site_fract_y
 _atom_site_fract_z
 _atom_site_occupancy
  Na  Na0  1  0.00000200  0.00000200  0.99999399  1
  Mn  Mn1  1  0.00000100  0.00000100  0.49999699  1
  Mn  Mn2  1  0.99999906  0.49999905  0.00000091  1
  Li  Li3  1  0.49999814  0.99999611  0.00000186  1
  Mn  Mn4  1  0.50000307  0.50000105  0.49999792  1
  Mn  Mn5  1  0.50000700  0.00001100  0.49999698  1
  Mn  Mn6  1  0.99999406  0.49999805  0.50001090  1
  Mn  Mn7  1  0.49999607  0.49999705  0.00000492  1
  O  O8  1  0.16847207  0.47705405  0.69334693  1
  O  O9  1  0.83153007  0.52294306  0.30665691  1
  O  O10  1  0.16899012  0.85914709  0.31447589  1
  O  O11  1  0.68525002  0.16893702  0.14048496  1
  O  O12  1  0.52230609  0.69195407  0.16797290  1
  O  O13  1  0.85967309  0.68058807  0.83457688  1
  O  O14  1  0.30468702  0.16602302  0.51939896  1
  O  O15  1  0.47769404  0.30804503  0.83202794  1
  O  O16  1  0.83101001  0.14084901  0.68552395  1
  O  O17  1  0.31475311  0.83106609  0.85950688  1
  O  O18  1  0.14032104  0.31940703  0.16542595  1
  O  O19  1  0.69531411  0.83398109  0.48059687  1
