# generated using pymatgen
data_TmB2
_symmetry_space_group_name_H-M   'P 1'
_cell_length_a   3.09667993
_cell_length_b   3.09668040
_cell_length_c   3.34260988
_cell_angle_alpha   90.00000000
_cell_angle_beta   90.00000000
_cell_angle_gamma   119.99999237
_symmetry_Int_Tables_number   1
_chemical_formula_structural   TmB2
_chemical_formula_sum   'Tm1 B2'
_cell_volume   27.75933528
_cell_formula_units_Z   1
loop_
 _symmetry_equiv_pos_site_id
 _symmetry_equiv_pos_as_xyz
  1  'x, y, z'
loop_
 _atom_site_type_symbol
 _atom_site_label
 _atom_site_symmetry_multiplicity
 _atom_site_fract_x
 _atom_site_fract_y
 _atom_site_fract_z
 _atom_site_occupancy
  Tm  Tm0  1  0.00000000  0.00000000  0.00000000  1
  B  B1  1  0.33333329  0.66666664  0.50000002  1
  B  B2  1  0.66666666  0.33333332  0.50000002  1
