# generated using pymatgen
data_In2Au
_symmetry_space_group_name_H-M   'P 1'
_cell_length_a   5.89249468
_cell_length_b   5.89249468
_cell_length_c   5.89249468
_cell_angle_alpha   60.00000000
_cell_angle_beta   60.00000000
_cell_angle_gamma   60.00000000
_symmetry_Int_Tables_number   1
_chemical_formula_structural   In2Au
_chemical_formula_sum   'In6 Au3'
_cell_volume   144.67137166
_cell_formula_units_Z   3
loop_
 _symmetry_equiv_pos_site_id
 _symmetry_equiv_pos_as_xyz
  1  'x, y, z'
loop_
 _atom_site_type_symbol
 _atom_site_label
 _atom_site_symmetry_multiplicity
 _atom_site_fract_x
 _atom_site_fract_y
 _atom_site_fract_z
 _atom_site_occupancy
  Au  Au0  1  0.75000001  0.75000001  0.75000001  1
  Au  Au1  1  0.25000000  0.25000000  0.25000000  1
  Au  Au2  1  0.00000000  0.00000000  0.00000000  1
  In  In3  1  0.22440000  0.77560001  0.22440000  1
  In  In4  1  0.77560001  0.22440000  0.77560001  1
  In  In5  1  0.22440000  0.77560001  0.77560001  1
  In  In6  1  0.77560001  0.22440000  0.22440000  1
  In  In7  1  0.22440000  0.22440000  0.77560001  1
  In  In8  1  0.77560001  0.77560001  0.22440000  1
