# generated using pymatgen
data_Na2P4H3O10
_symmetry_space_group_name_H-M   'P 1'
_cell_length_a   5.51251888
_cell_length_b   5.77383804
_cell_length_c   6.88634872
_cell_angle_alpha   107.64215851
_cell_angle_beta   97.09591675
_cell_angle_gamma   108.73522186
_symmetry_Int_Tables_number   1
_chemical_formula_structural   Na2P4H3O10
_chemical_formula_sum   'Na2 P4 H3 O10'
_cell_volume   191.78954326
_cell_formula_units_Z   1
loop_
 _symmetry_equiv_pos_site_id
 _symmetry_equiv_pos_as_xyz
  1  'x, y, z'
loop_
 _atom_site_type_symbol
 _atom_site_label
 _atom_site_symmetry_multiplicity
 _atom_site_fract_x
 _atom_site_fract_y
 _atom_site_fract_z
 _atom_site_occupancy
  Na  Na0  1  0.34822403  0.70063403  0.24048598  1
  Na  Na1  1  0.65177602  0.29936601  0.75951397  1
  H  H2  1  0.00000000  0.00000000  0.00000000  1
  P  P3  1  0.33664703  0.66386903  0.75650997  1
  P  P4  1  0.66335302  0.33613101  0.24348998  1
  H  H5  1  0.85384204  0.87610903  0.60233496  1
  H  H6  1  0.14615801  0.12389100  0.39766499  1
  P  P7  1  0.08040201  0.17135001  0.68370098  1
  P  P8  1  0.91959804  0.82865003  0.31629896  1
  O  O9  1  0.93157902  0.04984500  0.72260897  1
  O  O10  1  0.40345502  0.25737101  0.07355299  1
  O  O11  1  0.59654503  0.74262903  0.92644696  1
  O  O12  1  0.89092703  0.33343401  0.12746498  1
  O  O13  1  0.10907302  0.66656603  0.87253497  1
  O  O14  1  0.63285702  0.16075301  0.37505798  1
  O  O15  1  0.36714303  0.83924703  0.62494196  1
  O  O16  1  0.72223203  0.62727002  0.38384197  1
  O  O17  1  0.27776802  0.37273001  0.61615798  1
  O  O18  1  0.06842103  0.95015504  0.27739097  1
