# generated using pymatgen
data_Mn3VO8
_symmetry_space_group_name_H-M   'P 1'
_cell_length_a   4.79535007
_cell_length_b   5.02907944
_cell_length_c   5.71957493
_cell_angle_alpha   90.00000000
_cell_angle_beta   90.00000000
_cell_angle_gamma   92.60713959
_symmetry_Int_Tables_number   1
_chemical_formula_structural   Mn3VO8
_chemical_formula_sum   'Mn3 V1 O8'
_cell_volume   137.79161802
_cell_formula_units_Z   1
loop_
 _symmetry_equiv_pos_site_id
 _symmetry_equiv_pos_as_xyz
  1  'x, y, z'
loop_
 _atom_site_type_symbol
 _atom_site_label
 _atom_site_symmetry_multiplicity
 _atom_site_fract_x
 _atom_site_fract_y
 _atom_site_fract_z
 _atom_site_occupancy
  V  V0  1  0.00000002  0.75000002  0.17459300  1
  Mn  Mn1  1  0.00000001  0.25000001  0.82540701  1
  Mn  Mn2  1  0.50000001  0.75000002  0.69719101  1
  Mn  Mn3  1  0.50000000  0.25000001  0.30280900  1
  O  O4  1  0.78988900  0.54700401  0.90444201  1
  O  O5  1  0.21011102  0.95299602  0.90444201  1
  O  O6  1  0.21011101  0.45299601  0.09555800  1
  O  O7  1  0.78988899  0.04700400  0.09555800  1
  O  O8  1  0.75028300  0.61195701  0.37545700  1
  O  O9  1  0.24971701  0.88804302  0.37545700  1
  O  O10  1  0.24971700  0.38804301  0.62454301  1
  O  O11  1  0.75028299  0.11195700  0.62454301  1
