# generated using pymatgen
data_La(B3Ir)2
_symmetry_space_group_name_H-M   'P 1'
_cell_length_a   3.11195612
_cell_length_b   5.54628801
_cell_length_c   5.54628801
_cell_angle_alpha   72.93862915
_cell_angle_beta   73.70732117
_cell_angle_gamma   73.70732117
_symmetry_Int_Tables_number   1
_chemical_formula_structural   La(B3Ir)2
_chemical_formula_sum   'La1 B6 Ir2'
_cell_volume   85.76554740
_cell_formula_units_Z   1
loop_
 _symmetry_equiv_pos_site_id
 _symmetry_equiv_pos_as_xyz
  1  'x, y, z'
loop_
 _atom_site_type_symbol
 _atom_site_label
 _atom_site_symmetry_multiplicity
 _atom_site_fract_x
 _atom_site_fract_y
 _atom_site_fract_z
 _atom_site_occupancy
  La  La0  1  -0.00000003  0.49999998  0.50000002  1
  Ir  Ir1  1  0.84612296  0.15387699  0.15387699  1
  Ir  Ir2  1  0.15387695  0.84612296  0.84612302  1
  B  B3  1  0.49999998  0.13837899  0.86162097  1
  B  B4  1  0.49999993  0.86162096  0.13837905  1
  B  B5  1  0.69777098  0.03703600  0.56742197  1
  B  B6  1  0.30222797  0.43257798  0.96296499  1
  B  B7  1  0.69777194  0.56742197  0.03703503  1
  B  B8  1  0.30222893  0.96296395  0.43257805  1
