# generated using pymatgen
data_Mn3O4
_symmetry_space_group_name_H-M   'P 1'
_cell_length_a   5.82787323
_cell_length_b   5.87694836
_cell_length_c   5.92016697
_cell_angle_alpha   60.45883560
_cell_angle_beta   60.51522827
_cell_angle_gamma   60.29710007
_symmetry_Int_Tables_number   1
_chemical_formula_structural   Mn3O4
_chemical_formula_sum   'Mn6 O8'
_cell_volume   144.75003305
_cell_formula_units_Z   2
loop_
 _symmetry_equiv_pos_site_id
 _symmetry_equiv_pos_as_xyz
  1  'x, y, z'
loop_
 _atom_site_type_symbol
 _atom_site_label
 _atom_site_symmetry_multiplicity
 _atom_site_fract_x
 _atom_site_fract_y
 _atom_site_fract_z
 _atom_site_occupancy
  Mn  Mn0  1  0.62500001  0.12500000  0.62499999  1
  Mn  Mn1  1  0.62500001  0.62500001  0.62499999  1
  Mn  Mn2  1  0.12500000  0.62500001  0.62500000  1
  Mn  Mn3  1  0.25408300  0.25024900  0.24150000  1
  Mn  Mn4  1  0.99591702  0.99975102  0.00850098  1
  Mn  Mn5  1  0.62500001  0.62500001  0.12499999  1
  O  O6  1  0.38942301  0.37584901  0.84475800  1
  O  O7  1  0.40349801  0.86081601  0.87856100  1
  O  O8  1  0.39242901  0.38950101  0.37148100  1
  O  O9  1  0.84650201  0.38918601  0.37143799  1
  O  O10  1  0.39154601  0.84403601  0.37292799  1
  O  O11  1  0.85757101  0.86049801  0.87851999  1
  O  O12  1  0.86057701  0.87415001  0.40524299  1
  O  O13  1  0.85845401  0.40596401  0.87707199  1
