# generated using pymatgen
data_Li3V3F14
_symmetry_space_group_name_H-M   'P 1'
_cell_length_a   5.39719725
_cell_length_b   6.06695938
_cell_length_c   7.56783199
_cell_angle_alpha   89.99698639
_cell_angle_beta   89.97892761
_cell_angle_gamma   89.95960999
_symmetry_Int_Tables_number   1
_chemical_formula_structural   Li3V3F14
_chemical_formula_sum   'Li3 V3 F14'
_cell_volume   247.80537471
_cell_formula_units_Z   1
loop_
 _symmetry_equiv_pos_site_id
 _symmetry_equiv_pos_as_xyz
  1  'x, y, z'
loop_
 _atom_site_type_symbol
 _atom_site_label
 _atom_site_symmetry_multiplicity
 _atom_site_fract_x
 _atom_site_fract_y
 _atom_site_fract_z
 _atom_site_occupancy
  Li  Li0  1  -0.00000003  0.50000000  0.00000001  1
  V  V1  1  0.50000002  0.00000000  0.00000002  1
  V  V2  1  0.50000002  0.00000000  0.50000003  1
  Li  Li3  1  -0.00000003  0.50000000  0.50000002  1
  Li  Li4  1  0.51228398  0.48622900  0.24996803  1
  F  F5  1  0.01178600  0.01411500  0.75018402  1
  F  F6  1  0.98821496  0.98588499  0.24981606  1
  V  V7  1  0.48771498  0.51377100  0.75003205  1
  F  F8  1  0.83928700  0.44754700  0.75011306  1
  F  F9  1  0.86380002  0.18239400  0.43570304  1
  F  F10  1  0.86410802  0.18281200  0.06448303  1
  F  F11  1  0.16071297  0.55245300  0.24988702  1
  F  F12  1  0.63609697  0.68230200  0.43623005  1
  F  F13  1  0.13589195  0.81718799  0.93551705  1
  F  F14  1  0.33966401  0.05202800  0.24963002  1
  F  F15  1  0.63534097  0.68301900  0.06428103  1
  F  F16  1  0.36390299  0.31769800  0.56377003  1
  F  F17  1  0.13619995  0.81760599  0.56429804  1
  F  F18  1  0.66033496  0.94797199  0.75037006  1
  F  F19  1  0.36465999  0.31698100  0.93571905  1
