# generated using pymatgen
data_TmSiPt2
_symmetry_space_group_name_H-M   'P 1'
_cell_length_a   4.05377197
_cell_length_b   5.42113543
_cell_length_c   6.85229301
_cell_angle_alpha   90.00000000
_cell_angle_beta   90.00000000
_cell_angle_gamma   111.95546722
_symmetry_Int_Tables_number   1
_chemical_formula_structural   TmSiPt2
_chemical_formula_sum   'Tm2 Si2 Pt4'
_cell_volume   139.66500011
_cell_formula_units_Z   2
loop_
 _symmetry_equiv_pos_site_id
 _symmetry_equiv_pos_as_xyz
  1  'x, y, z'
loop_
 _atom_site_type_symbol
 _atom_site_label
 _atom_site_symmetry_multiplicity
 _atom_site_fract_x
 _atom_site_fract_y
 _atom_site_fract_z
 _atom_site_occupancy
  Tm  Tm0  1  0.06292499  0.12585000  0.25000000  1
  Tm  Tm1  1  0.93707494  0.87414997  0.75000000  1
  Pt  Pt2  1  0.34596495  0.69192998  0.05376500  1
  Pt  Pt3  1  0.65403498  0.30806999  0.94623500  1
  Pt  Pt4  1  0.65403498  0.30806999  0.55376500  1
  Pt  Pt5  1  0.34596495  0.69192998  0.44623500  1
  Si  Si6  1  0.78533196  0.57066398  0.25000000  1
  Si  Si7  1  0.21466797  0.42933599  0.75000000  1
