# generated using pymatgen
data_LiTmUTe6
_symmetry_space_group_name_H-M   'P 1'
_cell_length_a   3.93167210
_cell_length_b   7.49018002
_cell_length_c   7.49017906
_cell_angle_alpha   120.00000763
_cell_angle_beta   90.00000000
_cell_angle_gamma   90.00000000
_symmetry_Int_Tables_number   1
_chemical_formula_structural   LiTmUTe6
_chemical_formula_sum   'Li1 Tm1 U1 Te6'
_cell_volume   191.02593945
_cell_formula_units_Z   1
loop_
 _symmetry_equiv_pos_site_id
 _symmetry_equiv_pos_as_xyz
  1  'x, y, z'
loop_
 _atom_site_type_symbol
 _atom_site_label
 _atom_site_symmetry_multiplicity
 _atom_site_fract_x
 _atom_site_fract_y
 _atom_site_fract_z
 _atom_site_occupancy
  Tm  Tm0  1  0.49999999  0.59862802  0.00000004  1
  U  U1  1  0.49999999  0.40137201  0.40137202  1
  Te  Te2  1  0.49999999  0.00000000  0.59862800  1
  Li  Li3  1  0.99999998  0.26201901  0.00000002  1
  Te  Te4  1  -0.00000000  0.73798102  0.73798104  1
  Te  Te5  1  -0.00000000  0.00000000  0.26201900  1
  Te  Te6  1  0.99999998  0.33333334  0.66666668  1
  Te  Te7  1  0.99999998  0.66666669  0.33333337  1
  Te  Te8  1  0.49999999  0.00000000  -0.00000000  1
