# generated using pymatgen
data_K2GaCl4
_symmetry_space_group_name_H-M   'P 1'
_cell_length_a   4.66293621
_cell_length_b   4.66293621
_cell_length_c   9.20164299
_cell_angle_alpha   104.67733002
_cell_angle_beta   104.67733002
_cell_angle_gamma   90.00000000
_symmetry_Int_Tables_number   1
_chemical_formula_structural   K2GaCl4
_chemical_formula_sum   'K2 Ga1 Cl4'
_cell_volume   186.78562007
_cell_formula_units_Z   1
loop_
 _symmetry_equiv_pos_site_id
 _symmetry_equiv_pos_as_xyz
  1  'x, y, z'
loop_
 _atom_site_type_symbol
 _atom_site_label
 _atom_site_symmetry_multiplicity
 _atom_site_fract_x
 _atom_site_fract_y
 _atom_site_fract_z
 _atom_site_occupancy
  K  K0  1  0.62689599  0.62689598  0.25379203  1
  K  K1  1  0.37310399  0.37310399  0.74620803  1
  Ga  Ga2  1  0.00000000  0.00000000  0.00000000  1
  Cl  Cl3  1  0.00000001  0.49999998  0.00000001  1
  Cl  Cl4  1  0.49999998  0.00000000  0.00000001  1
  Cl  Cl5  1  0.18506100  0.18506099  0.37012202  1
  Cl  Cl6  1  0.81493898  0.81493897  0.62987805  1
