# generated using pymatgen
data_NaVO4
_symmetry_space_group_name_H-M   'P 1'
_cell_length_a   6.13856459
_cell_length_b   6.13856459
_cell_length_c   6.13856459
_cell_angle_alpha   106.27832794
_cell_angle_beta   106.27832794
_cell_angle_gamma   116.06513977
_symmetry_Int_Tables_number   1
_chemical_formula_structural   NaVO4
_chemical_formula_sum   'Na2 V2 O8'
_cell_volume   176.27639607
_cell_formula_units_Z   2
loop_
 _symmetry_equiv_pos_site_id
 _symmetry_equiv_pos_as_xyz
  1  'x, y, z'
loop_
 _atom_site_type_symbol
 _atom_site_label
 _atom_site_symmetry_multiplicity
 _atom_site_fract_x
 _atom_site_fract_y
 _atom_site_fract_z
 _atom_site_occupancy
  Na  Na0  1  0.75000001  0.25000000  0.49999998  1
  V  V1  1  0.25000002  0.75000001  0.49999999  1
  V  V2  1  0.50000002  0.50000001  -0.00000002  1
  Na  Na3  1  0.00000000  0.00000000  0.00000000  1
  O  O4  1  0.07918702  0.76157501  0.68238799  1
  O  O5  1  0.51126501  0.32865601  0.18260898  1
  O  O6  1  0.14604701  0.32865601  0.81739100  1
  O  O7  1  0.07918701  0.39679901  0.31761200  1
  O  O8  1  0.67134402  0.48873501  0.81739098  1
  O  O9  1  0.23842503  0.92081302  0.31761199  1
  O  O10  1  0.60320103  0.92081302  0.68238798  1
  O  O11  1  0.67134403  0.85395302  0.18260897  1
