# generated using pymatgen
data_Sm5Br4
_symmetry_space_group_name_H-M   'P 1'
_cell_length_a   6.07980442
_cell_length_b   6.07980442
_cell_length_c   6.07980442
_cell_angle_alpha   60.00000000
_cell_angle_beta   60.00000000
_cell_angle_gamma   60.00000000
_symmetry_Int_Tables_number   1
_chemical_formula_structural   Sm5Br4
_chemical_formula_sum   'Sm5 Br4'
_cell_volume   158.91095169
_cell_formula_units_Z   1
loop_
 _symmetry_equiv_pos_site_id
 _symmetry_equiv_pos_as_xyz
  1  'x, y, z'
loop_
 _atom_site_type_symbol
 _atom_site_label
 _atom_site_symmetry_multiplicity
 _atom_site_fract_x
 _atom_site_fract_y
 _atom_site_fract_z
 _atom_site_occupancy
  Sm  Sm0  1  0.25000000  0.25000000  0.25000000  1
  Br  Br1  1  0.75000001  0.75000001  0.75000001  1
  Sm  Sm2  1  0.80734001  0.80734001  0.19266000  1
  Sm  Sm3  1  0.19266000  0.80734001  0.80734001  1
  Br  Br4  1  0.19266000  0.80734001  0.19266000  1
  Br  Br5  1  0.19266000  0.19266000  0.80734001  1
  Br  Br6  1  0.80734001  0.19266000  0.19266000  1
  Sm  Sm7  1  0.80734001  0.19266000  0.80734001  1
  Sm  Sm8  1  0.00000000  0.00000000  0.00000000  1
