# generated using pymatgen
data_Rb2NaAlCl6
_symmetry_space_group_name_H-M   'P 1'
_cell_length_a   6.99375296
_cell_length_b   6.99375296
_cell_length_c   6.99375296
_cell_angle_alpha   60.00000000
_cell_angle_beta   60.00000000
_cell_angle_gamma   60.00000000
_symmetry_Int_Tables_number   1
_chemical_formula_structural   Rb2NaAlCl6
_chemical_formula_sum   'Rb2 Na1 Al1 Cl6'
_cell_volume   241.88885822
_cell_formula_units_Z   1
loop_
 _symmetry_equiv_pos_site_id
 _symmetry_equiv_pos_as_xyz
  1  'x, y, z'
loop_
 _atom_site_type_symbol
 _atom_site_label
 _atom_site_symmetry_multiplicity
 _atom_site_fract_x
 _atom_site_fract_y
 _atom_site_fract_z
 _atom_site_occupancy
  Rb  Rb0  1  0.24999999  0.24999999  0.24999999  1
  Rb  Rb1  1  0.74999998  0.74999998  0.74999998  1
  Na  Na2  1  0.49999999  0.49999999  0.49999999  1
  Al  Al3  1  0.00000000  0.00000000  0.00000000  1
  Cl  Cl4  1  0.21370199  0.78629798  0.21370199  1
  Cl  Cl5  1  0.21370199  0.21370199  0.78629798  1
  Cl  Cl6  1  0.78629798  0.21370199  0.78629798  1
  Cl  Cl7  1  0.21370199  0.78629798  0.78629798  1
  Cl  Cl8  1  0.78629798  0.21370199  0.21370199  1
  Cl  Cl9  1  0.78629798  0.78629798  0.21370199  1
