# generated using pymatgen
data_Te2Pt
_symmetry_space_group_name_H-M   'P 1'
_cell_length_a   4.66819763
_cell_length_b   4.66819763
_cell_length_c   8.04741764
_cell_angle_alpha   73.13945770
_cell_angle_beta   73.13945770
_cell_angle_gamma   60.00000381
_symmetry_Int_Tables_number   1
_chemical_formula_structural   Te2Pt
_chemical_formula_sum   'Te4 Pt2'
_cell_volume   143.10386401
_cell_formula_units_Z   2
loop_
 _symmetry_equiv_pos_site_id
 _symmetry_equiv_pos_as_xyz
  1  'x, y, z'
loop_
 _atom_site_type_symbol
 _atom_site_label
 _atom_site_symmetry_multiplicity
 _atom_site_fract_x
 _atom_site_fract_y
 _atom_site_fract_z
 _atom_site_occupancy
  Te  Te0  1  0.62155301  0.62155301  0.13534100  1
  Te  Te1  1  0.12813700  0.12813700  0.61558902  1
  Te  Te2  1  0.87186302  0.87186302  0.38441101  1
  Te  Te3  1  0.37844701  0.37844701  0.86465903  1
  Pt  Pt4  1  0.50000001  0.50000001  0.50000001  1
  Pt  Pt5  1  0.00000000  0.00000000  0.00000000  1
