# generated using pymatgen
data_Dy2GaSi2Pd3
_symmetry_space_group_name_H-M   'P 1'
_cell_length_a   4.11439323
_cell_length_b   5.47991371
_cell_length_c   6.85642862
_cell_angle_alpha   89.69759369
_cell_angle_beta   89.98815918
_cell_angle_gamma   111.95985413
_symmetry_Int_Tables_number   1
_chemical_formula_structural   Dy2GaSi2Pd3
_chemical_formula_sum   'Dy2 Ga1 Si2 Pd3'
_cell_volume   143.37020590
_cell_formula_units_Z   1
loop_
 _symmetry_equiv_pos_site_id
 _symmetry_equiv_pos_as_xyz
  1  'x, y, z'
loop_
 _atom_site_type_symbol
 _atom_site_label
 _atom_site_symmetry_multiplicity
 _atom_site_fract_x
 _atom_site_fract_y
 _atom_site_fract_z
 _atom_site_occupancy
  Dy  Dy0  1  0.06670599  0.13109800  0.74814701  1
  Dy  Dy1  1  0.94149597  0.87848202  0.24898403  1
  Pd  Pd2  1  0.65896199  0.31609301  0.44296902  1
  Pd  Pd3  1  0.34696397  0.69120401  0.94318703  1
  Pd  Pd4  1  0.34765697  0.69413501  0.55392103  1
  Ga  Ga5  1  0.66184299  0.32057601  0.05450201  1
  Si  Si6  1  0.79100398  0.57816601  0.74703203  1
  Si  Si7  1  0.21771598  0.43257301  0.24914601  1
