# generated using pymatgen
data_ZnS
_symmetry_space_group_name_H-M   'P 1'
_cell_length_a   3.88063407
_cell_length_b   3.88063335
_cell_length_c   12.73254108
_cell_angle_alpha   90.00000000
_cell_angle_beta   90.00000000
_cell_angle_gamma   120.00000763
_symmetry_Int_Tables_number   1
_chemical_formula_structural   ZnS
_chemical_formula_sum   'Zn4 S4'
_cell_volume   166.05462983
_cell_formula_units_Z   4
loop_
 _symmetry_equiv_pos_site_id
 _symmetry_equiv_pos_as_xyz
  1  'x, y, z'
loop_
 _atom_site_type_symbol
 _atom_site_label
 _atom_site_symmetry_multiplicity
 _atom_site_fract_x
 _atom_site_fract_y
 _atom_site_fract_z
 _atom_site_occupancy
  Zn  Zn0  1  0.00000000  0.00000000  0.75199500  1
  Zn  Zn1  1  0.00000000  0.00000000  0.25052200  1
  S  S2  1  0.66666668  0.33333335  0.00295600  1
  Zn  Zn3  1  0.66666668  0.33333335  0.49751500  1
  S  S4  1  0.00000000  0.00000000  0.94119299  1
  S  S5  1  0.00000000  0.00000000  0.43644600  1
  S  S6  1  0.66666668  0.33333335  0.68260400  1
  Zn  Zn7  1  0.66666668  0.33333335  0.18876700  1
