# generated using pymatgen
data_Rb2TbAgCl6
_symmetry_space_group_name_H-M   'P 1'
_cell_length_a   7.66215181
_cell_length_b   7.66215086
_cell_length_c   7.66215134
_cell_angle_alpha   59.99999619
_cell_angle_beta   59.99999619
_cell_angle_gamma   60.00000000
_symmetry_Int_Tables_number   1
_chemical_formula_structural   Rb2TbAgCl6
_chemical_formula_sum   'Rb2 Tb1 Ag1 Cl6'
_cell_volume   318.08057942
_cell_formula_units_Z   1
loop_
 _symmetry_equiv_pos_site_id
 _symmetry_equiv_pos_as_xyz
  1  'x, y, z'
loop_
 _atom_site_type_symbol
 _atom_site_label
 _atom_site_symmetry_multiplicity
 _atom_site_fract_x
 _atom_site_fract_y
 _atom_site_fract_z
 _atom_site_occupancy
  Rb  Rb0  1  0.75000000  0.75000002  0.74999998  1
  Rb  Rb1  1  0.25000000  0.25000001  0.24999999  1
  Tb  Tb2  1  0.00000000  0.00000000  0.00000000  1
  Ag  Ag3  1  0.50000000  0.50000001  0.49999998  1
  Cl  Cl4  1  0.25306701  0.74693302  0.74693297  1
  Cl  Cl5  1  0.74693300  0.74693302  0.25306698  1
  Cl  Cl6  1  0.74693299  0.25306701  0.25306700  1
  Cl  Cl7  1  0.25306701  0.74693302  0.25306698  1
  Cl  Cl8  1  0.74693299  0.25306701  0.74693299  1
  Cl  Cl9  1  0.25306700  0.25306701  0.74693299  1
