# generated using pymatgen
data_W9S5
_symmetry_space_group_name_H-M   'P 1'
_cell_length_a   7.25626040
_cell_length_b   7.25836134
_cell_length_c   7.42782784
_cell_angle_alpha   60.82830048
_cell_angle_beta   60.79220200
_cell_angle_gamma   60.04093552
_symmetry_Int_Tables_number   1
_chemical_formula_structural   W9S5
_chemical_formula_sum   'W9 S5'
_cell_volume   280.05746909
_cell_formula_units_Z   1
loop_
 _symmetry_equiv_pos_site_id
 _symmetry_equiv_pos_as_xyz
  1  'x, y, z'
loop_
 _atom_site_type_symbol
 _atom_site_label
 _atom_site_symmetry_multiplicity
 _atom_site_fract_x
 _atom_site_fract_y
 _atom_site_fract_z
 _atom_site_occupancy
  S  S0  1  0.87499602  0.87479800  0.87562204  1
  W  W1  1  0.12501900  0.12520600  0.12436601  1
  S  S2  1  0.49995301  0.50004500  0.50000402  1
  S  S3  1  0.99999601  0.50003500  0.49998803  1
  S  S4  1  0.49998802  0.99999800  0.50000904  1
  S  S5  1  0.50002301  0.49993900  0.99999003  1
  W  W6  1  0.74231501  0.74227700  0.73364104  1
  W  W7  1  0.71789701  0.25778900  0.26645502  1
  W  W8  1  0.25862700  0.25836500  0.72451401  1
  W  W9  1  0.25793501  0.71773300  0.26623303  1
  W  W10  1  0.74135001  0.74165200  0.27548904  1
  W  W11  1  0.74209501  0.28222400  0.73374002  1
  W  W12  1  0.25766900  0.25774500  0.26636001  1
  W  W13  1  0.28213901  0.74219900  0.73358503  1
