# generated using pymatgen
data_V3(O2F)2
_symmetry_space_group_name_H-M   'P 1'
_cell_length_a   4.66778994
_cell_length_b   4.67650747
_cell_length_c   9.23725319
_cell_angle_alpha   89.60181427
_cell_angle_beta   89.97724915
_cell_angle_gamma   89.99057770
_symmetry_Int_Tables_number   1
_chemical_formula_structural   V3(O2F)2
_chemical_formula_sum   'V6 O8 F4'
_cell_volume   201.63469187
_cell_formula_units_Z   2
loop_
 _symmetry_equiv_pos_site_id
 _symmetry_equiv_pos_as_xyz
  1  'x, y, z'
loop_
 _atom_site_type_symbol
 _atom_site_label
 _atom_site_symmetry_multiplicity
 _atom_site_fract_x
 _atom_site_fract_y
 _atom_site_fract_z
 _atom_site_occupancy
  V  V0  1  0.49813904  0.49291501  0.49787101  1
  V  V1  1  0.02243500  0.03019100  0.34127101  1
  V  V2  1  0.52751604  0.45726301  0.15542401  1
  V  V3  1  0.00164004  0.99332103  0.99788201  1
  V  V4  1  0.97278408  0.95689703  0.65538302  1
  V  V5  1  0.47738504  0.52979301  0.84124302  1
  O  O6  1  0.80808904  0.20085101  0.50474002  1
  O  O7  1  0.30303702  0.30317101  0.00525500  1
  O  O8  1  0.69171005  0.70147302  0.00473601  1
  O  O9  1  0.19721404  0.80302902  0.50531200  1
  O  O10  1  0.80650404  0.20144001  0.16827002  1
  O  O11  1  0.31752902  0.31526701  0.32815801  1
  F  F12  1  0.69353305  0.70073402  0.66839002  1
  O  O13  1  0.18264504  0.81528902  0.82809701  1
  O  O14  1  0.79248904  0.20326401  0.82764803  1
  F  F15  1  0.28632502  0.29581101  0.67128101  1
  F  F16  1  0.70778706  0.70322702  0.32763801  1
  F  F17  1  0.21323804  0.79606302  0.17140100  1
