# generated using pymatgen
data_Cs2BiH3O8
_symmetry_space_group_name_H-M   'P 1'
_cell_length_a   4.86077499
_cell_length_b   6.50505781
_cell_length_c   7.90706587
_cell_angle_alpha   90.00000000
_cell_angle_beta   90.00000000
_cell_angle_gamma   91.19039917
_symmetry_Int_Tables_number   1
_chemical_formula_structural   Cs2BiH3O8
_chemical_formula_sum   'Cs2 Bi1 H3 O8'
_cell_volume   249.96447731
_cell_formula_units_Z   1
loop_
 _symmetry_equiv_pos_site_id
 _symmetry_equiv_pos_as_xyz
  1  'x, y, z'
loop_
 _atom_site_type_symbol
 _atom_site_label
 _atom_site_symmetry_multiplicity
 _atom_site_fract_x
 _atom_site_fract_y
 _atom_site_fract_z
 _atom_site_occupancy
  Bi  Bi0  1  0.97752498  0.70585901  0.50435401  1
  Cs  Cs1  1  0.02247499  0.29414101  0.00435400  1
  O  O2  1  0.99827098  0.72206101  0.04251300  1
  Cs  Cs3  1  0.00172899  0.27793900  0.54251301  1
  H  H4  1  0.29223197  0.98842002  0.73780201  1
  O  O5  1  0.70776800  0.01158000  0.23780200  1
  H  H6  1  0.44295897  0.99109502  0.55016201  1
  H  H7  1  0.55704100  0.00890500  0.05016200  1
  O  O8  1  0.68273099  0.50454501  0.77874201  1
  O  O9  1  0.31726899  0.49545501  0.27874200  1
  O  O10  1  0.26047897  0.98934202  0.61205601  1
  O  O11  1  0.73952100  0.01065800  0.11205600  1
  O  O12  1  0.29058500  0.00251700  0.93707202  1
  O  O13  1  0.70941497  0.99748302  0.43707201  1
