# generated using pymatgen
data_Na2Li3Cu3F12
_symmetry_space_group_name_H-M   'P 1'
_cell_length_a   5.16965008
_cell_length_b   5.35952377
_cell_length_c   7.70183754
_cell_angle_alpha   90.00000000
_cell_angle_beta   89.76027679
_cell_angle_gamma   90.00000000
_symmetry_Int_Tables_number   1
_chemical_formula_structural   Na2Li3Cu3F12
_chemical_formula_sum   'Na2 Li3 Cu3 F12'
_cell_volume   213.39188586
_cell_formula_units_Z   1
loop_
 _symmetry_equiv_pos_site_id
 _symmetry_equiv_pos_as_xyz
  1  'x, y, z'
loop_
 _atom_site_type_symbol
 _atom_site_label
 _atom_site_symmetry_multiplicity
 _atom_site_fract_x
 _atom_site_fract_y
 _atom_site_fract_z
 _atom_site_occupancy
  Li  Li0  1  0.00000000  0.50000002  0.49999999  1
  Na  Na1  1  0.99052199  0.94865304  0.73791198  1
  Li  Li2  1  0.50947799  0.44865302  0.76208798  1
  Cu  Cu3  1  0.49999999  0.00000000  -0.00000000  1
  Li  Li4  1  0.49052199  0.55134702  0.23791199  1
  Na  Na5  1  0.00947800  0.05134700  0.26208800  1
  Cu  Cu6  1  0.00000000  0.50000002  -0.00000000  1
  Cu  Cu7  1  0.49999999  0.00000000  0.49999999  1
  F  F8  1  0.86863599  0.42455702  0.23557499  1
  F  F9  1  0.83082599  0.19763501  0.91649698  1
  F  F10  1  0.81344999  0.17799701  0.55683599  1
  F  F11  1  0.68654999  0.67799703  0.94316398  1
  F  F12  1  0.66917399  0.69763503  0.58350299  1
  F  F13  1  0.63136399  0.92455704  0.26442499  1
  F  F14  1  0.36863599  0.07544300  0.73557499  1
  F  F15  1  0.33082600  0.30236501  0.41649699  1
  F  F16  1  0.31345000  0.32200301  0.05683600  1
  F  F17  1  0.18655000  0.82200303  0.44316399  1
  F  F18  1  0.16917400  0.80236503  0.08350300  1
  F  F19  1  0.13136400  0.57544302  0.76442499  1
