# generated using pymatgen
data_Li3LuC4
_symmetry_space_group_name_H-M   'P 1'
_cell_length_a   3.33292603
_cell_length_b   4.50403404
_cell_length_c   6.81641006
_cell_angle_alpha   109.29194641
_cell_angle_beta   104.15099335
_cell_angle_gamma   90.00000000
_symmetry_Int_Tables_number   1
_chemical_formula_structural   Li3LuC4
_chemical_formula_sum   'Li3 Lu1 C4'
_cell_volume   93.28332961
_cell_formula_units_Z   1
loop_
 _symmetry_equiv_pos_site_id
 _symmetry_equiv_pos_as_xyz
  1  'x, y, z'
loop_
 _atom_site_type_symbol
 _atom_site_label
 _atom_site_symmetry_multiplicity
 _atom_site_fract_x
 _atom_site_fract_y
 _atom_site_fract_z
 _atom_site_occupancy
  Lu  Lu0  1  0.18940000  0.18940000  0.37880000  1
  Li  Li1  1  0.81060000  0.81060001  0.62120002  1
  Li  Li2  1  0.00000001  0.50000000  0.00000002  1
  Li  Li3  1  0.49999999  0.00000000  -0.00000000  1
  C  C4  1  0.37086600  0.21219100  0.74173200  1
  C  C5  1  0.62913401  0.78780901  0.25826802  1
  C  C6  1  0.62913400  0.47045900  0.25826801  1
  C  C7  1  0.37086600  0.52954100  0.74173201  1
