# generated using pymatgen
data_Ce2CdAu2
_symmetry_space_group_name_H-M   'P 1'
_cell_length_a   4.38733101
_cell_length_b   7.37513781
_cell_length_c   7.37513781
_cell_angle_alpha   90.00000000
_cell_angle_beta   90.00000000
_cell_angle_gamma   90.00000000
_symmetry_Int_Tables_number   1
_chemical_formula_structural   Ce2CdAu2
_chemical_formula_sum   'Ce4 Cd2 Au4'
_cell_volume   238.63859359
_cell_formula_units_Z   2
loop_
 _symmetry_equiv_pos_site_id
 _symmetry_equiv_pos_as_xyz
  1  'x, y, z'
loop_
 _atom_site_type_symbol
 _atom_site_label
 _atom_site_symmetry_multiplicity
 _atom_site_fract_x
 _atom_site_fract_y
 _atom_site_fract_z
 _atom_site_occupancy
  Ce  Ce0  1  0.50000000  0.67599802  0.17599800  1
  Ce  Ce1  1  0.50000000  0.32400201  0.82400202  1
  Ce  Ce2  1  0.50000000  0.17599800  0.32400201  1
  Ce  Ce3  1  0.50000000  0.82400202  0.67599802  1
  Cd  Cd4  1  0.00000000  0.50000001  0.50000001  1
  Cd  Cd5  1  0.00000000  0.00000000  0.00000000  1
  Au  Au6  1  0.00000000  0.11959800  0.61959802  1
  Au  Au7  1  0.00000000  0.88040202  0.38040201  1
  Au  Au8  1  0.00000000  0.61959802  0.88040202  1
  Au  Au9  1  0.00000000  0.38040201  0.11959800  1
