# generated using pymatgen
data_EuCl
_symmetry_space_group_name_H-M   'P 1'
_cell_length_a   4.10871410
_cell_length_b   4.10871410
_cell_length_c   4.37958622
_cell_angle_alpha   62.02569580
_cell_angle_beta   62.02569580
_cell_angle_gamma   59.99999619
_symmetry_Int_Tables_number   1
_chemical_formula_structural   EuCl
_chemical_formula_sum   'Eu1 Cl1'
_cell_volume   53.82323477
_cell_formula_units_Z   1
loop_
 _symmetry_equiv_pos_site_id
 _symmetry_equiv_pos_as_xyz
  1  'x, y, z'
loop_
 _atom_site_type_symbol
 _atom_site_label
 _atom_site_symmetry_multiplicity
 _atom_site_fract_x
 _atom_site_fract_y
 _atom_site_fract_z
 _atom_site_occupancy
  Cl  Cl0  1  0.23016999  0.23017001  0.30949002  1
  Eu  Eu1  1  0.76982998  0.76983002  0.69051007  1
