# generated using pymatgen
data_KB2H4O2F9
_symmetry_space_group_name_H-M   'P 1'
_cell_length_a   4.73863077
_cell_length_b   6.14062452
_cell_length_c   6.37519169
_cell_angle_alpha   79.68545532
_cell_angle_beta   81.23327637
_cell_angle_gamma   89.05597687
_symmetry_Int_Tables_number   1
_chemical_formula_structural   KB2H4O2F9
_chemical_formula_sum   'K1 B2 H4 O2 F9'
_cell_volume   180.36505609
_cell_formula_units_Z   1
loop_
 _symmetry_equiv_pos_site_id
 _symmetry_equiv_pos_as_xyz
  1  'x, y, z'
loop_
 _atom_site_type_symbol
 _atom_site_label
 _atom_site_symmetry_multiplicity
 _atom_site_fract_x
 _atom_site_fract_y
 _atom_site_fract_z
 _atom_site_occupancy
  B  B0  1  0.56811897  0.79856999  0.79827604  1
  B  B1  1  0.43188101  0.20143000  0.20172401  1
  H  H2  1  0.83624899  0.70451299  0.16391603  1
  H  H3  1  0.16375099  0.29548700  0.83608403  1
  H  H4  1  0.75375099  0.69599299  0.42904703  1
  H  H5  1  0.24624899  0.30400700  0.57095302  1
  F  F6  1  0.04333995  0.83516499  0.29217202  1
  K  K7  1  0.95666003  0.16483500  0.70782803  1
  O  O8  1  0.91379600  0.70401599  0.30299603  1
  O  O9  1  0.08620398  0.29598400  0.69700402  1
  F  F10  1  0.72730799  0.67778299  0.95129405  1
  F  F11  1  0.27269199  0.32221700  0.04870601  1
  F  F12  1  0.73175997  0.98841599  0.67960605  1
  F  F13  1  0.26824001  0.01158400  0.32039401  1
  F  F14  1  0.53090898  0.66077599  0.64407604  1
  F  F15  1  0.46909100  0.33922400  0.35592402  1
  F  F16  1  0.30638896  0.86279899  0.89583904  1
  F  F17  1  0.69361102  0.13720100  0.10416102  1
