# generated using pymatgen
data_Na3Sb(PO4)2
_symmetry_space_group_name_H-M   'P 1'
_cell_length_a   5.64559507
_cell_length_b   5.64559507
_cell_length_c   6.54722977
_cell_angle_alpha   90.00000000
_cell_angle_beta   90.00000000
_cell_angle_gamma   116.03454590
_symmetry_Int_Tables_number   1
_chemical_formula_structural   Na3Sb(PO4)2
_chemical_formula_sum   'Na3 Sb1 P2 O8'
_cell_volume   187.50351257
_cell_formula_units_Z   1
loop_
 _symmetry_equiv_pos_site_id
 _symmetry_equiv_pos_as_xyz
  1  'x, y, z'
loop_
 _atom_site_type_symbol
 _atom_site_label
 _atom_site_symmetry_multiplicity
 _atom_site_fract_x
 _atom_site_fract_y
 _atom_site_fract_z
 _atom_site_occupancy
  Na  Na0  1  0.49999998  0.49999999  1.00000004  1
  Na  Na1  1  0.49999998  0.49999999  0.50000002  1
  Na  Na2  1  0.18812695  0.81187299  0.75000003  1
  Sb  Sb3  1  0.81187300  0.18812700  0.25000001  1
  P  P4  1  0.86076800  0.13923200  0.75000003  1
  P  P5  1  0.13923195  0.86076799  0.25000001  1
  O  O6  1  0.83472796  0.73988999  0.25000001  1
  O  O7  1  0.16527199  0.26011000  0.75000003  1
  O  O8  1  0.73988996  0.83472799  0.75000003  1
  O  O9  1  0.26010999  0.16527200  0.25000001  1
  O  O10  1  0.24545296  0.75454699  0.06545700  1
  O  O11  1  0.75454699  0.24545300  0.56545702  1
  O  O12  1  0.24545296  0.75454699  0.43454302  1
  O  O13  1  0.75454699  0.24545300  0.93454303  1
