# generated using pymatgen
data_MgO
_symmetry_space_group_name_H-M   'P 1'
_cell_length_a   3.10229373
_cell_length_b   5.37569571
_cell_length_c   5.44381714
_cell_angle_alpha   69.44334412
_cell_angle_beta   88.90300751
_cell_angle_gamma   89.94660187
_symmetry_Int_Tables_number   1
_chemical_formula_structural   MgO
_chemical_formula_sum   'Mg4 O4'
_cell_volume   84.98847344
_cell_formula_units_Z   4
loop_
 _symmetry_equiv_pos_site_id
 _symmetry_equiv_pos_as_xyz
  1  'x, y, z'
loop_
 _atom_site_type_symbol
 _atom_site_label
 _atom_site_symmetry_multiplicity
 _atom_site_fract_x
 _atom_site_fract_y
 _atom_site_fract_z
 _atom_site_occupancy
  Mg  Mg0  1  0.50000001  0.00000000  0.50000000  1
  Mg  Mg1  1  0.00000003  0.50000001  0.50000002  1
  Mg  Mg2  1  0.00000000  0.00000000  0.00000000  1
  Mg  Mg3  1  0.49999903  0.50000001  1.00000002  1
  O  O4  1  0.03170904  0.74832401  0.74206603  1
  O  O5  1  0.53168705  0.74832701  0.24206802  1
  O  O6  1  0.96829102  0.25167600  0.25793400  1
  O  O7  1  0.46831402  0.25167300  0.75793201  1
