# generated using pymatgen
data_In5AgS10
_symmetry_space_group_name_H-M   'P 1'
_cell_length_a   6.14857912
_cell_length_b   7.01698112
_cell_length_c   8.62569427
_cell_angle_alpha   107.11615753
_cell_angle_beta   110.84568787
_cell_angle_gamma   90.01086426
_symmetry_Int_Tables_number   1
_chemical_formula_structural   In5AgS10
_chemical_formula_sum   'In5 Ag1 S10'
_cell_volume   330.08575127
_cell_formula_units_Z   1
loop_
 _symmetry_equiv_pos_site_id
 _symmetry_equiv_pos_as_xyz
  1  'x, y, z'
loop_
 _atom_site_type_symbol
 _atom_site_label
 _atom_site_symmetry_multiplicity
 _atom_site_fract_x
 _atom_site_fract_y
 _atom_site_fract_z
 _atom_site_occupancy
  In  In0  1  0.70482194  0.39900400  0.39944196  1
  In  In1  1  0.29517793  0.60099599  0.60055795  1
  In  In2  1  0.49999999  0.00000000  -0.00000001  1
  In  In3  1  0.89654690  0.79842899  0.79806193  1
  In  In4  1  0.10345298  0.20157100  0.20193798  1
  Ag  Ag5  1  -0.00000005  0.49999999  -0.00000002  1
  S  S6  1  0.28460193  0.64509399  0.90448493  1
  S  S7  1  0.48424998  0.04826900  0.30118998  1
  S  S8  1  0.68463094  0.44442499  0.70306094  1
  S  S9  1  0.88589589  0.84388899  0.10390796  1
  S  S10  1  0.08416497  0.24689500  0.50145497  1
  S  S11  1  0.11410398  0.15611100  0.89609195  1
  S  S12  1  0.31536894  0.55557499  0.29693896  1
  S  S13  1  0.51574989  0.95173099  0.69880993  1
  S  S14  1  0.71539795  0.35490600  0.09551497  1
  S  S15  1  0.91583490  0.75310499  0.49854494  1
