# generated using pymatgen
data_Li2F3
_symmetry_space_group_name_H-M   'P 1'
_cell_length_a   4.92738390
_cell_length_b   5.27389574
_cell_length_c   5.38017464
_cell_angle_alpha   63.21718597
_cell_angle_beta   89.16176605
_cell_angle_gamma   63.94105148
_symmetry_Int_Tables_number   1
_chemical_formula_structural   Li2F3
_chemical_formula_sum   'Li4 F6'
_cell_volume   109.15616107
_cell_formula_units_Z   2
loop_
 _symmetry_equiv_pos_site_id
 _symmetry_equiv_pos_as_xyz
  1  'x, y, z'
loop_
 _atom_site_type_symbol
 _atom_site_label
 _atom_site_symmetry_multiplicity
 _atom_site_fract_x
 _atom_site_fract_y
 _atom_site_fract_z
 _atom_site_occupancy
  Li  Li0  1  0.93767097  0.22153200  0.62227098  1
  Li  Li1  1  0.14719301  0.70691000  0.44490399  1
  Li  Li2  1  0.31823399  0.31771800  0.03596799  1
  Li  Li3  1  0.65220399  0.70491800  0.96472998  1
  F  F4  1  0.38270400  0.87675100  0.18980798  1
  F  F5  1  0.29561000  0.75232600  0.75855199  1
  F  F6  1  0.94829997  0.51208800  0.76012697  1
  F  F7  1  0.02331501  0.53228100  0.24738199  1
  F  F8  1  0.72056798  0.18264100  0.25164098  1
  F  F9  1  0.57420098  0.19283100  0.72461899  1
