# generated using pymatgen
data_LaGd3Fe(CuS4)3
_symmetry_space_group_name_H-M   'P 1'
_cell_length_a   6.20942879
_cell_length_b   6.31405687
_cell_length_c   8.84176731
_cell_angle_alpha   90.00000000
_cell_angle_beta   90.00000000
_cell_angle_gamma   90.00000000
_symmetry_Int_Tables_number   1
_chemical_formula_structural   LaGd3Fe(CuS4)3
_chemical_formula_sum   'La1 Gd3 Fe1 Cu3 S12'
_cell_volume   346.65639919
_cell_formula_units_Z   1
loop_
 _symmetry_equiv_pos_site_id
 _symmetry_equiv_pos_as_xyz
  1  'x, y, z'
loop_
 _atom_site_type_symbol
 _atom_site_label
 _atom_site_symmetry_multiplicity
 _atom_site_fract_x
 _atom_site_fract_y
 _atom_site_fract_z
 _atom_site_occupancy
  La  La0  1  0.49148502  0.03845000  0.24999999  1
  Gd  Gd1  1  0.99148503  0.46155001  0.74999997  1
  Gd  Gd2  1  0.00851500  0.53845001  0.24999999  1
  Gd  Gd3  1  0.50851502  0.96155002  0.74999997  1
  Cu  Cu4  1  0.00000000  0.00000000  0.00000000  1
  Cu  Cu5  1  0.50000002  0.50000001  -0.00000000  1
  Fe  Fe6  1  0.50000002  0.50000001  0.49999998  1
  Cu  Cu7  1  0.00000000  0.00000000  0.49999998  1
  S  S8  1  0.20712801  0.29140901  0.45796798  1
  S  S9  1  0.70712802  0.20859100  0.54203198  1
  S  S10  1  0.29287201  0.79140902  0.04203200  1
  S  S11  1  0.79287203  0.70859101  0.95796797  1
  S  S12  1  0.79287203  0.70859101  0.54203198  1
  S  S13  1  0.29287201  0.79140902  0.45796798  1
  S  S14  1  0.70712802  0.20859100  0.95796797  1
  S  S15  1  0.20712801  0.29140901  0.04203200  1
  S  S16  1  0.92031903  0.97252202  0.24999999  1
  S  S17  1  0.42031901  0.52747801  0.74999997  1
  S  S18  1  0.57968102  0.47252201  0.24999999  1
  S  S19  1  0.07968100  0.02747800  0.74999997  1
