# generated using pymatgen
data_NbBOs
_symmetry_space_group_name_H-M   'P 1'
_cell_length_a   5.30786419
_cell_length_b   5.30786324
_cell_length_c   9.48844624
_cell_angle_alpha   90.00000000
_cell_angle_beta   90.00000000
_cell_angle_gamma   120.00000763
_symmetry_Int_Tables_number   1
_chemical_formula_structural   NbBOs
_chemical_formula_sum   'Nb6 B6 Os6'
_cell_volume   231.50758559
_cell_formula_units_Z   6
loop_
 _symmetry_equiv_pos_site_id
 _symmetry_equiv_pos_as_xyz
  1  'x, y, z'
loop_
 _atom_site_type_symbol
 _atom_site_label
 _atom_site_symmetry_multiplicity
 _atom_site_fract_x
 _atom_site_fract_y
 _atom_site_fract_z
 _atom_site_occupancy
  Nb  Nb0  1  0.99999998  0.49999999  0.33333333  1
  Nb  Nb1  1  0.00000000  0.00000000  0.16666700  1
  Nb  Nb2  1  0.00000000  0.00000000  0.49999999  1
  Nb  Nb3  1  0.00000000  0.00000000  0.83333298  1
  Nb  Nb4  1  0.49999998  0.00000000  0.66666665  1
  Nb  Nb5  1  0.50000000  0.49999999  0.99999998  1
  B  B6  1  0.79511499  0.39755800  0.83333298  1
  B  B7  1  0.39755701  0.60244199  0.49999999  1
  B  B8  1  0.39755702  0.79511399  0.16666700  1
  B  B9  1  0.20488502  0.60244199  0.83333298  1
  B  B10  1  0.60244299  0.20488600  0.16666700  1
  B  B11  1  0.60244299  0.39755800  0.49999999  1
  Os  Os12  1  0.49999998  0.00000000  0.95516498  1
  Os  Os13  1  0.50000000  0.49999999  0.28849799  1
  Os  Os14  1  0.49999998  0.00000000  0.37816899  1
  Os  Os15  1  0.50000000  0.49999999  0.71150198  1
  Os  Os16  1  0.99999998  0.49999999  0.62183098  1
  Os  Os17  1  0.99999998  0.49999999  0.04483500  1
