# generated using pymatgen
data_Rb(Tm3Se4)2
_symmetry_space_group_name_H-M   'P 1'
_cell_length_a   3.67436504
_cell_length_b   10.77752972
_cell_length_c   10.77753067
_cell_angle_alpha   120.00000000
_cell_angle_beta   90.00000000
_cell_angle_gamma   90.00000000
_symmetry_Int_Tables_number   1
_chemical_formula_structural   Rb(Tm3Se4)2
_chemical_formula_sum   'Rb1 Tm6 Se8'
_cell_volume   369.61656688
_cell_formula_units_Z   1
loop_
 _symmetry_equiv_pos_site_id
 _symmetry_equiv_pos_as_xyz
  1  'x, y, z'
loop_
 _atom_site_type_symbol
 _atom_site_label
 _atom_site_symmetry_multiplicity
 _atom_site_fract_x
 _atom_site_fract_y
 _atom_site_fract_z
 _atom_site_occupancy
  Tm  Tm0  1  0.25084100  0.48929402  0.10232700  1
  Tm  Tm1  1  0.25084100  0.61303302  0.51070699  1
  Tm  Tm2  1  0.25084100  0.89767403  0.38696799  1
  Tm  Tm3  1  0.74915899  0.51070602  0.89767297  1
  Tm  Tm4  1  0.74915899  0.38696701  0.48929298  1
  Tm  Tm5  1  0.74915899  0.10232600  0.61303197  1
  Se  Se6  1  0.24770800  0.33277801  0.27111999  1
  Se  Se7  1  0.24770800  0.93834203  0.66722298  1
  Se  Se8  1  0.24770800  0.72888102  0.06165901  1
  Se  Se9  1  0.75229199  0.66722202  0.72887998  1
  Se  Se10  1  0.75229199  0.06165800  0.33277699  1
  Se  Se11  1  0.75229199  0.27111901  0.93834096  1
  Se  Se12  1  0.25001000  0.33333334  0.66666664  1
  Se  Se13  1  0.74998999  0.66666669  0.33333333  1
  Rb  Rb14  1  0.49999999  0.00000000  -0.00000000  1
