# generated using pymatgen
data_Mn5SbO12
_symmetry_space_group_name_H-M   'P 1'
_cell_length_a   5.68296337
_cell_length_b   5.68296337
_cell_length_c   7.37626791
_cell_angle_alpha   73.07463837
_cell_angle_beta   73.07463837
_cell_angle_gamma   74.11225128
_symmetry_Int_Tables_number   1
_chemical_formula_structural   Mn5SbO12
_chemical_formula_sum   'Mn5 Sb1 O12'
_cell_volume   213.33453605
_cell_formula_units_Z   1
loop_
 _symmetry_equiv_pos_site_id
 _symmetry_equiv_pos_as_xyz
  1  'x, y, z'
loop_
 _atom_site_type_symbol
 _atom_site_label
 _atom_site_symmetry_multiplicity
 _atom_site_fract_x
 _atom_site_fract_y
 _atom_site_fract_z
 _atom_site_occupancy
  Mn  Mn0  1  0.66341803  0.66341800  0.83271799  1
  Mn  Mn1  1  0.69068903  0.69068900  0.34049798  1
  Mn  Mn2  1  0.00000000  0.00000000  0.00000000  1
  Mn  Mn3  1  0.00000000  0.00000000  0.50000000  1
  Mn  Mn4  1  0.33658201  0.33658200  0.16728199  1
  Sb  Sb5  1  0.30931101  0.30931100  0.65950199  1
  O  O6  1  0.10154400  0.10154400  0.69604400  1
  O  O7  1  0.89845604  0.89845601  0.30395598  1
  O  O8  1  0.97309302  0.36856200  0.33572499  1
  O  O9  1  0.30229802  0.69770200  -0.00000001  1
  O  O10  1  0.76118803  0.76118800  0.04161698  1
  O  O11  1  0.44531702  0.44531700  0.36832199  1
  O  O12  1  0.55468302  0.55468300  0.63167799  1
  O  O13  1  0.23881201  0.23881200  0.95838300  1
  O  O14  1  0.36856203  0.97309301  0.33572498  1
  O  O15  1  0.69770202  0.30229800  -0.00000001  1
  O  O16  1  0.02690702  0.63143800  0.66427499  1
  O  O17  1  0.63143801  0.02690700  0.66427500  1
