# generated using pymatgen
data_La2CuGe5
_symmetry_space_group_name_H-M   'P 1'
_cell_length_a   4.22499084
_cell_length_b   4.29462576
_cell_length_c   9.05551147
_cell_angle_alpha   76.28292084
_cell_angle_beta   90.00000000
_cell_angle_gamma   90.00000000
_symmetry_Int_Tables_number   1
_chemical_formula_structural   La2CuGe5
_chemical_formula_sum   'La2 Cu1 Ge5'
_cell_volume   159.62366054
_cell_formula_units_Z   1
loop_
 _symmetry_equiv_pos_site_id
 _symmetry_equiv_pos_as_xyz
  1  'x, y, z'
loop_
 _atom_site_type_symbol
 _atom_site_label
 _atom_site_symmetry_multiplicity
 _atom_site_fract_x
 _atom_site_fract_y
 _atom_site_fract_z
 _atom_site_occupancy
  La  La0  1  1.00000004  0.14094501  0.71811004  1
  La  La1  1  0.00000000  0.85905505  0.28189001  1
  Ge  Ge2  1  0.00000000  0.50000003  1.00000005  1
  Ge  Ge3  1  0.50000002  0.00000000  -0.00000000  1
  Ge  Ge4  1  0.50000002  0.29119902  0.41760202  1
  Ge  Ge5  1  0.50000002  0.70880104  0.58239803  1
  Cu  Cu6  1  0.50000002  0.42921403  0.14157200  1
  Ge  Ge7  1  0.50000002  0.57078603  0.85842804  1
