# generated using pymatgen
data_RbTiCuSe2
_symmetry_space_group_name_H-M   'P 1'
_cell_length_a   4.16520405
_cell_length_b   4.16520405
_cell_length_c   7.44218254
_cell_angle_alpha   106.25051117
_cell_angle_beta   106.25051117
_cell_angle_gamma   90.00000000
_symmetry_Int_Tables_number   1
_chemical_formula_structural   RbTiCuSe2
_chemical_formula_sum   'Rb1 Ti1 Cu1 Se2'
_cell_volume   118.57278191
_cell_formula_units_Z   1
loop_
 _symmetry_equiv_pos_site_id
 _symmetry_equiv_pos_as_xyz
  1  'x, y, z'
loop_
 _atom_site_type_symbol
 _atom_site_label
 _atom_site_symmetry_multiplicity
 _atom_site_fract_x
 _atom_site_fract_y
 _atom_site_fract_z
 _atom_site_occupancy
  Rb  Rb0  1  0.00000000  0.00000000  0.00000000  1
  Ti  Ti1  1  0.75000001  0.25000000  0.50000004  1
  Cu  Cu2  1  0.25000003  0.75000000  0.50000004  1
  Se  Se3  1  0.63592702  0.63592700  0.27185405  1
  Se  Se4  1  0.36407301  0.36407300  0.72814604  1
