# generated using pymatgen
data_NaLuF4
_symmetry_space_group_name_H-M   'P 1'
_cell_length_a   3.44921494
_cell_length_b   5.08164215
_cell_length_c   5.08164215
_cell_angle_alpha   90.00000000
_cell_angle_beta   90.00000000
_cell_angle_gamma   90.00000000
_symmetry_Int_Tables_number   1
_chemical_formula_structural   NaLuF4
_chemical_formula_sum   'Na1 Lu1 F4'
_cell_volume   89.06937718
_cell_formula_units_Z   1
loop_
 _symmetry_equiv_pos_site_id
 _symmetry_equiv_pos_as_xyz
  1  'x, y, z'
loop_
 _atom_site_type_symbol
 _atom_site_label
 _atom_site_symmetry_multiplicity
 _atom_site_fract_x
 _atom_site_fract_y
 _atom_site_fract_z
 _atom_site_occupancy
  Lu  Lu0  1  0.50000001  0.49999999  0.49999999  1
  Na  Na1  1  0.00000000  0.00000000  0.00000000  1
  F  F2  1  0.50000001  0.80813498  0.19186499  1
  F  F3  1  0.50000001  0.19186499  0.80813498  1
  F  F4  1  0.00000000  0.30813499  0.30813499  1
  F  F5  1  0.00000000  0.69186498  0.69186498  1
