# generated using pymatgen
data_ZrTi4Sb3
_symmetry_space_group_name_H-M   'P 1'
_cell_length_a   5.43719006
_cell_length_b   8.28070068
_cell_length_c   8.28070068
_cell_angle_alpha   119.90033722
_cell_angle_beta   90.00000000
_cell_angle_gamma   90.00000000
_symmetry_Int_Tables_number   1
_chemical_formula_structural   ZrTi4Sb3
_chemical_formula_sum   'Zr2 Ti8 Sb6'
_cell_volume   323.20241111
_cell_formula_units_Z   2
loop_
 _symmetry_equiv_pos_site_id
 _symmetry_equiv_pos_as_xyz
  1  'x, y, z'
loop_
 _atom_site_type_symbol
 _atom_site_label
 _atom_site_symmetry_multiplicity
 _atom_site_fract_x
 _atom_site_fract_y
 _atom_site_fract_z
 _atom_site_occupancy
  Zr  Zr0  1  0.49999999  0.66666669  0.33340563  1
  Ti  Ti1  1  0.49999999  0.33333334  0.66659430  1
  Ti  Ti2  1  0.00000000  0.33333334  0.66659430  1
  Zr  Zr3  1  0.00000000  0.66660602  0.33334496  1
  Ti  Ti4  1  0.24999200  0.75483902  0.75483895  1
  Ti  Ti5  1  0.25000400  0.24533001  0.00013799  1
  Ti  Ti6  1  0.25000400  0.00013900  0.24533099  1
  Ti  Ti7  1  0.74999199  0.24516101  0.24516098  1
  Ti  Ti8  1  0.75000399  0.75467002  0.99986194  1
  Ti  Ti9  1  0.75000399  0.99986103  0.75466893  1
  Sb  Sb10  1  0.25001100  0.39280701  0.39280697  1
  Sb  Sb11  1  0.24999500  0.60680302  0.99976895  1
  Sb  Sb12  1  0.24999500  0.99976903  0.60680294  1
  Sb  Sb13  1  0.75001099  0.60719302  0.60719296  1
  Sb  Sb14  1  0.74999499  0.39319701  0.00023098  1
  Sb  Sb15  1  0.74999499  0.00023100  0.39319699  1
