# generated using pymatgen
data_In5S9
_symmetry_space_group_name_H-M   'P 1'
_cell_length_a   7.79283619
_cell_length_b   7.86267281
_cell_length_c   7.86267281
_cell_angle_alpha   60.83707809
_cell_angle_beta   60.29338455
_cell_angle_gamma   60.29338455
_symmetry_Int_Tables_number   1
_chemical_formula_structural   In5S9
_chemical_formula_sum   'In5 S9'
_cell_volume   344.29401670
_cell_formula_units_Z   1
loop_
 _symmetry_equiv_pos_site_id
 _symmetry_equiv_pos_as_xyz
  1  'x, y, z'
loop_
 _atom_site_type_symbol
 _atom_site_label
 _atom_site_symmetry_multiplicity
 _atom_site_fract_x
 _atom_site_fract_y
 _atom_site_fract_z
 _atom_site_occupancy
  In  In0  1  0.49999999  0.00000000  0.50000000  1
  In  In1  1  0.00000000  0.99999999  0.50000001  1
  In  In2  1  0.63254698  0.61745300  0.11745301  1
  In  In3  1  0.36745299  0.38254700  0.88254700  1
  In  In4  1  0.00000000  0.50000000  0.50000000  1
  S  S5  1  0.00000000  0.00000000  0.00000000  1
  S  S6  1  0.22175800  0.77005899  0.27005901  1
  S  S7  1  0.73812398  0.77005899  0.27005901  1
  S  S8  1  0.75311198  0.21096100  0.28281501  1
  S  S9  1  0.75311198  0.78281499  0.71096101  1
  S  S10  1  0.77824198  0.22994100  0.72994101  1
  S  S11  1  0.26187599  0.22994100  0.72994100  1
  S  S12  1  0.24688800  0.78903899  0.71718501  1
  S  S13  1  0.24688799  0.21718500  0.28903900  1
