# generated using pymatgen
data_TeO3
_symmetry_space_group_name_H-M   'P 1'
_cell_length_a   4.98630810
_cell_length_b   5.23885393
_cell_length_c   8.53986835
_cell_angle_alpha   90.00000000
_cell_angle_beta   90.00000000
_cell_angle_gamma   91.29016876
_symmetry_Int_Tables_number   1
_chemical_formula_structural   TeO3
_chemical_formula_sum   'Te4 O12'
_cell_volume   223.02649648
_cell_formula_units_Z   4
loop_
 _symmetry_equiv_pos_site_id
 _symmetry_equiv_pos_as_xyz
  1  'x, y, z'
loop_
 _atom_site_type_symbol
 _atom_site_label
 _atom_site_symmetry_multiplicity
 _atom_site_fract_x
 _atom_site_fract_y
 _atom_site_fract_z
 _atom_site_occupancy
  Te  Te0  1  0.49999999  0.00000000  0.42035398  1
  Te  Te1  1  -0.00000001  0.50000002  0.91230296  1
  Te  Te2  1  0.49999998  0.50000002  0.60215497  1
  Te  Te3  1  0.00000000  0.00000000  0.10143100  1
  O  O4  1  0.74421797  0.89424303  0.25727099  1
  O  O5  1  0.71431698  0.81682503  0.58027198  1
  O  O6  1  0.79640097  0.80937903  0.93677696  1
  O  O7  1  0.29231799  0.68113802  0.43638698  1
  O  O8  1  0.20908099  0.69053402  0.07269700  1
  O  O9  1  0.25071699  0.63714502  0.75471697  1
  O  O10  1  0.74928298  0.36285501  0.75471697  1
  O  O11  1  0.79091898  0.30946601  0.07269700  1
  O  O12  1  0.70768198  0.31886201  0.43638698  1
  O  O13  1  0.20359899  0.19062101  0.93677696  1
  O  O14  1  0.28568299  0.18317501  0.58027198  1
  O  O15  1  0.25578199  0.10575700  0.25727099  1
