# generated using pymatgen
data_GdFeC2
_symmetry_space_group_name_H-M   'P 1'
_cell_length_a   3.80619693
_cell_length_b   3.80619693
_cell_length_c   3.84029293
_cell_angle_alpha   90.00000000
_cell_angle_beta   90.00000000
_cell_angle_gamma   106.62549591
_symmetry_Int_Tables_number   1
_chemical_formula_structural   GdFeC2
_chemical_formula_sum   'Gd1 Fe1 C2'
_cell_volume   53.30904733
_cell_formula_units_Z   1
loop_
 _symmetry_equiv_pos_site_id
 _symmetry_equiv_pos_as_xyz
  1  'x, y, z'
loop_
 _atom_site_type_symbol
 _atom_site_label
 _atom_site_symmetry_multiplicity
 _atom_site_fract_x
 _atom_site_fract_y
 _atom_site_fract_z
 _atom_site_occupancy
  Gd  Gd0  1  0.00353803  0.99646201  -0.00000000  1
  Fe  Fe1  1  0.61649101  0.38350900  0.50000001  1
  C  C2  1  0.15485902  0.54488801  0.50000001  1
  C  C3  1  0.45511202  0.84514101  0.50000001  1
