# generated using pymatgen
data_BaPPt
_symmetry_space_group_name_H-M   'P 1'
_cell_length_a   4.17439413
_cell_length_b   4.17439365
_cell_length_c   4.48172522
_cell_angle_alpha   90.00000000
_cell_angle_beta   90.00000000
_cell_angle_gamma   120.00000000
_symmetry_Int_Tables_number   1
_chemical_formula_structural   BaPPt
_chemical_formula_sum   'Ba1 P1 Pt1'
_cell_volume   67.63363195
_cell_formula_units_Z   1
loop_
 _symmetry_equiv_pos_site_id
 _symmetry_equiv_pos_as_xyz
  1  'x, y, z'
loop_
 _atom_site_type_symbol
 _atom_site_label
 _atom_site_symmetry_multiplicity
 _atom_site_fract_x
 _atom_site_fract_y
 _atom_site_fract_z
 _atom_site_occupancy
  Ba  Ba0  1  0.66666663  0.33333334  0.99999995  1
  P  P1  1  0.33333330  0.66666668  0.49999998  1
  Pt  Pt2  1  0.00000000  0.00000000  0.49999998  1
