# generated using pymatgen
data_Sm2ScNi16
_symmetry_space_group_name_H-M   'P 1'
_cell_length_a   6.29863405
_cell_length_b   6.29863405
_cell_length_c   6.29863405
_cell_angle_alpha   83.24447632
_cell_angle_beta   83.24447632
_cell_angle_gamma   83.24447632
_symmetry_Int_Tables_number   1
_chemical_formula_structural   Sm2ScNi16
_chemical_formula_sum   'Sm2 Sc1 Ni16'
_cell_volume   245.05784645
_cell_formula_units_Z   1
loop_
 _symmetry_equiv_pos_site_id
 _symmetry_equiv_pos_as_xyz
  1  'x, y, z'
loop_
 _atom_site_type_symbol
 _atom_site_label
 _atom_site_symmetry_multiplicity
 _atom_site_fract_x
 _atom_site_fract_y
 _atom_site_fract_z
 _atom_site_occupancy
  Sm  Sm0  1  0.65535196  0.65535198  0.65535191  1
  Sm  Sm1  1  0.34437298  0.34437299  0.34437296  1
  Ni  Ni2  1  0.00031698  0.28698999  0.71294497  1
  Ni  Ni3  1  0.71294499  0.00031700  0.28698994  1
  Ni  Ni4  1  0.28698996  0.71294498  0.00031696  1
  Ni  Ni5  1  0.28699000  0.00031700  0.71294496  1
  Ni  Ni6  1  0.71294498  0.28698999  0.00031694  1
  Ni  Ni7  1  0.00031696  0.71294498  0.28698997  1
  Ni  Ni8  1  0.14973396  0.65507698  0.65507695  1
  Ni  Ni9  1  0.65507698  0.14973400  0.65507693  1
  Ni  Ni10  1  0.65507696  0.65507698  0.14973393  1
  Ni  Ni11  1  0.85020197  0.34438299  0.34438292  1
  Ni  Ni12  1  0.34438295  0.85020198  0.34438294  1
  Ni  Ni13  1  0.34438298  0.34438299  0.85020194  1
  Ni  Ni14  1  0.49962799  0.00047200  0.00047197  1
  Ni  Ni15  1  0.00047197  0.49962799  0.00047199  1
  Ni  Ni16  1  0.00047200  0.00047200  0.49962798  1
  Sc  Sc17  1  0.09642799  0.09642800  0.09642799  1
  Ni  Ni18  1  0.90391394  0.90391398  0.90391388  1
