# generated using pymatgen
data_NaCrO4
_symmetry_space_group_name_H-M   'P 1'
_cell_length_a   4.98411798
_cell_length_b   4.98411798
_cell_length_c   6.57100439
_cell_angle_alpha   112.28728485
_cell_angle_beta   112.28728485
_cell_angle_gamma   90.00000000
_symmetry_Int_Tables_number   1
_chemical_formula_structural   NaCrO4
_chemical_formula_sum   'Na2 Cr2 O8'
_cell_volume   137.76894323
_cell_formula_units_Z   2
loop_
 _symmetry_equiv_pos_site_id
 _symmetry_equiv_pos_as_xyz
  1  'x, y, z'
loop_
 _atom_site_type_symbol
 _atom_site_label
 _atom_site_symmetry_multiplicity
 _atom_site_fract_x
 _atom_site_fract_y
 _atom_site_fract_z
 _atom_site_occupancy
  Na  Na0  1  0.74999999  0.25000000  0.49999999  1
  Na  Na1  1  0.00000000  0.00000000  0.00000000  1
  Cr  Cr2  1  0.24999998  0.74999999  0.49999999  1
  Cr  Cr3  1  0.49999999  0.50000000  -0.00000002  1
  O  O4  1  0.72349199  0.34509700  0.16189898  1
  O  O5  1  0.56680198  0.97349199  0.66189898  1
  O  O6  1  0.09509699  0.68840699  0.66189899  1
  O  O7  1  0.43840698  0.81680199  0.16189898  1
  O  O8  1  0.31159299  0.43319800  0.33810099  1
  O  O9  1  0.65490299  0.56159300  0.83810099  1
  O  O10  1  0.18319799  0.27650800  0.83810100  1
  O  O11  1  0.02650798  0.90490299  0.33810098  1
