# generated using pymatgen
data_LiSm4Ge7
_symmetry_space_group_name_H-M   'P 1'
_cell_length_a   4.49057484
_cell_length_b   7.14987707
_cell_length_c   7.88954496
_cell_angle_alpha   90.00000000
_cell_angle_beta   90.00000000
_cell_angle_gamma   90.00000000
_symmetry_Int_Tables_number   1
_chemical_formula_structural   LiSm4Ge7
_chemical_formula_sum   'Li1 Sm4 Ge7'
_cell_volume   253.31007824
_cell_formula_units_Z   1
loop_
 _symmetry_equiv_pos_site_id
 _symmetry_equiv_pos_as_xyz
  1  'x, y, z'
loop_
 _atom_site_type_symbol
 _atom_site_label
 _atom_site_symmetry_multiplicity
 _atom_site_fract_x
 _atom_site_fract_y
 _atom_site_fract_z
 _atom_site_occupancy
  Sm  Sm0  1  0.25000001  0.50954699  0.20345200  1
  Sm  Sm1  1  0.75000003  0.49045300  0.79654800  1
  Sm  Sm2  1  0.75000003  0.99045299  0.70345200  1
  Sm  Sm3  1  0.25000001  0.00954700  0.29654800  1
  Ge  Ge4  1  0.25000001  0.79343799  0.90192100  1
  Ge  Ge5  1  0.75000003  0.20656200  0.09807900  1
  Ge  Ge6  1  0.75000003  0.70656199  0.40192100  1
  Li  Li7  1  0.25000001  0.29343800  0.59807900  1
  Ge  Ge8  1  0.25000001  0.68742999  0.57794100  1
  Ge  Ge9  1  0.75000003  0.31257000  0.42205900  1
  Ge  Ge10  1  0.75000003  0.81256999  0.07794100  1
  Ge  Ge11  1  0.25000001  0.18743000  0.92205900  1
