# generated using pymatgen
data_Ce3ZnSi3N
_symmetry_space_group_name_H-M   'P 1'
_cell_length_a   5.30488443
_cell_length_b   5.30488443
_cell_length_c   5.30488443
_cell_angle_alpha   84.20363617
_cell_angle_beta   84.20363617
_cell_angle_gamma   84.20364380
_symmetry_Int_Tables_number   1
_chemical_formula_structural   Ce3ZnSi3N
_chemical_formula_sum   'Ce3 Zn1 Si3 N1'
_cell_volume   147.14331833
_cell_formula_units_Z   1
loop_
 _symmetry_equiv_pos_site_id
 _symmetry_equiv_pos_as_xyz
  1  'x, y, z'
loop_
 _atom_site_type_symbol
 _atom_site_label
 _atom_site_symmetry_multiplicity
 _atom_site_fract_x
 _atom_site_fract_y
 _atom_site_fract_z
 _atom_site_occupancy
  N  N0  1  0.26357499  0.26357500  0.26357501  1
  Zn  Zn1  1  0.73642498  0.73642501  0.73642504  1
  Si  Si2  1  0.78823098  0.78823101  0.26244405  1
  Si  Si3  1  0.78823100  0.26244400  0.78823102  1
  Ce  Ce4  1  0.21176898  0.73755601  0.21176903  1
  Ce  Ce5  1  0.21176899  0.21176900  0.73755600  1
  Ce  Ce6  1  0.73755600  0.21176900  0.21176903  1
  Si  Si7  1  0.26244398  0.78823101  0.78823102  1
