# generated using pymatgen
data_Gd2OF3
_symmetry_space_group_name_H-M   'P 1'
_cell_length_a   3.81515408
_cell_length_b   3.81515408
_cell_length_c   5.40509605
_cell_angle_alpha   90.00000000
_cell_angle_beta   90.00000000
_cell_angle_gamma   90.00000000
_symmetry_Int_Tables_number   1
_chemical_formula_structural   Gd2OF3
_chemical_formula_sum   'Gd2 O1 F3'
_cell_volume   78.67333846
_cell_formula_units_Z   1
loop_
 _symmetry_equiv_pos_site_id
 _symmetry_equiv_pos_as_xyz
  1  'x, y, z'
loop_
 _atom_site_type_symbol
 _atom_site_label
 _atom_site_symmetry_multiplicity
 _atom_site_fract_x
 _atom_site_fract_y
 _atom_site_fract_z
 _atom_site_occupancy
  Gd  Gd0  1  0.00000000  0.00000000  0.00000000  1
  Gd  Gd1  1  0.49999999  0.49999999  0.49999999  1
  F  F2  1  0.49999999  0.00000000  0.73935599  1
  F  F3  1  0.00000000  0.49999999  0.26064400  1
  F  F4  1  0.49999999  0.00000000  0.26064400  1
  O  O5  1  0.00000000  0.49999999  0.73935599  1
