# generated using pymatgen
data_LiMnP2O7
_symmetry_space_group_name_H-M   'P 1'
_cell_length_a   4.55848980
_cell_length_b   5.35315943
_cell_length_c   5.35315943
_cell_angle_alpha   103.16825867
_cell_angle_beta   99.10001373
_cell_angle_gamma   99.10001373
_symmetry_Int_Tables_number   1
_chemical_formula_structural   LiMnP2O7
_chemical_formula_sum   'Li1 Mn1 P2 O7'
_cell_volume   123.00535791
_cell_formula_units_Z   1
loop_
 _symmetry_equiv_pos_site_id
 _symmetry_equiv_pos_as_xyz
  1  'x, y, z'
loop_
 _atom_site_type_symbol
 _atom_site_label
 _atom_site_symmetry_multiplicity
 _atom_site_fract_x
 _atom_site_fract_y
 _atom_site_fract_z
 _atom_site_occupancy
  Li  Li0  1  0.50000003  0.30934501  0.69065503  1
  Mn  Mn1  1  0.50000005  0.69065502  0.30934500  1
  P  P2  1  0.09292406  0.78545102  0.78545099  1
  P  P3  1  0.90707602  0.21454901  0.21454904  1
  O  O4  1  0.27707805  0.62605902  0.93019701  1
  O  O5  1  0.72292201  0.06980300  0.37394104  1
  O  O6  1  0.72292203  0.37394101  0.06980302  1
  O  O7  1  0.27707807  0.93019702  0.62605899  1
  O  O8  1  0.21278003  0.38011401  0.38011400  1
  O  O9  1  0.00000000  0.00000000  0.00000000  1
  O  O10  1  0.78722005  0.61988601  0.61988603  1
