# generated using pymatgen
data_Cs11Na(Te3Au)2
_symmetry_space_group_name_H-M   'P 1'
_cell_length_a   6.46633196
_cell_length_b   10.78845596
_cell_length_c   12.44351482
_cell_angle_alpha   101.71566772
_cell_angle_beta   90.00000000
_cell_angle_gamma   90.00000000
_symmetry_Int_Tables_number   1
_chemical_formula_structural   Cs11Na(Te3Au)2
_chemical_formula_sum   'Cs11 Na1 Te6 Au2'
_cell_volume   849.99675853
_cell_formula_units_Z   1
loop_
 _symmetry_equiv_pos_site_id
 _symmetry_equiv_pos_as_xyz
  1  'x, y, z'
loop_
 _atom_site_type_symbol
 _atom_site_label
 _atom_site_symmetry_multiplicity
 _atom_site_fract_x
 _atom_site_fract_y
 _atom_site_fract_z
 _atom_site_occupancy
  Cs  Cs0  1  0.25000000  0.53466600  0.07313999  1
  Cs  Cs1  1  0.75000000  0.46533400  0.92685999  1
  Cs  Cs2  1  0.25000000  0.25652500  0.22414099  1
  Cs  Cs3  1  0.75000000  0.74347500  0.77585898  1
  Cs  Cs4  1  0.75000000  0.43723800  0.53630399  1
  Cs  Cs5  1  0.25000000  0.56276200  0.46369599  1
  Cs  Cs6  1  0.75000000  0.13474500  0.01699200  1
  Na  Na7  1  0.25000000  0.86525500  0.98300798  1
  Cs  Cs8  1  0.75000000  0.11996200  0.67567700  1
  Cs  Cs9  1  0.25000000  0.88003800  0.32432298  1
  Cs  Cs10  1  0.75000000  0.08287500  0.36312900  1
  Cs  Cs11  1  0.25000000  0.91712500  0.63687098  1
  Au  Au12  1  0.75000000  0.67160900  0.27878298  1
  Au  Au13  1  0.25000000  0.32839100  0.72121699  1
  Te  Te14  1  0.75000000  0.81241300  0.12182398  1
  Te  Te15  1  0.25000000  0.18758700  0.87817599  1
  Te  Te16  1  0.75000000  0.78928500  0.48939298  1
  Te  Te17  1  0.25000000  0.21071500  0.51060699  1
  Te  Te18  1  0.75000000  0.42222800  0.22710299  1
  Te  Te19  1  0.25000000  0.57777200  0.77289698  1
