# generated using pymatgen
data_HoC
_symmetry_space_group_name_H-M   'P 1'
_cell_length_a   3.68341208
_cell_length_b   6.60634518
_cell_length_c   11.99585819
_cell_angle_alpha   90.00000000
_cell_angle_beta   90.00000000
_cell_angle_gamma   90.00000000
_symmetry_Int_Tables_number   1
_chemical_formula_structural   HoC
_chemical_formula_sum   'Ho9 C9'
_cell_volume   291.90591285
_cell_formula_units_Z   9
loop_
 _symmetry_equiv_pos_site_id
 _symmetry_equiv_pos_as_xyz
  1  'x, y, z'
loop_
 _atom_site_type_symbol
 _atom_site_label
 _atom_site_symmetry_multiplicity
 _atom_site_fract_x
 _atom_site_fract_y
 _atom_site_fract_z
 _atom_site_occupancy
  Ho  Ho0  1  0.00000000  0.25658499  0.54286899  1
  Ho  Ho1  1  0.00000000  0.74341498  0.45713099  1
  Ho  Ho2  1  0.00000000  0.75658498  0.95713098  1
  Ho  Ho3  1  0.00000000  0.24341499  0.04286900  1
  Ho  Ho4  1  0.49999999  0.10678400  0.80402299  1
  Ho  Ho5  1  0.49999999  0.89321598  0.19597700  1
  Ho  Ho6  1  0.49999999  0.60678398  0.69597699  1
  Ho  Ho7  1  0.49999999  0.39321599  0.30402300  1
  C  C8  1  0.49999999  0.49999999  0.49999999  1
  Ho  Ho9  1  0.49999999  0.00000000  0.00000000  1
  C  C10  1  0.00000000  0.36043799  0.73608499  1
  C  C11  1  0.00000000  0.63956198  0.26391500  1
  C  C12  1  0.00000000  0.86043798  0.76391499  1
  C  C13  1  0.00000000  0.13956200  0.23608500  1
  C  C14  1  0.00000000  0.40250399  0.84465299  1
  C  C15  1  0.00000000  0.59749598  0.15534700  1
  C  C16  1  0.00000000  0.09749600  0.34465299  1
  C  C17  1  0.00000000  0.90250398  0.65534699  1
