# generated using pymatgen
data_ErIr2
_symmetry_space_group_name_H-M   'P 1'
_cell_length_a   5.12472582
_cell_length_b   5.23101425
_cell_length_c   5.23101425
_cell_angle_alpha   61.59037399
_cell_angle_beta   60.66989517
_cell_angle_gamma   60.66989517
_symmetry_Int_Tables_number   1
_chemical_formula_structural   ErIr2
_chemical_formula_sum   'Er2 Ir4'
_cell_volume   101.32276014
_cell_formula_units_Z   2
loop_
 _symmetry_equiv_pos_site_id
 _symmetry_equiv_pos_as_xyz
  1  'x, y, z'
loop_
 _atom_site_type_symbol
 _atom_site_label
 _atom_site_symmetry_multiplicity
 _atom_site_fract_x
 _atom_site_fract_y
 _atom_site_fract_z
 _atom_site_occupancy
  Er  Er0  1  0.12542401  0.12457600  0.62457597  1
  Er  Er1  1  0.87457604  0.87542397  0.37542396  1
  Ir  Ir2  1  1.00000004  0.49999998  -0.00000002  1
  Ir  Ir3  1  0.50000002  0.49999998  -0.00000001  1
  Ir  Ir4  1  0.50000002  0.49999998  0.49999996  1
  Ir  Ir5  1  0.50000002  0.99999997  -0.00000003  1
