# generated using pymatgen
data_InTe2
_symmetry_space_group_name_H-M   'P 1'
_cell_length_a   4.16862822
_cell_length_b   4.16862822
_cell_length_c   23.59955215
_cell_angle_alpha   90.00000000
_cell_angle_beta   90.00000000
_cell_angle_gamma   120.00000000
_symmetry_Int_Tables_number   1
_chemical_formula_structural   InTe2
_chemical_formula_sum   'In4 Te8'
_cell_volume   355.15727958
_cell_formula_units_Z   4
loop_
 _symmetry_equiv_pos_site_id
 _symmetry_equiv_pos_as_xyz
  1  'x, y, z'
loop_
 _atom_site_type_symbol
 _atom_site_label
 _atom_site_symmetry_multiplicity
 _atom_site_fract_x
 _atom_site_fract_y
 _atom_site_fract_z
 _atom_site_occupancy
  Te  Te0  1  0.66666664  0.33333334  0.10235400  1
  Te  Te1  1  0.00000000  0.00000000  0.77182899  1
  Te  Te2  1  0.33333334  0.66666668  0.43788300  1
  Te  Te3  1  0.00000000  0.00000000  0.22817100  1
  Te  Te4  1  0.33333334  0.66666668  0.89764599  1
  Te  Te5  1  0.66666664  0.33333334  0.56211700  1
  In  In6  1  0.33333334  0.66666668  0.66670800  1
  Te  Te7  1  0.66666664  0.33333334  0.33333333  1
  In  In8  1  0.33333334  0.66666668  0.16574400  1
  In  In9  1  0.66666664  0.33333334  0.83425599  1
  In  In10  1  0.00000000  0.00000000  0.50000000  1
  Te  Te11  1  0.00000000  0.00000000  0.00000000  1
