# generated using pymatgen
data_CeGe2Rh
_symmetry_space_group_name_H-M   'P 1'
_cell_length_a   4.18221903
_cell_length_b   4.36506987
_cell_length_c   8.78642750
_cell_angle_alpha   75.61724091
_cell_angle_beta   90.00000000
_cell_angle_gamma   90.00000000
_symmetry_Int_Tables_number   1
_chemical_formula_structural   CeGe2Rh
_chemical_formula_sum   'Ce2 Ge4 Rh2'
_cell_volume   155.37485996
_cell_formula_units_Z   2
loop_
 _symmetry_equiv_pos_site_id
 _symmetry_equiv_pos_as_xyz
  1  'x, y, z'
loop_
 _atom_site_type_symbol
 _atom_site_label
 _atom_site_symmetry_multiplicity
 _atom_site_fract_x
 _atom_site_fract_y
 _atom_site_fract_z
 _atom_site_occupancy
  Ce  Ce0  1  0.74999999  0.60546901  0.78906203  1
  Ce  Ce1  1  0.25000000  0.39453101  0.21093801  1
  Ge  Ge2  1  0.74999999  0.25210601  0.49578802  1
  Ge  Ge3  1  0.25000000  0.74789402  0.50421202  1
  Ge  Ge4  1  0.74999999  0.96272002  0.07456002  1
  Ge  Ge5  1  0.25000000  0.03728000  0.92544002  1
  Rh  Rh6  1  0.74999999  0.82085302  0.35829402  1
  Rh  Rh7  1  0.25000000  0.17914700  0.64170602  1
