# generated using pymatgen
data_SrGa4F12
_symmetry_space_group_name_H-M   'P 1'
_cell_length_a   5.61209822
_cell_length_b   5.61209822
_cell_length_c   8.90265751
_cell_angle_alpha   108.37242126
_cell_angle_beta   108.37242126
_cell_angle_gamma   90.00000000
_symmetry_Int_Tables_number   1
_chemical_formula_structural   SrGa4F12
_chemical_formula_sum   'Sr1 Ga4 F12'
_cell_volume   250.99775746
_cell_formula_units_Z   1
loop_
 _symmetry_equiv_pos_site_id
 _symmetry_equiv_pos_as_xyz
  1  'x, y, z'
loop_
 _atom_site_type_symbol
 _atom_site_label
 _atom_site_symmetry_multiplicity
 _atom_site_fract_x
 _atom_site_fract_y
 _atom_site_fract_z
 _atom_site_occupancy
  Sr  Sr0  1  0.49999997  0.49999998  -0.00000002  1
  Ga  Ga1  1  0.62794697  0.12794699  0.25589399  1
  Ga  Ga2  1  0.37205297  0.87205296  0.74410597  1
  Ga  Ga3  1  0.12794698  0.62794697  0.25589398  1
  Ga  Ga4  1  0.87205295  0.37205298  0.74410597  1
  F  F5  1  0.24999997  0.74999996  0.49999998  1
  F  F6  1  0.15252698  0.62271597  0.77524298  1
  F  F7  1  0.74999996  0.24999999  0.49999998  1
  F  F8  1  0.62271596  0.62271597  0.77524297  1
  F  F9  1  0.15252699  0.15252699  0.77524299  1
  F  F10  1  0.62271597  0.15252699  0.77524298  1
  F  F11  1  0.49999998  0.00000000  -0.00000001  1
  F  F12  1  0.84747295  0.37728398  0.22475698  1
  F  F13  1  -0.00000001  0.49999998  -0.00000001  1
  F  F14  1  0.84747295  0.84747296  0.22475697  1
  F  F15  1  0.37728398  0.37728398  0.22475698  1
  F  F16  1  0.37728397  0.84747296  0.22475698  1
