# generated using pymatgen
data_Ce2Al5Cu2
_symmetry_space_group_name_H-M   'P 1'
_cell_length_a   4.81795597
_cell_length_b   4.81795597
_cell_length_c   6.62355185
_cell_angle_alpha   90.00000000
_cell_angle_beta   90.00000000
_cell_angle_gamma   120.00000000
_symmetry_Int_Tables_number   1
_chemical_formula_structural   Ce2Al5Cu2
_chemical_formula_sum   'Ce2 Al5 Cu2'
_cell_volume   133.15185632
_cell_formula_units_Z   1
loop_
 _symmetry_equiv_pos_site_id
 _symmetry_equiv_pos_as_xyz
  1  'x, y, z'
loop_
 _atom_site_type_symbol
 _atom_site_label
 _atom_site_symmetry_multiplicity
 _atom_site_fract_x
 _atom_site_fract_y
 _atom_site_fract_z
 _atom_site_occupancy
  Al  Al0  1  -0.00000002  0.49999997  0.66666668  1
  Al  Al1  1  0.50000000  0.00000000  0.33333334  1
  Cu  Cu2  1  0.49999999  0.49999997  -0.00000000  1
  Ce  Ce3  1  0.15922597  0.84077295  -0.00000000  1
  Al  Al4  1  0.84077398  0.68154796  0.33333334  1
  Cu  Cu5  1  0.31845300  0.15922699  0.66666668  1
  Ce  Ce6  1  0.84077400  0.15922699  1.00000002  1
  Al  Al7  1  0.15922599  0.31845198  0.33333334  1
  Al  Al8  1  0.68154698  0.84077295  0.66666668  1
