# generated using pymatgen
data_LuO2
_symmetry_space_group_name_H-M   'P 1'
_cell_length_a   4.53800774
_cell_length_b   4.53800774
_cell_length_c   4.53800774
_cell_angle_alpha   60.00000000
_cell_angle_beta   60.00000000
_cell_angle_gamma   60.00000000
_symmetry_Int_Tables_number   1
_chemical_formula_structural   LuO2
_chemical_formula_sum   'Lu3 O6'
_cell_volume   66.08162254
_cell_formula_units_Z   3
loop_
 _symmetry_equiv_pos_site_id
 _symmetry_equiv_pos_as_xyz
  1  'x, y, z'
loop_
 _atom_site_type_symbol
 _atom_site_label
 _atom_site_symmetry_multiplicity
 _atom_site_fract_x
 _atom_site_fract_y
 _atom_site_fract_z
 _atom_site_occupancy
  Lu  Lu0  1  0.25000000  0.25000000  0.25000000  1
  Lu  Lu1  1  0.74999999  0.74999999  0.74999999  1
  Lu  Lu2  1  0.00000000  0.00000000  0.00000000  1
  O  O3  1  0.75692299  0.75692299  0.24307700  1
  O  O4  1  0.24307700  0.75692299  0.75692299  1
  O  O5  1  0.24307700  0.75692299  0.24307700  1
  O  O6  1  0.24307700  0.24307700  0.75692299  1
  O  O7  1  0.75692299  0.24307700  0.24307700  1
  O  O8  1  0.75692299  0.24307700  0.75692299  1
