# generated using pymatgen
data_Hg
_symmetry_space_group_name_H-M   'P 1'
_cell_length_a   4.36914730
_cell_length_b   4.36914730
_cell_length_c   10.90266228
_cell_angle_alpha   78.44136047
_cell_angle_beta   78.44136047
_cell_angle_gamma   60.00000763
_symmetry_Int_Tables_number   1
_chemical_formula_structural   Hg
_chemical_formula_sum   Hg5
_cell_volume   175.35160216
_cell_formula_units_Z   5
loop_
 _symmetry_equiv_pos_site_id
 _symmetry_equiv_pos_as_xyz
  1  'x, y, z'
loop_
 _atom_site_type_symbol
 _atom_site_label
 _atom_site_symmetry_multiplicity
 _atom_site_fract_x
 _atom_site_fract_y
 _atom_site_fract_z
 _atom_site_occupancy
  Hg  Hg0  1  0.60237201  0.60237202  0.19288398  1
  Hg  Hg1  1  0.39780501  0.39780502  0.80658499  1
  Hg  Hg2  1  0.99510202  0.99510204  0.01469396  1
  Hg  Hg3  1  0.78499801  0.78499803  0.64500597  1
  Hg  Hg4  1  0.21972400  0.21972401  0.34082799  1
