# generated using pymatgen
data_Na5Sb2
_symmetry_space_group_name_H-M   'P 1'
_cell_length_a   5.37738991
_cell_length_b   5.37738991
_cell_length_c   9.22944164
_cell_angle_alpha   73.06317139
_cell_angle_beta   73.06317139
_cell_angle_gamma   60.00000000
_symmetry_Int_Tables_number   1
_chemical_formula_structural   Na5Sb2
_chemical_formula_sum   'Na5 Sb2'
_cell_volume   217.65726158
_cell_formula_units_Z   1
loop_
 _symmetry_equiv_pos_site_id
 _symmetry_equiv_pos_as_xyz
  1  'x, y, z'
loop_
 _atom_site_type_symbol
 _atom_site_label
 _atom_site_symmetry_multiplicity
 _atom_site_fract_x
 _atom_site_fract_y
 _atom_site_fract_z
 _atom_site_occupancy
  Na  Na0  1  0.62505402  0.62505401  0.12483801  1
  Na  Na1  1  0.00529000  0.00529000  0.98412995  1
  Na  Na2  1  0.49454402  0.49454301  0.51636898  1
  Sb  Sb3  1  0.37150201  0.37150301  0.88549296  1
  Sb  Sb4  1  0.87520103  0.87520002  0.37439800  1
  Na  Na5  1  0.75378003  0.75377901  0.73866098  1
  Na  Na6  1  0.24963001  0.24963000  0.25110999  1
