# generated using pymatgen
data_Mg5B2N5
_symmetry_space_group_name_H-M   'P 1'
_cell_length_a   5.40381098
_cell_length_b   5.40381098
_cell_length_c   5.40381098
_cell_angle_alpha   90.00000000
_cell_angle_beta   90.00000000
_cell_angle_gamma   90.00000000
_symmetry_Int_Tables_number   1
_chemical_formula_structural   Mg5B2N5
_chemical_formula_sum   'Mg5 B2 N5'
_cell_volume   157.79761969
_cell_formula_units_Z   1
loop_
 _symmetry_equiv_pos_site_id
 _symmetry_equiv_pos_as_xyz
  1  'x, y, z'
loop_
 _atom_site_type_symbol
 _atom_site_label
 _atom_site_symmetry_multiplicity
 _atom_site_fract_x
 _atom_site_fract_y
 _atom_site_fract_z
 _atom_site_occupancy
  Mg  Mg0  1  0.00000000  0.50000000  0.50000000  1
  Mg  Mg1  1  0.50000000  0.50000000  0.00000000  1
  Mg  Mg2  1  0.50000000  0.00000000  0.50000000  1
  Mg  Mg3  1  0.00000000  0.00000000  0.00000000  1
  B  B4  1  0.38288800  0.11711200  0.88288800  1
  N  N5  1  0.11711200  0.88288800  0.38288800  1
  N  N6  1  0.88288800  0.38288800  0.11711200  1
  Mg  Mg7  1  0.61711200  0.61711200  0.61711200  1
  N  N8  1  0.38288800  0.38288800  0.38288800  1
  N  N9  1  0.11711200  0.61711200  0.88288800  1
  N  N10  1  0.88288800  0.11711200  0.61711200  1
  B  B11  1  0.61711200  0.88288800  0.11711200  1
