# generated using pymatgen
data_DyAl2
_symmetry_space_group_name_H-M   'P 1'
_cell_length_a   4.53596878
_cell_length_b   7.03850222
_cell_length_c   7.03850222
_cell_angle_alpha   120.00000000
_cell_angle_beta   90.00000000
_cell_angle_gamma   90.00000000
_symmetry_Int_Tables_number   1
_chemical_formula_structural   DyAl2
_chemical_formula_sum   'Dy3 Al6'
_cell_volume   194.60822517
_cell_formula_units_Z   3
loop_
 _symmetry_equiv_pos_site_id
 _symmetry_equiv_pos_as_xyz
  1  'x, y, z'
loop_
 _atom_site_type_symbol
 _atom_site_label
 _atom_site_symmetry_multiplicity
 _atom_site_fract_x
 _atom_site_fract_y
 _atom_site_fract_z
 _atom_site_occupancy
  Al  Al0  1  0.50000002  0.22604800  0.00000001  1
  Al  Al1  1  0.50000002  0.77395199  0.77395205  1
  Al  Al2  1  0.50000002  0.00000000  0.22604801  1
  Dy  Dy3  1  1.00000005  0.00000000  0.56817801  1
  Dy  Dy4  1  0.00000000  0.56817799  0.00000002  1
  Dy  Dy5  1  0.00000000  0.43182199  0.43182203  1
  Al  Al6  1  0.50000002  0.66666666  0.33333337  1
  Al  Al7  1  0.50000002  0.33333333  0.66666670  1
  Al  Al8  1  0.00000000  0.00000000  0.00000000  1
