# generated using pymatgen
data_BaCeO3
_symmetry_space_group_name_H-M   'P 1'
_cell_length_a   6.31177711
_cell_length_b   6.32258511
_cell_length_c   8.93302059
_cell_angle_alpha   90.00000000
_cell_angle_beta   90.00000000
_cell_angle_gamma   90.00000000
_symmetry_Int_Tables_number   1
_chemical_formula_structural   BaCeO3
_chemical_formula_sum   'Ba4 Ce4 O12'
_cell_volume   356.48780144
_cell_formula_units_Z   4
loop_
 _symmetry_equiv_pos_site_id
 _symmetry_equiv_pos_as_xyz
  1  'x, y, z'
loop_
 _atom_site_type_symbol
 _atom_site_label
 _atom_site_symmetry_multiplicity
 _atom_site_fract_x
 _atom_site_fract_y
 _atom_site_fract_z
 _atom_site_occupancy
  Ba  Ba0  1  0.50340299  0.51642199  0.25000001  1
  Ba  Ba1  1  0.99659698  0.01642200  0.25000001  1
  Ba  Ba2  1  0.49659699  0.48357799  0.75000003  1
  Ba  Ba3  1  0.00340300  0.98357798  0.75000003  1
  Ce  Ce4  1  0.00000000  0.49999999  -0.00000000  1
  Ce  Ce5  1  0.49999999  0.00000000  0.50000002  1
  Ce  Ce6  1  0.00000000  0.49999999  0.50000002  1
  Ce  Ce7  1  0.49999999  0.00000000  0.00000000  1
  O  O8  1  0.05630300  0.48603299  0.25000001  1
  O  O9  1  0.44369699  0.98603298  0.25000001  1
  O  O10  1  0.94369698  0.51396699  0.75000003  1
  O  O11  1  0.55630299  0.01396700  0.75000003  1
  O  O12  1  0.27831899  0.72186599  0.97039804  1
  O  O13  1  0.22168100  0.22186600  0.52960202  1
  O  O14  1  0.72168099  0.27813400  0.47039802  1
  O  O15  1  0.77831899  0.77813399  0.02960200  1
  O  O16  1  0.72168099  0.27813400  0.02960200  1
  O  O17  1  0.77831899  0.77813399  0.47039802  1
  O  O18  1  0.27831899  0.72186599  0.52960202  1
  O  O19  1  0.22168100  0.22186600  0.97039804  1
