# generated using pymatgen
data_Li5MnO5
_symmetry_space_group_name_H-M   'P 1'
_cell_length_a   4.27386379
_cell_length_b   5.43769693
_cell_length_c   6.05401993
_cell_angle_alpha   108.08676147
_cell_angle_beta   90.00000000
_cell_angle_gamma   113.14035034
_symmetry_Int_Tables_number   1
_chemical_formula_structural   Li5MnO5
_chemical_formula_sum   'Li5 Mn1 O5'
_cell_volume   121.77901902
_cell_formula_units_Z   1
loop_
 _symmetry_equiv_pos_site_id
 _symmetry_equiv_pos_as_xyz
  1  'x, y, z'
loop_
 _atom_site_type_symbol
 _atom_site_label
 _atom_site_symmetry_multiplicity
 _atom_site_fract_x
 _atom_site_fract_y
 _atom_site_fract_z
 _atom_site_occupancy
  Li  Li0  1  0.29824606  0.59649203  0.64790703  1
  Li  Li1  1  0.01072000  0.02144000  0.48253400  1
  Li  Li2  1  0.69285907  0.38571802  0.84578101  1
  Li  Li3  1  0.31723007  0.63446003  0.12335903  1
  Mn  Mn4  1  0.71885307  0.43770602  0.32864202  1
  Li  Li5  1  0.00534200  0.01068400  0.98371399  1
  O  O6  1  0.15440503  0.30881002  0.80519901  1
  O  O7  1  0.50319403  0.00638800  0.97613199  1
  O  O8  1  0.83830410  0.67660804  0.65961203  1
  O  O9  1  0.17098104  0.34196202  0.31129902  1
  O  O10  1  0.85786610  0.71573204  0.16582104  1
