# generated using pymatgen
data_Sm2TaFe7Si9C
_symmetry_space_group_name_H-M   'P 1'
_cell_length_a   6.41207170
_cell_length_b   6.43953753
_cell_length_c   6.43953753
_cell_angle_alpha   83.62886810
_cell_angle_beta   83.33979034
_cell_angle_gamma   83.33979034
_symmetry_Int_Tables_number   1
_chemical_formula_structural   Sm2TaFe7Si9C
_chemical_formula_sum   'Sm2 Ta1 Fe7 Si9 C1'
_cell_volume   261.03217415
_cell_formula_units_Z   1
loop_
 _symmetry_equiv_pos_site_id
 _symmetry_equiv_pos_as_xyz
  1  'x, y, z'
loop_
 _atom_site_type_symbol
 _atom_site_label
 _atom_site_symmetry_multiplicity
 _atom_site_fract_x
 _atom_site_fract_y
 _atom_site_fract_z
 _atom_site_occupancy
  Sm  Sm0  1  0.34766900  0.34007299  0.34007298  1
  Sm  Sm1  1  0.65233101  0.65992698  0.65992697  1
  Si  Si2  1  0.09727700  0.09701000  0.09701000  1
  Si  Si3  1  0.90272301  0.90298997  0.90298996  1
  Fe  Fe4  1  0.15119101  0.65679298  0.65679296  1
  Si  Si5  1  0.65559800  0.15070800  0.65674698  1
  Si  Si6  1  0.65559801  0.65674698  0.15070798  1
  Fe  Fe7  1  0.84880901  0.34320699  0.34320699  1
  Si  Si8  1  0.34440201  0.84929198  0.34325297  1
  Si  Si9  1  0.34440200  0.34325299  0.84929197  1
  Fe  Fe10  1  0.00000000  0.28537899  0.71462097  1
  Si  Si11  1  0.70954901  0.99972997  0.28969697  1
  Si  Si12  1  0.29045101  0.71030298  0.00026998  1
  Si  Si13  1  0.29045100  0.00027000  0.71030298  1
  Ta  Ta14  1  0.70954900  0.28969699  0.99972997  1
  Fe  Fe15  1  0.00000001  0.71462098  0.28537897  1
  Fe  Fe16  1  0.50000000  0.00000000  0.00000000  1
  Fe  Fe17  1  0.00000000  0.49999999  -0.00000001  1
  Fe  Fe18  1  1.00000000  0.00000000  0.49999999  1
  C  C19  1  1.00000001  0.49999999  0.49999998  1
