# generated using pymatgen
data_MgAg7
_symmetry_space_group_name_H-M   'P 1'
_cell_length_a   4.56267500
_cell_length_b   6.23006392
_cell_length_c   6.23006439
_cell_angle_alpha   120.00000000
_cell_angle_beta   90.00000000
_cell_angle_gamma   90.00000000
_symmetry_Int_Tables_number   1
_chemical_formula_structural   MgAg7
_chemical_formula_sum   'Mg1 Ag7'
_cell_volume   153.36815894
_cell_formula_units_Z   1
loop_
 _symmetry_equiv_pos_site_id
 _symmetry_equiv_pos_as_xyz
  1  'x, y, z'
loop_
 _atom_site_type_symbol
 _atom_site_label
 _atom_site_symmetry_multiplicity
 _atom_site_fract_x
 _atom_site_fract_y
 _atom_site_fract_z
 _atom_site_occupancy
  Mg  Mg0  1  0.75000000  0.83321102  0.16679002  1
  Ag  Ag1  1  0.75000000  0.33357901  0.16679001  1
  Ag  Ag2  1  0.75000000  0.83321102  0.66642201  1
  Ag  Ag3  1  0.25000000  0.16678900  0.83320999  1
  Ag  Ag4  1  0.25000000  0.66642102  0.83321000  1
  Ag  Ag5  1  0.25000000  0.16678900  0.33357800  1
  Ag  Ag6  1  0.25000000  0.66666669  0.33333335  1
  Ag  Ag7  1  0.75000000  0.33333334  0.66666666  1
