# generated using pymatgen
data_K5YBr14
_symmetry_space_group_name_H-M   'P 1'
_cell_length_a   4.51795292
_cell_length_b   9.69647217
_cell_length_c   16.66595459
_cell_angle_alpha   90.00000000
_cell_angle_beta   90.00000000
_cell_angle_gamma   90.00000000
_symmetry_Int_Tables_number   1
_chemical_formula_structural   K5YBr14
_chemical_formula_sum   'K5 Y1 Br14'
_cell_volume   730.10555078
_cell_formula_units_Z   1
loop_
 _symmetry_equiv_pos_site_id
 _symmetry_equiv_pos_as_xyz
  1  'x, y, z'
loop_
 _atom_site_type_symbol
 _atom_site_label
 _atom_site_symmetry_multiplicity
 _atom_site_fract_x
 _atom_site_fract_y
 _atom_site_fract_z
 _atom_site_occupancy
  Br  Br0  1  0.75000001  0.71202299  0.29163899  1
  Br  Br1  1  0.25000000  0.02592300  0.40172599  1
  Br  Br2  1  0.25000000  0.52592299  0.09827400  1
  Br  Br3  1  0.25000000  0.78797699  0.79163897  1
  Br  Br4  1  0.75000001  0.82751999  0.00107100  1
  Br  Br5  1  0.25000000  0.28797700  0.70836097  1
  Br  Br6  1  0.25000000  0.17248000  0.99892896  1
  Br  Br7  1  0.75000001  0.47407699  0.90172597  1
  Br  Br8  1  0.25000000  0.67247999  0.50107098  1
  Br  Br9  1  0.75000001  0.32751999  0.49892898  1
  Br  Br10  1  0.75000001  0.21202300  0.20836099  1
  Br  Br11  1  0.75000001  0.97407698  0.59827398  1
  K  K12  1  0.75000001  0.57745699  0.67245898  1
  K  K13  1  0.25000000  0.42254299  0.32754099  1
  K  K14  1  0.25000000  0.92254298  0.17245899  1
  K  K15  1  0.75000001  0.07745700  0.82754097  1
  K  K16  1  0.25000000  0.16649200  0.56172198  1
  Y  Y17  1  0.75000001  0.83350799  0.43827798  1
  Br  Br18  1  0.75000001  0.33350799  0.06172200  1
  Br  Br19  1  0.25000000  0.66649199  0.93827797  1
