# generated using pymatgen
data_La(YS2)3
_symmetry_space_group_name_H-M   'P 1'
_cell_length_a   6.51892710
_cell_length_b   7.75356913
_cell_length_c   9.37690926
_cell_angle_alpha   90.00000000
_cell_angle_beta   90.00000000
_cell_angle_gamma   90.00000000
_symmetry_Int_Tables_number   1
_chemical_formula_structural   La(YS2)3
_chemical_formula_sum   'La2 Y6 S12'
_cell_volume   473.95542710
_cell_formula_units_Z   2
loop_
 _symmetry_equiv_pos_site_id
 _symmetry_equiv_pos_as_xyz
  1  'x, y, z'
loop_
 _atom_site_type_symbol
 _atom_site_label
 _atom_site_symmetry_multiplicity
 _atom_site_fract_x
 _atom_site_fract_y
 _atom_site_fract_z
 _atom_site_occupancy
  La  La0  1  0.44342999  0.87898299  0.24999999  1
  La  La1  1  0.05657000  0.37898299  0.24999999  1
  Y  Y2  1  0.55656999  0.12101700  0.74999998  1
  Y  Y3  1  0.94342999  0.62101699  0.74999998  1
  Y  Y4  1  0.49999999  0.49999999  -0.00000000  1
  Y  Y5  1  0.00000000  0.00000000  0.49999999  1
  Y  Y6  1  0.49999999  0.49999999  0.49999999  1
  Y  Y7  1  0.00000000  0.00000000  0.00000000  1
  S  S8  1  0.64126499  0.54078499  0.24999999  1
  S  S9  1  0.85873499  0.04078500  0.24999999  1
  S  S10  1  0.35873499  0.45921499  0.74999998  1
  S  S11  1  0.14126500  0.95921498  0.74999998  1
  S  S12  1  0.66757899  0.82772399  0.55611898  1
  S  S13  1  0.83242099  0.32772399  0.94388097  1
  S  S14  1  0.33242100  0.17227600  0.05611900  1
  S  S15  1  0.16757900  0.67227599  0.44388099  1
  S  S16  1  0.33242100  0.17227600  0.44388099  1
  S  S17  1  0.16757900  0.67227599  0.05611900  1
  S  S18  1  0.66757899  0.82772399  0.94388097  1
  S  S19  1  0.83242099  0.32772399  0.55611898  1
