# generated using pymatgen
data_BaSrSiTe4
_symmetry_space_group_name_H-M   'P 1'
_cell_length_a   5.23533392
_cell_length_b   5.23533392
_cell_length_c   9.16094589
_cell_angle_alpha   106.60321045
_cell_angle_beta   106.60321045
_cell_angle_gamma   90.00000000
_symmetry_Int_Tables_number   1
_chemical_formula_structural   BaSrSiTe4
_chemical_formula_sum   'Ba1 Sr1 Si1 Te4'
_cell_volume   229.67553725
_cell_formula_units_Z   1
loop_
 _symmetry_equiv_pos_site_id
 _symmetry_equiv_pos_as_xyz
  1  'x, y, z'
loop_
 _atom_site_type_symbol
 _atom_site_label
 _atom_site_symmetry_multiplicity
 _atom_site_fract_x
 _atom_site_fract_y
 _atom_site_fract_z
 _atom_site_occupancy
  Te  Te0  1  0.15458701  0.15458701  0.30917401  1
  Te  Te1  1  0.50000002  0.00000000  0.00000002  1
  Te  Te2  1  0.84541307  0.84541303  0.69082607  1
  Te  Te3  1  0.00000002  0.50000002  0.00000002  1
  Sr  Sr4  1  0.35437203  0.35437201  0.70874403  1
  Ba  Ba5  1  0.64562805  0.64562803  0.29125605  1
  Si  Si6  1  0.00000000  0.00000000  0.00000000  1
