# generated using pymatgen
data_SrMoO4
_symmetry_space_group_name_H-M   'P 1'
_cell_length_a   5.70820570
_cell_length_b   5.78375912
_cell_length_c   7.55125809
_cell_angle_alpha   112.49896240
_cell_angle_beta   112.18881989
_cell_angle_gamma   90.04544830
_symmetry_Int_Tables_number   1
_chemical_formula_structural   SrMoO4
_chemical_formula_sum   'Sr2 Mo2 O8'
_cell_volume   210.17210526
_cell_formula_units_Z   2
loop_
 _symmetry_equiv_pos_site_id
 _symmetry_equiv_pos_as_xyz
  1  'x, y, z'
loop_
 _atom_site_type_symbol
 _atom_site_label
 _atom_site_symmetry_multiplicity
 _atom_site_fract_x
 _atom_site_fract_y
 _atom_site_fract_z
 _atom_site_occupancy
  Sr  Sr0  1  0.62370194  0.87370196  0.74740399  1
  Sr  Sr1  1  0.37629799  0.12629799  0.25259601  1
  Mo  Mo2  1  0.12895697  0.37895698  0.75791400  1
  Mo  Mo3  1  0.87104296  0.62104297  0.24208600  1
  O  O4  1  0.17741294  0.83546596  0.40304997  1
  O  O5  1  0.72563696  0.56758397  0.40305001  1
  O  O6  1  0.82258699  0.16453399  0.59695004  1
  O  O7  1  0.27436297  0.43241598  0.59695000  1
  O  O8  1  0.06645095  0.68277697  0.91382299  1
  O  O9  1  0.34737198  0.23104599  0.91382302  1
  O  O10  1  0.93354898  0.31722299  0.08617702  1
  O  O11  1  0.65262795  0.76895396  0.08617698  1
