# generated using pymatgen
data_Ce3Ge5Pd3
_symmetry_space_group_name_H-M   'P 1'
_cell_length_a   4.43312597
_cell_length_b   6.91255426
_cell_length_c   8.34409237
_cell_angle_alpha   113.79628754
_cell_angle_beta   105.40525818
_cell_angle_gamma   90.00000000
_symmetry_Int_Tables_number   1
_chemical_formula_structural   Ce3Ge5Pd3
_chemical_formula_sum   'Ce3 Ge5 Pd3'
_cell_volume   223.88304113
_cell_formula_units_Z   1
loop_
 _symmetry_equiv_pos_site_id
 _symmetry_equiv_pos_as_xyz
  1  'x, y, z'
loop_
 _atom_site_type_symbol
 _atom_site_label
 _atom_site_symmetry_multiplicity
 _atom_site_fract_x
 _atom_site_fract_y
 _atom_site_fract_z
 _atom_site_occupancy
  Ce  Ce0  1  -0.00000001  0.49999998  -0.00000002  1
  Ce  Ce1  1  0.86951500  0.85755196  0.73902999  1
  Ce  Ce2  1  0.13048500  0.14244799  0.26097000  1
  Ge  Ge3  1  0.68298899  0.87790196  0.36597798  1
  Pd  Pd4  1  0.31701100  0.12209799  0.63402202  1
  Pd  Pd5  1  0.65998000  0.47531998  0.31995999  1
  Pd  Pd6  1  0.34002000  0.52467998  0.68004000  1
  Ge  Ge7  1  0.78436000  0.30099599  0.56872001  1
  Ge  Ge8  1  0.21563999  0.69900397  0.43127998  1
  Ge  Ge9  1  0.49058200  0.19370299  0.98116403  1
  Ge  Ge10  1  0.50941799  0.80629697  0.01883597  1
