# generated using pymatgen
data_ZrPPd
_symmetry_space_group_name_H-M   'P 1'
_cell_length_a   3.89109802
_cell_length_b   6.60601187
_cell_length_c   7.61565304
_cell_angle_alpha   90.00000000
_cell_angle_beta   90.00000000
_cell_angle_gamma   90.00000000
_symmetry_Int_Tables_number   1
_chemical_formula_structural   ZrPPd
_chemical_formula_sum   'Zr4 P4 Pd4'
_cell_volume   195.75761753
_cell_formula_units_Z   4
loop_
 _symmetry_equiv_pos_site_id
 _symmetry_equiv_pos_as_xyz
  1  'x, y, z'
loop_
 _atom_site_type_symbol
 _atom_site_label
 _atom_site_symmetry_multiplicity
 _atom_site_fract_x
 _atom_site_fract_y
 _atom_site_fract_z
 _atom_site_occupancy
  Zr  Zr0  1  0.25000000  0.52780801  0.67896200  1
  Zr  Zr1  1  0.75000000  0.47219201  0.32103800  1
  Zr  Zr2  1  0.25000000  0.02780800  0.82103800  1
  Zr  Zr3  1  0.75000000  0.97219202  0.17896200  1
  P  P4  1  0.25000000  0.25827601  0.12421300  1
  P  P5  1  0.75000000  0.74172401  0.87578700  1
  P  P6  1  0.25000000  0.75827602  0.37578700  1
  P  P7  1  0.75000000  0.24172400  0.62421300  1
  Pd  Pd8  1  0.75000000  0.85688202  0.56211000  1
  Pd  Pd9  1  0.25000000  0.14311800  0.43789000  1
  Pd  Pd10  1  0.75000000  0.35688201  0.93789000  1
  Pd  Pd11  1  0.25000000  0.64311801  0.06211000  1
