# generated using pymatgen
data_MgHN
_symmetry_space_group_name_H-M   'P 1'
_cell_length_a   3.36098528
_cell_length_b   3.36098528
_cell_length_c   3.36098528
_cell_angle_alpha   69.08153534
_cell_angle_beta   69.08153534
_cell_angle_gamma   69.08152008
_symmetry_Int_Tables_number   1
_chemical_formula_structural   MgHN
_chemical_formula_sum   'Mg1 H1 N1'
_cell_volume   31.95947950
_cell_formula_units_Z   1
loop_
 _symmetry_equiv_pos_site_id
 _symmetry_equiv_pos_as_xyz
  1  'x, y, z'
loop_
 _atom_site_type_symbol
 _atom_site_label
 _atom_site_symmetry_multiplicity
 _atom_site_fract_x
 _atom_site_fract_y
 _atom_site_fract_z
 _atom_site_occupancy
  Mg  Mg0  1  0.98596999  0.98596999  0.98597003  1
  N  N1  1  0.38669400  0.38669399  0.38669401  1
  H  H2  1  0.51413099  0.51413099  0.51413102  1
