# generated using pymatgen
data_LiV7O12
_symmetry_space_group_name_H-M   'P 1'
_cell_length_a   5.37609100
_cell_length_b   5.38146019
_cell_length_c   7.90294600
_cell_angle_alpha   89.24614716
_cell_angle_beta   90.00000000
_cell_angle_gamma   90.00000000
_symmetry_Int_Tables_number   1
_chemical_formula_structural   LiV7O12
_chemical_formula_sum   'Li1 V7 O12'
_cell_volume   228.62207689
_cell_formula_units_Z   1
loop_
 _symmetry_equiv_pos_site_id
 _symmetry_equiv_pos_as_xyz
  1  'x, y, z'
loop_
 _atom_site_type_symbol
 _atom_site_label
 _atom_site_symmetry_multiplicity
 _atom_site_fract_x
 _atom_site_fract_y
 _atom_site_fract_z
 _atom_site_occupancy
  Li  Li0  1  0.97681000  0.98437001  0.74990697  1
  V  V1  1  0.47680900  0.51563000  0.75009299  1
  O  O2  1  0.02318900  0.01562900  0.25009300  1
  O  O3  1  0.52319000  0.48437100  0.24990699  1
  O  O4  1  0.00000000  0.50000000  -0.00000001  1
  V  V5  1  0.50000100  0.99999901  0.49999997  1
  V  V6  1  0.00000000  0.50000000  0.50000099  1
  V  V7  1  0.50000100  0.00000000  1.00000000  1
  O  O8  1  0.67861300  0.34415800  0.57232099  1
  O  O9  1  0.17861200  0.15584200  0.92767900  1
  O  O10  1  0.32138700  0.65584301  0.42767898  1
  O  O11  1  0.82138800  0.84415701  0.07232098  1
  O  O12  1  0.84311300  0.81985101  0.43579998  1
  V  V13  1  0.34311400  0.68014901  0.06419998  1
  O  O14  1  0.15688700  0.18014800  0.56420000  1
  O  O15  1  0.65688600  0.31985200  0.93579999  1
  O  O16  1  0.60057700  0.88121801  0.75922698  1
  O  O17  1  0.10057600  0.61878100  0.74077399  1
  V  V18  1  0.89942400  0.38121800  0.25922599  1
  V  V19  1  0.39942300  0.11878100  0.24077300  1
