# generated using pymatgen
data_ZrGaPd
_symmetry_space_group_name_H-M   'P 1'
_cell_length_a   3.83951092
_cell_length_b   7.09501696
_cell_length_c   7.09501791
_cell_angle_alpha   119.99017334
_cell_angle_beta   90.00000000
_cell_angle_gamma   90.00000000
_symmetry_Int_Tables_number   1
_chemical_formula_structural   ZrGaPd
_chemical_formula_sum   'Zr3 Ga3 Pd3'
_cell_volume   167.40039084
_cell_formula_units_Z   3
loop_
 _symmetry_equiv_pos_site_id
 _symmetry_equiv_pos_as_xyz
  1  'x, y, z'
loop_
 _atom_site_type_symbol
 _atom_site_label
 _atom_site_symmetry_multiplicity
 _atom_site_fract_x
 _atom_site_fract_y
 _atom_site_fract_z
 _atom_site_occupancy
  Zr  Zr0  1  0.50000001  0.41943699  0.41943698  1
  Zr  Zr1  1  0.50000001  0.58071599  0.99974097  1
  Zr  Zr2  1  0.50000001  0.99974198  0.58071694  1
  Ga  Ga3  1  -0.00000000  0.76771498  0.76771496  1
  Ga  Ga4  1  0.00000000  0.23256400  0.99989899  1
  Ga  Ga5  1  0.00000000  0.99989898  0.23256394  1
  Pd  Pd6  1  0.50000001  0.99930698  0.99930694  1
  Pd  Pd7  1  0.00000000  0.66790999  0.33280996  1
  Pd  Pd8  1  0.00000000  0.33280999  0.66790998  1
