# generated using pymatgen
data_BaSi(BRh2)2
_symmetry_space_group_name_H-M   'P 1'
_cell_length_a   3.98889709
_cell_length_b   3.98889709
_cell_length_c   9.33318520
_cell_angle_alpha   90.00000000
_cell_angle_beta   90.00000000
_cell_angle_gamma   90.00000000
_symmetry_Int_Tables_number   1
_chemical_formula_structural   BaSi(BRh2)2
_chemical_formula_sum   'Ba1 Si1 B2 Rh4'
_cell_volume   148.50310920
_cell_formula_units_Z   1
loop_
 _symmetry_equiv_pos_site_id
 _symmetry_equiv_pos_as_xyz
  1  'x, y, z'
loop_
 _atom_site_type_symbol
 _atom_site_label
 _atom_site_symmetry_multiplicity
 _atom_site_fract_x
 _atom_site_fract_y
 _atom_site_fract_z
 _atom_site_occupancy
  Si  Si0  1  0.00000000  0.00000000  0.00000000  1
  B  B1  1  0.49999999  0.49999999  0.27837699  1
  B  B2  1  0.49999999  0.49999999  0.72162298  1
  Ba  Ba3  1  0.00000000  0.00000000  0.49999999  1
  Rh  Rh4  1  0.00000000  0.49999999  0.16165600  1
  Rh  Rh5  1  0.00000000  0.49999999  0.83834398  1
  Rh  Rh6  1  0.49999999  0.00000000  0.16165600  1
  Rh  Rh7  1  0.49999999  0.00000000  0.83834398  1
