# generated using pymatgen
data_K2Te
_symmetry_space_group_name_H-M   'P 1'
_cell_length_a   5.47582388
_cell_length_b   8.56570625
_cell_length_c   10.24602222
_cell_angle_alpha   90.00000000
_cell_angle_beta   90.00000000
_cell_angle_gamma   90.00000000
_symmetry_Int_Tables_number   1
_chemical_formula_structural   K2Te
_chemical_formula_sum   'K8 Te4'
_cell_volume   480.58248837
_cell_formula_units_Z   4
loop_
 _symmetry_equiv_pos_site_id
 _symmetry_equiv_pos_as_xyz
  1  'x, y, z'
loop_
 _atom_site_type_symbol
 _atom_site_label
 _atom_site_symmetry_multiplicity
 _atom_site_fract_x
 _atom_site_fract_y
 _atom_site_fract_z
 _atom_site_occupancy
  K  K0  1  0.75000002  0.35444199  0.08372700  1
  K  K1  1  0.25000001  0.64555798  0.91627298  1
  K  K2  1  0.75000002  0.85444197  0.41627299  1
  K  K3  1  0.25000001  0.14555800  0.58372699  1
  K  K4  1  0.25000001  0.01903400  0.17035600  1
  K  K5  1  0.75000002  0.98096597  0.82964398  1
  K  K6  1  0.25000001  0.51903398  0.32964399  1
  K  K7  1  0.75000002  0.48096599  0.67035599  1
  Te  Te8  1  0.25000001  0.74885498  0.60014199  1
  Te  Te9  1  0.75000002  0.25114499  0.39985799  1
  Te  Te10  1  0.25000001  0.24885499  0.89985798  1
  Te  Te11  1  0.75000002  0.75114498  0.10014200  1
