# generated using pymatgen
data_MgGa
_symmetry_space_group_name_H-M   'P 1'
_cell_length_a   4.25504923
_cell_length_b   4.25504923
_cell_length_c   4.25504923
_cell_angle_alpha   90.00000000
_cell_angle_beta   90.00000000
_cell_angle_gamma   90.00000000
_symmetry_Int_Tables_number   1
_chemical_formula_structural   MgGa
_chemical_formula_sum   'Mg2 Ga2'
_cell_volume   77.03955526
_cell_formula_units_Z   2
loop_
 _symmetry_equiv_pos_site_id
 _symmetry_equiv_pos_as_xyz
  1  'x, y, z'
loop_
 _atom_site_type_symbol
 _atom_site_label
 _atom_site_symmetry_multiplicity
 _atom_site_fract_x
 _atom_site_fract_y
 _atom_site_fract_z
 _atom_site_occupancy
  Mg  Mg0  1  0.00000000  0.00000000  0.00000000  1
  Mg  Mg1  1  0.49999997  0.49999997  -0.00000000  1
  Ga  Ga2  1  0.49999997  0.00000000  0.49999997  1
  Ga  Ga3  1  0.00000000  0.49999997  0.49999997  1
