# generated using pymatgen
data_Sr2FeO4
_symmetry_space_group_name_H-M   'P 1'
_cell_length_a   5.74932194
_cell_length_b   5.89051390
_cell_length_c   6.87002134
_cell_angle_alpha   90.00000000
_cell_angle_beta   114.73585510
_cell_angle_gamma   90.00000000
_symmetry_Int_Tables_number   1
_chemical_formula_structural   Sr2FeO4
_chemical_formula_sum   'Sr4 Fe2 O8'
_cell_volume   211.31563611
_cell_formula_units_Z   2
loop_
 _symmetry_equiv_pos_site_id
 _symmetry_equiv_pos_as_xyz
  1  'x, y, z'
loop_
 _atom_site_type_symbol
 _atom_site_label
 _atom_site_symmetry_multiplicity
 _atom_site_fract_x
 _atom_site_fract_y
 _atom_site_fract_z
 _atom_site_occupancy
  Sr  Sr0  1  0.60496601  0.51322301  0.20993201  1
  Sr  Sr1  1  0.39503401  0.01322300  0.79006802  1
  Sr  Sr2  1  0.89149101  0.48188101  0.78298202  1
  Sr  Sr3  1  0.10850900  0.98188102  0.21701800  1
  Fe  Fe4  1  0.25447100  0.49589801  0.50894201  1
  Fe  Fe5  1  0.74552901  0.99589802  0.49105802  1
  O  O6  1  0.01633800  0.74341901  0.54116101  1
  O  O7  1  0.98366201  0.24341900  0.45883902  1
  O  O8  1  0.47517701  0.24341900  0.45883901  1
  O  O9  1  0.52482301  0.74341901  0.54116101  1
  O  O10  1  0.58294401  0.93846202  0.16588801  1
  O  O11  1  0.92951801  0.08369800  0.85903602  1
  O  O12  1  0.41705601  0.43846201  0.83411202  1
  O  O13  1  0.07048200  0.58369801  0.14096400  1
