# generated using pymatgen
data_Lu3O5
_symmetry_space_group_name_H-M   'P 1'
_cell_length_a   5.70864296
_cell_length_b   6.56078005
_cell_length_c   6.56078005
_cell_angle_alpha   120.00000000
_cell_angle_beta   90.00000000
_cell_angle_gamma   90.00000000
_symmetry_Int_Tables_number   1
_chemical_formula_structural   Lu3O5
_chemical_formula_sum   'Lu3 O5'
_cell_volume   212.80139444
_cell_formula_units_Z   1
loop_
 _symmetry_equiv_pos_site_id
 _symmetry_equiv_pos_as_xyz
  1  'x, y, z'
loop_
 _atom_site_type_symbol
 _atom_site_label
 _atom_site_symmetry_multiplicity
 _atom_site_fract_x
 _atom_site_fract_y
 _atom_site_fract_z
 _atom_site_occupancy
  O  O0  1  0.50000000  0.00000000  -0.00000000  1
  O  O1  1  0.00000000  0.00000000  0.00000000  1
  Lu  Lu2  1  0.25000000  0.28883200  0.28883199  1
  Lu  Lu3  1  0.75000001  0.28883200  0.99999997  1
  O  O4  1  0.75000001  0.71116799  0.71116797  1
  Lu  Lu5  1  0.25000000  0.71116799  -0.00000001  1
  O  O6  1  0.25000000  0.00000000  0.71116798  1
  O  O7  1  0.75000001  0.99999999  0.28883198  1
