# generated using pymatgen
data_Sr4SnTe5
_symmetry_space_group_name_H-M   'P 1'
_cell_length_a   6.60585976
_cell_length_b   6.60585976
_cell_length_c   7.75218391
_cell_angle_alpha   90.00000000
_cell_angle_beta   90.00000000
_cell_angle_gamma   108.86639404
_symmetry_Int_Tables_number   1
_chemical_formula_structural   Sr4SnTe5
_chemical_formula_sum   'Sr4 Sn1 Te5'
_cell_volume   320.11071936
_cell_formula_units_Z   1
loop_
 _symmetry_equiv_pos_site_id
 _symmetry_equiv_pos_as_xyz
  1  'x, y, z'
loop_
 _atom_site_type_symbol
 _atom_site_label
 _atom_site_symmetry_multiplicity
 _atom_site_fract_x
 _atom_site_fract_y
 _atom_site_fract_z
 _atom_site_occupancy
  Sr  Sr0  1  0.90152603  0.09847400  0.62893201  1
  Sr  Sr1  1  0.09847396  0.90152602  0.12893200  1
  Sr  Sr2  1  0.41186199  0.58813801  0.35024800  1
  Sr  Sr3  1  0.58813800  0.41186201  0.85024801  1
  Te  Te4  1  0.20723797  0.79276202  0.68215901  1
  Sn  Sn5  1  0.79276202  0.20723800  0.18215900  1
  Te  Te6  1  0.40771001  0.08846600  0.50043101  1
  Te  Te7  1  0.59228998  0.91153402  0.00043100  1
  Te  Te8  1  0.91153400  0.59229001  0.50043101  1
  Te  Te9  1  0.08846598  0.40771001  0.00043100  1
