# generated using pymatgen
data_LiVF4
_symmetry_space_group_name_H-M   'P 1'
_cell_length_a   5.00390005
_cell_length_b   5.00390005
_cell_length_c   6.32077312
_cell_angle_alpha   113.31773376
_cell_angle_beta   113.31773376
_cell_angle_gamma   90.00000000
_symmetry_Int_Tables_number   1
_chemical_formula_structural   LiVF4
_chemical_formula_sum   'Li2 V2 F8'
_cell_volume   131.14485261
_cell_formula_units_Z   2
loop_
 _symmetry_equiv_pos_site_id
 _symmetry_equiv_pos_as_xyz
  1  'x, y, z'
loop_
 _atom_site_type_symbol
 _atom_site_label
 _atom_site_symmetry_multiplicity
 _atom_site_fract_x
 _atom_site_fract_y
 _atom_site_fract_z
 _atom_site_occupancy
  Li  Li0  1  0.25000000  0.74999999  0.49999999  1
  Li  Li1  1  0.74999999  0.25000000  0.49999999  1
  V  V2  1  0.50000000  0.50000000  0.00000000  1
  V  V3  1  0.00000000  0.00000000  0.00000000  1
  F  F4  1  0.53974000  0.53973999  0.68196398  1
  F  F5  1  0.14222400  0.14222400  0.68196398  1
  F  F6  1  0.85777599  0.46026000  0.31803599  1
  F  F7  1  0.46026000  0.85777599  0.31803599  1
  F  F8  1  0.30498500  0.30498500  0.17901000  1
  F  F9  1  0.87402499  0.87402499  0.17901000  1
  F  F10  1  0.12597500  0.69501499  0.82098998  1
  F  F11  1  0.69501499  0.12597500  0.82098998  1
