# generated using pymatgen
data_Ca2MgWO6
_symmetry_space_group_name_H-M   'P 1'
_cell_length_a   5.34176779
_cell_length_b   5.63825417
_cell_length_c   7.72321844
_cell_angle_alpha   90.00000000
_cell_angle_beta   89.62621307
_cell_angle_gamma   90.00000000
_symmetry_Int_Tables_number   1
_chemical_formula_structural   Ca2MgWO6
_chemical_formula_sum   'Ca4 Mg2 W2 O12'
_cell_volume   232.60483126
_cell_formula_units_Z   2
loop_
 _symmetry_equiv_pos_site_id
 _symmetry_equiv_pos_as_xyz
  1  'x, y, z'
loop_
 _atom_site_type_symbol
 _atom_site_label
 _atom_site_symmetry_multiplicity
 _atom_site_fract_x
 _atom_site_fract_y
 _atom_site_fract_z
 _atom_site_occupancy
  Ca  Ca0  1  0.48138102  0.06588300  0.24700598  1
  Ca  Ca1  1  0.51861902  0.93411697  0.75299397  1
  Ca  Ca2  1  0.01861900  0.56588298  0.25299400  1
  Ca  Ca3  1  0.98138104  0.43411699  0.74700595  1
  Mg  Mg4  1  0.50000002  0.49999999  -0.00000002  1
  Mg  Mg5  1  1.00000004  0.99999997  0.49999995  1
  W  W6  1  0.50000002  0.49999999  0.49999997  1
  W  W7  1  0.00000000  0.00000000  0.00000000  1
  O  O8  1  0.61393702  0.45687099  0.25725297  1
  O  O9  1  0.38606302  0.54312898  0.74274697  1
  O  O10  1  0.88606304  0.95687097  0.24274696  1
  O  O11  1  0.11393700  0.04312900  0.75725299  1
  O  O12  1  0.31305901  0.79428498  0.43638398  1
  O  O13  1  0.68694103  0.20571499  0.56361596  1
  O  O14  1  0.18694101  0.29428499  0.06361599  1
  O  O15  1  0.81305903  0.70571498  0.93638395  1
  O  O16  1  0.20160901  0.31054799  0.44529699  1
  O  O17  1  0.79839103  0.68945198  0.55470296  1
  O  O18  1  0.29839101  0.81054798  0.05470299  1
  O  O19  1  0.70160903  0.18945199  0.94529696  1
