# generated using pymatgen
data_In4CuS8
_symmetry_space_group_name_H-M   'P 1'
_cell_length_a   7.13338947
_cell_length_b   7.13338947
_cell_length_c   7.13338947
_cell_angle_alpha   60.00000000
_cell_angle_beta   60.00000000
_cell_angle_gamma   60.00000000
_symmetry_Int_Tables_number   1
_chemical_formula_structural   In4CuS8
_chemical_formula_sum   'In4 Cu1 S8'
_cell_volume   256.66864138
_cell_formula_units_Z   1
loop_
 _symmetry_equiv_pos_site_id
 _symmetry_equiv_pos_as_xyz
  1  'x, y, z'
loop_
 _atom_site_type_symbol
 _atom_site_label
 _atom_site_symmetry_multiplicity
 _atom_site_fract_x
 _atom_site_fract_y
 _atom_site_fract_z
 _atom_site_occupancy
  In  In0  1  0.93383899  0.35538700  0.35538700  1
  In  In1  1  0.35538600  0.35538700  0.35538700  1
  In  In2  1  0.35538600  0.93383999  0.35538700  1
  In  In3  1  0.35538600  0.35538700  0.93383999  1
  Cu  Cu4  1  0.74999999  0.74999999  0.74999999  1
  S  S5  1  0.11804600  0.11804500  0.64586399  1
  S  S6  1  0.11804600  0.64586399  0.11804500  1
  S  S7  1  0.11804600  0.11804500  0.11804500  1
  S  S8  1  0.64586499  0.11804500  0.11804500  1
  S  S9  1  0.61689399  0.14931800  0.61689399  1
  S  S10  1  0.61689499  0.61689399  0.14931700  1
  S  S11  1  0.14931800  0.61689399  0.61689399  1
  S  S12  1  0.61689399  0.61689399  0.61689399  1
