# generated using pymatgen
data_SrAs2
_symmetry_space_group_name_H-M   'P 1'
_cell_length_a   4.20560408
_cell_length_b   4.20560503
_cell_length_c   26.28603745
_cell_angle_alpha   90.00000000
_cell_angle_beta   90.00000000
_cell_angle_gamma   119.99999237
_symmetry_Int_Tables_number   1
_chemical_formula_structural   SrAs2
_chemical_formula_sum   'Sr6 As12'
_cell_volume   402.63604896
_cell_formula_units_Z   6
loop_
 _symmetry_equiv_pos_site_id
 _symmetry_equiv_pos_as_xyz
  1  'x, y, z'
loop_
 _atom_site_type_symbol
 _atom_site_label
 _atom_site_symmetry_multiplicity
 _atom_site_fract_x
 _atom_site_fract_y
 _atom_site_fract_z
 _atom_site_occupancy
  Sr  Sr0  1  0.00000000  0.00000000  0.66712599  1
  Sr  Sr1  1  0.00000000  0.00000000  0.16712600  1
  Sr  Sr2  1  0.00000000  0.00000000  0.83287399  1
  Sr  Sr3  1  0.00000000  0.00000000  0.00000000  1
  Sr  Sr4  1  0.00000000  0.00000000  0.33287399  1
  Sr  Sr5  1  0.00000000  0.00000000  0.49999999  1
  As  As6  1  0.66666665  0.33333333  0.59055099  1
  As  As7  1  0.66666665  0.33333333  0.74999999  1
  As  As8  1  0.66666665  0.33333333  0.90944898  1
  As  As9  1  0.33333333  0.66666665  0.09055100  1
  As  As10  1  0.33333333  0.66666665  0.25000000  1
  As  As11  1  0.33333333  0.66666665  0.40944899  1
  As  As12  1  0.66666665  0.33333333  0.42142599  1
  As  As13  1  0.66666665  0.33333333  0.07857400  1
  As  As14  1  0.66666665  0.33333333  0.25000000  1
  As  As15  1  0.33333333  0.66666665  0.74999999  1
  As  As16  1  0.33333333  0.66666665  0.92142598  1
  As  As17  1  0.33333333  0.66666665  0.57857399  1
