# generated using pymatgen
data_CeSnPd
_symmetry_space_group_name_H-M   'P 1'
_cell_length_a   4.55334520
_cell_length_b   7.49005318
_cell_length_c   7.75244713
_cell_angle_alpha   90.00000000
_cell_angle_beta   90.00000000
_cell_angle_gamma   90.00000000
_symmetry_Int_Tables_number   1
_chemical_formula_structural   CeSnPd
_chemical_formula_sum   'Ce4 Sn4 Pd4'
_cell_volume   264.39564104
_cell_formula_units_Z   4
loop_
 _symmetry_equiv_pos_site_id
 _symmetry_equiv_pos_as_xyz
  1  'x, y, z'
loop_
 _atom_site_type_symbol
 _atom_site_label
 _atom_site_symmetry_multiplicity
 _atom_site_fract_x
 _atom_site_fract_y
 _atom_site_fract_z
 _atom_site_occupancy
  Ce  Ce0  1  0.00000000  0.74896398  0.54966299  1
  Ce  Ce1  1  0.00000000  0.24896399  0.45033699  1
  Ce  Ce2  1  0.49999998  0.75287298  0.95934298  1
  Ce  Ce3  1  0.49999998  0.25287299  0.04065700  1
  Pd  Pd4  1  0.00000000  0.06081800  0.83884699  1
  Pd  Pd5  1  0.00000000  0.56081799  0.16115300  1
  Sn  Sn6  1  0.00000000  0.44448999  0.83731299  1
  Sn  Sn7  1  0.00000000  0.94448998  0.16268700  1
  Pd  Pd8  1  0.49999998  0.43567499  0.66723199  1
  Pd  Pd9  1  0.49999998  0.93567498  0.33276799  1
  Sn  Sn10  1  0.49999998  0.05717900  0.65947099  1
  Sn  Sn11  1  0.49999998  0.55717899  0.34052899  1
