# generated using pymatgen
data_Li5Mn3O8
_symmetry_space_group_name_H-M   'P 1'
_cell_length_a   5.05992889
_cell_length_b   5.13350677
_cell_length_c   5.95264101
_cell_angle_alpha   72.87172699
_cell_angle_beta   89.93189240
_cell_angle_gamma   80.62271881
_symmetry_Int_Tables_number   1
_chemical_formula_structural   Li5Mn3O8
_chemical_formula_sum   'Li5 Mn3 O8'
_cell_volume   145.60887946
_cell_formula_units_Z   1
loop_
 _symmetry_equiv_pos_site_id
 _symmetry_equiv_pos_as_xyz
  1  'x, y, z'
loop_
 _atom_site_type_symbol
 _atom_site_label
 _atom_site_symmetry_multiplicity
 _atom_site_fract_x
 _atom_site_fract_y
 _atom_site_fract_z
 _atom_site_occupancy
  Li  Li0  1  0.50365904  0.49804200  0.25398701  1
  Li  Li1  1  0.00000003  0.50000000  0.00000002  1
  Li  Li2  1  0.49634104  0.50195800  0.74601300  1
  Li  Li3  1  0.00000003  0.50000000  0.50000000  1
  Mn  Mn4  1  0.75055508  0.99920800  0.12633704  1
  Mn  Mn5  1  0.24944501  0.00079200  0.87366297  1
  Li  Li6  1  0.74982102  0.00055400  0.61954499  1
  Mn  Mn7  1  0.25017907  0.99944500  0.38045503  1
  O  O8  1  0.39420002  0.22141100  0.05473501  1
  O  O9  1  0.89176803  0.22479200  0.83471099  1
  O  O10  1  0.36325902  0.23618200  0.58606199  1
  O  O11  1  0.86489203  0.23123300  0.29494701  1
  O  O12  1  0.63674106  0.76381800  0.41393802  1
  O  O13  1  0.10823205  0.77520800  0.16528902  1
  O  O14  1  0.60580006  0.77858900  0.94526500  1
  O  O15  1  0.13510805  0.76876700  0.70505300  1
