# generated using pymatgen
data_Tm4NiGe7
_symmetry_space_group_name_H-M   'P 1'
_cell_length_a   5.10574198
_cell_length_b   5.19380760
_cell_length_c   8.46191406
_cell_angle_alpha   90.00000000
_cell_angle_beta   90.00000000
_cell_angle_gamma   119.44067383
_symmetry_Int_Tables_number   1
_chemical_formula_structural   Tm4NiGe7
_chemical_formula_sum   'Tm4 Ni1 Ge7'
_cell_volume   195.41784498
_cell_formula_units_Z   1
loop_
 _symmetry_equiv_pos_site_id
 _symmetry_equiv_pos_as_xyz
  1  'x, y, z'
loop_
 _atom_site_type_symbol
 _atom_site_label
 _atom_site_symmetry_multiplicity
 _atom_site_fract_x
 _atom_site_fract_y
 _atom_site_fract_z
 _atom_site_occupancy
  Tm  Tm0  1  0.67165402  0.34330802  0.81516999  1
  Tm  Tm1  1  0.33550704  0.67101403  0.68878499  1
  Tm  Tm2  1  0.33550704  0.67101403  0.31121500  1
  Tm  Tm3  1  0.67165402  0.34330802  0.18483000  1
  Ge  Ge4  1  0.16461802  0.32923602  0.99999999  1
  Ni  Ni5  1  0.82366701  0.17010301  0.50000000  1
  Ge  Ge6  1  0.34643601  0.17010301  0.50000000  1
  Ge  Ge7  1  0.82268604  0.64537203  0.50000000  1
  Ge  Ge8  1  0.99978007  0.99956005  0.75293299  1
  Ge  Ge9  1  0.99978007  0.99956005  0.24706700  1
  Ge  Ge10  1  0.16780505  0.82866904  -0.00000000  1
  Ge  Ge11  1  0.66086406  0.82866904  0.99999999  1
