# generated using pymatgen
data_Cr5Se7
_symmetry_space_group_name_H-M   'P 1'
_cell_length_a   4.45459986
_cell_length_b   7.53639221
_cell_length_c   8.21256924
_cell_angle_alpha   90.00000000
_cell_angle_beta   93.45901489
_cell_angle_gamma   90.00000000
_symmetry_Int_Tables_number   1
_chemical_formula_structural   Cr5Se7
_chemical_formula_sum   'Cr5 Se7'
_cell_volume   275.20690173
_cell_formula_units_Z   1
loop_
 _symmetry_equiv_pos_site_id
 _symmetry_equiv_pos_as_xyz
  1  'x, y, z'
loop_
 _atom_site_type_symbol
 _atom_site_label
 _atom_site_symmetry_multiplicity
 _atom_site_fract_x
 _atom_site_fract_y
 _atom_site_fract_z
 _atom_site_occupancy
  Se  Se0  1  0.97023903  0.24999999  0.34085999  1
  Se  Se1  1  0.02976100  0.74999998  0.65914003  1
  Se  Se2  1  0.50000001  0.49999999  -0.00000001  1
  Se  Se3  1  0.50000001  0.00000000  -0.00000001  1
  Cr  Cr4  1  0.59606102  0.00276300  0.30637300  1
  Cr  Cr5  1  0.40393901  0.50276299  0.69362702  1
  Cr  Cr6  1  0.40393901  0.99723697  0.69362702  1
  Cr  Cr7  1  0.59606102  0.49723699  0.30637300  1
  Se  Se8  1  0.92971903  0.74999998  0.36665399  1
  Se  Se9  1  0.07028100  0.24999999  0.63334602  1
  Se  Se10  1  0.85252302  0.74999998  0.93306001  1
  Cr  Cr11  1  0.14747700  0.24999999  0.06694000  1
