# generated using pymatgen
data_In3Te2Se3
_symmetry_space_group_name_H-M   'P 1'
_cell_length_a   6.16975594
_cell_length_b   6.16975594
_cell_length_c   7.53564262
_cell_angle_alpha   114.16537476
_cell_angle_beta   114.16535950
_cell_angle_gamma   90.00000000
_symmetry_Int_Tables_number   1
_chemical_formula_structural   In3Te2Se3
_chemical_formula_sum   'In3 Te2 Se3'
_cell_volume   233.88990963
_cell_formula_units_Z   1
loop_
 _symmetry_equiv_pos_site_id
 _symmetry_equiv_pos_as_xyz
  1  'x, y, z'
loop_
 _atom_site_type_symbol
 _atom_site_label
 _atom_site_symmetry_multiplicity
 _atom_site_fract_x
 _atom_site_fract_y
 _atom_site_fract_z
 _atom_site_occupancy
  Te  Te0  1  0.50000003  0.50000001  0.00000003  1
  Se  Se1  1  0.25000003  0.75000002  0.50000002  1
  Se  Se2  1  0.75000003  0.25000001  0.50000002  1
  Se  Se3  1  0.00000000  0.00000000  0.00000000  1
  In  In4  1  0.36755702  0.35750401  0.26003302  1
  In  In5  1  0.89247605  0.90252902  0.26003305  1
  In  In6  1  0.09747102  0.63244301  0.73996701  1
  Te  Te7  1  0.64249602  0.10752400  0.73996701  1
