# generated using pymatgen
data_Cr3S4
_symmetry_space_group_name_H-M   'P 1'
_cell_length_a   3.63475800
_cell_length_b   6.16496897
_cell_length_c   6.18899441
_cell_angle_alpha   117.71407318
_cell_angle_beta   107.07641602
_cell_angle_gamma   90.00000000
_symmetry_Int_Tables_number   1
_chemical_formula_structural   Cr3S4
_chemical_formula_sum   'Cr3 S4'
_cell_volume   115.82327528
_cell_formula_units_Z   1
loop_
 _symmetry_equiv_pos_site_id
 _symmetry_equiv_pos_as_xyz
  1  'x, y, z'
loop_
 _atom_site_type_symbol
 _atom_site_label
 _atom_site_symmetry_multiplicity
 _atom_site_fract_x
 _atom_site_fract_y
 _atom_site_fract_z
 _atom_site_occupancy
  Cr  Cr0  1  0.00000000  0.00000000  0.00000000  1
  Cr  Cr1  1  0.26407399  0.28964299  0.52814797  1
  Cr  Cr2  1  0.73592597  0.71035697  0.47185195  1
  S  S3  1  0.11421598  0.45107498  0.22843197  1
  S  S4  1  0.88578397  0.54892498  0.77156794  1
  S  S5  1  0.36726000  0.02055700  0.73451998  1
  S  S6  1  0.63273995  0.97944296  0.26547994  1
