# generated using pymatgen
data_Ba5Sr(BiO6)2
_symmetry_space_group_name_H-M   'P 1'
_cell_length_a   6.58136511
_cell_length_b   6.75063181
_cell_length_c   9.36725998
_cell_angle_alpha   90.00000000
_cell_angle_beta   89.73479462
_cell_angle_gamma   90.00000000
_symmetry_Int_Tables_number   1
_chemical_formula_structural   Ba5Sr(BiO6)2
_chemical_formula_sum   'Ba5 Sr1 Bi2 O12'
_cell_volume   416.16765884
_cell_formula_units_Z   1
loop_
 _symmetry_equiv_pos_site_id
 _symmetry_equiv_pos_as_xyz
  1  'x, y, z'
loop_
 _atom_site_type_symbol
 _atom_site_label
 _atom_site_symmetry_multiplicity
 _atom_site_fract_x
 _atom_site_fract_y
 _atom_site_fract_z
 _atom_site_occupancy
  Sr  Sr0  1  0.00000000  1.00000003  0.50000002  1
  Ba  Ba1  1  0.49999999  0.50000001  -0.00000001  1
  Ba  Ba2  1  0.51080099  0.95622103  0.75186202  1
  Ba  Ba3  1  0.01080100  0.54377902  0.25186201  1
  Ba  Ba4  1  0.98919898  0.45622101  0.74813802  1
  Ba  Ba5  1  0.48919899  0.04377900  0.24813800  1
  Bi  Bi6  1  0.00000000  0.00000000  0.00000000  1
  Bi  Bi7  1  0.49999999  0.50000001  0.50000001  1
  O  O8  1  0.17678200  0.26711101  0.05383100  1
  O  O9  1  0.32321799  0.76711102  0.44616901  1
  O  O10  1  0.82321799  0.73288902  0.94616903  1
  O  O11  1  0.67678199  0.23288901  0.55383101  1
  O  O12  1  0.72903899  0.18185501  0.95888503  1
  O  O13  1  0.77096099  0.68185502  0.54111501  1
  O  O14  1  0.27096100  0.81814502  0.04111500  1
  O  O15  1  0.22903900  0.31814501  0.45888502  1
  O  O16  1  0.58962599  0.46118701  0.27506700  1
  O  O17  1  0.91037399  0.96118703  0.22493300  1
  O  O18  1  0.41037399  0.53881302  0.72493302  1
  O  O19  1  0.08962600  0.03881300  0.77506703  1
