# generated using pymatgen
data_RbMgBr3
_symmetry_space_group_name_H-M   'P 1'
_cell_length_a   7.22773981
_cell_length_b   7.64469624
_cell_length_c   8.20689678
_cell_angle_alpha   97.41780090
_cell_angle_beta   115.03052521
_cell_angle_gamma   107.84796143
_symmetry_Int_Tables_number   1
_chemical_formula_structural   RbMgBr3
_chemical_formula_sum   'Rb2 Mg2 Br6'
_cell_volume   373.08080083
_cell_formula_units_Z   2
loop_
 _symmetry_equiv_pos_site_id
 _symmetry_equiv_pos_as_xyz
  1  'x, y, z'
loop_
 _atom_site_type_symbol
 _atom_site_label
 _atom_site_symmetry_multiplicity
 _atom_site_fract_x
 _atom_site_fract_y
 _atom_site_fract_z
 _atom_site_occupancy
  Rb  Rb0  1  0.22932699  0.19113599  0.86183899  1
  Rb  Rb1  1  0.77067296  0.80886397  0.13816096  1
  Mg  Mg2  1  0.22127697  0.51066498  0.42634399  1
  Mg  Mg3  1  0.77872298  0.48933498  0.57365596  1
  Br  Br4  1  0.66064896  0.77533297  0.55847796  1
  Br  Br5  1  0.18340197  0.61399898  0.12099298  1
  Br  Br6  1  0.33935099  0.22466699  0.44152198  1
  Br  Br7  1  0.22461496  0.69797997  0.71518498  1
  Br  Br8  1  0.77538499  0.30201999  0.28481496  1
  Br  Br9  1  0.81659798  0.38600099  0.87900696  1
