# generated using pymatgen
data_Sr9LaSe8
_symmetry_space_group_name_H-M   'P 1'
_cell_length_a   8.01455688
_cell_length_b   8.05322361
_cell_length_c   8.67334270
_cell_angle_alpha   90.00000000
_cell_angle_beta   117.51767731
_cell_angle_gamma   90.00000000
_symmetry_Int_Tables_number   1
_chemical_formula_structural   Sr9LaSe8
_chemical_formula_sum   'Sr9 La1 Se8'
_cell_volume   496.47219025
_cell_formula_units_Z   1
loop_
 _symmetry_equiv_pos_site_id
 _symmetry_equiv_pos_as_xyz
  1  'x, y, z'
loop_
 _atom_site_type_symbol
 _atom_site_label
 _atom_site_symmetry_multiplicity
 _atom_site_fract_x
 _atom_site_fract_y
 _atom_site_fract_z
 _atom_site_occupancy
  La  La0  1  0.18850400  0.16510001  0.71725202  1
  Sr  Sr1  1  0.52874799  0.83490004  0.71725199  1
  Sr  Sr2  1  0.02874800  0.66510003  0.71725203  1
  Sr  Sr3  1  0.68850399  0.33490002  0.71725198  1
  Sr  Sr4  1  0.81149599  0.83490004  0.28274796  1
  Sr  Sr5  1  0.47125199  0.16510001  0.28274798  1
  Sr  Sr6  1  0.97125198  0.33490002  0.28274795  1
  Sr  Sr7  1  0.31149599  0.66510003  0.28274799  1
  Sr  Sr8  1  0.49999999  0.50000002  -0.00000003  1
  Sr  Sr9  1  0.00000000  0.00000000  0.00000000  1
  Se  Se10  1  0.29989699  0.50000002  0.59979500  1
  Se  Se11  1  0.79989699  0.00000000  0.59979497  1
  Se  Se12  1  0.70010299  0.50000002  0.40020497  1
  Se  Se13  1  0.20010300  0.00000000  0.40020500  1
  Se  Se14  1  0.62444699  0.12452101  -0.00000004  1
  Se  Se15  1  0.37555299  0.87547904  -0.00000002  1
  Se  Se16  1  0.87555299  0.62452103  -0.00000006  1
  Se  Se17  1  0.12444700  0.37547902  -0.00000001  1
