# generated using pymatgen
data_Rb4TeAsF12
_symmetry_space_group_name_H-M   'P 1'
_cell_length_a   6.07321978
_cell_length_b   7.19505119
_cell_length_c   7.83395910
_cell_angle_alpha   90.00000000
_cell_angle_beta   112.80657196
_cell_angle_gamma   90.00000000
_symmetry_Int_Tables_number   1
_chemical_formula_structural   Rb4TeAsF12
_chemical_formula_sum   'Rb4 Te1 As1 F12'
_cell_volume   315.55836573
_cell_formula_units_Z   1
loop_
 _symmetry_equiv_pos_site_id
 _symmetry_equiv_pos_as_xyz
  1  'x, y, z'
loop_
 _atom_site_type_symbol
 _atom_site_label
 _atom_site_symmetry_multiplicity
 _atom_site_fract_x
 _atom_site_fract_y
 _atom_site_fract_z
 _atom_site_occupancy
  Rb  Rb0  1  0.77210101  0.49591899  0.54420198  1
  Rb  Rb1  1  0.22789900  0.99591897  0.45579800  1
  Rb  Rb2  1  0.54862501  0.00768500  0.09724998  1
  Rb  Rb3  1  0.45137501  0.50768499  0.90275000  1
  As  As4  1  0.88566402  0.98350897  0.77132798  1
  Te  Te5  1  0.11433600  0.48350899  0.22867200  1
  F  F6  1  0.89625502  0.33075099  0.24135197  1
  F  F7  1  0.10374500  0.83075098  0.75864801  1
  F  F8  1  0.65490301  0.83075098  0.75864799  1
  F  F9  1  0.34509701  0.33075099  0.24135199  1
  F  F10  1  0.74991601  0.03417000  0.49983198  1
  F  F11  1  0.25008400  0.53416999  0.50016800  1
  F  F12  1  0.10824900  0.20454399  0.77139101  1
  F  F13  1  0.89175102  0.70454398  0.22860897  1
  F  F14  1  0.33685801  0.70454398  0.22860899  1
  F  F15  1  0.66314201  0.20454399  0.77139099  1
  F  F16  1  0.98071102  0.51412799  0.96142199  1
  F  F17  1  0.01928900  0.01412800  0.03857800  1
