# generated using pymatgen
data_MnSb5O12
_symmetry_space_group_name_H-M   'P 1'
_cell_length_a   5.58187914
_cell_length_b   5.58187914
_cell_length_c   7.32999802
_cell_angle_alpha   72.55313873
_cell_angle_beta   72.55313873
_cell_angle_gamma   71.35577393
_symmetry_Int_Tables_number   1
_chemical_formula_structural   MnSb5O12
_chemical_formula_sum   'Mn1 Sb5 O12'
_cell_volume   201.11862235
_cell_formula_units_Z   1
loop_
 _symmetry_equiv_pos_site_id
 _symmetry_equiv_pos_as_xyz
  1  'x, y, z'
loop_
 _atom_site_type_symbol
 _atom_site_label
 _atom_site_symmetry_multiplicity
 _atom_site_fract_x
 _atom_site_fract_y
 _atom_site_fract_z
 _atom_site_occupancy
  Mn  Mn0  1  0.69835903  0.69835904  0.82709396  1
  Sb  Sb1  1  0.33766601  0.33766602  0.67316099  1
  Sb  Sb2  1  0.64817403  0.64817404  0.31737595  1
  Sb  Sb3  1  0.31450801  0.31450802  0.18050298  1
  Sb  Sb4  1  0.99750304  0.99750306  0.49467993  1
  Sb  Sb5  1  0.00544300  0.00544300  0.00059600  1
  O  O6  1  0.64720003  0.03479500  0.66547299  1
  O  O7  1  0.95529905  0.35021702  0.33280995  1
  O  O8  1  0.22924301  0.22924301  0.96687400  1
  O  O9  1  0.78297003  0.78297004  0.02337594  1
  O  O10  1  0.42234002  0.42234002  0.37886297  1
  O  O11  1  0.35021701  0.95529905  0.33280995  1
  O  O12  1  0.03479499  0.64720004  0.66547299  1
  O  O13  1  0.88071804  0.88071805  0.29473593  1
  O  O14  1  0.57779302  0.57779303  0.64002797  1
  O  O15  1  0.10125600  0.10125601  0.70775601  1
  O  O16  1  0.69323903  0.32327802  0.99919498  1
  O  O17  1  0.32327801  0.69323904  0.99919498  1
