# generated using pymatgen
data_NaTbV2O8
_symmetry_space_group_name_H-M   'P 1'
_cell_length_a   6.06799555
_cell_length_b   6.06799555
_cell_length_c   6.06799555
_cell_angle_alpha   106.21882629
_cell_angle_beta   106.21882629
_cell_angle_gamma   116.19239807
_symmetry_Int_Tables_number   1
_chemical_formula_structural   NaTbV2O8
_chemical_formula_sum   'Na1 Tb1 V2 O8'
_cell_volume   170.19895306
_cell_formula_units_Z   1
loop_
 _symmetry_equiv_pos_site_id
 _symmetry_equiv_pos_as_xyz
  1  'x, y, z'
loop_
 _atom_site_type_symbol
 _atom_site_label
 _atom_site_symmetry_multiplicity
 _atom_site_fract_x
 _atom_site_fract_y
 _atom_site_fract_z
 _atom_site_occupancy
  Na  Na0  1  0.00000000  0.00000000  0.00000000  1
  Tb  Tb1  1  0.74999999  0.25000000  0.50000004  1
  V  V2  1  0.25000000  0.74999999  0.50000004  1
  V  V3  1  0.49999999  0.49999999  0.00000005  1
  O  O4  1  0.66840699  0.85516599  0.18675907  1
  O  O5  1  0.60516699  0.91840799  0.68675906  1
  O  O6  1  0.23164800  0.91840699  0.31324005  1
  O  O7  1  0.66840799  0.48164899  0.81324103  1
  O  O8  1  0.14483300  0.33159199  0.81324100  1
  O  O9  1  0.08159200  0.39483299  0.31324001  1
  O  O10  1  0.08159300  0.76835199  0.68676002  1
  O  O11  1  0.51835199  0.33159299  0.18676004  1
