# generated using pymatgen
data_BiTe3
_symmetry_space_group_name_H-M   'P 1'
_cell_length_a   3.31088805
_cell_length_b   3.31088781
_cell_length_c   10.57871819
_cell_angle_alpha   90.00000000
_cell_angle_beta   90.00000000
_cell_angle_gamma   120.00000000
_symmetry_Int_Tables_number   1
_chemical_formula_structural   BiTe3
_chemical_formula_sum   'Bi1 Te3'
_cell_volume   100.42749762
_cell_formula_units_Z   1
loop_
 _symmetry_equiv_pos_site_id
 _symmetry_equiv_pos_as_xyz
  1  'x, y, z'
loop_
 _atom_site_type_symbol
 _atom_site_label
 _atom_site_symmetry_multiplicity
 _atom_site_fract_x
 _atom_site_fract_y
 _atom_site_fract_z
 _atom_site_occupancy
  Te  Te0  1  0.66666665  0.33333334  -0.00000000  1
  Bi  Bi1  1  0.66666665  0.33333334  0.49999999  1
  Te  Te2  1  0.00000000  0.00000000  0.73849399  1
  Te  Te3  1  0.00000000  0.00000000  0.26150600  1
