# generated using pymatgen
data_CsCu4SiS2
_symmetry_space_group_name_H-M   'P 1'
_cell_length_a   3.93736911
_cell_length_b   3.93736911
_cell_length_c   9.68703747
_cell_angle_alpha   90.00000000
_cell_angle_beta   90.00000000
_cell_angle_gamma   90.00000000
_symmetry_Int_Tables_number   1
_chemical_formula_structural   CsCu4SiS2
_chemical_formula_sum   'Cs1 Si1 Cu4 S2'
_cell_volume   150.17693577
_cell_formula_units_Z   1
loop_
 _symmetry_equiv_pos_site_id
 _symmetry_equiv_pos_as_xyz
  1  'x, y, z'
loop_
 _atom_site_type_symbol
 _atom_site_label
 _atom_site_symmetry_multiplicity
 _atom_site_fract_x
 _atom_site_fract_y
 _atom_site_fract_z
 _atom_site_occupancy
  Si  Si0  1  0.00000000  0.00000000  0.00000000  1
  S  S1  1  0.49999999  0.49999999  0.25646199  1
  S  S2  1  0.49999999  0.49999999  0.74353796  1
  Cs  Cs3  1  0.00000000  0.00000000  0.49999998  1
  Cu  Cu4  1  0.00000000  0.49999999  0.14152399  1
  Cu  Cu5  1  0.49999999  0.00000000  0.85847596  1
  Cu  Cu6  1  0.00000000  0.49999999  0.85847596  1
  Cu  Cu7  1  0.49999999  0.00000000  0.14152399  1
