# generated using pymatgen
data_LiV5B4
_symmetry_space_group_name_H-M   'P 1'
_cell_length_a   3.09195995
_cell_length_b   5.70171738
_cell_length_c   5.70171738
_cell_angle_alpha   91.04621887
_cell_angle_beta   90.00000000
_cell_angle_gamma   90.00000000
_symmetry_Int_Tables_number   1
_chemical_formula_structural   LiV5B4
_chemical_formula_sum   'Li1 V5 B4'
_cell_volume   100.50156543
_cell_formula_units_Z   1
loop_
 _symmetry_equiv_pos_site_id
 _symmetry_equiv_pos_as_xyz
  1  'x, y, z'
loop_
 _atom_site_type_symbol
 _atom_site_label
 _atom_site_symmetry_multiplicity
 _atom_site_fract_x
 _atom_site_fract_y
 _atom_site_fract_z
 _atom_site_occupancy
  Li  Li0  1  1.00000002  0.99695000  0.50018302  1
  V  V1  1  1.00000002  0.50018300  0.99695001  1
  V  V2  1  0.50000001  0.67348700  0.67348702  1
  B  B3  1  1.00000002  0.11342800  0.11342800  1
  B  B4  1  1.00000002  0.87232300  0.87232302  1
  B  B5  1  -0.00000000  0.40076600  0.62285901  1
  B  B6  1  -0.00000000  0.62285900  0.40076602  1
  V  V7  1  0.50000001  0.32709700  0.32709701  1
  V  V8  1  0.50000001  0.81856200  0.17434502  1
  V  V9  1  0.50000001  0.17434500  0.81856201  1
