# generated using pymatgen
data_Ba4Ca4In
_symmetry_space_group_name_H-M   'P 1'
_cell_length_a   7.39029121
_cell_length_b   7.39029121
_cell_length_c   7.39029121
_cell_angle_alpha   60.00000000
_cell_angle_beta   60.00000000
_cell_angle_gamma   60.00000000
_symmetry_Int_Tables_number   1
_chemical_formula_structural   Ba4Ca4In
_chemical_formula_sum   'Ba4 Ca4 In1'
_cell_volume   285.41031075
_cell_formula_units_Z   1
loop_
 _symmetry_equiv_pos_site_id
 _symmetry_equiv_pos_as_xyz
  1  'x, y, z'
loop_
 _atom_site_type_symbol
 _atom_site_label
 _atom_site_symmetry_multiplicity
 _atom_site_fract_x
 _atom_site_fract_y
 _atom_site_fract_z
 _atom_site_occupancy
  Ba  Ba0  1  0.75000000  0.75000000  0.75000000  1
  In  In1  1  0.25000000  0.25000000  0.25000000  1
  Ca  Ca2  1  0.00000000  0.00000000  0.00000000  1
  Ba  Ba3  1  0.22019600  0.77980400  0.22019600  1
  Ca  Ca4  1  0.77980400  0.22019600  0.77980400  1
  Ca  Ca5  1  0.22019600  0.77980400  0.77980400  1
  Ba  Ba6  1  0.77980400  0.22019600  0.22019600  1
  Ba  Ba7  1  0.22019600  0.22019600  0.77980400  1
  Ca  Ca8  1  0.77980400  0.77980400  0.22019600  1
