# generated using pymatgen
data_Al2SiRh3
_symmetry_space_group_name_H-M   'P 1'
_cell_length_a   4.13286781
_cell_length_b   4.13286829
_cell_length_c   5.00875187
_cell_angle_alpha   90.00000000
_cell_angle_beta   90.00000000
_cell_angle_gamma   120.00000000
_symmetry_Int_Tables_number   1
_chemical_formula_structural   Al2SiRh3
_chemical_formula_sum   'Al2 Si1 Rh3'
_cell_volume   74.09062001
_cell_formula_units_Z   1
loop_
 _symmetry_equiv_pos_site_id
 _symmetry_equiv_pos_as_xyz
  1  'x, y, z'
loop_
 _atom_site_type_symbol
 _atom_site_label
 _atom_site_symmetry_multiplicity
 _atom_site_fract_x
 _atom_site_fract_y
 _atom_site_fract_z
 _atom_site_occupancy
  Al  Al0  1  0.00000000  0.00000000  0.00000000  1
  Rh  Rh1  1  0.00000000  0.00000000  0.50000001  1
  Rh  Rh2  1  0.66666671  0.33333334  0.25000001  1
  Rh  Rh3  1  0.33333338  0.66666668  0.75000002  1
  Al  Al4  1  0.66666671  0.33333334  0.75000002  1
  Si  Si5  1  0.33333338  0.66666668  0.25000001  1
