# generated using pymatgen
data_KHfS2
_symmetry_space_group_name_H-M   'P 1'
_cell_length_a   4.66397715
_cell_length_b   4.74523211
_cell_length_c   9.02258205
_cell_angle_alpha   74.75398254
_cell_angle_beta   90.00000000
_cell_angle_gamma   90.00000000
_symmetry_Int_Tables_number   1
_chemical_formula_structural   KHfS2
_chemical_formula_sum   'K2 Hf2 S4'
_cell_volume   192.65688394
_cell_formula_units_Z   2
loop_
 _symmetry_equiv_pos_site_id
 _symmetry_equiv_pos_as_xyz
  1  'x, y, z'
loop_
 _atom_site_type_symbol
 _atom_site_label
 _atom_site_symmetry_multiplicity
 _atom_site_fract_x
 _atom_site_fract_y
 _atom_site_fract_z
 _atom_site_occupancy
  K  K0  1  0.74999998  0.39544399  0.20911201  1
  K  K1  1  0.24999999  0.60455598  0.79088804  1
  S  S2  1  0.74999998  0.03891800  0.92216404  1
  S  S3  1  0.24999999  0.96108197  0.07783602  1
  S  S4  1  0.24999999  0.25029299  0.49941402  1
  S  S5  1  0.74999998  0.74970698  0.50058603  1
  Hf  Hf6  1  0.24999999  0.81261498  0.37477003  1
  Hf  Hf7  1  0.74999998  0.18738499  0.62523003  1
