# generated using pymatgen
data_Hf2Si3Ni
_symmetry_space_group_name_H-M   'P 1'
_cell_length_a   3.87426591
_cell_length_b   3.87426615
_cell_length_c   6.85300684
_cell_angle_alpha   90.00000000
_cell_angle_beta   90.00000000
_cell_angle_gamma   120.00000000
_symmetry_Int_Tables_number   1
_chemical_formula_structural   Hf2Si3Ni
_chemical_formula_sum   'Hf2 Si3 Ni1'
_cell_volume   89.08214665
_cell_formula_units_Z   1
loop_
 _symmetry_equiv_pos_site_id
 _symmetry_equiv_pos_as_xyz
  1  'x, y, z'
loop_
 _atom_site_type_symbol
 _atom_site_label
 _atom_site_symmetry_multiplicity
 _atom_site_fract_x
 _atom_site_fract_y
 _atom_site_fract_z
 _atom_site_occupancy
  Hf  Hf0  1  0.00000000  0.00000000  0.00000000  1
  Hf  Hf1  1  0.00000000  0.00000000  0.50000001  1
  Si  Si2  1  0.66666669  0.33333334  0.75000002  1
  Si  Si3  1  0.33333336  0.66666669  0.25000001  1
  Ni  Ni4  1  0.66666669  0.33333334  0.25000001  1
  Si  Si5  1  0.33333336  0.66666669  0.75000002  1
