# generated using pymatgen
data_Ca2Al15Si
_symmetry_space_group_name_H-M   'P 1'
_cell_length_a   6.72964478
_cell_length_b   6.72964478
_cell_length_c   7.42427731
_cell_angle_alpha   89.67481232
_cell_angle_beta   89.67481232
_cell_angle_gamma   117.35503387
_symmetry_Int_Tables_number   1
_chemical_formula_structural   Ca2Al15Si
_chemical_formula_sum   'Ca2 Al15 Si1'
_cell_volume   298.61509136
_cell_formula_units_Z   1
loop_
 _symmetry_equiv_pos_site_id
 _symmetry_equiv_pos_as_xyz
  1  'x, y, z'
loop_
 _atom_site_type_symbol
 _atom_site_label
 _atom_site_symmetry_multiplicity
 _atom_site_fract_x
 _atom_site_fract_y
 _atom_site_fract_z
 _atom_site_occupancy
  Al  Al0  1  0.68626397  0.36337898  0.99852207  1
  Al  Al1  1  0.63662097  0.31373599  0.50147805  1
  Al  Al2  1  0.36337896  0.68626397  0.49852206  1
  Al  Al3  1  0.31373596  0.63662097  0.00147804  1
  Al  Al4  1  0.96157998  0.03842000  0.75000006  1
  Al  Al5  1  0.03841995  0.96157996  0.25000005  1
  Ca  Ca6  1  0.06134595  0.84939796  0.95644506  1
  Si  Si7  1  0.15060195  0.93865396  0.54355506  1
  Ca  Ca8  1  0.93865397  0.15060199  0.04355505  1
  Al  Al9  1  0.84939798  0.06134600  0.45644505  1
  Al  Al10  1  0.39822099  0.01120700  0.22419702  1
  Al  Al11  1  0.98879295  0.60177897  0.27580307  1
  Al  Al12  1  0.32314098  0.29292799  0.79061505  1
  Al  Al13  1  0.70707195  0.67685897  0.70938508  1
  Al  Al14  1  0.67685895  0.70707197  0.20938506  1
  Al  Al15  1  0.29292798  0.32314099  0.29061503  1
  Al  Al16  1  0.01120698  0.39822098  0.72419704  1
  Al  Al17  1  0.60177894  0.98879295  0.77580309  1
