# generated using pymatgen
data_CeMg11Ni2
_symmetry_space_group_name_H-M   'P 1'
_cell_length_a   4.14455080
_cell_length_b   5.60938025
_cell_length_c   14.30407047
_cell_angle_alpha   90.00000000
_cell_angle_beta   90.00000000
_cell_angle_gamma   111.68048859
_symmetry_Int_Tables_number   1
_chemical_formula_structural   CeMg11Ni2
_chemical_formula_sum   'Ce1 Mg11 Ni2'
_cell_volume   309.02135957
_cell_formula_units_Z   1
loop_
 _symmetry_equiv_pos_site_id
 _symmetry_equiv_pos_as_xyz
  1  'x, y, z'
loop_
 _atom_site_type_symbol
 _atom_site_label
 _atom_site_symmetry_multiplicity
 _atom_site_fract_x
 _atom_site_fract_y
 _atom_site_fract_z
 _atom_site_occupancy
  Ce  Ce0  1  0.61454504  0.22909001  0.24999999  1
  Mg  Mg1  1  0.38545506  0.77091002  0.74999998  1
  Mg  Mg2  1  0.90083809  0.80167602  0.35797499  1
  Mg  Mg3  1  0.09916202  0.19832400  0.64202498  1
  Mg  Mg4  1  0.90083809  0.80167602  0.14202500  1
  Mg  Mg5  1  0.09916202  0.19832400  0.85797497  1
  Mg  Mg6  1  0.20556503  0.41113101  0.42563899  1
  Mg  Mg7  1  0.79443507  0.58886901  0.57436098  1
  Mg  Mg8  1  0.20556503  0.41113101  0.07436100  1
  Mg  Mg9  1  0.79443507  0.58886901  0.92563897  1
  Mg  Mg10  1  0.50000002  0.00000000  0.49999998  1
  Mg  Mg11  1  0.50000002  0.00000000  -0.00000000  1
  Ni  Ni12  1  0.31635605  0.63271101  0.24999999  1
  Ni  Ni13  1  0.68364405  0.36728901  0.74999998  1
