# generated using pymatgen
data_Sr4V(WO6)2
_symmetry_space_group_name_H-M   'P 1'
_cell_length_a   5.68712044
_cell_length_b   5.68712044
_cell_length_c   9.73969746
_cell_angle_alpha   73.02491760
_cell_angle_beta   73.02491760
_cell_angle_gamma   59.99999237
_symmetry_Int_Tables_number   1
_chemical_formula_structural   Sr4V(WO6)2
_chemical_formula_sum   'Sr4 V1 W2 O12'
_cell_volume   256.84038973
_cell_formula_units_Z   1
loop_
 _symmetry_equiv_pos_site_id
 _symmetry_equiv_pos_as_xyz
  1  'x, y, z'
loop_
 _atom_site_type_symbol
 _atom_site_label
 _atom_site_symmetry_multiplicity
 _atom_site_fract_x
 _atom_site_fract_y
 _atom_site_fract_z
 _atom_site_occupancy
  Sr  Sr0  1  0.13834500  0.13834500  0.58496499  1
  Sr  Sr1  1  0.71358099  0.71358102  0.85925701  1
  Sr  Sr2  1  0.28595900  0.28595901  0.14212301  1
  Sr  Sr3  1  0.85599199  0.85599203  0.43202402  1
  W  W4  1  0.57697599  0.57697602  0.26907202  1
  W  W5  1  0.42303199  0.42303201  0.73090400  1
  V  V6  1  0.00013500  0.00013500  0.99959497  1
  O  O7  1  0.79273199  0.79273202  0.12137303  1
  O  O8  1  0.79273200  0.29316301  0.12137302  1
  O  O9  1  0.29316298  0.79273202  0.12137302  1
  O  O10  1  0.20925700  0.20925701  0.87574399  1
  O  O11  1  0.20925698  0.70574202  0.87574400  1
  O  O12  1  0.70574200  0.20925701  0.87574399  1
  O  O13  1  0.37484999  0.37485001  0.36755701  1
  O  O14  1  0.37484998  0.88274303  0.36755702  1
  O  O15  1  0.88274300  0.37485001  0.36755701  1
  O  O16  1  0.62738899  0.62738902  0.62934401  1
  O  O17  1  0.62738901  0.11587800  0.62934400  1
  O  O18  1  0.11587798  0.62738902  0.62934400  1
