# generated using pymatgen
data_Sr2SnTeO6
_symmetry_space_group_name_H-M   'P 1'
_cell_length_a   5.66417408
_cell_length_b   5.69705153
_cell_length_c   5.66417408
_cell_angle_alpha   60.19071960
_cell_angle_beta   90.00000000
_cell_angle_gamma   119.80928040
_symmetry_Int_Tables_number   1
_chemical_formula_structural   Sr2SnTeO6
_chemical_formula_sum   'Sr2 Sn1 Te1 O6'
_cell_volume   129.98496939
_cell_formula_units_Z   1
loop_
 _symmetry_equiv_pos_site_id
 _symmetry_equiv_pos_as_xyz
  1  'x, y, z'
loop_
 _atom_site_type_symbol
 _atom_site_label
 _atom_site_symmetry_multiplicity
 _atom_site_fract_x
 _atom_site_fract_y
 _atom_site_fract_z
 _atom_site_occupancy
  Sr  Sr0  1  0.24999997  0.49999996  0.25000002  1
  Sr  Sr1  1  0.74999997  0.49999996  0.75000001  1
  Sn  Sn2  1  0.49999999  0.00000000  0.49999999  1
  Te  Te3  1  0.00000000  0.00000000  0.00000000  1
  O  O4  1  0.27828800  0.00000000  0.20080900  1
  O  O5  1  0.72171199  0.00000000  0.79919099  1
  O  O6  1  0.20080900  0.00000000  0.72171199  1
  O  O7  1  0.79919099  0.00000000  0.27828800  1
  O  O8  1  0.23980898  0.47961796  0.76019101  1
  O  O9  1  0.76019097  0.52038196  0.23980902  1
