# generated using pymatgen
data_K4As7Se
_symmetry_space_group_name_H-M   'P 1'
_cell_length_a   6.82925510
_cell_length_b   6.82925510
_cell_length_c   6.82925510
_cell_angle_alpha   90.00000000
_cell_angle_beta   90.00000000
_cell_angle_gamma   90.00000000
_symmetry_Int_Tables_number   1
_chemical_formula_structural   K4As7Se
_chemical_formula_sum   'K4 As7 Se1'
_cell_volume   318.50775264
_cell_formula_units_Z   1
loop_
 _symmetry_equiv_pos_site_id
 _symmetry_equiv_pos_as_xyz
  1  'x, y, z'
loop_
 _atom_site_type_symbol
 _atom_site_label
 _atom_site_symmetry_multiplicity
 _atom_site_fract_x
 _atom_site_fract_y
 _atom_site_fract_z
 _atom_site_occupancy
  K  K0  1  0.61012099  0.38987899  0.88987899  1
  K  K1  1  0.38987899  0.88987899  0.61012099  1
  K  K2  1  0.11012100  0.11012100  0.11012100  1
  K  K3  1  0.88987899  0.61012099  0.38987899  1
  As  As4  1  0.17119400  0.32880599  0.67119399  1
  As  As5  1  0.67119399  0.17119400  0.32880599  1
  As  As6  1  0.32880599  0.67119399  0.17119400  1
  As  As7  1  0.82880599  0.82880599  0.82880599  1
  As  As8  1  0.59557399  0.90442599  0.09557400  1
  As  As9  1  0.09557400  0.59557399  0.90442599  1
  As  As10  1  0.40442599  0.40442599  0.40442599  1
  Se  Se11  1  0.90442599  0.09557400  0.59557399  1
