# generated using pymatgen
data_Mg2(FeH3)3
_symmetry_space_group_name_H-M   'P 1'
_cell_length_a   3.01618004
_cell_length_b   6.00666285
_cell_length_c   6.36503458
_cell_angle_alpha   69.76705933
_cell_angle_beta   76.29437256
_cell_angle_gamma   75.45919037
_symmetry_Int_Tables_number   1
_chemical_formula_structural   Mg2(FeH3)3
_chemical_formula_sum   'Mg2 Fe3 H9'
_cell_volume   103.29473789
_cell_formula_units_Z   1
loop_
 _symmetry_equiv_pos_site_id
 _symmetry_equiv_pos_as_xyz
  1  'x, y, z'
loop_
 _atom_site_type_symbol
 _atom_site_label
 _atom_site_symmetry_multiplicity
 _atom_site_fract_x
 _atom_site_fract_y
 _atom_site_fract_z
 _atom_site_occupancy
  Mg  Mg0  1  0.46291100  0.05708800  0.01708999  1
  Mg  Mg1  1  0.53708904  0.94291203  0.98290997  1
  H  H2  1  0.44615302  0.44290602  0.66478798  1
  H  H3  1  0.55384702  0.55709402  0.33521198  1
  Fe  Fe4  1  0.80927903  0.68088603  0.70055597  1
  H  H5  1  0.19072101  0.31911401  0.29944399  1
  H  H6  1  0.03862501  0.29123601  0.63151399  1
  Fe  Fe7  1  0.96137503  0.70876403  0.36848597  1
  H  H8  1  0.25706903  0.67999803  0.80586398  1
  H  H9  1  0.74293101  0.32000201  0.19413598  1
  H  H10  1  0.83282504  0.99051504  0.34383497  1
  H  H11  1  0.16717500  0.00948500  0.65616499  1
  Fe  Fe12  1  0.64724801  0.22610501  0.47939898  1
  H  H13  1  0.35275203  0.77389503  0.52060098  1
