# generated using pymatgen
data_Zr7O9
_symmetry_space_group_name_H-M   'P 1'
_cell_length_a   5.73099422
_cell_length_b   5.73536873
_cell_length_c   8.77777195
_cell_angle_alpha   83.76660919
_cell_angle_beta   77.44814301
_cell_angle_gamma   60.02522659
_symmetry_Int_Tables_number   1
_chemical_formula_structural   Zr7O9
_chemical_formula_sum   'Zr7 O9'
_cell_volume   243.95558589
_cell_formula_units_Z   1
loop_
 _symmetry_equiv_pos_site_id
 _symmetry_equiv_pos_as_xyz
  1  'x, y, z'
loop_
 _atom_site_type_symbol
 _atom_site_label
 _atom_site_symmetry_multiplicity
 _atom_site_fract_x
 _atom_site_fract_y
 _atom_site_fract_z
 _atom_site_occupancy
  Zr  Zr0  1  0.21185099  0.33303499  0.36514101  1
  Zr  Zr1  1  0.87710197  0.00000000  0.36908001  1
  Zr  Zr2  1  0.54488597  0.66696498  0.36514100  1
  Zr  Zr3  1  0.78814896  0.66696498  0.63485901  1
  Zr  Zr4  1  0.45511398  0.33303499  0.63485902  1
  Zr  Zr5  1  0.12289800  0.00000000  0.63092002  1
  Zr  Zr6  1  0.00000000  0.00000000  0.00000000  1
  O  O7  1  0.49999998  0.00000000  0.50000001  1
  O  O8  1  0.16887598  0.66224798  0.50000001  1
  O  O9  1  0.83112396  0.33775199  0.50000001  1
  O  O10  1  0.05761999  0.33473399  0.82764903  1
  O  O11  1  0.72236097  0.00000000  0.82902202  1
  O  O12  1  0.39235398  0.66526598  0.82764902  1
  O  O13  1  0.94237995  0.66526598  0.17235099  1
  O  O14  1  0.60764597  0.33473399  0.17235100  1
  O  O15  1  0.27763899  0.00000000  0.17097800  1
