# generated using pymatgen
data_La4MgCr3O12
_symmetry_space_group_name_H-M   'P 1'
_cell_length_a   5.46035814
_cell_length_b   5.57563686
_cell_length_c   7.76021719
_cell_angle_alpha   90.00000000
_cell_angle_beta   90.00022888
_cell_angle_gamma   90.00000000
_symmetry_Int_Tables_number   1
_chemical_formula_structural   La4MgCr3O12
_chemical_formula_sum   'La4 Mg1 Cr3 O12'
_cell_volume   236.25961174
_cell_formula_units_Z   1
loop_
 _symmetry_equiv_pos_site_id
 _symmetry_equiv_pos_as_xyz
  1  'x, y, z'
loop_
 _atom_site_type_symbol
 _atom_site_label
 _atom_site_symmetry_multiplicity
 _atom_site_fract_x
 _atom_site_fract_y
 _atom_site_fract_z
 _atom_site_occupancy
  La  La0  1  0.00817900  0.04785700  0.75097298  1
  La  La1  1  0.50817899  0.45214301  0.25097299  1
  La  La2  1  0.99182097  0.95214302  0.24902699  1
  La  La3  1  0.49182099  0.54785701  0.74902698  1
  Cr  Cr4  1  0.00000000  0.50000001  0.99999998  1
  Mg  Mg5  1  0.49999999  0.00000000  0.49999999  1
  Cr  Cr6  1  0.00000000  0.50000001  0.49999999  1
  Cr  Cr7  1  0.49999999  0.00000000  0.00000000  1
  O  O8  1  0.80815498  0.21502301  0.45382299  1
  O  O9  1  0.30815499  0.28497701  0.95382298  1
  O  O10  1  0.19184499  0.78497702  0.54617699  1
  O  O11  1  0.69184498  0.71502302  0.04617700  1
  O  O12  1  0.71326698  0.69632202  0.45502899  1
  O  O13  1  0.21326699  0.80367802  0.95502898  1
  O  O14  1  0.28673299  0.30367801  0.54497099  1
  O  O15  1  0.78673298  0.19632200  0.04497100  1
  O  O16  1  0.91270398  0.47385101  0.74193298  1
  O  O17  1  0.41270399  0.02614900  0.24193299  1
  O  O18  1  0.08729600  0.52614901  0.25806699  1
  O  O19  1  0.58729598  0.97385102  0.75806698  1
