# generated using pymatgen
data_Li5NbO4
_symmetry_space_group_name_H-M   'P 1'
_cell_length_a   4.74114323
_cell_length_b   4.74127579
_cell_length_c   5.56446695
_cell_angle_alpha   64.78302002
_cell_angle_beta   85.62332153
_cell_angle_gamma   79.68380737
_symmetry_Int_Tables_number   1
_chemical_formula_structural   Li5NbO4
_chemical_formula_sum   'Li5 Nb1 O4'
_cell_volume   111.33427425
_cell_formula_units_Z   1
loop_
 _symmetry_equiv_pos_site_id
 _symmetry_equiv_pos_as_xyz
  1  'x, y, z'
loop_
 _atom_site_type_symbol
 _atom_site_label
 _atom_site_symmetry_multiplicity
 _atom_site_fract_x
 _atom_site_fract_y
 _atom_site_fract_z
 _atom_site_occupancy
  Li  Li0  1  0.24999903  0.52635197  0.44730901  1
  Li  Li1  1  0.74999901  0.02635500  0.44730100  1
  Li  Li2  1  0.25000005  0.97364794  0.55269103  1
  Li  Li3  1  0.75000003  0.47364497  0.55269901  1
  Nb  Nb4  1  0.74999905  0.74999895  0.00000204  1
  Li  Li5  1  0.25000302  0.25000198  0.99999799  1
  O  O6  1  0.49999305  0.85350595  0.29303703  1
  O  O7  1  0.00001302  0.35348198  0.29303701  1
  O  O8  1  0.00000603  0.64649396  0.70696301  1
  O  O9  1  0.49998701  0.14651699  0.70696299  1
