# generated using pymatgen
data_Eu2AlGe4Pt3
_symmetry_space_group_name_H-M   'P 1'
_cell_length_a   4.47163677
_cell_length_b   4.47163677
_cell_length_c   10.54021168
_cell_angle_alpha   90.00000000
_cell_angle_beta   90.00000000
_cell_angle_gamma   90.00000000
_symmetry_Int_Tables_number   1
_chemical_formula_structural   Eu2AlGe4Pt3
_chemical_formula_sum   'Eu2 Al1 Ge4 Pt3'
_cell_volume   210.75717595
_cell_formula_units_Z   1
loop_
 _symmetry_equiv_pos_site_id
 _symmetry_equiv_pos_as_xyz
  1  'x, y, z'
loop_
 _atom_site_type_symbol
 _atom_site_label
 _atom_site_symmetry_multiplicity
 _atom_site_fract_x
 _atom_site_fract_y
 _atom_site_fract_z
 _atom_site_occupancy
  Eu  Eu0  1  0.00000000  0.50000003  0.23747001  1
  Eu  Eu1  1  0.50000003  0.00000000  0.76253002  1
  Pt  Pt2  1  0.00000000  0.00000000  0.00000000  1
  Pt  Pt3  1  0.50000003  0.50000003  -0.00000000  1
  Al  Al4  1  0.00000000  0.50000003  0.63417702  1
  Pt  Pt5  1  0.50000003  0.00000000  0.36582301  1
  Ge  Ge6  1  0.00000000  0.00000000  0.50000002  1
  Ge  Ge7  1  0.50000003  0.50000003  0.50000002  1
  Ge  Ge8  1  0.00000000  0.50000003  0.87295503  1
  Ge  Ge9  1  0.50000003  0.00000000  0.12704500  1
