# generated using pymatgen
data_Na2CuMoO4
_symmetry_space_group_name_H-M   'P 1'
_cell_length_a   2.54547191
_cell_length_b   2.54547167
_cell_length_c   12.28570175
_cell_angle_alpha   90.00000000
_cell_angle_beta   90.00000000
_cell_angle_gamma   120.00000763
_symmetry_Int_Tables_number   1
_chemical_formula_structural   Na2CuMoO4
_chemical_formula_sum   'Na2 Cu1 Mo1 O4'
_cell_volume   68.93934333
_cell_formula_units_Z   1
loop_
 _symmetry_equiv_pos_site_id
 _symmetry_equiv_pos_as_xyz
  1  'x, y, z'
loop_
 _atom_site_type_symbol
 _atom_site_label
 _atom_site_symmetry_multiplicity
 _atom_site_fract_x
 _atom_site_fract_y
 _atom_site_fract_z
 _atom_site_occupancy
  O  O0  1  0.66666671  0.33333334  0.91110202  1
  O  O1  1  0.33333339  0.66666668  0.41110201  1
  O  O2  1  0.66666671  0.33333334  0.58889801  1
  O  O3  1  0.33333339  0.66666668  0.08889800  1
  Na  Na4  1  0.66666671  0.33333334  0.25000001  1
  Na  Na5  1  0.33333339  0.66666668  0.75000002  1
  Cu  Cu6  1  0.00000000  0.00000000  0.00000000  1
  Mo  Mo7  1  0.00000000  0.00000000  0.50000001  1
