# generated using pymatgen
data_LiMnO2
_symmetry_space_group_name_H-M   'P 1'
_cell_length_a   5.95560408
_cell_length_b   5.99019957
_cell_length_c   5.96040010
_cell_angle_alpha   119.83557129
_cell_angle_beta   90.00000000
_cell_angle_gamma   119.80913544
_symmetry_Int_Tables_number   1
_chemical_formula_structural   LiMnO2
_chemical_formula_sum   'Li4 Mn4 O8'
_cell_volume   151.16219643
_cell_formula_units_Z   4
loop_
 _symmetry_equiv_pos_site_id
 _symmetry_equiv_pos_as_xyz
  1  'x, y, z'
loop_
 _atom_site_type_symbol
 _atom_site_label
 _atom_site_symmetry_multiplicity
 _atom_site_fract_x
 _atom_site_fract_y
 _atom_site_fract_z
 _atom_site_occupancy
  Li  Li0  1  0.49999999  0.00000000  0.99999998  1
  Li  Li1  1  0.49999999  0.50000000  0.49999998  1
  Li  Li2  1  0.49999999  0.00000000  0.49999999  1
  Li  Li3  1  -0.00000000  0.50000000  0.49999998  1
  Mn  Mn4  1  0.49999999  0.50000000  -0.00000001  1
  Mn  Mn5  1  -0.00000000  0.50000000  0.99999997  1
  Mn  Mn6  1  0.00000000  0.00000000  0.00000000  1
  Mn  Mn7  1  0.00000000  0.00000000  0.49999999  1
  O  O8  1  0.24104800  0.48209600  0.22944398  1
  O  O9  1  0.24996800  0.02154000  0.76076999  1
  O  O10  1  0.24104800  0.48209600  0.75265197  1
  O  O11  1  0.22842800  0.97846001  0.23922997  1
  O  O12  1  0.77157199  0.02154000  0.76076999  1
  O  O13  1  0.75895199  0.51790400  0.24734798  1
  O  O14  1  0.75003199  0.97846001  0.23922997  1
  O  O15  1  0.75895199  0.51790400  0.77055597  1
