# generated using pymatgen
data_Al
_symmetry_space_group_name_H-M   'P 1'
_cell_length_a   3.93505597
_cell_length_b   3.93505597
_cell_length_c   12.53285122
_cell_angle_alpha   99.03221130
_cell_angle_beta   99.03221130
_cell_angle_gamma   90.00000000
_symmetry_Int_Tables_number   1
_chemical_formula_structural   Al
_chemical_formula_sum   Al12
_cell_volume   189.22363957
_cell_formula_units_Z   12
loop_
 _symmetry_equiv_pos_site_id
 _symmetry_equiv_pos_as_xyz
  1  'x, y, z'
loop_
 _atom_site_type_symbol
 _atom_site_label
 _atom_site_symmetry_multiplicity
 _atom_site_fract_x
 _atom_site_fract_y
 _atom_site_fract_z
 _atom_site_occupancy
  Al  Al0  1  0.32610202  0.82610201  0.65220405  1
  Al  Al1  1  0.17389802  0.67389801  0.34779603  1
  Al  Al2  1  0.57610202  0.57610201  0.15220403  1
  Al  Al3  1  0.42389802  0.42389801  0.84779605  1
  Al  Al4  1  0.08823100  0.08823100  0.17646201  1
  Al  Al5  1  0.66176901  0.16176900  0.32353803  1
  Al  Al6  1  0.91176903  0.91176902  0.82353806  1
  Al  Al7  1  0.83823102  0.33823101  0.67646205  1
  Al  Al8  1  0.75036403  0.75036401  0.50072805  1
  Al  Al9  1  0.50036401  0.00036400  0.00072801  1
  Al  Al10  1  0.99963603  0.49963601  0.99927206  1
  Al  Al11  1  0.24963601  0.24963600  0.49927203  1
