# generated using pymatgen
data_LiTi2Te5
_symmetry_space_group_name_H-M   'P 1'
_cell_length_a   4.56475210
_cell_length_b   4.56475210
_cell_length_c   7.88611364
_cell_angle_alpha   73.17693329
_cell_angle_beta   73.17693329
_cell_angle_gamma   60.00000000
_symmetry_Int_Tables_number   1
_chemical_formula_structural   LiTi2Te5
_chemical_formula_sum   'Li1 Ti2 Te5'
_cell_volume   134.12570767
_cell_formula_units_Z   1
loop_
 _symmetry_equiv_pos_site_id
 _symmetry_equiv_pos_as_xyz
  1  'x, y, z'
loop_
 _atom_site_type_symbol
 _atom_site_label
 _atom_site_symmetry_multiplicity
 _atom_site_fract_x
 _atom_site_fract_y
 _atom_site_fract_z
 _atom_site_occupancy
  Li  Li0  1  0.24948400  0.24948400  0.25154800  1
  Ti  Ti1  1  0.75051600  0.75051599  0.74845201  1
  Ti  Ti2  1  0.50000000  0.49999999  0.50000001  1
  Te  Te3  1  0.00000000  0.00000000  0.00000000  1
  Te  Te4  1  0.62467400  0.62467399  0.12597800  1
  Te  Te5  1  0.12505000  0.12505000  0.62485001  1
  Te  Te6  1  0.87495000  0.87494998  0.37515000  1
  Te  Te7  1  0.37532600  0.37532599  0.87402201  1
