# generated using pymatgen
data_HoSi2BIr2
_symmetry_space_group_name_H-M   'P 1'
_cell_length_a   4.39037180
_cell_length_b   4.39037180
_cell_length_c   6.29138613
_cell_angle_alpha   110.42122650
_cell_angle_beta   110.42122650
_cell_angle_gamma   90.00000000
_symmetry_Int_Tables_number   1
_chemical_formula_structural   HoSi2BIr2
_chemical_formula_sum   'Ho1 Si2 B1 Ir2'
_cell_volume   105.47668644
_cell_formula_units_Z   1
loop_
 _symmetry_equiv_pos_site_id
 _symmetry_equiv_pos_as_xyz
  1  'x, y, z'
loop_
 _atom_site_type_symbol
 _atom_site_label
 _atom_site_symmetry_multiplicity
 _atom_site_fract_x
 _atom_site_fract_y
 _atom_site_fract_z
 _atom_site_occupancy
  Ho  Ho0  1  0.57252100  0.57252102  0.14504197  1
  Ir  Ir1  1  0.77279002  0.27279001  0.54557997  1
  Ir  Ir2  1  0.27278999  0.77279002  0.54557997  1
  Si  Si3  1  0.99531100  0.99531103  0.99062195  1
  Si  Si4  1  0.16151300  0.16151300  0.32302599  1
  B  B5  1  0.83001400  0.83001402  0.66002795  1
