# generated using pymatgen
data_GaTe3
_symmetry_space_group_name_H-M   'P 1'
_cell_length_a   3.90851998
_cell_length_b   3.90852022
_cell_length_c   15.03170776
_cell_angle_alpha   90.00000000
_cell_angle_beta   90.00000000
_cell_angle_gamma   120.00000000
_symmetry_Int_Tables_number   1
_chemical_formula_structural   GaTe3
_chemical_formula_sum   'Ga2 Te6'
_cell_volume   198.86742738
_cell_formula_units_Z   2
loop_
 _symmetry_equiv_pos_site_id
 _symmetry_equiv_pos_as_xyz
  1  'x, y, z'
loop_
 _atom_site_type_symbol
 _atom_site_label
 _atom_site_symmetry_multiplicity
 _atom_site_fract_x
 _atom_site_fract_y
 _atom_site_fract_z
 _atom_site_occupancy
  Te  Te0  1  0.33333337  0.66666671  0.25000000  1
  Te  Te1  1  0.66666669  0.33333335  0.75000001  1
  Ga  Ga2  1  0.00000000  0.00000000  0.50000001  1
  Ga  Ga3  1  0.00000000  0.00000000  0.00000000  1
  Te  Te4  1  0.66666669  0.33333335  0.09628700  1
  Te  Te5  1  0.33333337  0.66666671  0.59628701  1
  Te  Te6  1  0.66666669  0.33333335  0.40371301  1
  Te  Te7  1  0.33333337  0.66666671  0.90371301  1
