# generated using pymatgen
data_Zr4U3CoAs10
_symmetry_space_group_name_H-M   'P 1'
_cell_length_a   5.66636276
_cell_length_b   8.08968830
_cell_length_c   8.08968830
_cell_angle_alpha   120.00000000
_cell_angle_beta   90.00000000
_cell_angle_gamma   90.00000000
_symmetry_Int_Tables_number   1
_chemical_formula_structural   Zr4U3CoAs10
_chemical_formula_sum   'Zr4 U3 Co1 As10'
_cell_volume   321.14309108
_cell_formula_units_Z   1
loop_
 _symmetry_equiv_pos_site_id
 _symmetry_equiv_pos_as_xyz
  1  'x, y, z'
loop_
 _atom_site_type_symbol
 _atom_site_label
 _atom_site_symmetry_multiplicity
 _atom_site_fract_x
 _atom_site_fract_y
 _atom_site_fract_z
 _atom_site_occupancy
  Zr  Zr0  1  0.00000000  0.33333333  0.66666671  1
  As  As1  1  0.00000000  0.66666666  0.33333338  1
  As  As2  1  0.75000003  0.77586199  0.77586207  1
  As  As3  1  0.75000003  0.00000000  0.22413801  1
  As  As4  1  0.75000003  0.22413800  0.00000001  1
  As  As5  1  0.50000002  0.33333333  0.66666671  1
  As  As6  1  0.50000002  0.66666666  0.33333338  1
  As  As7  1  0.25000001  0.22413800  0.22413802  1
  As  As8  1  0.25000001  0.00000000  0.77586203  1
  As  As9  1  0.25000001  0.77586199  0.00000004  1
  Zr  Zr10  1  0.75000003  0.40336599  0.40336603  1
  Zr  Zr11  1  0.75000003  0.00000000  0.59663402  1
  U  U12  1  0.75000003  0.59663399  0.00000003  1
  Zr  Zr13  1  0.25000001  0.59663399  0.59663405  1
  U  U14  1  0.25000001  0.99999999  0.40336606  1
  U  U15  1  0.25000001  0.40336599  0.00000002  1
  As  As16  1  0.00000000  0.00000000  0.00000000  1
  Co  Co17  1  0.50000002  0.00000000  -0.00000000  1
