# generated using pymatgen
data_CeAlPt
_symmetry_space_group_name_H-M   'P 1'
_cell_length_a   4.34967518
_cell_length_b   7.10858917
_cell_length_c   8.06651783
_cell_angle_alpha   90.00000000
_cell_angle_beta   90.00000000
_cell_angle_gamma   90.00000000
_symmetry_Int_Tables_number   1
_chemical_formula_structural   CeAlPt
_chemical_formula_sum   'Ce4 Al4 Pt4'
_cell_volume   249.41716590
_cell_formula_units_Z   4
loop_
 _symmetry_equiv_pos_site_id
 _symmetry_equiv_pos_as_xyz
  1  'x, y, z'
loop_
 _atom_site_type_symbol
 _atom_site_label
 _atom_site_symmetry_multiplicity
 _atom_site_fract_x
 _atom_site_fract_y
 _atom_site_fract_z
 _atom_site_occupancy
  Ce  Ce0  1  0.24999999  0.51519899  0.18526600  1
  Ce  Ce1  1  0.74999997  0.48480099  0.81473402  1
  Ce  Ce2  1  0.74999997  0.98480098  0.68526601  1
  Ce  Ce3  1  0.24999999  0.01519900  0.31473401  1
  Pt  Pt4  1  0.24999999  0.76556198  0.89049202  1
  Pt  Pt5  1  0.74999997  0.23443799  0.10950800  1
  Pt  Pt6  1  0.74999997  0.73443798  0.39049201  1
  Pt  Pt7  1  0.24999999  0.26556199  0.60950801  1
  Al  Al8  1  0.24999999  0.66957198  0.57252901  1
  Al  Al9  1  0.74999997  0.33042799  0.42747101  1
  Al  Al10  1  0.74999997  0.83042798  0.07252900  1
  Al  Al11  1  0.24999999  0.16957200  0.92747102  1
