# generated using pymatgen
data_CrIn6Te13
_symmetry_space_group_name_H-M   'P 1'
_cell_length_a   6.52263021
_cell_length_b   10.17494011
_cell_length_c   10.19591999
_cell_angle_alpha   119.93195343
_cell_angle_beta   90.00000000
_cell_angle_gamma   90.00000000
_symmetry_Int_Tables_number   1
_chemical_formula_structural   CrIn6Te13
_chemical_formula_sum   'Cr1 In6 Te13'
_cell_volume   586.42037307
_cell_formula_units_Z   1
loop_
 _symmetry_equiv_pos_site_id
 _symmetry_equiv_pos_as_xyz
  1  'x, y, z'
loop_
 _atom_site_type_symbol
 _atom_site_label
 _atom_site_symmetry_multiplicity
 _atom_site_fract_x
 _atom_site_fract_y
 _atom_site_fract_z
 _atom_site_occupancy
  Te  Te0  1  0.45652198  0.66666665  0.33338865  1
  Cr  Cr1  1  0.95652197  0.33327799  0.66661133  1
  Te  Te2  1  0.24786899  0.87296998  0.74593998  1
  Te  Te3  1  0.24838799  0.87277298  0.12710697  1
  Te  Te4  1  0.24838799  0.25433399  0.12710699  1
  Te  Te5  1  0.74786898  0.12703000  0.25406000  1
  Te  Te6  1  0.74838798  0.12722700  0.87289301  1
  Te  Te7  1  0.74838798  0.74566598  0.87289299  1
  Te  Te8  1  0.44178599  0.46226399  0.92452800  1
  Te  Te9  1  0.44207599  0.46229699  0.53743599  1
  Te  Te10  1  0.44207599  0.07513900  0.53743601  1
  Te  Te11  1  0.94178597  0.53773598  0.07547198  1
  Te  Te12  1  0.94207597  0.53770298  0.46256399  1
  Te  Te13  1  0.94207597  0.92486097  0.46256397  1
  In  In14  1  0.18846999  0.18904699  0.37809400  1
  In  In15  1  0.18871199  0.18884699  0.81077501  1
  In  In16  1  0.18871199  0.62192798  0.81077499  1
  In  In17  1  0.68846998  0.81095298  0.62190598  1
  In  In18  1  0.68871198  0.81115298  0.18922497  1
  In  In19  1  0.68871198  0.37807199  0.18922499  1
