# generated using pymatgen
data_Mg
_symmetry_space_group_name_H-M   'P 1'
_cell_length_a   4.80956793
_cell_length_b   6.64206219
_cell_length_c   6.64206171
_cell_angle_alpha   120.00000000
_cell_angle_beta   90.00000000
_cell_angle_gamma   90.00000000
_symmetry_Int_Tables_number   1
_chemical_formula_structural   Mg
_chemical_formula_sum   Mg8
_cell_volume   183.75642722
_cell_formula_units_Z   8
loop_
 _symmetry_equiv_pos_site_id
 _symmetry_equiv_pos_as_xyz
  1  'x, y, z'
loop_
 _atom_site_type_symbol
 _atom_site_label
 _atom_site_symmetry_multiplicity
 _atom_site_fract_x
 _atom_site_fract_y
 _atom_site_fract_z
 _atom_site_occupancy
  Mg  Mg0  1  0.75000001  0.33333332  0.66666665  1
  Mg  Mg1  1  0.25000000  0.66666664  0.33333330  1
  Mg  Mg2  1  0.75000001  0.84687796  0.69375596  1
  Mg  Mg3  1  0.75000001  0.30624499  0.15312299  1
  Mg  Mg4  1  0.75000001  0.84687796  0.15312297  1
  Mg  Mg5  1  0.25000000  0.15312199  0.84687698  1
  Mg  Mg6  1  0.25000000  0.69375497  0.84687696  1
  Mg  Mg7  1  0.25000000  0.15312199  0.30624399  1
