# generated using pymatgen
data_LaHoNi9P7
_symmetry_space_group_name_H-M   'P 1'
_cell_length_a   3.54613400
_cell_length_b   6.07129526
_cell_length_c   11.44001961
_cell_angle_alpha   90.00000000
_cell_angle_beta   90.00000000
_cell_angle_gamma   106.98018646
_symmetry_Int_Tables_number   1
_chemical_formula_structural   LaHoNi9P7
_chemical_formula_sum   'La1 Ho1 Ni9 P7'
_cell_volume   235.56212748
_cell_formula_units_Z   1
loop_
 _symmetry_equiv_pos_site_id
 _symmetry_equiv_pos_as_xyz
  1  'x, y, z'
loop_
 _atom_site_type_symbol
 _atom_site_label
 _atom_site_symmetry_multiplicity
 _atom_site_fract_x
 _atom_site_fract_y
 _atom_site_fract_z
 _atom_site_occupancy
  Ho  Ho0  1  0.83891601  0.67783200  0.75000003  1
  La  La1  1  0.16108400  0.32216800  0.25000001  1
  Ni  Ni2  1  0.19974801  0.39949600  0.92864003  1
  Ni  Ni3  1  0.80025201  0.60050400  0.07136000  1
  Ni  Ni4  1  0.80025201  0.60050400  0.42864001  1
  Ni  Ni5  1  0.19974801  0.39949600  0.57136002  1
  Ni  Ni6  1  0.54913400  0.09826800  0.85469803  1
  Ni  Ni7  1  0.45086601  0.90173200  0.14530200  1
  Ni  Ni8  1  0.45086601  0.90173200  0.35469801  1
  Ni  Ni9  1  0.54913400  0.09826800  0.64530202  1
  Ni  Ni10  1  0.00000000  0.00000000  0.00000000  1
  P  P11  1  0.00000000  0.00000000  0.50000002  1
  P  P12  1  0.11748600  0.23497200  0.75000003  1
  P  P13  1  0.88251401  0.76502800  0.25000001  1
  P  P14  1  0.38187101  0.76374200  0.95772703  1
  P  P15  1  0.61812900  0.23625800  0.04227300  1
  P  P16  1  0.61812900  0.23625800  0.45772702  1
  P  P17  1  0.38187101  0.76374200  0.54227302  1
