# generated using pymatgen
data_V3B4O13
_symmetry_space_group_name_H-M   'P 1'
_cell_length_a   5.95263052
_cell_length_b   5.95263052
_cell_length_c   5.95263052
_cell_angle_alpha   104.03237915
_cell_angle_beta   104.03237915
_cell_angle_gamma   104.03237152
_symmetry_Int_Tables_number   1
_chemical_formula_structural   V3B4O13
_chemical_formula_sum   'V3 B4 O13'
_cell_volume   188.07952923
_cell_formula_units_Z   1
loop_
 _symmetry_equiv_pos_site_id
 _symmetry_equiv_pos_as_xyz
  1  'x, y, z'
loop_
 _atom_site_type_symbol
 _atom_site_label
 _atom_site_symmetry_multiplicity
 _atom_site_fract_x
 _atom_site_fract_y
 _atom_site_fract_z
 _atom_site_occupancy
  O  O0  1  0.00000000  0.00000000  0.00000000  1
  V  V1  1  0.55661601  0.00000000  0.44338405  1
  V  V2  1  0.44338402  0.55661601  1.00000011  1
  V  V3  1  0.00000001  0.44338401  0.55661605  1
  B  B4  1  0.50000002  0.50000001  0.50000009  1
  B  B5  1  0.94116503  0.50000001  0.05883510  1
  B  B6  1  0.05883503  0.94116503  0.50000009  1
  B  B7  1  0.50000001  0.05883500  0.94116507  1
  O  O8  1  0.35144302  0.50000001  0.64855708  1
  O  O9  1  0.64855702  0.35144301  0.50000009  1
  O  O10  1  0.50000003  0.64855702  0.35144309  1
  O  O11  1  0.09018702  0.50000001  0.90981308  1
  O  O12  1  0.90981302  0.09018700  0.50000008  1
  O  O13  1  0.50000003  0.90981302  0.09018710  1
  O  O14  1  0.97205003  0.37918501  0.22703410  1
  O  O15  1  0.22703403  0.97205003  0.37918510  1
  O  O16  1  0.37918501  0.22703401  0.97205008  1
  O  O17  1  0.77296603  0.62081502  0.02795010  1
  O  O18  1  0.62081501  0.02795000  0.77296607  1
  O  O19  1  0.02795002  0.77296602  0.62081508  1
