# generated using pymatgen
data_Ce2Mg4Ni3
_symmetry_space_group_name_H-M   'P 1'
_cell_length_a   4.38986397
_cell_length_b   7.23355198
_cell_length_c   7.23355293
_cell_angle_alpha   119.99999237
_cell_angle_beta   90.00000000
_cell_angle_gamma   90.00000000
_symmetry_Int_Tables_number   1
_chemical_formula_structural   Ce2Mg4Ni3
_chemical_formula_sum   'Ce2 Mg4 Ni3'
_cell_volume   198.92299901
_cell_formula_units_Z   1
loop_
 _symmetry_equiv_pos_site_id
 _symmetry_equiv_pos_as_xyz
  1  'x, y, z'
loop_
 _atom_site_type_symbol
 _atom_site_label
 _atom_site_symmetry_multiplicity
 _atom_site_fract_x
 _atom_site_fract_y
 _atom_site_fract_z
 _atom_site_occupancy
  Ce  Ce0  1  0.50000000  0.57663099  0.99999998  1
  Ce  Ce1  1  0.50000000  0.42336899  0.42336898  1
  Mg  Mg2  1  0.50000000  0.00000000  0.57663101  1
  Mg  Mg3  1  0.00000000  0.24797499  -0.00000001  1
  Mg  Mg4  1  -0.00000000  0.75202498  0.75202497  1
  Mg  Mg5  1  -0.00000000  0.00000000  0.24797500  1
  Ni  Ni6  1  0.00000000  0.33333332  0.66666666  1
  Ni  Ni7  1  -0.00000000  0.66666665  0.33333330  1
  Ni  Ni8  1  0.50000000  0.00000000  -0.00000000  1
