# generated using pymatgen
data_CuS
_symmetry_space_group_name_H-M   'P 1'
_cell_length_a   5.31272793
_cell_length_b   5.31272793
_cell_length_c   6.49375486
_cell_angle_alpha   114.14607239
_cell_angle_beta   114.14607239
_cell_angle_gamma   90.00000000
_symmetry_Int_Tables_number   1
_chemical_formula_structural   CuS
_chemical_formula_sum   'Cu4 S4'
_cell_volume   149.50319705
_cell_formula_units_Z   4
loop_
 _symmetry_equiv_pos_site_id
 _symmetry_equiv_pos_as_xyz
  1  'x, y, z'
loop_
 _atom_site_type_symbol
 _atom_site_label
 _atom_site_symmetry_multiplicity
 _atom_site_fract_x
 _atom_site_fract_y
 _atom_site_fract_z
 _atom_site_occupancy
  S  S0  1  0.74999997  0.24999999  0.49999993  1
  S  S1  1  0.24999994  0.74999998  0.49999992  1
  S  S2  1  0.00000000  0.00000000  0.00000000  1
  S  S3  1  0.49999996  0.49999998  -0.00000007  1
  Cu  Cu4  1  0.12355795  0.62166998  0.74780594  1
  Cu  Cu5  1  0.62424798  0.12613600  0.74780595  1
  Cu  Cu6  1  0.37832997  0.37575199  0.25219395  1
  Cu  Cu7  1  0.87386392  0.87644197  0.25219387  1
