# generated using pymatgen
data_Ca3O5
_symmetry_space_group_name_H-M   'P 1'
_cell_length_a   4.84271622
_cell_length_b   4.84271622
_cell_length_c   4.84271622
_cell_angle_alpha   90.00000000
_cell_angle_beta   90.00000000
_cell_angle_gamma   90.00000000
_symmetry_Int_Tables_number   1
_chemical_formula_structural   Ca3O5
_chemical_formula_sum   'Ca3 O5'
_cell_volume   113.57089819
_cell_formula_units_Z   1
loop_
 _symmetry_equiv_pos_site_id
 _symmetry_equiv_pos_as_xyz
  1  'x, y, z'
loop_
 _atom_site_type_symbol
 _atom_site_label
 _atom_site_symmetry_multiplicity
 _atom_site_fract_x
 _atom_site_fract_y
 _atom_site_fract_z
 _atom_site_occupancy
  O  O0  1  0.00000000  0.49999998  0.73461697  1
  O  O1  1  0.49999998  0.26538299  -0.00000000  1
  Ca  Ca2  1  0.73461697  0.00000000  0.49999998  1
  Ca  Ca3  1  0.00000000  0.49999998  0.26538299  1
  Ca  Ca4  1  0.49999998  0.73461697  -0.00000000  1
  O  O5  1  0.26538299  0.00000000  0.49999998  1
  O  O6  1  0.49999998  0.49999998  0.49999998  1
  O  O7  1  0.00000000  0.00000000  0.00000000  1
