# generated using pymatgen
data_Mn12CrCSN
_symmetry_space_group_name_H-M   'P 1'
_cell_length_a   3.65927291
_cell_length_b   6.75900888
_cell_length_c   9.24906635
_cell_angle_alpha   94.89086914
_cell_angle_beta   90.00000000
_cell_angle_gamma   90.00000000
_symmetry_Int_Tables_number   1
_chemical_formula_structural   Mn12CrCSN
_chemical_formula_sum   'Mn12 Cr1 C1 S1 N1'
_cell_volume   227.92476492
_cell_formula_units_Z   1
loop_
 _symmetry_equiv_pos_site_id
 _symmetry_equiv_pos_as_xyz
  1  'x, y, z'
loop_
 _atom_site_type_symbol
 _atom_site_label
 _atom_site_symmetry_multiplicity
 _atom_site_fract_x
 _atom_site_fract_y
 _atom_site_fract_z
 _atom_site_occupancy
  Mn  Mn0  1  0.50000001  0.53086701  0.72998704  1
  S  S1  1  0.00000000  0.96085102  0.74678605  1
  Mn  Mn2  1  0.00000000  0.03914900  0.25321401  1
  Mn  Mn3  1  0.00000000  0.62792101  0.43593403  1
  Mn  Mn4  1  0.00000000  0.32478601  0.10737001  1
  Mn  Mn5  1  1.00000002  0.67521401  0.89263006  1
  Mn  Mn6  1  0.50000001  0.46913301  0.27001302  1
  Mn  Mn7  1  0.50000001  0.21384500  0.40178202  1
  Mn  Mn8  1  0.00000000  0.37207901  0.56406603  1
  Mn  Mn9  1  0.50000001  0.78615502  0.59821804  1
  C  C10  1  1.00000002  0.66428401  0.66654204  1
  N  N11  1  1.00000002  0.33571601  0.33345802  1
  Cr  Cr12  1  0.50000001  0.16584000  0.66097403  1
  Mn  Mn13  1  0.00000000  0.00000000  0.00000000  1
  Mn  Mn14  1  0.50000001  0.50000001  0.00000001  1
  Mn  Mn15  1  0.50000001  0.83416002  0.33902603  1
