# generated using pymatgen
data_TmSiNi
_symmetry_space_group_name_H-M   'P 1'
_cell_length_a   3.90201211
_cell_length_b   3.90201235
_cell_length_c   15.41366482
_cell_angle_alpha   90.00000000
_cell_angle_beta   90.00000000
_cell_angle_gamma   120.00000000
_symmetry_Int_Tables_number   1
_chemical_formula_structural   TmSiNi
_chemical_formula_sum   'Tm4 Si4 Ni4'
_cell_volume   203.24215665
_cell_formula_units_Z   4
loop_
 _symmetry_equiv_pos_site_id
 _symmetry_equiv_pos_as_xyz
  1  'x, y, z'
loop_
 _atom_site_type_symbol
 _atom_site_label
 _atom_site_symmetry_multiplicity
 _atom_site_fract_x
 _atom_site_fract_y
 _atom_site_fract_z
 _atom_site_occupancy
  Tm  Tm0  1  0.00000000  0.00000000  0.50000001  1
  Tm  Tm1  1  0.00000000  0.00000000  0.00000000  1
  Tm  Tm2  1  0.00000000  0.00000000  0.75000001  1
  Tm  Tm3  1  0.00000000  0.00000000  0.25000000  1
  Ni  Ni4  1  0.66666667  0.33333335  0.62801301  1
  Ni  Ni5  1  0.33333337  0.66666670  0.37198700  1
  Si  Si6  1  0.33333337  0.66666670  0.12801300  1
  Si  Si7  1  0.66666667  0.33333335  0.87198701  1
  Ni  Ni8  1  0.66666667  0.33333335  0.12307100  1
  Ni  Ni9  1  0.33333337  0.66666670  0.87692901  1
  Si  Si10  1  0.33333337  0.66666670  0.62307101  1
  Si  Si11  1  0.66666667  0.33333335  0.37692900  1
