# generated using pymatgen
data_Ce3(Pd2Pb)2
_symmetry_space_group_name_H-M   'P 1'
_cell_length_a   4.06376219
_cell_length_b   7.80600023
_cell_length_c   7.80599976
_cell_angle_alpha   120.00000000
_cell_angle_beta   90.00000000
_cell_angle_gamma   90.00000000
_symmetry_Int_Tables_number   1
_chemical_formula_structural   Ce3(Pd2Pb)2
_chemical_formula_sum   'Ce3 Pd4 Pb2'
_cell_volume   214.44504212
_cell_formula_units_Z   1
loop_
 _symmetry_equiv_pos_site_id
 _symmetry_equiv_pos_as_xyz
  1  'x, y, z'
loop_
 _atom_site_type_symbol
 _atom_site_label
 _atom_site_symmetry_multiplicity
 _atom_site_fract_x
 _atom_site_fract_y
 _atom_site_fract_z
 _atom_site_occupancy
  Ce  Ce0  1  0.49999998  0.99999996  0.40813698  1
  Ce  Ce1  1  0.49999998  0.40813698  -0.00000001  1
  Ce  Ce2  1  0.49999998  0.59186298  0.59186299  1
  Pd  Pd3  1  0.99999995  0.00000000  0.74282300  1
  Pb  Pb4  1  0.00000000  0.74282297  -0.00000002  1
  Pb  Pb5  1  0.00000000  0.25717699  0.25717699  1
  Pd  Pd6  1  0.49999998  0.00000000  -0.00000000  1
  Pd  Pd7  1  0.99999995  0.66666664  0.33333332  1
  Pd  Pd8  1  0.00000000  0.33333332  0.66666666  1
