# generated using pymatgen
data_Ce3InPt5
_symmetry_space_group_name_H-M   'P 1'
_cell_length_a   4.26937008
_cell_length_b   7.24337387
_cell_length_c   7.24337339
_cell_angle_alpha   120.00000000
_cell_angle_beta   90.00000000
_cell_angle_gamma   90.00000000
_symmetry_Int_Tables_number   1
_chemical_formula_structural   Ce3InPt5
_chemical_formula_sum   'Ce3 In1 Pt5'
_cell_volume   193.98860031
_cell_formula_units_Z   1
loop_
 _symmetry_equiv_pos_site_id
 _symmetry_equiv_pos_as_xyz
  1  'x, y, z'
loop_
 _atom_site_type_symbol
 _atom_site_label
 _atom_site_symmetry_multiplicity
 _atom_site_fract_x
 _atom_site_fract_y
 _atom_site_fract_z
 _atom_site_occupancy
  Ce  Ce0  1  0.99999998  0.00000000  0.41548399  1
  Ce  Ce1  1  0.99999998  0.41548399  -0.00000003  1
  Ce  Ce2  1  0.00000000  0.58451599  0.58451595  1
  In  In3  1  0.49999999  0.25027600  0.25027598  1
  Pt  Pt4  1  0.49999999  0.74972399  -0.00000005  1
  Pt  Pt5  1  0.49999999  0.00000000  0.74972398  1
  Pt  Pt6  1  0.00000000  0.00000000  0.00000000  1
  Pt  Pt7  1  0.49999999  0.66666666  0.33333328  1
  Pt  Pt8  1  0.49999999  0.33333333  0.66666663  1
