# generated using pymatgen
data_Sr4Fe(WO4)3
_symmetry_space_group_name_H-M   'P 1'
_cell_length_a   5.72373676
_cell_length_b   5.73321342
_cell_length_c   8.23238564
_cell_angle_alpha   89.97673035
_cell_angle_beta   89.95440674
_cell_angle_gamma   88.89751434
_symmetry_Int_Tables_number   1
_chemical_formula_structural   Sr4Fe(WO4)3
_chemical_formula_sum   'Sr4 Fe1 W3 O12'
_cell_volume   270.09894761
_cell_formula_units_Z   1
loop_
 _symmetry_equiv_pos_site_id
 _symmetry_equiv_pos_as_xyz
  1  'x, y, z'
loop_
 _atom_site_type_symbol
 _atom_site_label
 _atom_site_symmetry_multiplicity
 _atom_site_fract_x
 _atom_site_fract_y
 _atom_site_fract_z
 _atom_site_occupancy
  Sr  Sr0  1  0.00314200  0.01650500  0.75270996  1
  Sr  Sr1  1  0.50607905  0.48621599  0.25762199  1
  Sr  Sr2  1  0.50057305  0.53028299  0.75876297  1
  Sr  Sr3  1  0.00601505  0.98049199  0.25397499  1
  Fe  Fe4  1  0.99673007  0.49048699  0.01205900  1
  W  W5  1  0.00790503  0.51035399  0.51227898  1
  W  W6  1  0.49616607  0.99453299  0.50946598  1
  W  W7  1  0.50955302  0.01134100  0.00985500  1
  O  O8  1  0.92676206  0.50668899  0.74415297  1
  O  O9  1  0.77645804  0.21967400  0.01950000  1
  O  O10  1  0.54545407  0.97328799  0.74505797  1
  O  O11  1  0.42883402  0.01880300  0.24462499  1
  O  O12  1  0.23175205  0.76886599  0.51560698  1
  O  O13  1  0.04527503  0.49466199  0.24494099  1
  O  O14  1  0.78765204  0.21093500  0.46479498  1
  O  O15  1  0.71975507  0.72387299  0.02958300  1
  O  O16  1  0.72957807  0.72606599  0.46191398  1
  O  O17  1  0.27701603  0.28176000  0.95641396  1
  O  O18  1  0.28401603  0.28118700  0.53605598  1
  O  O19  1  0.22128605  0.77398699  0.97062596  1
