# generated using pymatgen
data_K(AgSe)2
_symmetry_space_group_name_H-M   'P 1'
_cell_length_a   8.24437141
_cell_length_b   8.61204624
_cell_length_c   8.86915016
_cell_angle_alpha   70.76197052
_cell_angle_beta   75.33114624
_cell_angle_gamma   73.34946442
_symmetry_Int_Tables_number   1
_chemical_formula_structural   K(AgSe)2
_chemical_formula_sum   'K4 Ag8 Se8'
_cell_volume   560.77481306
_cell_formula_units_Z   4
loop_
 _symmetry_equiv_pos_site_id
 _symmetry_equiv_pos_as_xyz
  1  'x, y, z'
loop_
 _atom_site_type_symbol
 _atom_site_label
 _atom_site_symmetry_multiplicity
 _atom_site_fract_x
 _atom_site_fract_y
 _atom_site_fract_z
 _atom_site_occupancy
  K  K0  1  0.45791202  0.76484299  0.32258902  1
  K  K1  1  0.54208798  0.23515700  0.67741099  1
  K  K2  1  0.44164602  0.80241499  0.81018001  1
  K  K3  1  0.55835398  0.19758500  0.18982001  1
  Ag  Ag4  1  0.99386899  0.89752699  0.68641902  1
  Ag  Ag5  1  0.00613101  0.10247300  0.31358099  1
  Ag  Ag6  1  0.97225599  0.82344999  0.16730703  1
  Ag  Ag7  1  0.02774401  0.17655000  0.83269298  1
  Ag  Ag8  1  0.95643398  0.58587599  0.59859301  1
  Ag  Ag9  1  0.04356602  0.41412399  0.40140700  1
  Ag  Ag10  1  0.15686202  0.44885199  0.97440199  1
  Ag  Ag11  1  0.84313798  0.55114799  0.02559803  1
  Se  Se12  1  0.79933700  0.87198099  0.46330802  1
  Se  Se13  1  0.20066300  0.12801900  0.53669199  1
  Se  Se14  1  0.77538698  0.40700999  0.31936601  1
  Se  Se15  1  0.22461302  0.59298999  0.68063400  1
  Se  Se16  1  0.76085900  0.86667099  0.96416401  1
  Se  Se17  1  0.23914099  0.13332900  0.03583601  1
  Se  Se18  1  0.75584798  0.44719399  0.83265400  1
  Se  Se19  1  0.24415202  0.55280599  0.16734601  1
