# generated using pymatgen
data_K2SrLi7AgTeNF6
_symmetry_space_group_name_H-M   'P 1'
_cell_length_a   5.81394005
_cell_length_b   5.81394005
_cell_length_c   9.90649509
_cell_angle_alpha   72.93593597
_cell_angle_beta   72.93593597
_cell_angle_gamma   59.99999619
_symmetry_Int_Tables_number   1
_chemical_formula_structural   K2SrLi7AgTeNF6
_chemical_formula_sum   'K2 Sr1 Li7 Ag1 Te1 N1 F6'
_cell_volume   272.84122641
_cell_formula_units_Z   1
loop_
 _symmetry_equiv_pos_site_id
 _symmetry_equiv_pos_as_xyz
  1  'x, y, z'
loop_
 _atom_site_type_symbol
 _atom_site_label
 _atom_site_symmetry_multiplicity
 _atom_site_fract_x
 _atom_site_fract_y
 _atom_site_fract_z
 _atom_site_occupancy
  Sr  Sr0  1  0.71051902  0.71051903  0.86844293  1
  Ag  Ag1  1  0.28837501  0.28837501  0.13487498  1
  K  K2  1  0.13157900  0.13157901  0.60526297  1
  K  K3  1  0.85871002  0.85871004  0.42386994  1
  Li  Li4  1  0.99966303  0.99966305  0.00101095  1
  N  N5  1  0.57718801  0.57718803  0.26843596  1
  Te  Te6  1  0.42348801  0.42348802  0.72953595  1
  Li  Li7  1  0.78152002  0.78152004  0.13650496  1
  Li  Li8  1  0.78152003  0.30045501  0.13650497  1
  Li  Li9  1  0.30045500  0.78152004  0.13650497  1
  Li  Li10  1  0.86654003  0.38118702  0.37108596  1
  Li  Li11  1  0.38118701  0.38118702  0.37108597  1
  Li  Li12  1  0.38118700  0.86654004  0.37108596  1
  F  F13  1  0.62273002  0.62273003  0.62188795  1
  F  F14  1  0.62273002  0.13265201  0.62188796  1
  F  F15  1  0.13265200  0.62273003  0.62188796  1
  F  F16  1  0.69688902  0.22153501  0.86004095  1
  F  F17  1  0.22153501  0.22153501  0.86004096  1
  F  F18  1  0.22153500  0.69688903  0.86004095  1
