# generated using pymatgen
data_K2SiAs2
_symmetry_space_group_name_H-M   'P 1'
_cell_length_a   6.42488003
_cell_length_b   6.42488003
_cell_length_c   8.42428112
_cell_angle_alpha   110.45353699
_cell_angle_beta   110.45353699
_cell_angle_gamma   94.79614258
_symmetry_Int_Tables_number   1
_chemical_formula_structural   K2SiAs2
_chemical_formula_sum   'K4 Si2 As4'
_cell_volume   296.78126798
_cell_formula_units_Z   2
loop_
 _symmetry_equiv_pos_site_id
 _symmetry_equiv_pos_as_xyz
  1  'x, y, z'
loop_
 _atom_site_type_symbol
 _atom_site_label
 _atom_site_symmetry_multiplicity
 _atom_site_fract_x
 _atom_site_fract_y
 _atom_site_fract_z
 _atom_site_occupancy
  K  K0  1  0.75000000  0.25000000  0.50000006  1
  K  K1  1  0.25000002  0.75000000  0.50000007  1
  K  K2  1  0.27150302  0.72849700  1.00000009  1
  K  K3  1  0.72849700  0.27150300  1.00000009  1
  As  As4  1  0.14053100  0.14053100  0.84961705  1
  As  As5  1  0.29091401  0.29091400  0.15038303  1
  As  As6  1  0.85946902  0.85946900  0.15038307  1
  As  As7  1  0.70908602  0.70908600  0.84961710  1
  Si  Si8  1  0.84879702  0.84879700  0.69759410  1
  Si  Si9  1  0.15120300  0.15120300  0.30240603  1
