# generated using pymatgen
data_Rb2AlB2N2Cl11
_symmetry_space_group_name_H-M   'P 1'
_cell_length_a   7.14561367
_cell_length_b   7.14561367
_cell_length_c   7.43163300
_cell_angle_alpha   61.26517487
_cell_angle_beta   61.26517487
_cell_angle_gamma   60.00000381
_symmetry_Int_Tables_number   1
_chemical_formula_structural   Rb2AlB2N2Cl11
_chemical_formula_sum   'Rb2 Al1 B2 N2 Cl11'
_cell_volume   273.33416965
_cell_formula_units_Z   1
loop_
 _symmetry_equiv_pos_site_id
 _symmetry_equiv_pos_as_xyz
  1  'x, y, z'
loop_
 _atom_site_type_symbol
 _atom_site_label
 _atom_site_symmetry_multiplicity
 _atom_site_fract_x
 _atom_site_fract_y
 _atom_site_fract_z
 _atom_site_occupancy
  Rb  Rb0  1  0.62298902  0.62298900  0.13103302  1
  Rb  Rb1  1  0.37701101  0.37701100  0.86896699  1
  Cl  Cl2  1  0.00000000  0.00000000  0.00000000  1
  B  B3  1  0.00000001  0.50000000  0.49999999  1
  N  N4  1  0.00000000  0.00000000  0.49999999  1
  B  B5  1  0.50000000  0.00000000  0.50000000  1
  Al  Al6  1  0.08475400  0.08475400  0.21303800  1
  Cl  Cl7  1  0.08475402  0.61745400  0.21303801  1
  Cl  Cl8  1  0.61745400  0.08475400  0.21303801  1
  Cl  Cl9  1  0.38254602  0.91524600  0.78696200  1
  Cl  Cl10  1  0.91524603  0.91524600  0.78696201  1
  Cl  Cl11  1  0.91524601  0.38254600  0.78696201  1
  Cl  Cl12  1  0.29711302  0.92254000  0.48323401  1
  N  N13  1  0.29711301  0.29711300  0.48323400  1
  Cl  Cl14  1  0.92254001  0.29711300  0.48323401  1
  Cl  Cl15  1  0.07746002  0.70288700  0.51676600  1
  Cl  Cl16  1  0.70288700  0.07746000  0.51676600  1
  Cl  Cl17  1  0.70288702  0.70288700  0.51676601  1
