# generated using pymatgen
data_Li3Fe3OF7
_symmetry_space_group_name_H-M   'P 1'
_cell_length_a   6.00373983
_cell_length_b   6.00373983
_cell_length_c   6.00373983
_cell_angle_alpha   89.15970612
_cell_angle_beta   60.32503891
_cell_angle_gamma   119.35739136
_symmetry_Int_Tables_number   1
_chemical_formula_structural   Li3Fe3OF7
_chemical_formula_sum   'Li3 Fe3 O1 F7'
_cell_volume   154.12047855
_cell_formula_units_Z   1
loop_
 _symmetry_equiv_pos_site_id
 _symmetry_equiv_pos_as_xyz
  1  'x, y, z'
loop_
 _atom_site_type_symbol
 _atom_site_label
 _atom_site_symmetry_multiplicity
 _atom_site_fract_x
 _atom_site_fract_y
 _atom_site_fract_z
 _atom_site_occupancy
  Li  Li0  1  0.50000012  0.63231806  0.86768192  1
  Fe  Fe1  1  0.75360706  0.25147202  0.50213495  1
  Li  Li2  1  0.24639313  0.74425807  0.50213491  1
  Fe  Fe3  1  0.24744805  0.25143002  0.50112197  1
  Li  Li4  1  0.75255206  0.25143102  0.99601796  1
  Fe  Fe5  1  0.00000014  0.87078408  0.12921589  1
  F  F6  1  0.77470010  0.49135805  0.73394193  1
  F  F7  1  0.22530009  0.49135805  0.28334194  1
  F  F8  1  0.77166403  0.04063500  0.73102998  1
  F  F9  1  0.22833609  0.49730705  0.73102894  1
  F  F10  1  0.27199401  0.00270700  0.26928700  1
  O  O11  1  0.72800609  0.45871904  0.26928693  1
  F  F12  1  0.27505901  0.00811200  0.71682900  1
  F  F13  1  0.72494102  0.00811100  0.26694698  1
