# generated using pymatgen
data_HeDyCO4
_symmetry_space_group_name_H-M   'P 1'
_cell_length_a   4.50731182
_cell_length_b   5.16420221
_cell_length_c   5.16420269
_cell_angle_alpha   60.00000381
_cell_angle_beta   90.00000000
_cell_angle_gamma   90.00000000
_symmetry_Int_Tables_number   1
_chemical_formula_structural   HeDyCO4
_chemical_formula_sum   'He1 Dy1 C1 O4'
_cell_volume   104.10096888
_cell_formula_units_Z   1
loop_
 _symmetry_equiv_pos_site_id
 _symmetry_equiv_pos_as_xyz
  1  'x, y, z'
loop_
 _atom_site_type_symbol
 _atom_site_label
 _atom_site_symmetry_multiplicity
 _atom_site_fract_x
 _atom_site_fract_y
 _atom_site_fract_z
 _atom_site_occupancy
  He  He0  1  0.00000000  0.00000000  0.00000000  1
  Dy  Dy1  1  0.50000002  0.33333332  0.33333333  1
  C  C2  1  0.50000002  0.66666665  0.66666666  1
  O  O3  1  0.50000002  0.37632899  0.81183600  1
  O  O4  1  0.50000002  0.81183498  0.81183599  1
  O  O5  1  0.50000002  0.81183498  0.37632999  1
  O  O6  1  1.00000004  0.33333332  0.33333333  1
