# generated using pymatgen
data_RbZrBr2
_symmetry_space_group_name_H-M   'P 1'
_cell_length_a   4.41417599
_cell_length_b   8.08797932
_cell_length_c   8.08797932
_cell_angle_alpha   90.00000000
_cell_angle_beta   90.00000000
_cell_angle_gamma   90.00000000
_symmetry_Int_Tables_number   1
_chemical_formula_structural   RbZrBr2
_chemical_formula_sum   'Rb2 Zr2 Br4'
_cell_volume   288.75512949
_cell_formula_units_Z   2
loop_
 _symmetry_equiv_pos_site_id
 _symmetry_equiv_pos_as_xyz
  1  'x, y, z'
loop_
 _atom_site_type_symbol
 _atom_site_label
 _atom_site_symmetry_multiplicity
 _atom_site_fract_x
 _atom_site_fract_y
 _atom_site_fract_z
 _atom_site_occupancy
  Rb  Rb0  1  0.00000000  0.49999998  0.49999998  1
  Rb  Rb1  1  0.00000000  0.00000000  0.00000000  1
  Br  Br2  1  0.50310900  0.80254997  0.69744997  1
  Br  Br3  1  0.49689100  0.30254999  0.80254997  1
  Zr  Zr4  1  0.10753100  0.00000000  0.49999998  1
  Zr  Zr5  1  0.89246900  0.49999998  -0.00000000  1
  Br  Br6  1  0.50310900  0.19744999  0.30254999  1
  Br  Br7  1  0.49689100  0.69744997  0.19744999  1
