# generated using pymatgen
data_Rb5(VCl4)2
_symmetry_space_group_name_H-M   'P 1'
_cell_length_a   5.17167807
_cell_length_b   10.23098469
_cell_length_c   10.23098469
_cell_angle_alpha   86.33742523
_cell_angle_beta   75.35993958
_cell_angle_gamma   75.35993958
_symmetry_Int_Tables_number   1
_chemical_formula_structural   Rb5(VCl4)2
_chemical_formula_sum   'Rb5 V2 Cl8'
_cell_volume   506.75453879
_cell_formula_units_Z   1
loop_
 _symmetry_equiv_pos_site_id
 _symmetry_equiv_pos_as_xyz
  1  'x, y, z'
loop_
 _atom_site_type_symbol
 _atom_site_label
 _atom_site_symmetry_multiplicity
 _atom_site_fract_x
 _atom_site_fract_y
 _atom_site_fract_z
 _atom_site_occupancy
  Rb  Rb0  1  0.06062098  0.18976999  0.68898798  1
  Cl  Cl1  1  0.25039194  0.68898698  0.81022998  1
  Rb  Rb2  1  0.74960797  0.31101299  0.18976998  1
  Cl  Cl3  1  0.93937892  0.81022998  0.31101199  1
  V  V4  1  0.24999995  0.49999999  0.49999999  1
  V  V5  1  0.74999995  0.49999999  0.49999998  1
  Cl  Cl6  1  0.89964195  0.51489499  0.68582097  1
  Cl  Cl7  1  0.41453694  0.68582098  0.48510499  1
  Cl  Cl8  1  0.10035796  0.48510499  0.31417900  1
  Cl  Cl9  1  0.58546297  0.31417899  0.51489498  1
  Cl  Cl10  1  0.29669699  0.07261300  0.33399298  1
  Rb  Rb11  1  0.36930997  0.33399299  0.92738696  1
  Rb  Rb12  1  0.70330291  0.92738697  0.66600698  1
  Rb  Rb13  1  0.00000000  0.00000000  0.00000000  1
  Cl  Cl14  1  0.63068994  0.66600698  0.07261300  1
