# generated using pymatgen
data_Tm3ZnCd4Cu
_symmetry_space_group_name_H-M   'P 1'
_cell_length_a   3.53426409
_cell_length_b   7.92322779
_cell_length_c   7.92322826
_cell_angle_alpha   120.00000000
_cell_angle_beta   90.00000000
_cell_angle_gamma   90.00000000
_symmetry_Int_Tables_number   1
_chemical_formula_structural   Tm3ZnCd4Cu
_chemical_formula_sum   'Tm3 Zn1 Cd4 Cu1'
_cell_volume   192.14714642
_cell_formula_units_Z   1
loop_
 _symmetry_equiv_pos_site_id
 _symmetry_equiv_pos_as_xyz
  1  'x, y, z'
loop_
 _atom_site_type_symbol
 _atom_site_label
 _atom_site_symmetry_multiplicity
 _atom_site_fract_x
 _atom_site_fract_y
 _atom_site_fract_z
 _atom_site_occupancy
  Tm  Tm0  1  0.49999999  0.70943903  0.95779501  1
  Tm  Tm1  1  0.49999999  0.24835601  0.29056000  1
  Tm  Tm2  1  0.49999999  0.04220400  0.75164300  1
  Cd  Cd3  1  -0.00000000  0.92543603  0.33677502  1
  Cd  Cd4  1  0.00000000  0.41133902  0.07456401  1
  Cd  Cd5  1  0.99999998  0.66322502  0.58866101  1
  Cd  Cd6  1  -0.00000000  0.33333335  0.66666667  1
  Cu  Cu7  1  0.49999999  0.66666669  0.33333335  1
  Zn  Zn8  1  0.00000000  0.00000000  0.00000000  1
