# generated using pymatgen
data_Ce5Pt13
_symmetry_space_group_name_H-M   'P 1'
_cell_length_a   5.83687210
_cell_length_b   8.68216419
_cell_length_c   8.68216324
_cell_angle_alpha   120.00000000
_cell_angle_beta   90.00000000
_cell_angle_gamma   90.00000000
_symmetry_Int_Tables_number   1
_chemical_formula_structural   Ce5Pt13
_chemical_formula_sum   'Ce5 Pt13'
_cell_volume   381.03665014
_cell_formula_units_Z   1
loop_
 _symmetry_equiv_pos_site_id
 _symmetry_equiv_pos_as_xyz
  1  'x, y, z'
loop_
 _atom_site_type_symbol
 _atom_site_label
 _atom_site_symmetry_multiplicity
 _atom_site_fract_x
 _atom_site_fract_y
 _atom_site_fract_z
 _atom_site_occupancy
  Ce  Ce0  1  0.74999999  0.73963097  0.73963099  1
  Ce  Ce1  1  0.25000000  0.73963097  1.00000000  1
  Ce  Ce2  1  0.25000000  0.99999996  0.73963098  1
  Pt  Pt3  1  0.74999999  0.00000000  0.26036901  1
  Pt  Pt4  1  0.74999999  0.26036899  -0.00000001  1
  Pt  Pt5  1  0.25000000  0.26036899  0.26036900  1
  Pt  Pt6  1  0.00000000  0.66666664  0.33333332  1
  Ce  Ce7  1  0.49999999  0.33333332  0.66666667  1
  Pt  Pt8  1  0.99999998  0.33333332  0.66666667  1
  Ce  Ce9  1  0.49999999  0.66666664  0.33333332  1
  Pt  Pt10  1  0.00000000  0.00000000  0.00000000  1
  Pt  Pt11  1  0.49999999  0.00000000  -0.00000000  1
  Pt  Pt12  1  0.74999999  0.39508998  0.39509000  1
  Pt  Pt13  1  0.25000000  0.39508998  -0.00000002  1
  Pt  Pt14  1  0.25000000  0.99999996  0.39508997  1
  Pt  Pt15  1  0.74999999  0.99999996  0.60490998  1
  Pt  Pt16  1  0.74999999  0.60490997  -0.00000002  1
  Pt  Pt17  1  0.25000000  0.60490997  0.60490999  1
