# generated using pymatgen
data_CeCdAu2
_symmetry_space_group_name_H-M   'P 1'
_cell_length_a   4.47570610
_cell_length_b   5.64556265
_cell_length_c   8.19650364
_cell_angle_alpha   90.00000000
_cell_angle_beta   90.00000000
_cell_angle_gamma   113.35278320
_symmetry_Int_Tables_number   1
_chemical_formula_structural   CeCdAu2
_chemical_formula_sum   'Ce2 Cd2 Au4'
_cell_volume   190.14228593
_cell_formula_units_Z   2
loop_
 _symmetry_equiv_pos_site_id
 _symmetry_equiv_pos_as_xyz
  1  'x, y, z'
loop_
 _atom_site_type_symbol
 _atom_site_label
 _atom_site_symmetry_multiplicity
 _atom_site_fract_x
 _atom_site_fract_y
 _atom_site_fract_z
 _atom_site_occupancy
  Ce  Ce0  1  0.06677899  0.13355800  0.25000001  1
  Ce  Ce1  1  0.93322091  0.86644197  0.75000003  1
  Au  Au2  1  0.35259794  0.70519597  0.44833102  1
  Cd  Cd3  1  0.64740196  0.29480399  0.55166902  1
  Cd  Cd4  1  0.35259794  0.70519597  0.05166900  1
  Au  Au5  1  0.64740196  0.29480399  0.94833104  1
  Au  Au6  1  0.21530696  0.43061398  0.75000003  1
  Au  Au7  1  0.78469294  0.56938598  0.25000001  1
