# generated using pymatgen
data_Li2Ge
_symmetry_space_group_name_H-M   'P 1'
_cell_length_a   4.12877417
_cell_length_b   5.04453421
_cell_length_c   5.91483307
_cell_angle_alpha   74.74862671
_cell_angle_beta   69.57270050
_cell_angle_gamma   65.84337616
_symmetry_Int_Tables_number   1
_chemical_formula_structural   Li2Ge
_chemical_formula_sum   'Li4 Ge2'
_cell_volume   104.28975582
_cell_formula_units_Z   2
loop_
 _symmetry_equiv_pos_site_id
 _symmetry_equiv_pos_as_xyz
  1  'x, y, z'
loop_
 _atom_site_type_symbol
 _atom_site_label
 _atom_site_symmetry_multiplicity
 _atom_site_fract_x
 _atom_site_fract_y
 _atom_site_fract_z
 _atom_site_occupancy
  Li  Li0  1  0.55645100  0.68833198  0.19876604  1
  Li  Li1  1  0.44354899  0.31166799  0.80123403  1
  Ge  Ge2  1  0.17123000  0.23605899  0.42148101  1
  Li  Li3  1  0.82876999  0.76394098  0.57851905  1
  Li  Li4  1  0.84373296  0.12709600  0.18543704  1
  Ge  Ge5  1  0.15626703  0.87290398  0.81456303  1
