# generated using pymatgen
data_LiMn6O13
_symmetry_space_group_name_H-M   'P 1'
_cell_length_a   6.38532066
_cell_length_b   6.41090822
_cell_length_c   6.42492247
_cell_angle_alpha   69.07141876
_cell_angle_beta   70.44068909
_cell_angle_gamma   108.28627014
_symmetry_Int_Tables_number   1
_chemical_formula_structural   LiMn6O13
_chemical_formula_sum   'Li1 Mn6 O13'
_cell_volume   201.47808181
_cell_formula_units_Z   1
loop_
 _symmetry_equiv_pos_site_id
 _symmetry_equiv_pos_as_xyz
  1  'x, y, z'
loop_
 _atom_site_type_symbol
 _atom_site_label
 _atom_site_symmetry_multiplicity
 _atom_site_fract_x
 _atom_site_fract_y
 _atom_site_fract_z
 _atom_site_occupancy
  O  O0  1  0.99994393  0.99990594  0.99995007  1
  Li  Li1  1  0.00000896  0.99994494  0.49999906  1
  Mn  Mn2  1  0.49995796  0.49998397  0.50001703  1
  Mn  Mn3  1  0.49996494  0.99998894  0.00007104  1
  Mn  Mn4  1  0.99996295  0.49995297  0.00003401  1
  Mn  Mn5  1  0.49988394  0.99966794  0.50007906  1
  Mn  Mn6  1  0.50013996  0.50027597  0.99989005  1
  Mn  Mn7  1  0.00017498  0.50007797  0.49994504  1
  O  O8  1  0.81709696  0.29702398  0.85988103  1
  O  O9  1  0.82358995  0.68579896  0.47990804  1
  O  O10  1  0.17630298  0.31428098  0.52008403  1
  O  O11  1  0.31431599  0.13789599  0.17328901  1
  O  O12  1  0.47356498  0.16807099  0.69447103  1
  O  O13  1  0.52635195  0.83191595  0.30563104  1
  O  O14  1  0.31731797  0.48447497  0.82052405  1
  O  O15  1  0.86848197  0.17633599  0.30580601  1
  O  O16  1  0.18276596  0.70289796  0.14028303  1
  O  O17  1  0.68283796  0.51571297  0.17939902  1
  O  O18  1  0.68578994  0.86215295  0.82668306  1
  O  O19  1  0.13154796  0.82364195  0.69405706  1
