# generated using pymatgen
data_Ca2MnWO6
_symmetry_space_group_name_H-M   'P 1'
_cell_length_a   5.25963020
_cell_length_b   5.60254002
_cell_length_c   7.57565308
_cell_angle_alpha   90.00000000
_cell_angle_beta   90.74548340
_cell_angle_gamma   90.00000000
_symmetry_Int_Tables_number   1
_chemical_formula_structural   Ca2MnWO6
_chemical_formula_sum   'Ca4 Mn2 W2 O12'
_cell_volume   223.21506082
_cell_formula_units_Z   2
loop_
 _symmetry_equiv_pos_site_id
 _symmetry_equiv_pos_as_xyz
  1  'x, y, z'
loop_
 _atom_site_type_symbol
 _atom_site_label
 _atom_site_symmetry_multiplicity
 _atom_site_fract_x
 _atom_site_fract_y
 _atom_site_fract_z
 _atom_site_occupancy
  Ca  Ca0  1  0.52132298  0.92931800  0.24696101  1
  Ca  Ca1  1  0.47867698  0.07068200  0.75303902  1
  Ca  Ca2  1  0.97867696  0.42931800  0.25303901  1
  Ca  Ca3  1  0.02132300  0.57068200  0.74696102  1
  Mn  Mn4  1  0.49999998  0.50000000  0.50000001  1
  W  W5  1  0.00000000  0.00000000  0.00000000  1
  Mn  Mn6  1  0.49999998  0.50000000  0.00000000  1
  W  W7  1  0.99999996  0.00000000  0.50000002  1
  O  O8  1  0.38737899  0.54157900  0.25769601  1
  O  O9  1  0.61262098  0.45842100  0.74230402  1
  O  O10  1  0.11262100  0.04157900  0.24230401  1
  O  O11  1  0.88737897  0.95842100  0.75769602  1
  O  O12  1  0.68533897  0.20910200  0.43841202  1
  O  O13  1  0.31466099  0.79089800  0.56158801  1
  O  O14  1  0.81466097  0.70910200  0.06158801  1
  O  O15  1  0.18533899  0.29089800  0.93841202  1
  O  O16  1  0.79866997  0.68846900  0.44812602  1
  O  O17  1  0.20132999  0.31153100  0.55187401  1
  O  O18  1  0.70132997  0.18846900  0.05187401  1
  O  O19  1  0.29866999  0.81153100  0.94812602  1
