# generated using pymatgen
data_Hf3Al11Si2C
_symmetry_space_group_name_H-M   'P 1'
_cell_length_a   7.13851213
_cell_length_b   7.13851213
_cell_length_c   7.13851213
_cell_angle_alpha   60.81142807
_cell_angle_beta   60.81142807
_cell_angle_gamma   60.81142426
_symmetry_Int_Tables_number   1
_chemical_formula_structural   Hf3Al11Si2C
_chemical_formula_sum   'Hf3 Al11 Si2 C1'
_cell_volume   261.92928329
_cell_formula_units_Z   1
loop_
 _symmetry_equiv_pos_site_id
 _symmetry_equiv_pos_as_xyz
  1  'x, y, z'
loop_
 _atom_site_type_symbol
 _atom_site_label
 _atom_site_symmetry_multiplicity
 _atom_site_fract_x
 _atom_site_fract_y
 _atom_site_fract_z
 _atom_site_occupancy
  Si  Si0  1  0.28568299  0.28568300  0.28568300  1
  C  C1  1  0.71431697  0.71431700  0.71431701  1
  Al  Al2  1  0.84645598  0.36532700  0.67961600  1
  Al  Al3  1  0.36532697  0.67961600  0.84645601  1
  Al  Al4  1  0.67961597  0.84645600  0.36532701  1
  Al  Al5  1  0.15354398  0.63467300  0.32038401  1
  Al  Al6  1  0.63467298  0.32038400  0.15354400  1
  Al  Al7  1  0.32038399  0.15354400  0.63467300  1
  Hf  Hf8  1  0.77491199  0.05278200  0.55797900  1
  Hf  Hf9  1  0.05278198  0.55797900  0.77491201  1
  Hf  Hf10  1  0.55797897  0.77491200  0.05278201  1
  Al  Al11  1  0.22508797  0.94721800  0.44202101  1
  Al  Al12  1  0.94721797  0.44202100  0.22508800  1
  Al  Al13  1  0.44202099  0.22508800  0.94721800  1
  Al  Al14  1  0.07942700  0.07942700  0.07942700  1
  Al  Al15  1  0.92057296  0.92057300  0.92057301  1
  Si  Si16  1  0.49999998  0.50000000  0.50000000  1
