# generated using pymatgen
data_VPO4
_symmetry_space_group_name_H-M   'P 1'
_cell_length_a   4.67753839
_cell_length_b   4.68731213
_cell_length_c   4.68731213
_cell_angle_alpha   89.92551422
_cell_angle_beta   62.33070755
_cell_angle_gamma   117.66928864
_symmetry_Int_Tables_number   1
_chemical_formula_structural   VPO4
_chemical_formula_sum   'V1 P1 O4'
_cell_volume   77.46432642
_cell_formula_units_Z   1
loop_
 _symmetry_equiv_pos_site_id
 _symmetry_equiv_pos_as_xyz
  1  'x, y, z'
loop_
 _atom_site_type_symbol
 _atom_site_label
 _atom_site_symmetry_multiplicity
 _atom_site_fract_x
 _atom_site_fract_y
 _atom_site_fract_z
 _atom_site_occupancy
  V  V0  1  0.00012793  0.72993997  0.98970007  1
  P  P1  1  0.50012800  0.01030000  0.27005999  1
  O  O2  1  0.24921093  0.74186697  0.61753506  1
  O  O3  1  0.74921096  0.38246498  0.25813302  1
  O  O4  1  0.75066091  0.88336096  0.99793306  1
  O  O5  1  0.25066100  0.00206700  0.11663899  1
