# generated using pymatgen
data_CeAl3
_symmetry_space_group_name_H-M   'P 1'
_cell_length_a   4.36401701
_cell_length_b   6.98688316
_cell_length_c   10.43753815
_cell_angle_alpha   90.00000000
_cell_angle_beta   90.00000000
_cell_angle_gamma   90.00000000
_symmetry_Int_Tables_number   1
_chemical_formula_structural   CeAl3
_chemical_formula_sum   'Ce4 Al12'
_cell_volume   318.24969151
_cell_formula_units_Z   4
loop_
 _symmetry_equiv_pos_site_id
 _symmetry_equiv_pos_as_xyz
  1  'x, y, z'
loop_
 _atom_site_type_symbol
 _atom_site_label
 _atom_site_symmetry_multiplicity
 _atom_site_fract_x
 _atom_site_fract_y
 _atom_site_fract_z
 _atom_site_occupancy
  Ce  Ce0  1  0.25000000  0.77617698  0.82799799  1
  Ce  Ce1  1  0.75000000  0.22382299  0.17200200  1
  Ce  Ce2  1  0.75000000  0.72382298  0.32799800  1
  Ce  Ce3  1  0.25000000  0.27617699  0.67200199  1
  Al  Al4  1  0.25000000  0.70366498  0.53595299  1
  Al  Al5  1  0.75000000  0.29633499  0.46404699  1
  Al  Al6  1  0.75000000  0.79633498  0.03595300  1
  Al  Al7  1  0.25000000  0.20366500  0.96404699  1
  Al  Al8  1  0.25000000  0.92614498  0.14989700  1
  Al  Al9  1  0.75000000  0.07385500  0.85010299  1
  Al  Al10  1  0.75000000  0.57385499  0.64989699  1
  Al  Al11  1  0.25000000  0.42614499  0.35010300  1
  Al  Al12  1  0.25000000  0.54004899  0.09902800  1
  Al  Al13  1  0.75000000  0.45995099  0.90097199  1
  Al  Al14  1  0.75000000  0.95995098  0.59902799  1
  Al  Al15  1  0.25000000  0.04004900  0.40097199  1
