# generated using pymatgen
data_Ce3P5
_symmetry_space_group_name_H-M   'P 1'
_cell_length_a   5.66955185
_cell_length_b   6.06442690
_cell_length_c   10.15822411
_cell_angle_alpha   90.00000000
_cell_angle_beta   90.00000000
_cell_angle_gamma   90.00000000
_symmetry_Int_Tables_number   1
_chemical_formula_structural   Ce3P5
_chemical_formula_sum   'Ce6 P10'
_cell_volume   349.26598081
_cell_formula_units_Z   2
loop_
 _symmetry_equiv_pos_site_id
 _symmetry_equiv_pos_as_xyz
  1  'x, y, z'
loop_
 _atom_site_type_symbol
 _atom_site_label
 _atom_site_symmetry_multiplicity
 _atom_site_fract_x
 _atom_site_fract_y
 _atom_site_fract_z
 _atom_site_occupancy
  Ce  Ce0  1  0.84524102  0.33598401  0.71552099  1
  Ce  Ce1  1  0.34524101  0.16401600  0.28447900  1
  P  P2  1  0.15475900  0.83598401  0.78447899  1
  Ce  Ce3  1  0.65475902  0.66401601  0.21552100  1
  Ce  Ce4  1  0.11578300  0.61471401  0.41791800  1
  Ce  Ce5  1  0.61578302  0.88528601  0.58208199  1
  P  P6  1  0.88421702  0.11471400  0.08208200  1
  Ce  Ce7  1  0.38421701  0.38528601  0.91791799  1
  P  P8  1  0.61285702  0.44207101  0.46544500  1
  P  P9  1  0.11285700  0.05792900  0.53455499  1
  P  P10  1  0.38714301  0.94207102  0.03455500  1
  P  P11  1  0.88714302  0.55792901  0.96544499  1
  P  P12  1  0.34740501  0.32089401  0.61555099  1
  P  P13  1  0.84740502  0.17910600  0.38444900  1
  P  P14  1  0.65259502  0.82089401  0.88444899  1
  P  P15  1  0.15259500  0.67910601  0.11555100  1
