# generated using pymatgen
data_LaB2(WC)7
_symmetry_space_group_name_H-M   'P 1'
_cell_length_a   2.99690104
_cell_length_b   9.08876228
_cell_length_c   9.08876228
_cell_angle_alpha   120.00000000
_cell_angle_beta   90.00000000
_cell_angle_gamma   90.00000000
_symmetry_Int_Tables_number   1
_chemical_formula_structural   LaB2(WC)7
_chemical_formula_sum   'La1 B2 W7 C7'
_cell_volume   214.39394844
_cell_formula_units_Z   1
loop_
 _symmetry_equiv_pos_site_id
 _symmetry_equiv_pos_as_xyz
  1  'x, y, z'
loop_
 _atom_site_type_symbol
 _atom_site_label
 _atom_site_symmetry_multiplicity
 _atom_site_fract_x
 _atom_site_fract_y
 _atom_site_fract_z
 _atom_site_occupancy
  La  La0  1  0.99999999  0.54082299  0.54082300  1
  W  W1  1  0.00000000  0.00000000  0.45917700  1
  W  W2  1  0.00000000  0.45917699  1.00000000  1
  W  W3  1  0.49999999  0.18858600  0.18858600  1
  W  W4  1  0.49999999  0.00000000  0.81141399  1
  W  W5  1  0.49999999  0.81141398  1.00000000  1
  W  W6  1  -0.00000000  0.33333333  0.66666666  1
  W  W7  1  0.00000000  0.66666665  0.33333334  1
  B  B8  1  0.49999999  0.19555700  0.73394100  1
  C  C9  1  0.49999999  0.53838399  0.80444300  1
  C  C10  1  0.49999999  0.26605899  0.46161600  1
  C  C11  1  0.49999999  0.73394098  0.19555701  1
  C  C12  1  0.49999999  0.80444298  0.53838401  1
  C  C13  1  0.49999999  0.46161599  0.26605900  1
  C  C14  1  0.99999999  0.82300198  0.82300200  1
  B  B15  1  0.00000000  0.00000000  0.17699800  1
  C  C16  1  0.99999999  0.17699800  0.99999999  1
