# generated using pymatgen
data_MgAg
_symmetry_space_group_name_H-M   'P 1'
_cell_length_a   4.82237196
_cell_length_b   5.11189556
_cell_length_c   5.11189556
_cell_angle_alpha   119.80187988
_cell_angle_beta   90.00000000
_cell_angle_gamma   90.00000000
_symmetry_Int_Tables_number   1
_chemical_formula_structural   MgAg
_chemical_formula_sum   'Mg3 Ag3'
_cell_volume   109.35001466
_cell_formula_units_Z   3
loop_
 _symmetry_equiv_pos_site_id
 _symmetry_equiv_pos_as_xyz
  1  'x, y, z'
loop_
 _atom_site_type_symbol
 _atom_site_label
 _atom_site_symmetry_multiplicity
 _atom_site_fract_x
 _atom_site_fract_y
 _atom_site_fract_z
 _atom_site_occupancy
  Mg  Mg0  1  -0.00000000  0.32778501  0.98169503  1
  Mg  Mg1  1  -0.00000000  0.98169503  0.32778498  1
  Mg  Mg2  1  0.50000000  0.35547001  0.35547000  1
  Ag  Ag3  1  -0.00000000  0.67176902  0.67176900  1
  Ag  Ag4  1  0.50000000  0.67317902  0.99010202  1
  Ag  Ag5  1  0.50000000  0.99010203  0.67317899  1
