# generated using pymatgen
data_La7Mg
_symmetry_space_group_name_H-M   'P 1'
_cell_length_a   5.97777987
_cell_length_b   7.31730604
_cell_length_c   7.31730509
_cell_angle_alpha   120.00000000
_cell_angle_beta   90.00000000
_cell_angle_gamma   90.00000000
_symmetry_Int_Tables_number   1
_chemical_formula_structural   La7Mg
_chemical_formula_sum   'La7 Mg1'
_cell_volume   277.18704715
_cell_formula_units_Z   1
loop_
 _symmetry_equiv_pos_site_id
 _symmetry_equiv_pos_as_xyz
  1  'x, y, z'
loop_
 _atom_site_type_symbol
 _atom_site_label
 _atom_site_symmetry_multiplicity
 _atom_site_fract_x
 _atom_site_fract_y
 _atom_site_fract_z
 _atom_site_occupancy
  La  La0  1  0.75000002  0.83276397  0.16723695  1
  La  La1  1  0.75000002  0.33447299  0.16723698  1
  La  La2  1  0.75000002  0.83276397  0.66552796  1
  La  La3  1  0.25000001  0.16723599  0.83276301  1
  Mg  Mg4  1  0.25000001  0.66552697  0.83276297  1
  La  La5  1  0.25000001  0.16723599  0.33447200  1
  La  La6  1  0.25000001  0.66666664  0.33333329  1
  La  La7  1  0.75000002  0.33333332  0.66666666  1
