# generated using pymatgen
data_La7Al6
_symmetry_space_group_name_H-M   'P 1'
_cell_length_a   4.44489288
_cell_length_b   4.46209002
_cell_length_c   16.60506248
_cell_angle_alpha   90.00000000
_cell_angle_beta   90.00000000
_cell_angle_gamma   90.00000000
_symmetry_Int_Tables_number   1
_chemical_formula_structural   La7Al6
_chemical_formula_sum   'La7 Al6'
_cell_volume   329.33670861
_cell_formula_units_Z   1
loop_
 _symmetry_equiv_pos_site_id
 _symmetry_equiv_pos_as_xyz
  1  'x, y, z'
loop_
 _atom_site_type_symbol
 _atom_site_label
 _atom_site_symmetry_multiplicity
 _atom_site_fract_x
 _atom_site_fract_y
 _atom_site_fract_z
 _atom_site_occupancy
  La  La0  1  0.00000000  0.00000000  0.09650100  1
  Al  Al1  1  0.00000000  0.50000000  0.60221698  1
  La  La2  1  0.50000001  0.50000000  0.39564099  1
  Al  Al3  1  0.50000001  0.00000000  0.90021097  1
  Al  Al4  1  0.00000000  0.00000000  0.30602099  1
  Al  Al5  1  0.00000000  0.00000000  0.45454699  1
  La  La6  1  0.00000000  0.50000000  0.93575997  1
  La  La7  1  0.50000001  0.50000000  0.06408500  1
  La  La8  1  0.50000001  0.00000000  0.57339098  1
  Al  Al9  1  0.00000000  0.50000000  0.23628699  1
  La  La10  1  0.00000000  0.00000000  0.74948298  1
  Al  Al11  1  0.50000001  0.00000000  0.23738999  1
  La  La12  1  0.50000001  0.50000000  0.75146698  1
