# generated using pymatgen
data_Ho3Lu
_symmetry_space_group_name_H-M   'P 1'
_cell_length_a   5.55446291
_cell_length_b   6.93452787
_cell_length_c   6.93452787
_cell_angle_alpha   120.00000000
_cell_angle_beta   90.00000000
_cell_angle_gamma   90.00000000
_symmetry_Int_Tables_number   1
_chemical_formula_structural   Ho3Lu
_chemical_formula_sum   'Ho6 Lu2'
_cell_volume   231.31643965
_cell_formula_units_Z   2
loop_
 _symmetry_equiv_pos_site_id
 _symmetry_equiv_pos_as_xyz
  1  'x, y, z'
loop_
 _atom_site_type_symbol
 _atom_site_label
 _atom_site_symmetry_multiplicity
 _atom_site_fract_x
 _atom_site_fract_y
 _atom_site_fract_z
 _atom_site_occupancy
  Ho  Ho0  1  0.75000001  0.83558100  0.16441997  1
  Ho  Ho1  1  0.75000001  0.32883900  0.16441998  1
  Ho  Ho2  1  0.75000001  0.83558100  0.67116195  1
  Ho  Ho3  1  0.25000000  0.16441900  0.83557997  1
  Ho  Ho4  1  0.25000000  0.67116100  0.83557995  1
  Ho  Ho5  1  0.25000000  0.16441900  0.32883798  1
  Lu  Lu6  1  0.25000000  0.66666667  0.33333330  1
  Lu  Lu7  1  0.75000001  0.33333333  0.66666663  1
