# generated using pymatgen
data_MnO2
_symmetry_space_group_name_H-M   'P 1'
_cell_length_a   4.84930420
_cell_length_b   4.86634684
_cell_length_c   9.84773731
_cell_angle_alpha   90.00000000
_cell_angle_beta   90.00000000
_cell_angle_gamma   90.00000000
_symmetry_Int_Tables_number   1
_chemical_formula_structural   MnO2
_chemical_formula_sum   'Mn6 O12'
_cell_volume   232.39080625
_cell_formula_units_Z   6
loop_
 _symmetry_equiv_pos_site_id
 _symmetry_equiv_pos_as_xyz
  1  'x, y, z'
loop_
 _atom_site_type_symbol
 _atom_site_label
 _atom_site_symmetry_multiplicity
 _atom_site_fract_x
 _atom_site_fract_y
 _atom_site_fract_z
 _atom_site_occupancy
  Mn  Mn0  1  0.77704297  0.02194300  0.00000000  1
  Mn  Mn1  1  0.75426997  0.98500503  0.34161299  1
  Mn  Mn2  1  0.75426997  0.98500503  0.65838698  1
  Mn  Mn3  1  0.24572999  0.48500502  0.84161297  1
  Mn  Mn4  1  0.24572999  0.48500502  0.15838699  1
  Mn  Mn5  1  0.22295699  0.52194302  0.49999998  1
  O  O6  1  0.93038296  0.80587603  0.49999998  1
  O  O7  1  0.06961700  0.30587601  -0.00000000  1
  O  O8  1  0.95486196  0.80458303  0.16763299  1
  O  O9  1  0.95486196  0.80458303  0.83236697  1
  O  O10  1  0.04513800  0.30458301  0.33236699  1
  O  O11  1  0.04513800  0.30458301  0.66763298  1
  O  O12  1  0.47168198  0.71108202  -0.00000000  1
  O  O13  1  0.43534998  0.69081002  0.32358099  1
  O  O14  1  0.43534998  0.69081002  0.67641898  1
  O  O15  1  0.56464998  0.19081001  0.17641899  1
  O  O16  1  0.52831798  0.21108201  0.49999998  1
  O  O17  1  0.56464998  0.19081001  0.82358097  1
