# generated using pymatgen
data_Ce4Mg2Ni3Sn5
_symmetry_space_group_name_H-M   'P 1'
_cell_length_a   4.13290787
_cell_length_b   5.71374130
_cell_length_c   13.41343117
_cell_angle_alpha   90.00000000
_cell_angle_beta   90.00000000
_cell_angle_gamma   111.20241547
_symmetry_Int_Tables_number   1
_chemical_formula_structural   Ce4Mg2Ni3Sn5
_chemical_formula_sum   'Ce4 Mg2 Ni3 Sn5'
_cell_volume   295.30843464
_cell_formula_units_Z   1
loop_
 _symmetry_equiv_pos_site_id
 _symmetry_equiv_pos_as_xyz
  1  'x, y, z'
loop_
 _atom_site_type_symbol
 _atom_site_label
 _atom_site_symmetry_multiplicity
 _atom_site_fract_x
 _atom_site_fract_y
 _atom_site_fract_z
 _atom_site_occupancy
  Ce  Ce0  1  0.22702699  0.45405401  0.39613100  1
  Ce  Ce1  1  0.48265698  0.96531402  0.74999999  1
  Mg  Mg2  1  0.77297301  0.54594601  0.60386899  1
  Ce  Ce3  1  0.22702699  0.45405401  0.10386900  1
  Ce  Ce4  1  0.51734302  0.03468600  0.25000000  1
  Mg  Mg5  1  0.77297301  0.54594601  0.89613099  1
  Sn  Sn6  1  0.93934900  0.87869802  0.41136199  1
  Sn  Sn7  1  0.93934900  0.87869802  0.08863800  1
  Ni  Ni8  1  0.06065100  0.12130200  0.58863799  1
  Ni  Ni9  1  0.06065100  0.12130200  0.91136199  1
  Sn  Sn10  1  0.18517099  0.37034201  0.74999999  1
  Ni  Ni11  1  0.81482900  0.62965801  0.25000000  1
  Sn  Sn12  1  0.50000002  0.00000000  0.99999999  1
  Sn  Sn13  1  0.50000002  0.00000000  0.49999999  1
