# generated using pymatgen
data_Mn3O4
_symmetry_space_group_name_H-M   'P 1'
_cell_length_a   5.96402884
_cell_length_b   5.96402788
_cell_length_c   5.96402884
_cell_angle_alpha   60.51259995
_cell_angle_beta   60.51260376
_cell_angle_gamma   60.51259995
_symmetry_Int_Tables_number   1
_chemical_formula_structural   Mn3O4
_chemical_formula_sum   'Mn6 O8'
_cell_volume   151.74206593
_cell_formula_units_Z   2
loop_
 _symmetry_equiv_pos_site_id
 _symmetry_equiv_pos_as_xyz
  1  'x, y, z'
loop_
 _atom_site_type_symbol
 _atom_site_label
 _atom_site_symmetry_multiplicity
 _atom_site_fract_x
 _atom_site_fract_y
 _atom_site_fract_z
 _atom_site_occupancy
  Mn  Mn0  1  0.37499996  0.87500001  0.37500003  1
  Mn  Mn1  1  0.87499998  0.37500001  0.37500001  1
  Mn  Mn2  1  0.37499998  0.37500001  0.87499999  1
  Mn  Mn3  1  0.99857696  0.99857701  0.99857702  1
  Mn  Mn4  1  0.75142297  0.75142301  0.75142302  1
  Mn  Mn5  1  0.37499998  0.37500001  0.37500001  1
  O  O6  1  0.61650397  0.61650401  0.61650401  1
  O  O7  1  0.61818297  0.61818301  0.16266803  1
  O  O8  1  0.16266797  0.61818301  0.61818301  1
  O  O9  1  0.61818299  0.16266800  0.61818299  1
  O  O10  1  0.13181697  0.58733201  0.13181703  1
  O  O11  1  0.58733199  0.13181700  0.13181701  1
  O  O12  1  0.13181699  0.13181700  0.58733199  1
  O  O13  1  0.13349599  0.13349600  0.13349600  1
