# generated using pymatgen
data_Ce5MgSb4
_symmetry_space_group_name_H-M   'P 1'
_cell_length_a   4.45995378
_cell_length_b   7.72629595
_cell_length_c   7.72629595
_cell_angle_alpha   90.00000000
_cell_angle_beta   90.00000000
_cell_angle_gamma   90.00000000
_symmetry_Int_Tables_number   1
_chemical_formula_structural   Ce5MgSb4
_chemical_formula_sum   'Ce5 Mg1 Sb4'
_cell_volume   266.23983604
_cell_formula_units_Z   1
loop_
 _symmetry_equiv_pos_site_id
 _symmetry_equiv_pos_as_xyz
  1  'x, y, z'
loop_
 _atom_site_type_symbol
 _atom_site_label
 _atom_site_symmetry_multiplicity
 _atom_site_fract_x
 _atom_site_fract_y
 _atom_site_fract_z
 _atom_site_occupancy
  Ce  Ce0  1  0.50000002  0.31995300  0.81995301  1
  Ce  Ce1  1  0.50000002  0.81995301  0.68004700  1
  Ce  Ce2  1  0.50000002  0.18004700  0.31995300  1
  Ce  Ce3  1  0.50000002  0.68004700  0.18004700  1
  Ce  Ce4  1  0.00000000  0.00000000  0.00000000  1
  Mg  Mg5  1  0.00000000  0.50000000  0.50000000  1
  Sb  Sb6  1  0.00000000  0.38282700  0.11717300  1
  Sb  Sb7  1  0.00000000  0.88282701  0.38282700  1
  Sb  Sb8  1  0.00000000  0.11717300  0.61717300  1
  Sb  Sb9  1  0.00000000  0.61717300  0.88282701  1
