# generated using pymatgen
data_Sc8Cu3Si
_symmetry_space_group_name_H-M   'P 1'
_cell_length_a   5.21553802
_cell_length_b   6.48771906
_cell_length_c   6.48771906
_cell_angle_alpha   90.00000000
_cell_angle_beta   90.00000000
_cell_angle_gamma   90.00000000
_symmetry_Int_Tables_number   1
_chemical_formula_structural   Sc8Cu3Si
_chemical_formula_sum   'Sc8 Cu3 Si1'
_cell_volume   219.52459587
_cell_formula_units_Z   1
loop_
 _symmetry_equiv_pos_site_id
 _symmetry_equiv_pos_as_xyz
  1  'x, y, z'
loop_
 _atom_site_type_symbol
 _atom_site_label
 _atom_site_symmetry_multiplicity
 _atom_site_fract_x
 _atom_site_fract_y
 _atom_site_fract_z
 _atom_site_occupancy
  Sc  Sc0  1  0.50000000  0.15890600  0.65367499  1
  Sc  Sc1  1  0.50000000  0.84109399  0.34632500  1
  Sc  Sc2  1  0.50000000  0.65367499  0.84109399  1
  Sc  Sc3  1  0.50000000  0.34632500  0.15890600  1
  Sc  Sc4  1  0.00000000  0.15890600  0.34632500  1
  Sc  Sc5  1  0.00000000  0.84109399  0.65367499  1
  Sc  Sc6  1  0.00000000  0.65367499  0.15890600  1
  Sc  Sc7  1  0.00000000  0.34632500  0.84109399  1
  Cu  Cu8  1  0.25000000  0.00000000  -0.00000000  1
  Cu  Cu9  1  0.75000000  0.00000000  -0.00000000  1
  Si  Si10  1  0.25000000  0.50000000  0.50000000  1
  Cu  Cu11  1  0.75000000  0.50000000  0.50000000  1
