# generated using pymatgen
data_Lu3Ni11B4
_symmetry_space_group_name_H-M   'P 1'
_cell_length_a   4.99756193
_cell_length_b   4.99756241
_cell_length_c   9.74310493
_cell_angle_alpha   90.00000000
_cell_angle_beta   90.00000000
_cell_angle_gamma   120.00000000
_symmetry_Int_Tables_number   1
_chemical_formula_structural   Lu3Ni11B4
_chemical_formula_sum   'Lu3 Ni11 B4'
_cell_volume   210.73876113
_cell_formula_units_Z   1
loop_
 _symmetry_equiv_pos_site_id
 _symmetry_equiv_pos_as_xyz
  1  'x, y, z'
loop_
 _atom_site_type_symbol
 _atom_site_label
 _atom_site_symmetry_multiplicity
 _atom_site_fract_x
 _atom_site_fract_y
 _atom_site_fract_z
 _atom_site_occupancy
  Lu  Lu0  1  0.00000000  0.00000000  0.00000000  1
  Lu  Lu1  1  0.00000000  0.00000000  0.34225800  1
  Lu  Lu2  1  0.00000000  0.00000000  0.65774200  1
  Ni  Ni3  1  0.33333336  0.66666667  1.00000001  1
  Ni  Ni4  1  0.66666669  0.33333333  1.00000001  1
  Ni  Ni5  1  0.50000001  0.00000000  0.50000000  1
  Ni  Ni6  1  0.50000003  0.50000000  0.50000000  1
  Ni  Ni7  1  0.00000002  0.50000000  0.50000000  1
  Ni  Ni8  1  0.50000001  0.00000000  0.20160500  1
  Ni  Ni9  1  0.50000003  0.50000000  0.20160500  1
  Ni  Ni10  1  0.00000002  0.50000000  0.20160500  1
  Ni  Ni11  1  0.50000001  0.00000000  0.79839501  1
  Ni  Ni12  1  0.50000003  0.50000000  0.79839501  1
  Ni  Ni13  1  0.00000002  0.50000000  0.79839501  1
  B  B14  1  0.33333336  0.66666667  0.34974200  1
  B  B15  1  0.66666669  0.33333333  0.34974200  1
  B  B16  1  0.66666669  0.33333333  0.65025800  1
  B  B17  1  0.33333336  0.66666667  0.65025800  1
