# generated using pymatgen
data_BaPaO6
_symmetry_space_group_name_H-M   'P 1'
_cell_length_a   5.15481424
_cell_length_b   5.15481424
_cell_length_c   5.15481377
_cell_angle_alpha   97.21006775
_cell_angle_beta   97.21006775
_cell_angle_gamma   97.21007538
_symmetry_Int_Tables_number   1
_chemical_formula_structural   BaPaO6
_chemical_formula_sum   'Ba1 Pa1 O6'
_cell_volume   133.42092655
_cell_formula_units_Z   1
loop_
 _symmetry_equiv_pos_site_id
 _symmetry_equiv_pos_as_xyz
  1  'x, y, z'
loop_
 _atom_site_type_symbol
 _atom_site_label
 _atom_site_symmetry_multiplicity
 _atom_site_fract_x
 _atom_site_fract_y
 _atom_site_fract_z
 _atom_site_occupancy
  Ba  Ba0  1  0.50000002  0.50000001  0.49999998  1
  Pa  Pa1  1  0.00000000  0.00000000  0.00000000  1
  O  O2  1  0.78784004  0.73098802  0.07842695  1
  O  O3  1  0.73098802  0.07842700  0.78784000  1
  O  O4  1  0.92157303  0.21216001  0.26901197  1
  O  O5  1  0.26901203  0.92157303  0.21215997  1
  O  O6  1  0.21216001  0.26901201  0.92157301  1
  O  O7  1  0.07842702  0.78784002  0.73098799  1
