# generated using pymatgen
data_Tb6AlPt9
_symmetry_space_group_name_H-M   'P 1'
_cell_length_a   5.79712009
_cell_length_b   7.48837471
_cell_length_c   9.18651772
_cell_angle_alpha   82.98489380
_cell_angle_beta   71.60759735
_cell_angle_gamma   67.22740173
_symmetry_Int_Tables_number   1
_chemical_formula_structural   Tb6AlPt9
_chemical_formula_sum   'Tb6 Al1 Pt9'
_cell_volume   348.92582105
_cell_formula_units_Z   1
loop_
 _symmetry_equiv_pos_site_id
 _symmetry_equiv_pos_as_xyz
  1  'x, y, z'
loop_
 _atom_site_type_symbol
 _atom_site_label
 _atom_site_symmetry_multiplicity
 _atom_site_fract_x
 _atom_site_fract_y
 _atom_site_fract_z
 _atom_site_occupancy
  Tb  Tb0  1  0.24516497  0.50967002  0.50000004  1
  Tb  Tb1  1  0.49516499  0.00967000  1.00000005  1
  Tb  Tb2  1  0.18647395  0.99378404  0.66377006  1
  Tb  Tb3  1  0.81974193  0.99378404  0.33623006  1
  Tb  Tb4  1  0.90597195  0.49378402  0.16377004  1
  Tb  Tb5  1  0.60024396  0.49378402  0.83623006  1
  Pt  Pt6  1  0.02559797  0.70187103  0.87160305  1
  Pt  Pt7  1  0.27253096  0.70187103  0.12839703  1
  Pt  Pt8  1  0.15092799  0.20187101  0.37160302  1
  Pt  Pt9  1  0.64720097  0.20187101  0.62839705  1
  Pt  Pt10  1  0.16997198  0.33527501  0.82605705  1
  Pt  Pt11  1  0.49475197  0.33527501  0.17394403  1
  Al  Al12  1  0.94386397  0.11227200  0.00000002  1
  Pt  Pt13  1  0.69386395  0.61227202  0.50000005  1
  Pt  Pt14  1  0.74602994  0.83527403  0.67394306  1
  Pt  Pt15  1  0.41869695  0.83527403  0.32605604  1
