# generated using pymatgen
data_Al2TlSe2
_symmetry_space_group_name_H-M   'P 1'
_cell_length_a   4.10835218
_cell_length_b   4.10835218
_cell_length_c   6.67705822
_cell_angle_alpha   107.91747284
_cell_angle_beta   107.91747284
_cell_angle_gamma   90.00000000
_symmetry_Int_Tables_number   1
_chemical_formula_structural   Al2TlSe2
_chemical_formula_sum   'Al2 Tl1 Se2'
_cell_volume   101.47345033
_cell_formula_units_Z   1
loop_
 _symmetry_equiv_pos_site_id
 _symmetry_equiv_pos_as_xyz
  1  'x, y, z'
loop_
 _atom_site_type_symbol
 _atom_site_label
 _atom_site_symmetry_multiplicity
 _atom_site_fract_x
 _atom_site_fract_y
 _atom_site_fract_z
 _atom_site_occupancy
  Tl  Tl0  1  0.00000000  0.00000000  0.00000000  1
  Se  Se1  1  0.36504296  0.36504298  0.73008600  1
  Se  Se2  1  0.63495694  0.63495696  0.26991396  1
  Al  Al3  1  0.24999996  0.74999995  0.49999998  1
  Al  Al4  1  0.74999994  0.24999998  0.49999998  1
