# generated using pymatgen
data_La(GdTe)3
_symmetry_space_group_name_H-M   'P 1'
_cell_length_a   8.24508190
_cell_length_b   8.24508190
_cell_length_c   8.24508190
_cell_angle_alpha   109.47122192
_cell_angle_beta   109.47122192
_cell_angle_gamma   109.47122192
_symmetry_Int_Tables_number   1
_chemical_formula_structural   La(GdTe)3
_chemical_formula_sum   'La2 Gd6 Te6'
_cell_volume   431.48232534
_cell_formula_units_Z   2
loop_
 _symmetry_equiv_pos_site_id
 _symmetry_equiv_pos_as_xyz
  1  'x, y, z'
loop_
 _atom_site_type_symbol
 _atom_site_label
 _atom_site_symmetry_multiplicity
 _atom_site_fract_x
 _atom_site_fract_y
 _atom_site_fract_z
 _atom_site_occupancy
  La  La0  1  0.00000003  0.49999999  0.14113102  1
  Gd  Gd1  1  0.35886901  0.35886900  0.85886898  1
  La  La2  1  0.64113097  0.00000000  0.00000002  1
  Gd  Gd3  1  0.50000002  0.64113099  0.50000002  1
  Gd  Gd4  1  0.14113106  0.99999999  0.00000006  1
  Gd  Gd5  1  0.49999999  0.14113100  0.49999999  1
  Gd  Gd6  1  0.99999999  0.49999999  0.64113102  1
  Gd  Gd7  1  0.85886902  0.85886899  0.35886905  1
  Te  Te8  1  0.87499997  0.12500000  0.74999999  1
  Te  Te9  1  0.75000001  0.62499999  0.87500001  1
  Te  Te10  1  0.25000004  0.87499999  0.62500002  1
  Te  Te11  1  0.12500001  0.25000000  0.37500000  1
  Te  Te12  1  0.37500003  0.74999999  0.12500004  1
  Te  Te13  1  0.62500000  0.37499999  0.25000002  1
