# generated using pymatgen
data_La6Al7
_symmetry_space_group_name_H-M   'P 1'
_cell_length_a   4.38600588
_cell_length_b   4.39037514
_cell_length_c   16.91011620
_cell_angle_alpha   90.00000000
_cell_angle_beta   90.00000000
_cell_angle_gamma   90.00000000
_symmetry_Int_Tables_number   1
_chemical_formula_structural   La6Al7
_chemical_formula_sum   'La6 Al7'
_cell_volume   325.62476822
_cell_formula_units_Z   1
loop_
 _symmetry_equiv_pos_site_id
 _symmetry_equiv_pos_as_xyz
  1  'x, y, z'
loop_
 _atom_site_type_symbol
 _atom_site_label
 _atom_site_symmetry_multiplicity
 _atom_site_fract_x
 _atom_site_fract_y
 _atom_site_fract_z
 _atom_site_occupancy
  La  La0  1  0.00000000  0.74999998  0.90444999  1
  Al  Al1  1  0.50000001  0.74999998  0.39806200  1
  La  La2  1  0.50000001  0.24999999  0.60400599  1
  Al  Al3  1  0.00000000  0.24999999  0.10115800  1
  Al  Al4  1  0.00000000  0.74999998  0.69084499  1
  Al  Al5  1  0.50000001  0.74999998  0.76635199  1
  La  La6  1  0.00000000  0.74999998  0.25498600  1
  Al  Al7  1  0.00000000  0.24999999  0.76456299  1
  Al  Al8  1  0.50000001  0.24999999  0.24526900  1
  Al  Al9  1  0.00000000  0.74999998  0.54535499  1
  La  La10  1  0.50000001  0.74999998  0.06582800  1
  La  La11  1  0.50000001  0.24999999  0.94292999  1
  La  La12  1  0.00000000  0.24999999  0.42819700  1
