# generated using pymatgen
data_LaBi6IO2
_symmetry_space_group_name_H-M   'P 1'
_cell_length_a   5.61145687
_cell_length_b   6.42116213
_cell_length_c   7.62269545
_cell_angle_alpha   114.90955353
_cell_angle_beta   90.00000000
_cell_angle_gamma   90.00000000
_symmetry_Int_Tables_number   1
_chemical_formula_structural   LaBi6IO2
_chemical_formula_sum   'La1 Bi6 I1 O2'
_cell_volume   249.11081013
_cell_formula_units_Z   1
loop_
 _symmetry_equiv_pos_site_id
 _symmetry_equiv_pos_as_xyz
  1  'x, y, z'
loop_
 _atom_site_type_symbol
 _atom_site_label
 _atom_site_symmetry_multiplicity
 _atom_site_fract_x
 _atom_site_fract_y
 _atom_site_fract_z
 _atom_site_occupancy
  La  La0  1  0.25000001  0.41664198  0.83328400  1
  Bi  Bi1  1  0.25000001  0.78686697  0.57373397  1
  I  I2  1  0.75000002  0.58335797  0.16671598  1
  Bi  Bi3  1  0.75000002  0.21313299  0.42626600  1
  O  O4  1  0.00000000  0.00000000  0.00000000  1
  O  O5  1  0.50000001  0.00000000  -0.00000000  1
  Bi  Bi6  1  0.25000001  0.93027196  0.20070596  1
  Bi  Bi7  1  0.75000002  0.72956597  0.79929398  1
  Bi  Bi8  1  0.75000002  0.06972800  0.79929401  1
  Bi  Bi9  1  0.25000001  0.27043399  0.20070599  1
