# generated using pymatgen
data_Zr8NbAlSi3NiSbPIr2OsRu
_symmetry_space_group_name_H-M   'P 1'
_cell_length_a   7.67679739
_cell_length_b   7.67679739
_cell_length_c   7.67679739
_cell_angle_alpha   109.47122192
_cell_angle_beta   109.47122192
_cell_angle_gamma   109.47122192
_symmetry_Int_Tables_number   1
_chemical_formula_structural   Zr8NbAlSi3NiSbPIr2OsRu
_chemical_formula_sum   'Zr8 Nb1 Al1 Si3 Ni1 Sb1 P1 Ru1 Ir2 Os1'
_cell_volume   348.27181114
_cell_formula_units_Z   1
loop_
 _symmetry_equiv_pos_site_id
 _symmetry_equiv_pos_as_xyz
  1  'x, y, z'
loop_
 _atom_site_type_symbol
 _atom_site_label
 _atom_site_symmetry_multiplicity
 _atom_site_fract_x
 _atom_site_fract_y
 _atom_site_fract_z
 _atom_site_occupancy
  Si  Si0  1  0.65963504  0.65963502  0.00000005  1
  Ru  Ru1  1  0.65963500  0.00000000  0.65963501  1
  Ir  Ir2  1  0.34036500  0.00000000  0.34036500  1
  Ir  Ir3  1  0.00000002  0.34036501  0.34036502  1
  Ni  Ni4  1  0.00000004  0.65963502  0.65963503  1
  P  P5  1  0.34036502  0.34036501  0.00000003  1
  Zr  Zr6  1  0.75000002  0.25000001  0.50000003  1
  Zr  Zr7  1  0.75000003  0.50000002  0.25000004  1
  Zr  Zr8  1  0.25000003  0.50000002  0.75000003  1
  Zr  Zr9  1  0.50000005  0.75000002  0.25000005  1
  Al  Al10  1  0.50000002  0.25000001  0.75000002  1
  Zr  Zr11  1  0.25000005  0.75000002  0.50000004  1
  Zr  Zr12  1  0.66816204  0.66816202  0.66816205  1
  Sb  Sb13  1  1.00000006  1.00000003  0.66816207  1
  Si  Si14  1  0.00000004  0.66816202  0.00000004  1
  Si  Si15  1  0.66816200  0.00000000  0.00000002  1
  Zr  Zr16  1  1.00000002  0.33183801  0.00000004  1
  Zr  Zr17  1  0.33183806  1.00000003  0.00000006  1
  Nb  Nb18  1  1.00000006  1.00000003  0.33183808  1
  Os  Os19  1  0.33183802  0.33183801  0.33183802  1
