# generated using pymatgen
data_AlCoTe11
_symmetry_space_group_name_H-M   'P 1'
_cell_length_a   7.68162489
_cell_length_b   7.68162489
_cell_length_c   7.68162489
_cell_angle_alpha   60.00000000
_cell_angle_beta   60.00000000
_cell_angle_gamma   60.00000000
_symmetry_Int_Tables_number   1
_chemical_formula_structural   AlCoTe11
_chemical_formula_sum   'Al1 Co1 Te11'
_cell_volume   320.51199658
_cell_formula_units_Z   1
loop_
 _symmetry_equiv_pos_site_id
 _symmetry_equiv_pos_as_xyz
  1  'x, y, z'
loop_
 _atom_site_type_symbol
 _atom_site_label
 _atom_site_symmetry_multiplicity
 _atom_site_fract_x
 _atom_site_fract_y
 _atom_site_fract_z
 _atom_site_occupancy
  Te  Te0  1  0.11755500  0.11755400  0.64733699  1
  Te  Te1  1  0.11755500  0.11755400  0.11755400  1
  Te  Te2  1  0.11755500  0.64733699  0.11755400  1
  Te  Te3  1  0.64733799  0.11755400  0.11755400  1
  Co  Co4  1  0.50000000  0.50000000  0.50000000  1
  Te  Te5  1  0.36564000  0.36564100  0.90307799  1
  Al  Al6  1  0.36564000  0.36564100  0.36564100  1
  Te  Te7  1  0.36564000  0.90307799  0.36564100  1
  Te  Te8  1  0.90307699  0.36564100  0.36564100  1
  Te  Te9  1  0.87816899  0.87816799  0.36549500  1
  Te  Te10  1  0.87816899  0.87816799  0.87816799  1
  Te  Te11  1  0.87816899  0.36549500  0.87816799  1
  Te  Te12  1  0.36549600  0.87816799  0.87816799  1
