# generated using pymatgen
data_Hf3Al(SiRu)4
_symmetry_space_group_name_H-M   'P 1'
_cell_length_a   3.70268011
_cell_length_b   6.29053116
_cell_length_c   7.30167198
_cell_angle_alpha   90.00000000
_cell_angle_beta   90.00000000
_cell_angle_gamma   90.00000000
_symmetry_Int_Tables_number   1
_chemical_formula_structural   Hf3Al(SiRu)4
_chemical_formula_sum   'Hf3 Al1 Si4 Ru4'
_cell_volume   170.06926314
_cell_formula_units_Z   1
loop_
 _symmetry_equiv_pos_site_id
 _symmetry_equiv_pos_as_xyz
  1  'x, y, z'
loop_
 _atom_site_type_symbol
 _atom_site_label
 _atom_site_symmetry_multiplicity
 _atom_site_fract_x
 _atom_site_fract_y
 _atom_site_fract_z
 _atom_site_occupancy
  Al  Al0  1  0.24999999  0.01935300  0.33854300  1
  Hf  Hf1  1  0.24999999  0.51935299  0.16145700  1
  Hf  Hf2  1  0.74999998  0.98064698  0.66145700  1
  Hf  Hf3  1  0.74999998  0.48064699  0.83854300  1
  Ru  Ru4  1  0.24999999  0.15730800  0.92756500  1
  Ru  Ru5  1  0.24999999  0.65730798  0.57243500  1
  Ru  Ru6  1  0.74999998  0.84269198  0.07243500  1
  Ru  Ru7  1  0.74999998  0.34269199  0.42756500  1
  Si  Si8  1  0.24999999  0.28610699  0.62380800  1
  Si  Si9  1  0.24999999  0.78610698  0.87619200  1
  Si  Si10  1  0.74999998  0.71389298  0.37619200  1
  Si  Si11  1  0.74999998  0.21389299  0.12380800  1
