# generated using pymatgen
data_CePt2
_symmetry_space_group_name_H-M   'P 1'
_cell_length_a   4.03925085
_cell_length_b   4.03925085
_cell_length_c   7.61419487
_cell_angle_alpha   90.00000000
_cell_angle_beta   90.00000000
_cell_angle_gamma   90.00000000
_symmetry_Int_Tables_number   1
_chemical_formula_structural   CePt2
_chemical_formula_sum   'Ce2 Pt4'
_cell_volume   124.22975758
_cell_formula_units_Z   2
loop_
 _symmetry_equiv_pos_site_id
 _symmetry_equiv_pos_as_xyz
  1  'x, y, z'
loop_
 _atom_site_type_symbol
 _atom_site_label
 _atom_site_symmetry_multiplicity
 _atom_site_fract_x
 _atom_site_fract_y
 _atom_site_fract_z
 _atom_site_occupancy
  Ce  Ce0  1  0.00000000  0.50000002  0.34275101  1
  Ce  Ce1  1  0.50000002  0.00000000  0.65724901  1
  Pt  Pt2  1  0.50000002  0.50000002  -0.00000000  1
  Pt  Pt3  1  0.00000000  0.00000000  0.00000000  1
  Pt  Pt4  1  0.50000002  0.00000000  0.24741200  1
  Pt  Pt5  1  0.00000000  0.50000002  0.75258801  1
