# generated using pymatgen
data_Eu4Ag3Ge5
_symmetry_space_group_name_H-M   'P 1'
_cell_length_a   4.70029497
_cell_length_b   7.61511183
_cell_length_c   7.99059916
_cell_angle_alpha   90.00000000
_cell_angle_beta   90.00000000
_cell_angle_gamma   90.00000000
_symmetry_Int_Tables_number   1
_chemical_formula_structural   Eu4Ag3Ge5
_chemical_formula_sum   'Eu4 Ag3 Ge5'
_cell_volume   286.00968767
_cell_formula_units_Z   1
loop_
 _symmetry_equiv_pos_site_id
 _symmetry_equiv_pos_as_xyz
  1  'x, y, z'
loop_
 _atom_site_type_symbol
 _atom_site_label
 _atom_site_symmetry_multiplicity
 _atom_site_fract_x
 _atom_site_fract_y
 _atom_site_fract_z
 _atom_site_occupancy
  Eu  Eu0  1  0.25000000  0.51910601  0.19707900  1
  Eu  Eu1  1  0.75000000  0.48089401  0.80292098  1
  Eu  Eu2  1  0.75000000  0.98089402  0.69707899  1
  Eu  Eu3  1  0.25000000  0.01910600  0.30292099  1
  Ag  Ag4  1  0.25000000  0.68270702  0.58850799  1
  Ag  Ag5  1  0.75000000  0.31729301  0.41149199  1
  Ag  Ag6  1  0.75000000  0.81729302  0.08850800  1
  Ge  Ge7  1  0.25000000  0.18270700  0.91149198  1
  Ge  Ge8  1  0.25000000  0.80506402  0.91130998  1
  Ge  Ge9  1  0.75000000  0.19493600  0.08869000  1
  Ge  Ge10  1  0.75000000  0.69493602  0.41130999  1
  Ge  Ge11  1  0.25000000  0.30506401  0.58868999  1
