# generated using pymatgen
data_CeGaPd4
_symmetry_space_group_name_H-M   'P 1'
_cell_length_a   4.21176386
_cell_length_b   5.25790739
_cell_length_c   5.25790739
_cell_angle_alpha   118.55427551
_cell_angle_beta   90.00000000
_cell_angle_gamma   90.00000000
_symmetry_Int_Tables_number   1
_chemical_formula_structural   CeGaPd4
_chemical_formula_sum   'Ce1 Ga1 Pd4'
_cell_volume   102.27388619
_cell_formula_units_Z   1
loop_
 _symmetry_equiv_pos_site_id
 _symmetry_equiv_pos_as_xyz
  1  'x, y, z'
loop_
 _atom_site_type_symbol
 _atom_site_label
 _atom_site_symmetry_multiplicity
 _atom_site_fract_x
 _atom_site_fract_y
 _atom_site_fract_z
 _atom_site_occupancy
  Ce  Ce0  1  0.00000000  0.00000000  0.00000000  1
  Pd  Pd1  1  0.50000002  0.00000000  0.49999998  1
  Pd  Pd2  1  0.50000002  0.49999997  -0.00000001  1
  Pd  Pd3  1  -0.00000000  0.33467598  0.66532397  1
  Pd  Pd4  1  -0.00000000  0.66532397  0.33467597  1
  Ga  Ga5  1  0.50000002  0.49999997  0.49999997  1
