# generated using pymatgen
data_Zr3Al7Ni2
_symmetry_space_group_name_H-M   'P 1'
_cell_length_a   5.13327837
_cell_length_b   5.13327837
_cell_length_c   8.84097385
_cell_angle_alpha   73.12337494
_cell_angle_beta   73.12336731
_cell_angle_gamma   60.00000000
_symmetry_Int_Tables_number   1
_chemical_formula_structural   Zr3Al7Ni2
_chemical_formula_sum   'Zr3 Al7 Ni2'
_cell_volume   190.07947244
_cell_formula_units_Z   1
loop_
 _symmetry_equiv_pos_site_id
 _symmetry_equiv_pos_as_xyz
  1  'x, y, z'
loop_
 _atom_site_type_symbol
 _atom_site_label
 _atom_site_symmetry_multiplicity
 _atom_site_fract_x
 _atom_site_fract_y
 _atom_site_fract_z
 _atom_site_occupancy
  Zr  Zr0  1  0.62523902  0.62523901  0.12428298  1
  Zr  Zr1  1  0.12459200  0.12459300  0.62622299  1
  Al  Al2  1  0.99831004  0.99831101  0.00506798  1
  Zr  Zr3  1  0.50172902  0.50173001  0.49481198  1
  Al  Al4  1  0.56082902  0.06006000  0.81828198  1
  Al  Al5  1  0.06258401  0.56728901  0.30754300  1
  Al  Al6  1  0.06006001  0.56082901  0.81828199  1
  Al  Al7  1  0.56729002  0.06258300  0.30754298  1
  Al  Al8  1  0.81338403  0.81338501  0.55984698  1
  Ni  Ni9  1  0.31256901  0.31257000  0.06229199  1
  Ni  Ni10  1  0.56082902  0.56082901  0.81828198  1
  Al  Al11  1  0.06258400  0.06258300  0.30754300  1
