# generated using pymatgen
data_Rb3Te13
_symmetry_space_group_name_H-M   'P 1'
_cell_length_a   6.74943399
_cell_length_b   7.55143404
_cell_length_c   15.55288506
_cell_angle_alpha   90.00000000
_cell_angle_beta   90.00000000
_cell_angle_gamma   90.00000000
_symmetry_Int_Tables_number   1
_chemical_formula_structural   Rb3Te13
_chemical_formula_sum   'Rb3 Te13'
_cell_volume   792.69797756
_cell_formula_units_Z   1
loop_
 _symmetry_equiv_pos_site_id
 _symmetry_equiv_pos_as_xyz
  1  'x, y, z'
loop_
 _atom_site_type_symbol
 _atom_site_label
 _atom_site_symmetry_multiplicity
 _atom_site_fract_x
 _atom_site_fract_y
 _atom_site_fract_z
 _atom_site_occupancy
  Rb  Rb0  1  0.07474900  0.50000000  0.69448600  1
  Te  Te1  1  0.92525100  0.00000000  0.19448600  1
  Te  Te2  1  0.92525100  0.00000000  0.80551400  1
  Rb  Rb3  1  0.48519100  0.50000000  0.50000000  1
  Rb  Rb4  1  0.51480900  0.00000000  0.00000000  1
  Te  Te5  1  0.07474900  0.50000000  0.30551400  1
  Te  Te6  1  0.93484700  0.20349700  0.50000000  1
  Te  Te7  1  0.36868400  0.50000000  0.10046900  1
  Te  Te8  1  0.93484700  0.79650300  0.50000000  1
  Te  Te9  1  0.63131600  0.00000000  0.60046900  1
  Te  Te10  1  0.63131600  0.00000000  0.39953100  1
  Te  Te11  1  0.06515300  0.29650300  -0.00000000  1
  Te  Te12  1  0.06515300  0.70349700  -0.00000000  1
  Te  Te13  1  0.36868400  0.50000000  0.89953100  1
  Te  Te14  1  0.71522800  0.50000000  -0.00000000  1
  Te  Te15  1  0.28477200  0.00000000  0.50000000  1
