# generated using pymatgen
data_VPO5
_symmetry_space_group_name_H-M   'P 1'
_cell_length_a   5.38643408
_cell_length_b   5.40826368
_cell_length_c   7.41760921
_cell_angle_alpha   107.10097504
_cell_angle_beta   107.56797028
_cell_angle_gamma   97.95235443
_symmetry_Int_Tables_number   1
_chemical_formula_structural   VPO5
_chemical_formula_sum   'V2 P2 O10'
_cell_volume   190.68448594
_cell_formula_units_Z   2
loop_
 _symmetry_equiv_pos_site_id
 _symmetry_equiv_pos_as_xyz
  1  'x, y, z'
loop_
 _atom_site_type_symbol
 _atom_site_label
 _atom_site_symmetry_multiplicity
 _atom_site_fract_x
 _atom_site_fract_y
 _atom_site_fract_z
 _atom_site_occupancy
  P  P0  1  0.33113799  0.14962800  0.75237100  1
  P  P1  1  0.66886197  0.85037201  0.24762898  1
  V  V2  1  -0.00000001  0.50000001  -0.00000001  1
  V  V3  1  -0.00000001  0.50000001  0.50000000  1
  O  O4  1  0.14670699  0.18750300  0.87884500  1
  O  O5  1  0.28653598  0.84976201  0.63646599  1
  O  O6  1  0.92607197  0.55158701  0.74154298  1
  O  O7  1  0.26991999  0.29761700  0.59970299  1
  O  O8  1  0.73007997  0.70238301  0.40029698  1
  O  O9  1  0.62648098  0.25621600  0.89399799  1
  O  O10  1  0.37351898  0.74378401  0.10600198  1
  O  O11  1  0.07392799  0.44841301  0.25845699  1
  O  O12  1  0.71346398  0.15023800  0.36353399  1
  O  O13  1  0.85329297  0.81249701  0.12115497  1
