# generated using pymatgen
data_PrY3O8
_symmetry_space_group_name_H-M   'P 1'
_cell_length_a   6.73292208
_cell_length_b   7.25928450
_cell_length_c   6.73887920
_cell_angle_alpha   62.47707367
_cell_angle_beta   60.18600082
_cell_angle_gamma   62.40412903
_symmetry_Int_Tables_number   1
_chemical_formula_structural   PrY3O8
_chemical_formula_sum   'Pr1 Y3 O8'
_cell_volume   241.48492123
_cell_formula_units_Z   1
loop_
 _symmetry_equiv_pos_site_id
 _symmetry_equiv_pos_as_xyz
  1  'x, y, z'
loop_
 _atom_site_type_symbol
 _atom_site_label
 _atom_site_symmetry_multiplicity
 _atom_site_fract_x
 _atom_site_fract_y
 _atom_site_fract_z
 _atom_site_occupancy
  Y  Y0  1  0.49986599  0.49940000  0.49979200  1
  Y  Y1  1  0.49936699  0.49995800  0.00131200  1
  Y  Y2  1  0.00115500  0.49973300  0.49954398  1
  Pr  Pr3  1  0.50006299  0.99982899  0.49994798  1
  O  O4  1  0.23936200  0.27796000  0.23973700  1
  O  O5  1  0.76020899  0.72186299  0.25746800  1
  O  O6  1  0.25753999  0.72164199  0.76006198  1
  O  O7  1  0.73895599  0.28301900  0.73929101  1
  O  O8  1  0.74268499  0.27808500  0.23982601  1
  O  O9  1  0.26032799  0.71887799  0.26020898  1
  O  O10  1  0.76066399  0.72181399  0.76021000  1
  O  O11  1  0.23980000  0.27782600  0.74261299  1
