# generated using pymatgen
data_Mn3VO8
_symmetry_space_group_name_H-M   'P 1'
_cell_length_a   4.92079306
_cell_length_b   5.22350550
_cell_length_c   5.89693403
_cell_angle_alpha   90.00000000
_cell_angle_beta   90.00000000
_cell_angle_gamma   90.90351868
_symmetry_Int_Tables_number   1
_chemical_formula_structural   Mn3VO8
_chemical_formula_sum   'Mn3 V1 O8'
_cell_volume   151.55470579
_cell_formula_units_Z   1
loop_
 _symmetry_equiv_pos_site_id
 _symmetry_equiv_pos_as_xyz
  1  'x, y, z'
loop_
 _atom_site_type_symbol
 _atom_site_label
 _atom_site_symmetry_multiplicity
 _atom_site_fract_x
 _atom_site_fract_y
 _atom_site_fract_z
 _atom_site_occupancy
  V  V0  1  0.00000000  0.74999999  0.82181700  1
  Mn  Mn1  1  0.00000000  0.25000000  0.17818300  1
  Mn  Mn2  1  0.50000000  0.74999999  0.31911700  1
  Mn  Mn3  1  0.49999999  0.25000000  0.68088300  1
  O  O4  1  0.26026900  0.40175500  0.38083900  1
  O  O5  1  0.73973099  0.09824500  0.38083900  1
  O  O6  1  0.73973099  0.59824500  0.61916100  1
  O  O7  1  0.26026900  0.90175499  0.61916100  1
  O  O8  1  0.21438600  0.43730500  0.89696700  1
  O  O9  1  0.78561399  0.06269500  0.89696700  1
  O  O10  1  0.78561399  0.56269500  0.10303300  1
  O  O11  1  0.21438600  0.93730499  0.10303300  1
