# generated using pymatgen
data_BaSr3I12
_symmetry_space_group_name_H-M   'P 1'
_cell_length_a   7.51634502
_cell_length_b   8.44079876
_cell_length_c   11.24411392
_cell_angle_alpha   90.00000000
_cell_angle_beta   90.00000000
_cell_angle_gamma   90.00000000
_symmetry_Int_Tables_number   1
_chemical_formula_structural   BaSr3I12
_chemical_formula_sum   'Ba1 Sr3 I12'
_cell_volume   713.37106618
_cell_formula_units_Z   1
loop_
 _symmetry_equiv_pos_site_id
 _symmetry_equiv_pos_as_xyz
  1  'x, y, z'
loop_
 _atom_site_type_symbol
 _atom_site_label
 _atom_site_symmetry_multiplicity
 _atom_site_fract_x
 _atom_site_fract_y
 _atom_site_fract_z
 _atom_site_occupancy
  I  I0  1  0.33589700  0.67839202  0.06586000  1
  I  I1  1  0.16410300  0.17839201  0.43414000  1
  I  I2  1  0.66410300  0.32160801  0.56586000  1
  I  I3  1  0.83589700  0.82160802  0.93414001  1
  I  I4  1  0.66410300  0.32160801  0.93414001  1
  I  I5  1  0.83589700  0.82160802  0.56586000  1
  I  I6  1  0.33589700  0.67839202  0.43414000  1
  I  I7  1  0.16410300  0.17839201  0.06586000  1
  I  I8  1  0.84991300  0.53671802  0.25000000  1
  I  I9  1  0.65008700  0.03671800  0.25000000  1
  I  I10  1  0.15008700  0.46328201  0.75000001  1
  I  I11  1  0.34991300  0.96328203  0.75000001  1
  Sr  Sr12  1  0.05492700  0.87926503  0.25000000  1
  Sr  Sr13  1  0.44507300  0.37926501  0.25000000  1
  Ba  Ba14  1  0.94507300  0.12073500  0.75000001  1
  Sr  Sr15  1  0.55492700  0.62073502  0.75000001  1
