# generated using pymatgen
data_NaLi2MnCoF12
_symmetry_space_group_name_H-M   'P 1'
_cell_length_a   6.49665928
_cell_length_b   6.49665928
_cell_length_c   6.49665928
_cell_angle_alpha   70.98983002
_cell_angle_beta   70.17164612
_cell_angle_gamma   109.57621765
_symmetry_Int_Tables_number   1
_chemical_formula_structural   NaLi2MnCoF12
_chemical_formula_sum   'Na1 Li2 Mn1 Co1 F12'
_cell_volume   211.06936089
_cell_formula_units_Z   1
loop_
 _symmetry_equiv_pos_site_id
 _symmetry_equiv_pos_as_xyz
  1  'x, y, z'
loop_
 _atom_site_type_symbol
 _atom_site_label
 _atom_site_symmetry_multiplicity
 _atom_site_fract_x
 _atom_site_fract_y
 _atom_site_fract_z
 _atom_site_occupancy
  Na  Na0  1  0.49999999  0.50000000  1.00000002  1
  Li  Li1  1  -0.00000002  0.50000000  -0.00000000  1
  Li  Li2  1  0.00000000  0.00000000  0.50000001  1
  Co  Co3  1  0.49999999  0.50000000  0.50000001  1
  F  F4  1  0.49999996  1.00000001  1.00000002  1
  F  F5  1  0.07886299  0.28689000  0.20802700  1
  F  F6  1  0.71730198  0.78405101  0.49864701  1
  Mn  Mn7  1  0.28269797  0.78405101  0.93325102  1
  F  F8  1  0.21571398  0.49690000  0.71881501  1
  F  F9  1  0.21571396  0.93452801  0.28118600  1
  F  F10  1  0.50508398  0.71311101  0.20802600  1
  F  F11  1  0.49491600  0.28688900  0.79197402  1
  F  F12  1  0.78428599  0.50310000  0.28118500  1
  F  F13  1  0.78428601  0.06547200  0.71881402  1
  F  F14  1  0.71730201  0.21594900  0.06674900  1
  F  F15  1  0.28269800  0.21594900  0.50135301  1
  F  F16  1  0.92113699  0.71311001  0.79197301  1
