# generated using pymatgen
data_MnO2
_symmetry_space_group_name_H-M   'P 1'
_cell_length_a   5.67268705
_cell_length_b   5.70857763
_cell_length_c   7.52107620
_cell_angle_alpha   71.89067078
_cell_angle_beta   71.55612183
_cell_angle_gamma   70.37802124
_symmetry_Int_Tables_number   1
_chemical_formula_structural   MnO2
_chemical_formula_sum   'Mn6 O12'
_cell_volume   211.84613325
_cell_formula_units_Z   6
loop_
 _symmetry_equiv_pos_site_id
 _symmetry_equiv_pos_as_xyz
  1  'x, y, z'
loop_
 _atom_site_type_symbol
 _atom_site_label
 _atom_site_symmetry_multiplicity
 _atom_site_fract_x
 _atom_site_fract_y
 _atom_site_fract_z
 _atom_site_occupancy
  Mn  Mn0  1  0.00000000  0.00000000  0.00000000  1
  Mn  Mn1  1  0.00000000  0.00000000  0.49999999  1
  Mn  Mn2  1  0.36698499  0.30337099  0.16695800  1
  Mn  Mn3  1  0.33010499  0.32255799  0.67347599  1
  Mn  Mn4  1  0.66989498  0.67744198  0.32652401  1
  Mn  Mn5  1  0.63301498  0.69662898  0.83304199  1
  O  O6  1  0.65363999  0.03249700  0.15848100  1
  O  O7  1  0.34635998  0.96750297  0.84151900  1
  O  O8  1  0.69422299  0.30824999  0.49769899  1
  O  O9  1  0.05469299  0.62145498  0.16530001  1
  O  O10  1  0.10985500  0.10571400  0.20441500  1
  O  O11  1  0.76429398  0.76583798  0.53708900  1
  O  O12  1  0.43112099  0.43523099  0.86929298  1
  O  O13  1  0.23570599  0.23416199  0.46291099  1
  O  O14  1  0.89014497  0.89428597  0.79558500  1
  O  O15  1  0.56887898  0.56476898  0.13070701  1
  O  O16  1  0.30577698  0.69174998  0.50230100  1
  O  O17  1  0.94530698  0.37854499  0.83469998  1
