# generated using pymatgen
data_Cs7LiI12
_symmetry_space_group_name_H-M   'P 1'
_cell_length_a   7.71726179
_cell_length_b   10.88893890
_cell_length_c   10.88893890
_cell_angle_alpha   62.11852646
_cell_angle_beta   69.24562073
_cell_angle_gamma   69.24562073
_symmetry_Int_Tables_number   1
_chemical_formula_structural   Cs7LiI12
_chemical_formula_sum   'Cs7 Li1 I12'
_cell_volume   736.36171469
_cell_formula_units_Z   1
loop_
 _symmetry_equiv_pos_site_id
 _symmetry_equiv_pos_as_xyz
  1  'x, y, z'
loop_
 _atom_site_type_symbol
 _atom_site_label
 _atom_site_symmetry_multiplicity
 _atom_site_fract_x
 _atom_site_fract_y
 _atom_site_fract_z
 _atom_site_occupancy
  Cs  Cs0  1  0.66092903  0.11557300  0.56256896  1
  Cs  Cs1  1  0.66092899  0.56256898  0.11557299  1
  Cs  Cs2  1  1.00000002  0.49999999  0.49999996  1
  Cs  Cs3  1  0.33907095  0.88442697  0.43743101  1
  Cs  Cs4  1  0.33907099  0.43743099  0.88442698  1
  I  I5  1  0.08658294  0.91341697  0.91341701  1
  Li  Li6  1  0.91341704  0.08658300  0.08658296  1
  I  I7  1  0.22967801  0.08981500  0.91018497  1
  I  I8  1  0.22967795  0.91018497  0.08981503  1
  I  I9  1  0.77032197  0.91018497  0.08981500  1
  I  I10  1  0.77032203  0.08981500  0.91018494  1
  Cs  Cs11  1  0.96389499  0.79591498  0.79591397  1
  I  I12  1  0.87295402  0.37132699  0.88276495  1
  I  I13  1  0.12704700  0.11723500  0.62867198  1
  I  I14  1  0.44427697  0.79591398  0.79591399  1
  I  I15  1  0.55572301  0.20408599  0.20408598  1
  I  I16  1  0.87295298  0.88276497  0.37132799  1
  Cs  Cs17  1  0.03610499  0.20408499  0.20408600  1
  I  I18  1  0.49999999  0.49999999  0.49999998  1
  I  I19  1  0.12704596  0.62867298  0.11723502  1
