# generated using pymatgen
data_Tm2InCu3
_symmetry_space_group_name_H-M   'P 1'
_cell_length_a   3.99300599
_cell_length_b   3.99300599
_cell_length_c   8.82319927
_cell_angle_alpha   90.00000000
_cell_angle_beta   90.00000000
_cell_angle_gamma   90.00000000
_symmetry_Int_Tables_number   1
_chemical_formula_structural   Tm2InCu3
_chemical_formula_sum   'Tm2 In1 Cu3'
_cell_volume   140.67794367
_cell_formula_units_Z   1
loop_
 _symmetry_equiv_pos_site_id
 _symmetry_equiv_pos_as_xyz
  1  'x, y, z'
loop_
 _atom_site_type_symbol
 _atom_site_label
 _atom_site_symmetry_multiplicity
 _atom_site_fract_x
 _atom_site_fract_y
 _atom_site_fract_z
 _atom_site_occupancy
  Tm  Tm0  1  0.00000000  0.50000000  0.71133198  1
  Tm  Tm1  1  0.50000000  0.00000000  0.28866799  1
  Cu  Cu2  1  0.00000000  0.00000000  0.00000000  1
  In  In3  1  0.50000000  0.50000000  -0.00000000  1
  Cu  Cu4  1  0.00000000  0.50000000  0.36854099  1
  Cu  Cu5  1  0.50000000  0.00000000  0.63145898  1
