# generated using pymatgen
data_Tm7Se8
_symmetry_space_group_name_H-M   'P 1'
_cell_length_a   3.62747908
_cell_length_b   10.81492424
_cell_length_c   10.81492424
_cell_angle_alpha   120.00000000
_cell_angle_beta   90.00000000
_cell_angle_gamma   90.00000000
_symmetry_Int_Tables_number   1
_chemical_formula_structural   Tm7Se8
_chemical_formula_sum   'Tm7 Se8'
_cell_volume   367.43668206
_cell_formula_units_Z   1
loop_
 _symmetry_equiv_pos_site_id
 _symmetry_equiv_pos_as_xyz
  1  'x, y, z'
loop_
 _atom_site_type_symbol
 _atom_site_label
 _atom_site_symmetry_multiplicity
 _atom_site_fract_x
 _atom_site_fract_y
 _atom_site_fract_z
 _atom_site_occupancy
  Tm  Tm0  1  0.75031698  0.38477199  0.89759299  1
  Tm  Tm1  1  0.75031698  0.10240600  0.48717799  1
  Tm  Tm2  1  0.75031698  0.51282099  0.61522699  1
  Se  Se3  1  0.24968299  0.61522799  0.10240700  1
  Se  Se4  1  0.24968299  0.89759398  0.51282200  1
  Se  Se5  1  0.24968299  0.48717899  0.38477300  1
  Tm  Tm6  1  0.49999999  0.00000000  -0.00000000  1
  Se  Se7  1  0.74745998  0.06550000  0.73077699  1
  Se  Se8  1  0.74745998  0.26922299  0.33472300  1
  Se  Se9  1  0.74745998  0.66527699  0.93449999  1
  Tm  Tm10  1  0.25253999  0.93449998  0.26922300  1
  Se  Se11  1  0.25253999  0.73077699  0.66527699  1
  Tm  Tm12  1  0.25253999  0.33472299  0.06550000  1
  Tm  Tm13  1  0.74912298  0.66666665  0.33333333  1
  Se  Se14  1  0.25087699  0.33333333  0.66666666  1
