# generated using pymatgen
data_Co4B
_symmetry_space_group_name_H-M   'P 1'
_cell_length_a   4.37115002
_cell_length_b   5.03944635
_cell_length_c   6.67789984
_cell_angle_alpha   90.00000000
_cell_angle_beta   90.00000000
_cell_angle_gamma   90.77528381
_symmetry_Int_Tables_number   1
_chemical_formula_structural   Co4B
_chemical_formula_sum   'Co12 B3'
_cell_volume   147.08848643
_cell_formula_units_Z   3
loop_
 _symmetry_equiv_pos_site_id
 _symmetry_equiv_pos_as_xyz
  1  'x, y, z'
loop_
 _atom_site_type_symbol
 _atom_site_label
 _atom_site_symmetry_multiplicity
 _atom_site_fract_x
 _atom_site_fract_y
 _atom_site_fract_z
 _atom_site_occupancy
  Co  Co0  1  0.34323400  0.30728800  0.81494302  1
  Co  Co1  1  0.15507799  0.82605500  0.18701200  1
  Co  Co2  1  0.65262699  0.68448600  0.30596701  1
  Co  Co3  1  0.84505199  0.18532700  0.68916102  1
  Co  Co4  1  0.65262699  0.68448600  0.69403302  1
  Co  Co5  1  0.84505199  0.18532700  0.31083901  1
  Co  Co6  1  0.34323400  0.30728800  0.18505700  1
  Co  Co7  1  0.15507799  0.82605500  0.81298802  1
  Co  Co8  1  0.86378799  0.46018100  -0.00000000  1
  Co  Co9  1  0.66468399  0.97763900  -0.00000000  1
  Co  Co10  1  0.13933699  0.53187500  0.50000001  1
  Co  Co11  1  0.36017700  0.02644300  0.50000001  1
  B  B12  1  0.43453899  0.62144100  -0.00000000  1
  B  B13  1  0.93202499  0.88199200  0.50000001  1
  B  B14  1  0.56346799  0.38411500  0.50000001  1
