# generated using pymatgen
data_Mg7Cd
_symmetry_space_group_name_H-M   'P 1'
_cell_length_a   4.58108091
_cell_length_b   6.26933813
_cell_length_c   6.26933908
_cell_angle_alpha   119.99999237
_cell_angle_beta   90.00000000
_cell_angle_gamma   90.00000000
_symmetry_Int_Tables_number   1
_chemical_formula_structural   Mg7Cd
_chemical_formula_sum   'Mg7 Cd1'
_cell_volume   155.93445302
_cell_formula_units_Z   1
loop_
 _symmetry_equiv_pos_site_id
 _symmetry_equiv_pos_as_xyz
  1  'x, y, z'
loop_
 _atom_site_type_symbol
 _atom_site_label
 _atom_site_symmetry_multiplicity
 _atom_site_fract_x
 _atom_site_fract_y
 _atom_site_fract_z
 _atom_site_occupancy
  Mg  Mg0  1  0.25000000  0.66666663  0.33333328  1
  Cd  Cd1  1  0.75000001  0.33333332  0.66666663  1
  Mg  Mg2  1  0.75000001  0.85128496  0.14871395  1
  Mg  Mg3  1  0.75000001  0.29742899  0.14871398  1
  Mg  Mg4  1  0.75000001  0.85128496  0.70256993  1
  Mg  Mg5  1  0.25000000  0.14871499  0.85128596  1
  Mg  Mg6  1  0.25000000  0.70257096  0.85128593  1
  Mg  Mg7  1  0.25000000  0.14871499  0.29742998  1
