# generated using pymatgen
data_Li3Y4FeO8
_symmetry_space_group_name_H-M   'P 1'
_cell_length_a   6.21573877
_cell_length_b   6.36666918
_cell_length_c   6.41930294
_cell_angle_alpha   119.03639221
_cell_angle_beta   90.00000000
_cell_angle_gamma   90.00000000
_symmetry_Int_Tables_number   1
_chemical_formula_structural   Li3Y4FeO8
_chemical_formula_sum   'Li3 Y4 Fe1 O8'
_cell_volume   222.10541584
_cell_formula_units_Z   1
loop_
 _symmetry_equiv_pos_site_id
 _symmetry_equiv_pos_as_xyz
  1  'x, y, z'
loop_
 _atom_site_type_symbol
 _atom_site_label
 _atom_site_symmetry_multiplicity
 _atom_site_fract_x
 _atom_site_fract_y
 _atom_site_fract_z
 _atom_site_occupancy
  Li  Li0  1  0.15835501  0.27376400  0.57061000  1
  Fe  Fe1  1  0.65835502  0.22623600  0.92938999  1
  Li  Li2  1  0.34164501  0.77376399  0.07061003  1
  Li  Li3  1  0.84164503  0.72623600  0.42939002  1
  Y  Y4  1  0.86753603  0.74345800  0.97461001  1
  Y  Y5  1  0.63246402  0.24345800  0.47461000  1
  Y  Y6  1  0.36753601  0.75654199  0.52539002  1
  Y  Y7  1  0.13246400  0.25654200  0.02539001  1
  O  O8  1  0.17806801  0.84007299  0.85621202  1
  O  O9  1  0.32193201  0.34007300  0.35621201  1
  O  O10  1  0.89434403  0.31247000  0.76298700  1
  O  O11  1  0.39434401  0.18753000  0.73701299  1
  O  O12  1  0.60565602  0.81246999  0.26298703  1
  O  O13  1  0.10565600  0.68753000  0.23701302  1
  O  O14  1  0.67806802  0.65992700  0.64378801  1
  O  O15  1  0.82193203  0.15992700  0.14378800  1
