# generated using pymatgen
data_RbH4Pb2Br5O2
_symmetry_space_group_name_H-M   'P 1'
_cell_length_a   4.69073915
_cell_length_b   8.76767159
_cell_length_c   10.17997742
_cell_angle_alpha   90.00000000
_cell_angle_beta   90.00000000
_cell_angle_gamma   92.34200287
_symmetry_Int_Tables_number   1
_chemical_formula_structural   RbH4Pb2Br5O2
_chemical_formula_sum   'Rb1 H4 Pb2 Br5 O2'
_cell_volume   418.32079734
_cell_formula_units_Z   1
loop_
 _symmetry_equiv_pos_site_id
 _symmetry_equiv_pos_as_xyz
  1  'x, y, z'
loop_
 _atom_site_type_symbol
 _atom_site_label
 _atom_site_symmetry_multiplicity
 _atom_site_fract_x
 _atom_site_fract_y
 _atom_site_fract_z
 _atom_site_occupancy
  Rb  Rb0  1  0.59466506  0.62110300  0.76360697  1
  Pb  Pb1  1  0.09466501  0.12110300  0.23639299  1
  H  H2  1  0.11607210  0.87393500  0.79627397  1
  H  H3  1  0.61607203  0.37393500  0.20372599  1
  H  H4  1  0.12357110  0.83761500  0.64649897  1
  H  H5  1  0.62357102  0.33761500  0.35350099  1
  Br  Br6  1  0.57157709  0.90540100  0.45466598  1
  Br  Br7  1  0.07157705  0.40540100  0.54533398  1
  Pb  Pb8  1  0.33639408  0.70239600  0.24348299  1
  Br  Br9  1  0.83639400  0.20239600  0.75651697  1
  Br  Br10  1  0.11067906  0.49915600  0.03170400  1
  Br  Br11  1  0.61067910  0.99915600  0.96829596  1
  O  O12  1  0.10304309  0.78959400  0.73291897  1
  O  O13  1  0.60304302  0.28959400  0.26708099  1
