# generated using pymatgen
data_LaFeAg2Te5
_symmetry_space_group_name_H-M   'P 1'
_cell_length_a   7.94573402
_cell_length_b   8.79457283
_cell_length_c   7.94573402
_cell_angle_alpha   116.85542297
_cell_angle_beta   90.00000000
_cell_angle_gamma   116.85542297
_symmetry_Int_Tables_number   1
_chemical_formula_structural   LaFeAg2Te5
_chemical_formula_sum   'La2 Fe2 Ag4 Te10'
_cell_volume   427.16190481
_cell_formula_units_Z   2
loop_
 _symmetry_equiv_pos_site_id
 _symmetry_equiv_pos_as_xyz
  1  'x, y, z'
loop_
 _atom_site_type_symbol
 _atom_site_label
 _atom_site_symmetry_multiplicity
 _atom_site_fract_x
 _atom_site_fract_y
 _atom_site_fract_z
 _atom_site_occupancy
  La  La0  1  0.24999996  0.49999994  0.24999996  1
  La  La1  1  0.74999996  0.49999994  0.74999996  1
  Ag  Ag2  1  0.16192300  0.00000000  0.66192300  1
  Ag  Ag3  1  0.33807692  0.99999989  0.16192292  1
  Ag  Ag4  1  0.66192300  0.00000000  0.83807700  1
  Ag  Ag5  1  0.83807692  0.99999989  0.33807692  1
  Fe  Fe6  1  0.74999996  0.49999994  0.24999996  1
  Fe  Fe7  1  0.24999996  0.49999994  0.74999996  1
  Te  Te8  1  0.01146394  0.72750792  0.21604394  1
  Te  Te9  1  0.28395598  0.27249197  0.48853598  1
  Te  Te10  1  0.98853598  0.27249197  0.78395598  1
  Te  Te11  1  0.48853598  0.27249197  0.98853598  1
  Te  Te12  1  0.78395598  0.27249197  0.28395598  1
  Te  Te13  1  0.51146394  0.72750792  0.01146394  1
  Te  Te14  1  0.21604394  0.72750792  0.71604394  1
  Te  Te15  1  0.71604394  0.72750792  0.51146394  1
  Te  Te16  1  0.00000000  0.00000000  0.00000000  1
  Te  Te17  1  0.50000000  0.00000000  0.50000000  1
