# generated using pymatgen
data_Sc3(MnSi)4
_symmetry_space_group_name_H-M   'P 1'
_cell_length_a   3.91871405
_cell_length_b   6.63581800
_cell_length_c   7.53759050
_cell_angle_alpha   116.11547089
_cell_angle_beta   105.06678009
_cell_angle_gamma   90.00000000
_symmetry_Int_Tables_number   1
_chemical_formula_structural   Sc3(MnSi)4
_chemical_formula_sum   'Sc3 Mn4 Si4'
_cell_volume   168.45949051
_cell_formula_units_Z   1
loop_
 _symmetry_equiv_pos_site_id
 _symmetry_equiv_pos_as_xyz
  1  'x, y, z'
loop_
 _atom_site_type_symbol
 _atom_site_label
 _atom_site_symmetry_multiplicity
 _atom_site_fract_x
 _atom_site_fract_y
 _atom_site_fract_z
 _atom_site_occupancy
  Sc  Sc0  1  0.62647498  0.12647500  0.25294998  1
  Sc  Sc1  1  0.37352495  0.87352499  0.74704998  1
  Sc  Sc2  1  0.49999996  0.50000000  -0.00000002  1
  Mn  Mn3  1  0.82265395  0.51916400  0.64530797  1
  Mn  Mn4  1  0.17734595  0.87385599  0.35469198  1
  Mn  Mn5  1  0.17734597  0.48083600  0.35469199  1
  Mn  Mn6  1  0.82265397  0.12614400  0.64530798  1
  Si  Si7  1  0.71880495  0.71880499  0.43760997  1
  Si  Si8  1  0.28119498  0.28119500  0.56238999  1
  Si  Si9  1  -0.00000001  0.19573700  -0.00000000  1
  Si  Si10  1  -0.00000004  0.80426299  -0.00000001  1
