# generated using pymatgen
data_CrSe2
_symmetry_space_group_name_H-M   'P 1'
_cell_length_a   3.91818309
_cell_length_b   5.34242296
_cell_length_c   6.28602314
_cell_angle_alpha   90.00000000
_cell_angle_beta   90.00000000
_cell_angle_gamma   90.00000000
_symmetry_Int_Tables_number   1
_chemical_formula_structural   CrSe2
_chemical_formula_sum   'Cr2 Se4'
_cell_volume   131.58275330
_cell_formula_units_Z   2
loop_
 _symmetry_equiv_pos_site_id
 _symmetry_equiv_pos_as_xyz
  1  'x, y, z'
loop_
 _atom_site_type_symbol
 _atom_site_label
 _atom_site_symmetry_multiplicity
 _atom_site_fract_x
 _atom_site_fract_y
 _atom_site_fract_z
 _atom_site_occupancy
  Cr  Cr0  1  0.00000000  0.00000000  0.00000000  1
  Cr  Cr1  1  0.49999999  0.50000000  0.49999999  1
  Se  Se2  1  0.00000000  0.22861100  0.36157399  1
  Se  Se3  1  0.00000000  0.77138901  0.63842599  1
  Se  Se4  1  0.49999999  0.72861101  0.13842600  1
  Se  Se5  1  0.49999999  0.27138900  0.86157398  1
