# generated using pymatgen
data_BeV5SnGe
_symmetry_space_group_name_H-M   'P 1'
_cell_length_a   4.86964703
_cell_length_b   4.86964703
_cell_length_c   4.86964703
_cell_angle_alpha   90.00000000
_cell_angle_beta   90.00000000
_cell_angle_gamma   90.00000000
_symmetry_Int_Tables_number   1
_chemical_formula_structural   BeV5SnGe
_chemical_formula_sum   'Be1 V5 Sn1 Ge1'
_cell_volume   115.47619048
_cell_formula_units_Z   1
loop_
 _symmetry_equiv_pos_site_id
 _symmetry_equiv_pos_as_xyz
  1  'x, y, z'
loop_
 _atom_site_type_symbol
 _atom_site_label
 _atom_site_symmetry_multiplicity
 _atom_site_fract_x
 _atom_site_fract_y
 _atom_site_fract_z
 _atom_site_occupancy
  V  V0  1  0.74370400  0.00000000  0.50000000  1
  Ge  Ge1  1  0.00000000  0.50000000  0.74370400  1
  Sn  Sn2  1  0.50000000  0.25629600  0.00000000  1
  V  V3  1  0.25629600  0.00000000  0.50000000  1
  V  V4  1  0.00000000  0.50000000  0.25629600  1
  Be  Be5  1  0.50000000  0.74370400  -0.00000000  1
  V  V6  1  0.50000000  0.50000000  0.50000000  1
  V  V7  1  0.00000000  0.00000000  0.00000000  1
