# generated using pymatgen
data_InTe2Se
_symmetry_space_group_name_H-M   'P 1'
_cell_length_a   6.28833580
_cell_length_b   6.28833580
_cell_length_c   7.71113777
_cell_angle_alpha   114.06317902
_cell_angle_beta   114.06317902
_cell_angle_gamma   90.00000000
_symmetry_Int_Tables_number   1
_chemical_formula_structural   InTe2Se
_chemical_formula_sum   'In2 Te4 Se2'
_cell_volume   249.12213630
_cell_formula_units_Z   2
loop_
 _symmetry_equiv_pos_site_id
 _symmetry_equiv_pos_as_xyz
  1  'x, y, z'
loop_
 _atom_site_type_symbol
 _atom_site_label
 _atom_site_symmetry_multiplicity
 _atom_site_fract_x
 _atom_site_fract_y
 _atom_site_fract_z
 _atom_site_occupancy
  Te  Te0  1  0.25000004  0.75000004  0.50000005  1
  Te  Te1  1  0.50000004  0.50000003  0.00000004  1
  Se  Se2  1  0.75000005  0.25000001  0.50000005  1
  Se  Se3  1  0.00000000  0.00000000  0.00000000  1
  In  In4  1  0.08998403  0.62500004  0.75000005  1
  Te  Te5  1  0.87500008  0.91001605  0.25000008  1
  In  In6  1  0.37500003  0.33998402  0.25000003  1
  Te  Te7  1  0.66001604  0.12500001  0.75000004  1
