# generated using pymatgen
data_CuTe3O8
_symmetry_space_group_name_H-M   'P 1'
_cell_length_a   4.96887493
_cell_length_b   4.96887493
_cell_length_c   7.62578392
_cell_angle_alpha   90.00000000
_cell_angle_beta   90.00000000
_cell_angle_gamma   90.00000000
_symmetry_Int_Tables_number   1
_chemical_formula_structural   CuTe3O8
_chemical_formula_sum   'Cu1 Te3 O8'
_cell_volume   188.27845516
_cell_formula_units_Z   1
loop_
 _symmetry_equiv_pos_site_id
 _symmetry_equiv_pos_as_xyz
  1  'x, y, z'
loop_
 _atom_site_type_symbol
 _atom_site_label
 _atom_site_symmetry_multiplicity
 _atom_site_fract_x
 _atom_site_fract_y
 _atom_site_fract_z
 _atom_site_occupancy
  Te  Te0  1  0.03155800  0.03155800  -0.00000000  1
  Cu  Cu1  1  0.46844201  0.53155801  0.75000001  1
  Te  Te2  1  0.53155801  0.46844201  0.25000000  1
  Te  Te3  1  0.96844201  0.96844201  0.50000001  1
  O  O4  1  0.25477600  0.14535400  0.19051700  1
  O  O5  1  0.35464600  0.75477601  0.94051701  1
  O  O6  1  0.64535401  0.24522400  0.44051700  1
  O  O7  1  0.75477601  0.35464600  0.05948300  1
  O  O8  1  0.24522400  0.64535401  0.55948301  1
  O  O9  1  0.74522401  0.85464601  0.69051701  1
  O  O10  1  0.14535400  0.25477600  0.80948301  1
  O  O11  1  0.85464601  0.74522401  0.30948300  1
