# generated using pymatgen
data_Ce2Al5SiPt2
_symmetry_space_group_name_H-M   'P 1'
_cell_length_a   5.91580200
_cell_length_b   6.06477213
_cell_length_c   6.06477213
_cell_angle_alpha   116.26697540
_cell_angle_beta   90.00000000
_cell_angle_gamma   90.00000000
_symmetry_Int_Tables_number   1
_chemical_formula_structural   Ce2Al5SiPt2
_chemical_formula_sum   'Ce2 Al5 Si1 Pt2'
_cell_volume   195.12366875
_cell_formula_units_Z   1
loop_
 _symmetry_equiv_pos_site_id
 _symmetry_equiv_pos_as_xyz
  1  'x, y, z'
loop_
 _atom_site_type_symbol
 _atom_site_label
 _atom_site_symmetry_multiplicity
 _atom_site_fract_x
 _atom_site_fract_y
 _atom_site_fract_z
 _atom_site_occupancy
  Ce  Ce0  1  0.25000000  0.76634096  0.23365896  1
  Ce  Ce1  1  0.75000000  0.23365899  0.76634097  1
  Pt  Pt2  1  0.25000000  0.33450098  0.66549896  1
  Pt  Pt3  1  0.75000000  0.66549897  0.33450096  1
  Al  Al4  1  -0.00000000  0.71606596  0.71606595  1
  Al  Al5  1  0.50000000  0.71606596  0.71606595  1
  Al  Al6  1  1.00000000  0.28393399  0.28393398  1
  Al  Al7  1  0.50000000  0.28393399  0.28393398  1
  Al  Al8  1  0.25000000  0.09435300  0.90564697  1
  Si  Si9  1  0.75000000  0.90564695  0.09435296  1
