# generated using pymatgen
data_Pr2ScNbO12
_symmetry_space_group_name_H-M   'P 1'
_cell_length_a   5.40780878
_cell_length_b   5.40780878
_cell_length_c   9.21894169
_cell_angle_alpha   90.00000000
_cell_angle_beta   90.00000000
_cell_angle_gamma   90.00000000
_symmetry_Int_Tables_number   1
_chemical_formula_structural   Pr2ScNbO12
_chemical_formula_sum   'Pr2 Sc1 Nb1 O12'
_cell_volume   269.60237967
_cell_formula_units_Z   1
loop_
 _symmetry_equiv_pos_site_id
 _symmetry_equiv_pos_as_xyz
  1  'x, y, z'
loop_
 _atom_site_type_symbol
 _atom_site_label
 _atom_site_symmetry_multiplicity
 _atom_site_fract_x
 _atom_site_fract_y
 _atom_site_fract_z
 _atom_site_occupancy
  Sc  Sc0  1  0.00000000  0.00000000  0.00000000  1
  Nb  Nb1  1  0.00000000  0.00000000  0.50000002  1
  Pr  Pr2  1  0.50000002  0.50000002  0.25000001  1
  Pr  Pr3  1  0.50000002  0.50000002  0.75000003  1
  O  O4  1  0.27428701  0.27428701  0.00000000  1
  O  O5  1  0.72571303  0.72571303  0.00000000  1
  O  O6  1  0.72571303  0.27428701  0.50000002  1
  O  O7  1  0.27428701  0.72571303  0.50000002  1
  O  O8  1  0.20155401  0.20155401  0.34692501  1
  O  O9  1  0.79844603  0.79844603  0.65307502  1
  O  O10  1  0.79844603  0.79844603  0.34692501  1
  O  O11  1  0.79844603  0.20155401  0.84692503  1
  O  O12  1  0.79844603  0.20155401  0.15307501  1
  O  O13  1  0.20155401  0.20155401  0.65307502  1
  O  O14  1  0.20155401  0.79844603  0.15307501  1
  O  O15  1  0.20155401  0.79844603  0.84692503  1
