# generated using pymatgen
data_Mg7Ag
_symmetry_space_group_name_H-M   'P 1'
_cell_length_a   4.62804699
_cell_length_b   6.21813822
_cell_length_c   6.21813774
_cell_angle_alpha   120.00000000
_cell_angle_beta   90.00000000
_cell_angle_gamma   90.00000000
_symmetry_Int_Tables_number   1
_chemical_formula_structural   Mg7Ag
_chemical_formula_sum   'Mg7 Ag1'
_cell_volume   154.97052380
_cell_formula_units_Z   1
loop_
 _symmetry_equiv_pos_site_id
 _symmetry_equiv_pos_as_xyz
  1  'x, y, z'
loop_
 _atom_site_type_symbol
 _atom_site_label
 _atom_site_symmetry_multiplicity
 _atom_site_fract_x
 _atom_site_fract_y
 _atom_site_fract_z
 _atom_site_occupancy
  Mg  Mg0  1  0.75000000  0.33333331  0.66666664  1
  Ag  Ag1  1  0.25000000  0.66666663  0.33333330  1
  Mg  Mg2  1  0.25000000  0.14936199  0.29872399  1
  Mg  Mg3  1  0.25000000  0.70127696  0.85063895  1
  Mg  Mg4  1  0.25000000  0.14936199  0.85063897  1
  Mg  Mg5  1  0.75000000  0.85063795  0.70127595  1
  Mg  Mg6  1  0.75000000  0.29872298  0.14936098  1
  Mg  Mg7  1  0.75000000  0.85063795  0.14936096  1
