# generated using pymatgen
data_K3Bi2
_symmetry_space_group_name_H-M   'P 1'
_cell_length_a   6.85963058
_cell_length_b   6.85963058
_cell_length_c   9.55412388
_cell_angle_alpha   101.11945343
_cell_angle_beta   101.11945343
_cell_angle_gamma   92.09468842
_symmetry_Int_Tables_number   1
_chemical_formula_structural   K3Bi2
_chemical_formula_sum   'K6 Bi4'
_cell_volume   431.57261401
_cell_formula_units_Z   2
loop_
 _symmetry_equiv_pos_site_id
 _symmetry_equiv_pos_as_xyz
  1  'x, y, z'
loop_
 _atom_site_type_symbol
 _atom_site_label
 _atom_site_symmetry_multiplicity
 _atom_site_fract_x
 _atom_site_fract_y
 _atom_site_fract_z
 _atom_site_occupancy
  K  K0  1  0.34544602  0.23979300  0.52079899  1
  K  K1  1  0.65455406  0.76020701  0.47920100  1
  K  K2  1  0.76020705  0.65455401  0.97920098  1
  K  K3  1  0.23979302  0.34544601  0.02079901  1
  K  K4  1  0.16382105  0.83617902  0.74999999  1
  K  K5  1  0.83617902  0.16382100  0.25000000  1
  Bi  Bi6  1  0.68598302  0.11159800  0.84665597  1
  Bi  Bi7  1  0.31401706  0.88840202  0.15334402  1
  Bi  Bi8  1  0.88840203  0.31401701  0.65334399  1
  Bi  Bi9  1  0.11159804  0.68598301  0.34665600  1
