# generated using pymatgen
data_Mn2O3
_symmetry_space_group_name_H-M   'P 1'
_cell_length_a   5.15066719
_cell_length_b   5.55205488
_cell_length_c   7.62171078
_cell_angle_alpha   83.97212982
_cell_angle_beta   89.78397369
_cell_angle_gamma   89.88745117
_symmetry_Int_Tables_number   1
_chemical_formula_structural   Mn2O3
_chemical_formula_sum   'Mn8 O12'
_cell_volume   216.74953296
_cell_formula_units_Z   4
loop_
 _symmetry_equiv_pos_site_id
 _symmetry_equiv_pos_as_xyz
  1  'x, y, z'
loop_
 _atom_site_type_symbol
 _atom_site_label
 _atom_site_symmetry_multiplicity
 _atom_site_fract_x
 _atom_site_fract_y
 _atom_site_fract_z
 _atom_site_occupancy
  Mn  Mn0  1  0.50105295  0.79742397  0.14539003  1
  Mn  Mn1  1  0.49591297  0.18868199  0.34947402  1
  Mn  Mn2  1  0.99928795  0.30384999  0.64661203  1
  Mn  Mn3  1  0.50329197  0.20494999  0.85651601  1
  Mn  Mn4  1  0.00060899  0.30269899  0.15508700  1
  Mn  Mn5  1  0.99970794  0.69494098  0.34958904  1
  Mn  Mn6  1  0.49886595  0.80814197  0.64765202  1
  Mn  Mn7  1  0.99984394  0.69811498  0.84783303  1
  O  O8  1  0.32190097  0.49876598  0.24875902  1
  O  O9  1  0.83256294  0.66090198  0.10352304  1
  O  O10  1  0.65633194  0.85317797  0.39425703  1
  O  O11  1  0.20171296  0.99284997  0.25619602  1
  O  O12  1  0.63678397  0.15785899  0.09293902  1
  O  O13  1  0.14712397  0.64150798  0.59220201  1
  O  O14  1  0.83721696  0.33936999  0.41305203  1
  O  O15  1  0.36316096  0.84946697  0.91239501  1
  O  O16  1  0.33515198  0.16041999  0.59198301  1
  O  O17  1  0.17043998  0.33981299  0.89667400  1
  O  O18  1  0.69153996  0.48372698  0.75290602  1
  O  O19  1  0.80749897  0.02333800  0.74696102  1
