# generated using pymatgen
data_CeO2
_symmetry_space_group_name_H-M   'P 1'
_cell_length_a   3.78846502
_cell_length_b   6.03595018
_cell_length_c   6.03594923
_cell_angle_alpha   120.00000763
_cell_angle_beta   90.00000000
_cell_angle_gamma   90.00000000
_symmetry_Int_Tables_number   1
_chemical_formula_structural   CeO2
_chemical_formula_sum   'Ce3 O6'
_cell_volume   119.53225296
_cell_formula_units_Z   3
loop_
 _symmetry_equiv_pos_site_id
 _symmetry_equiv_pos_as_xyz
  1  'x, y, z'
loop_
 _atom_site_type_symbol
 _atom_site_label
 _atom_site_symmetry_multiplicity
 _atom_site_fract_x
 _atom_site_fract_y
 _atom_site_fract_z
 _atom_site_occupancy
  Ce  Ce0  1  0.60324200  0.66666666  0.33333336  1
  Ce  Ce1  1  0.39675800  0.33333333  0.66666667  1
  Ce  Ce2  1  0.00000000  0.00000000  0.00000000  1
  O  O3  1  0.50000000  0.74842900  0.74842902  1
  O  O4  1  0.50000000  0.00000000  0.25157099  1
  O  O5  1  0.50000000  0.25157100  0.99999999  1
  O  O6  1  0.00000000  0.36662500  0.36662501  1
  O  O7  1  0.99999999  0.00000000  0.63337499  1
  O  O8  1  0.00000000  0.63337500  0.00000003  1
