# generated using pymatgen
data_Sr10GeSb4As
_symmetry_space_group_name_H-M   'P 1'
_cell_length_a   7.93633795
_cell_length_b   7.93633795
_cell_length_c   9.76323414
_cell_angle_alpha   113.98139954
_cell_angle_beta   113.98139954
_cell_angle_gamma   90.00000000
_symmetry_Int_Tables_number   1
_chemical_formula_structural   Sr10GeSb4As
_chemical_formula_sum   'Sr10 Ge1 Sb4 As1'
_cell_volume   503.20614948
_cell_formula_units_Z   1
loop_
 _symmetry_equiv_pos_site_id
 _symmetry_equiv_pos_as_xyz
  1  'x, y, z'
loop_
 _atom_site_type_symbol
 _atom_site_label
 _atom_site_symmetry_multiplicity
 _atom_site_fract_x
 _atom_site_fract_y
 _atom_site_fract_z
 _atom_site_occupancy
  Sr  Sr0  1  0.82024809  0.95945405  0.27970214  1
  Sr  Sr1  1  0.17975201  0.04054600  0.72029805  1
  Sr  Sr2  1  0.45945504  0.32024902  0.27970407  1
  Sr  Sr3  1  0.32024807  0.82024804  0.27970310  1
  Sr  Sr4  1  0.04054504  0.54054503  0.72029708  1
  Sr  Sr5  1  0.54054507  0.67975103  0.72029612  1
  Sr  Sr6  1  0.67975204  0.17975201  0.72029709  1
  Sr  Sr7  1  0.95945506  0.45945502  0.27970310  1
  Sr  Sr8  1  0.00000000  0.00000000  0.00000000  1
  Sr  Sr9  1  0.50000005  0.50000002  1.00000012  1
  As  As10  1  0.11059503  0.38940402  0.99999909  1
  Ge  Ge11  1  0.88940507  0.61059603  0.00000110  1
  Sb  Sb12  1  0.61059503  0.11059501  0.00000004  1
  Sb  Sb13  1  0.38940507  0.88940504  0.00000009  1
  Sb  Sb14  1  0.25000003  0.25000001  0.50000006  1
  Sb  Sb15  1  0.75000008  0.75000004  0.50000013  1
