# generated using pymatgen
data_NdV3SiS9
_symmetry_space_group_name_H-M   'P 1'
_cell_length_a   3.51803803
_cell_length_b   9.23198318
_cell_length_c   9.57547569
_cell_angle_alpha   80.33470917
_cell_angle_beta   79.41462708
_cell_angle_gamma   79.01597595
_symmetry_Int_Tables_number   1
_chemical_formula_structural   NdV3SiS9
_chemical_formula_sum   'Nd1 V3 Si1 S9'
_cell_volume   297.24453385
_cell_formula_units_Z   1
loop_
 _symmetry_equiv_pos_site_id
 _symmetry_equiv_pos_as_xyz
  1  'x, y, z'
loop_
 _atom_site_type_symbol
 _atom_site_label
 _atom_site_symmetry_multiplicity
 _atom_site_fract_x
 _atom_site_fract_y
 _atom_site_fract_z
 _atom_site_occupancy
  Si  Si0  1  0.15482306  0.35725698  0.33309698  1
  Nd  Nd1  1  0.84517710  0.64274297  0.66690297  1
  V  V2  1  0.51132006  0.36650298  0.61085697  1
  V  V3  1  0.48868011  0.63349697  0.38914297  1
  V  V4  1  0.00000000  0.00000000  0.00000000  1
  S  S5  1  0.00000009  0.49999998  0.49999997  1
  S  S6  1  0.97185713  0.81923496  0.23705098  1
  S  S7  1  0.02814303  0.18076499  0.76294897  1
  S  S8  1  0.66864208  0.49365598  0.16905999  1
  S  S9  1  0.33135808  0.50634398  0.83093996  1
  S  S10  1  0.30359114  0.82966796  0.56314996  1
  S  S11  1  0.69640902  0.17033199  0.43684999  1
  S  S12  1  0.63014314  0.84256596  0.89714795  1
  S  S13  1  0.36985702  0.15743399  0.10285200  1
