# generated using pymatgen
data_In11S9
_symmetry_space_group_name_H-M   'P 1'
_cell_length_a   8.55065346
_cell_length_b   8.55065346
_cell_length_c   8.55065346
_cell_angle_alpha   60.00000000
_cell_angle_beta   60.00000000
_cell_angle_gamma   60.00000000
_symmetry_Int_Tables_number   1
_chemical_formula_structural   In11S9
_chemical_formula_sum   'In11 S9'
_cell_volume   442.06173010
_cell_formula_units_Z   1
loop_
 _symmetry_equiv_pos_site_id
 _symmetry_equiv_pos_as_xyz
  1  'x, y, z'
loop_
 _atom_site_type_symbol
 _atom_site_label
 _atom_site_symmetry_multiplicity
 _atom_site_fract_x
 _atom_site_fract_y
 _atom_site_fract_z
 _atom_site_occupancy
  In  In0  1  0.87418499  0.87418399  0.37744700  1
  S  S1  1  0.87418499  0.87418399  0.87418399  1
  In  In2  1  0.87418499  0.37744700  0.87418399  1
  In  In3  1  0.37744800  0.87418399  0.87418399  1
  S  S4  1  0.25163700  0.25163700  0.74836299  1
  S  S5  1  0.74836299  0.74836299  0.25163700  1
  S  S6  1  0.25163700  0.74836299  0.74836299  1
  S  S7  1  0.74836299  0.25163700  0.25163700  1
  S  S8  1  0.25163700  0.74836299  0.25163700  1
  S  S9  1  0.74836299  0.25163700  0.74836299  1
  S  S10  1  0.25000000  0.25000000  0.25000000  1
  S  S11  1  0.50000000  0.50000000  0.50000000  1
  In  In12  1  0.12744600  0.12744600  0.61766200  1
  In  In13  1  0.12744600  0.12744600  0.12744600  1
  In  In14  1  0.12744600  0.61766200  0.12744600  1
  In  In15  1  0.61766200  0.12744600  0.12744600  1
  In  In16  1  0.62999300  0.62999200  0.11002300  1
  In  In17  1  0.62999300  0.62999200  0.62999200  1
  In  In18  1  0.62999300  0.11002300  0.62999200  1
  In  In19  1  0.11002400  0.62999200  0.62999200  1
