# generated using pymatgen
data_Sm4Eu(FeB3)2
_symmetry_space_group_name_H-M   'P 1'
_cell_length_a   5.31400204
_cell_length_b   5.31400156
_cell_length_c   8.52906990
_cell_angle_alpha   71.84896851
_cell_angle_beta   71.84896851
_cell_angle_gamma   59.99999619
_symmetry_Int_Tables_number   1
_chemical_formula_structural   Sm4Eu(FeB3)2
_chemical_formula_sum   'Sm4 Eu1 Fe2 B6'
_cell_volume   194.61941992
_cell_formula_units_Z   1
loop_
 _symmetry_equiv_pos_site_id
 _symmetry_equiv_pos_as_xyz
  1  'x, y, z'
loop_
 _atom_site_type_symbol
 _atom_site_label
 _atom_site_symmetry_multiplicity
 _atom_site_fract_x
 _atom_site_fract_y
 _atom_site_fract_z
 _atom_site_occupancy
  Eu  Eu0  1  0.00000000  0.00000000  0.00000000  1
  Sm  Sm1  1  0.25277999  0.25277999  0.24166002  1
  Sm  Sm2  1  0.74721998  0.74721997  0.75834006  1
  Sm  Sm3  1  0.41421399  0.41421398  0.75735905  1
  Sm  Sm4  1  0.58578598  0.58578598  0.24264103  1
  Fe  Fe5  1  0.11682300  0.11682300  0.64952903  1
  Fe  Fe6  1  0.88317697  0.88317697  0.35047005  1
  B  B7  1  0.83178898  0.49999998  0.50000005  1
  B  B8  1  0.49999999  0.16821099  0.50000003  1
  B  B9  1  0.16821099  0.83178897  0.50000004  1
  B  B10  1  0.49999998  0.83178897  0.50000005  1
  B  B11  1  0.83178898  0.16821099  0.50000004  1
  B  B12  1  0.16821099  0.49999998  0.50000003  1
