# generated using pymatgen
data_La5NiSn7
_symmetry_space_group_name_H-M   'P 1'
_cell_length_a   4.49378395
_cell_length_b   4.57014799
_cell_length_c   17.31759644
_cell_angle_alpha   90.00000000
_cell_angle_beta   90.00000000
_cell_angle_gamma   90.00000000
_symmetry_Int_Tables_number   1
_chemical_formula_structural   La5NiSn7
_chemical_formula_sum   'La5 Ni1 Sn7'
_cell_volume   355.65594066
_cell_formula_units_Z   1
loop_
 _symmetry_equiv_pos_site_id
 _symmetry_equiv_pos_as_xyz
  1  'x, y, z'
loop_
 _atom_site_type_symbol
 _atom_site_label
 _atom_site_symmetry_multiplicity
 _atom_site_fract_x
 _atom_site_fract_y
 _atom_site_fract_z
 _atom_site_occupancy
  La  La0  1  0.25000000  0.00000000  0.09529400  1
  La  La1  1  0.25000000  0.50000000  0.60501898  1
  La  La2  1  0.75000001  0.50000000  0.39813899  1
  Sn  Sn3  1  0.75000001  0.00000000  0.89959898  1
  Ni  Ni4  1  0.25000000  0.00000000  0.31363499  1
  Sn  Sn5  1  0.25000000  0.00000000  0.46262499  1
  La  La6  1  0.25000000  0.50000000  0.93736998  1
  Sn  Sn7  1  0.75000001  0.50000000  0.05674500  1
  Sn  Sn8  1  0.75000001  0.00000000  0.57695999  1
  Sn  Sn9  1  0.25000000  0.50000000  0.23486999  1
  Sn  Sn10  1  0.25000000  0.00000000  0.74895298  1
  Sn  Sn11  1  0.75000001  0.00000000  0.23258399  1
  La  La12  1  0.75000001  0.50000000  0.75420698  1
