# generated using pymatgen
data_RbLiI2
_symmetry_space_group_name_H-M   'P 1'
_cell_length_a   4.63154602
_cell_length_b   7.96477127
_cell_length_c   11.88845253
_cell_angle_alpha   90.00000000
_cell_angle_beta   90.00000000
_cell_angle_gamma   106.90298462
_symmetry_Int_Tables_number   1
_chemical_formula_structural   RbLiI2
_chemical_formula_sum   'Rb3 Li3 I6'
_cell_volume   419.60927431
_cell_formula_units_Z   3
loop_
 _symmetry_equiv_pos_site_id
 _symmetry_equiv_pos_as_xyz
  1  'x, y, z'
loop_
 _atom_site_type_symbol
 _atom_site_label
 _atom_site_symmetry_multiplicity
 _atom_site_fract_x
 _atom_site_fract_y
 _atom_site_fract_z
 _atom_site_occupancy
  Rb  Rb0  1  0.75000505  0.50001002  0.75000003  1
  Rb  Rb1  1  0.24999506  0.49999002  0.25000001  1
  Rb  Rb2  1  0.00000000  0.00000000  0.00000000  1
  Li  Li3  1  0.00000000  0.00000000  0.50000002  1
  Li  Li4  1  0.46699911  0.93399803  0.75000003  1
  Li  Li5  1  0.53300101  0.06600200  0.25000001  1
  I  I6  1  0.35740008  0.71480003  0.94031804  1
  I  I7  1  0.64260003  0.28520001  0.05968200  1
  I  I8  1  0.64260003  0.28520001  0.44031802  1
  I  I9  1  0.35740008  0.71480003  0.55968202  1
  I  I10  1  0.07845302  0.15690601  0.75000003  1
  I  I11  1  0.92154709  0.84309403  0.25000001  1
