# generated using pymatgen
data_ScSiO4
_symmetry_space_group_name_H-M   'P 1'
_cell_length_a   5.62319374
_cell_length_b   5.62319374
_cell_length_c   5.62319374
_cell_angle_alpha   106.76857758
_cell_angle_beta   106.76857758
_cell_angle_gamma   115.02329254
_symmetry_Int_Tables_number   1
_chemical_formula_structural   ScSiO4
_chemical_formula_sum   'Sc2 Si2 O8'
_cell_volume   135.90262794
_cell_formula_units_Z   2
loop_
 _symmetry_equiv_pos_site_id
 _symmetry_equiv_pos_as_xyz
  1  'x, y, z'
loop_
 _atom_site_type_symbol
 _atom_site_label
 _atom_site_symmetry_multiplicity
 _atom_site_fract_x
 _atom_site_fract_y
 _atom_site_fract_z
 _atom_site_occupancy
  Sc  Sc0  1  0.50000010  0.50000007  1.00000012  1
  Sc  Sc1  1  0.25000012  0.75000010  0.50000012  1
  Si  Si2  1  0.00000000  0.00000000  0.00000000  1
  Si  Si3  1  0.75000008  0.25000003  0.50000008  1
  O  O4  1  0.17992516  0.99674013  0.81681515  1
  O  O5  1  0.74674010  0.42992506  0.31681510  1
  O  O6  1  0.11311007  0.42992506  0.68318508  1
  O  O7  1  0.17992506  0.36311005  0.18318506  1
  O  O8  1  0.00326012  0.82007511  0.18318510  1
  O  O9  1  0.57007507  0.25326003  0.68318508  1
  O  O10  1  0.57007516  0.88689012  0.31681514  1
  O  O11  1  0.63689016  0.82007511  0.81681516  1
