# generated using pymatgen
data_Tb3(MnSi)4
_symmetry_space_group_name_H-M   'P 1'
_cell_length_a   4.22442198
_cell_length_b   6.66589022
_cell_length_c   8.02401543
_cell_angle_alpha   114.54269409
_cell_angle_beta   105.26216888
_cell_angle_gamma   90.00000000
_symmetry_Int_Tables_number   1
_chemical_formula_structural   Tb3(MnSi)4
_chemical_formula_sum   'Tb3 Mn4 Si4'
_cell_volume   196.74400702
_cell_formula_units_Z   1
loop_
 _symmetry_equiv_pos_site_id
 _symmetry_equiv_pos_as_xyz
  1  'x, y, z'
loop_
 _atom_site_type_symbol
 _atom_site_label
 _atom_site_symmetry_multiplicity
 _atom_site_fract_x
 _atom_site_fract_y
 _atom_site_fract_z
 _atom_site_occupancy
  Tb  Tb0  1  -0.00000001  0.49999998  -0.00000001  1
  Tb  Tb1  1  0.12945800  0.12945800  0.25891601  1
  Tb  Tb2  1  0.87054197  0.87054197  0.74108401  1
  Mn  Mn3  1  0.33064198  0.52060398  0.66128402  1
  Mn  Mn4  1  0.33064200  0.14067999  0.66128402  1
  Mn  Mn5  1  0.66935797  0.85931997  0.33871599  1
  Mn  Mn6  1  0.66935798  0.47939598  0.33871600  1
  Si  Si7  1  0.21645298  0.71645297  0.43290601  1
  Si  Si8  1  0.78354699  0.28354699  0.56709401  1
  Si  Si9  1  0.49999999  0.19139099  -0.00000001  1
  Si  Si10  1  0.49999998  0.80860897  -0.00000002  1
