# generated using pymatgen
data_Li2V6O5F7
_symmetry_space_group_name_H-M   'P 1'
_cell_length_a   2.85498595
_cell_length_b   7.88040495
_cell_length_c   8.20830536
_cell_angle_alpha   90.00000000
_cell_angle_beta   90.00000000
_cell_angle_gamma   90.00000000
_symmetry_Int_Tables_number   1
_chemical_formula_structural   Li2V6O5F7
_chemical_formula_sum   'Li2 V6 O5 F7'
_cell_volume   184.67411018
_cell_formula_units_Z   1
loop_
 _symmetry_equiv_pos_site_id
 _symmetry_equiv_pos_as_xyz
  1  'x, y, z'
loop_
 _atom_site_type_symbol
 _atom_site_label
 _atom_site_symmetry_multiplicity
 _atom_site_fract_x
 _atom_site_fract_y
 _atom_site_fract_z
 _atom_site_occupancy
  Li  Li0  1  0.25000000  0.02994100  0.68400497  1
  Li  Li1  1  0.25000000  0.52994100  0.81599496  1
  V  V2  1  0.75000001  0.97005901  0.31599499  1
  V  V3  1  0.75000001  0.47005900  0.18400499  1
  V  V4  1  0.25000000  0.19593600  0.01829700  1
  V  V5  1  0.25000000  0.69593600  0.48170298  1
  V  V6  1  0.75000001  0.80406401  0.98170296  1
  V  V7  1  0.75000001  0.30406400  0.51829698  1
  F  F8  1  0.25000000  0.94324001  0.12509699  1
  O  O9  1  0.25000000  0.44324000  0.37490298  1
  F  F10  1  0.75000001  0.05676000  0.87490296  1
  F  F11  1  0.75000001  0.55676000  0.62509697  1
  F  F12  1  0.25000000  0.12083500  0.44666698  1
  O  O13  1  0.25000000  0.62083500  0.05333300  1
  F  F14  1  0.75000001  0.87916501  0.55333298  1
  O  O15  1  0.75000001  0.37916500  0.94666696  1
  F  F16  1  0.25000000  0.79202801  0.81073796  1
  F  F17  1  0.25000000  0.29202800  0.68926197  1
  O  O18  1  0.75000001  0.20797200  0.18926199  1
  O  O19  1  0.75000001  0.70797200  0.31073799  1
