# generated using pymatgen
data_Sc7O12
_symmetry_space_group_name_H-M   'P 1'
_cell_length_a   6.34693623
_cell_length_b   6.34693623
_cell_length_c   6.34693670
_cell_angle_alpha   99.12455750
_cell_angle_beta   99.12455750
_cell_angle_gamma   99.12455750
_symmetry_Int_Tables_number   1
_chemical_formula_structural   Sc7O12
_chemical_formula_sum   'Sc7 O12'
_cell_volume   244.78094626
_cell_formula_units_Z   1
loop_
 _symmetry_equiv_pos_site_id
 _symmetry_equiv_pos_as_xyz
  1  'x, y, z'
loop_
 _atom_site_type_symbol
 _atom_site_label
 _atom_site_symmetry_multiplicity
 _atom_site_fract_x
 _atom_site_fract_y
 _atom_site_fract_z
 _atom_site_occupancy
  Sc  Sc0  1  0.60442801  0.14021200  0.32376197  1
  Sc  Sc1  1  0.14021199  0.32376200  0.60442799  1
  Sc  Sc2  1  0.32376198  0.60442801  0.14021195  1
  Sc  Sc3  1  0.39557197  0.85978801  0.67623795  1
  Sc  Sc4  1  0.85978799  0.67623801  0.39557193  1
  Sc  Sc5  1  0.67623800  0.39557201  0.85978797  1
  Sc  Sc6  1  0.00000000  0.00000000  0.00000000  1
  O  O7  1  0.82403700  0.40477901  0.58602595  1
  O  O8  1  0.40477898  0.58602601  0.82403697  1
  O  O9  1  0.58602598  0.82403701  0.40477893  1
  O  O10  1  0.17596298  0.59522101  0.41397397  1
  O  O11  1  0.59522100  0.41397401  0.17596295  1
  O  O12  1  0.41397400  0.17596300  0.59522098  1
  O  O13  1  0.29580897  0.95837401  0.10285993  1
  O  O14  1  0.89713999  0.70419101  0.04162591  1
  O  O15  1  0.04162596  0.89714001  0.70419096  1
  O  O16  1  0.70419101  0.04162600  0.89713999  1
  O  O17  1  0.10285999  0.29580900  0.95837400  1
  O  O18  1  0.95837402  0.10286000  0.29580895  1
