# generated using pymatgen
data_Rb4MgSi2O7
_symmetry_space_group_name_H-M   'P 1'
_cell_length_a   6.61807919
_cell_length_b   7.56841230
_cell_length_c   7.62131119
_cell_angle_alpha   106.36794281
_cell_angle_beta   110.50434875
_cell_angle_gamma   109.29936981
_symmetry_Int_Tables_number   1
_chemical_formula_structural   Rb4MgSi2O7
_chemical_formula_sum   'Rb4 Mg1 Si2 O7'
_cell_volume   301.40699917
_cell_formula_units_Z   1
loop_
 _symmetry_equiv_pos_site_id
 _symmetry_equiv_pos_as_xyz
  1  'x, y, z'
loop_
 _atom_site_type_symbol
 _atom_site_label
 _atom_site_symmetry_multiplicity
 _atom_site_fract_x
 _atom_site_fract_y
 _atom_site_fract_z
 _atom_site_occupancy
  Rb  Rb0  1  0.28782390  0.76442994  0.22611291  1
  Rb  Rb1  1  0.71217596  0.23556998  0.77388697  1
  Rb  Rb2  1  0.60524394  0.37012897  0.27522997  1
  Rb  Rb3  1  0.39475592  0.62987095  0.72476992  1
  Mg  Mg4  1  0.00000000  0.00000000  0.49999999  1
  Si  Si5  1  0.99114888  0.86458293  0.77847091  1
  Si  Si6  1  0.00885098  0.13541699  0.22152898  1
  O  O7  1  0.77037687  0.99136792  0.23773890  1
  O  O8  1  0.96323691  0.64035995  0.76616793  1
  O  O9  1  0.22962299  0.00863200  0.76226099  1
  O  O10  1  0.23738898  0.15329599  0.42360998  1
  O  O11  1  0.76261088  0.84670393  0.57638991  1
  O  O12  1  0.03676296  0.35963997  0.23383195  1
  O  O13  1  0.00000000  0.00000000  0.00000000  1
