# generated using pymatgen
data_BaCdAs
_symmetry_space_group_name_H-M   'P 1'
_cell_length_a   4.37575388
_cell_length_b   4.37575388
_cell_length_c   8.73525333
_cell_angle_alpha   104.50504303
_cell_angle_beta   104.50504303
_cell_angle_gamma   90.00000000
_symmetry_Int_Tables_number   1
_chemical_formula_structural   BaCdAs
_chemical_formula_sum   'Ba2 Cd2 As2'
_cell_volume   156.41187200
_cell_formula_units_Z   2
loop_
 _symmetry_equiv_pos_site_id
 _symmetry_equiv_pos_as_xyz
  1  'x, y, z'
loop_
 _atom_site_type_symbol
 _atom_site_label
 _atom_site_symmetry_multiplicity
 _atom_site_fract_x
 _atom_site_fract_y
 _atom_site_fract_z
 _atom_site_occupancy
  Ba  Ba0  1  0.67605403  0.67605402  0.35210802  1
  Ba  Ba1  1  0.32394601  0.32394601  0.64789202  1
  Cd  Cd2  1  1.00000004  0.50000002  1.00000003  1
  Cd  Cd3  1  0.50000002  0.00000000  0.00000000  1
  As  As4  1  0.88061704  0.88061703  0.76123403  1
  As  As5  1  0.11938301  0.11938300  0.23876601  1
