# generated using pymatgen
data_Sc7Fe3(C2N)2
_symmetry_space_group_name_H-M   'P 1'
_cell_length_a   5.38422203
_cell_length_b   5.38422203
_cell_length_c   6.29976177
_cell_angle_alpha   115.29857635
_cell_angle_beta   115.29857635
_cell_angle_gamma   90.00000000
_symmetry_Int_Tables_number   1
_chemical_formula_structural   Sc7Fe3(C2N)2
_chemical_formula_sum   'Sc7 Fe3 C4 N2'
_cell_volume   145.50498516
_cell_formula_units_Z   1
loop_
 _symmetry_equiv_pos_site_id
 _symmetry_equiv_pos_as_xyz
  1  'x, y, z'
loop_
 _atom_site_type_symbol
 _atom_site_label
 _atom_site_symmetry_multiplicity
 _atom_site_fract_x
 _atom_site_fract_y
 _atom_site_fract_z
 _atom_site_occupancy
  Sc  Sc0  1  0.52152705  0.67935102  0.70438310  1
  Sc  Sc1  1  0.18285600  0.02503200  0.70438303  1
  Sc  Sc2  1  0.02503203  0.52152702  0.70438306  1
  Sc  Sc3  1  0.67935102  0.18285601  0.70438307  1
  Fe  Fe4  1  0.47847303  0.32064901  0.29561706  1
  Sc  Sc5  1  0.81714408  0.97496803  0.29561712  1
  Sc  Sc6  1  0.97496805  0.47847302  0.29561709  1
  Fe  Fe7  1  0.32064906  0.81714403  0.29561709  1
  Fe  Fe8  1  0.50000004  0.50000002  0.00000006  1
  Sc  Sc9  1  0.00000000  0.00000000  0.00000000  1
  N  N10  1  0.88434206  0.62362702  1.00000012  1
  C  C11  1  0.11565803  0.37637301  0.00000003  1
  C  C12  1  0.37637306  0.88434103  0.99999912  1
  C  C13  1  0.62362702  0.11565900  0.00000104  1
  N  N14  1  0.25121602  0.25121601  0.50243205  1
  C  C15  1  0.74878406  0.74878402  0.49756811  1
