# generated using pymatgen
data_Na(CuO2)2
_symmetry_space_group_name_H-M   'P 1'
_cell_length_a   5.77254820
_cell_length_b   6.24399471
_cell_length_c   5.77254820
_cell_angle_alpha   62.46773911
_cell_angle_beta   90.00000000
_cell_angle_gamma   117.53226471
_symmetry_Int_Tables_number   1
_chemical_formula_structural   Na(CuO2)2
_chemical_formula_sum   'Na2 Cu4 O8'
_cell_volume   157.45035475
_cell_formula_units_Z   2
loop_
 _symmetry_equiv_pos_site_id
 _symmetry_equiv_pos_as_xyz
  1  'x, y, z'
loop_
 _atom_site_type_symbol
 _atom_site_label
 _atom_site_symmetry_multiplicity
 _atom_site_fract_x
 _atom_site_fract_y
 _atom_site_fract_z
 _atom_site_occupancy
  Na  Na0  1  0.75000001  0.50000002  0.74999997  1
  Na  Na1  1  0.00000000  0.00000000  0.00000000  1
  Cu  Cu2  1  0.37500004  0.75000003  0.87499997  1
  Cu  Cu3  1  0.37500000  0.25000001  0.37499999  1
  Cu  Cu4  1  0.87499999  0.25000001  0.37499999  1
  Cu  Cu5  1  0.37500004  0.75000003  0.37499998  1
  O  O6  1  0.17162106  0.89785303  0.69443197  1
  O  O7  1  0.72623304  0.89785503  0.40771398  1
  O  O8  1  0.34228502  0.39785401  0.57837898  1
  O  O9  1  0.69443098  0.10214600  0.72623297  1
  O  O10  1  0.05556903  0.39785401  0.02376700  1
  O  O11  1  0.40771499  0.10214600  0.17162099  1
  O  O12  1  0.02376704  0.60214502  0.34228598  1
  O  O13  1  0.57837902  0.60214702  0.05556799  1
