# generated using pymatgen
data_K8(IF3)3
_symmetry_space_group_name_H-M   'P 1'
_cell_length_a   6.47047377
_cell_length_b   8.47081184
_cell_length_c   8.68634510
_cell_angle_alpha   97.83110046
_cell_angle_beta   90.00000000
_cell_angle_gamma   90.00000000
_symmetry_Int_Tables_number   1
_chemical_formula_structural   K8(IF3)3
_chemical_formula_sum   'K8 I3 F9'
_cell_volume   471.65991957
_cell_formula_units_Z   1
loop_
 _symmetry_equiv_pos_site_id
 _symmetry_equiv_pos_as_xyz
  1  'x, y, z'
loop_
 _atom_site_type_symbol
 _atom_site_label
 _atom_site_symmetry_multiplicity
 _atom_site_fract_x
 _atom_site_fract_y
 _atom_site_fract_z
 _atom_site_occupancy
  K  K0  1  0.10962800  0.49782900  0.76624493  1
  I  I1  1  0.60962802  0.00217100  0.23375499  1
  I  I2  1  0.39037201  0.99782901  0.76624490  1
  I  I3  1  0.89037203  0.50217100  0.23375496  1
  K  K4  1  0.15407401  0.19190800  0.44002297  1
  F  F5  1  0.92138703  0.12578900  0.92405295  1
  F  F6  1  0.34592601  0.69190801  0.44002293  1
  F  F7  1  0.84592603  0.80809201  0.55997692  1
  K  K8  1  0.42138702  0.37421100  0.07594697  1
  K  K9  1  0.07861300  0.87421101  0.07594694  1
  F  F10  1  0.65407402  0.30809200  0.55997695  1
  F  F11  1  0.57861302  0.62578901  0.92405292  1
  F  F12  1  0.09551400  0.89509901  0.37279993  1
  K  K13  1  0.90448603  0.10490100  0.62719996  1
  K  K14  1  0.83051603  0.82657301  0.85359891  1
  K  K15  1  0.59551402  0.60490101  0.62719993  1
  K  K16  1  0.66948402  0.32657300  0.85359894  1
  F  F17  1  0.16948401  0.17342700  0.14640098  1
  F  F18  1  0.33051601  0.67342701  0.14640095  1
  F  F19  1  0.40448601  0.39509900  0.37279996  1
