# generated using pymatgen
data_Sb3(TeS)4
_symmetry_space_group_name_H-M   'P 1'
_cell_length_a   7.34054089
_cell_length_b   7.38830137
_cell_length_c   7.87229490
_cell_angle_alpha   76.19763184
_cell_angle_beta   75.10463715
_cell_angle_gamma   79.21041870
_symmetry_Int_Tables_number   1
_chemical_formula_structural   Sb3(TeS)4
_chemical_formula_sum   'Sb3 Te4 S4'
_cell_volume   397.06573499
_cell_formula_units_Z   1
loop_
 _symmetry_equiv_pos_site_id
 _symmetry_equiv_pos_as_xyz
  1  'x, y, z'
loop_
 _atom_site_type_symbol
 _atom_site_label
 _atom_site_symmetry_multiplicity
 _atom_site_fract_x
 _atom_site_fract_y
 _atom_site_fract_z
 _atom_site_occupancy
  Sb  Sb0  1  0.00000000  0.00000000  0.00000000  1
  S  S1  1  0.39149003  0.50024101  0.30328596  1
  S  S2  1  0.60851003  0.49975901  0.69671394  1
  Sb  Sb3  1  0.68979303  0.29355201  0.43767295  1
  Sb  Sb4  1  0.31020703  0.70644802  0.56232695  1
  Te  Te5  1  0.99725204  0.21477601  0.70386193  1
  Te  Te6  1  0.00274802  0.78522402  0.29613797  1
  S  S7  1  0.11124501  0.23800101  0.09946998  1
  S  S8  1  0.88875505  0.76199902  0.90052992  1
  Te  Te9  1  0.66429102  0.12508800  0.11922296  1
  Te  Te10  1  0.33570904  0.87491202  0.88077695  1
