# generated using pymatgen
data_Zr7NbAl8
_symmetry_space_group_name_H-M   'P 1'
_cell_length_a   5.69222498
_cell_length_b   7.88054800
_cell_length_c   7.90517950
_cell_angle_alpha   119.89698029
_cell_angle_beta   90.00000000
_cell_angle_gamma   90.00000000
_symmetry_Int_Tables_number   1
_chemical_formula_structural   Zr7NbAl8
_chemical_formula_sum   'Zr7 Nb1 Al8'
_cell_volume   307.41902898
_cell_formula_units_Z   1
loop_
 _symmetry_equiv_pos_site_id
 _symmetry_equiv_pos_as_xyz
  1  'x, y, z'
loop_
 _atom_site_type_symbol
 _atom_site_label
 _atom_site_symmetry_multiplicity
 _atom_site_fract_x
 _atom_site_fract_y
 _atom_site_fract_z
 _atom_site_occupancy
  Zr  Zr0  1  0.75047900  0.33466200  0.66753699  1
  Zr  Zr1  1  0.75047900  0.66712499  0.33246299  1
  Nb  Nb2  1  0.24952100  0.66712499  0.33246299  1
  Al  Al3  1  0.24952100  0.33466200  0.66753699  1
  Al  Al4  1  -0.00000000  0.75256099  -0.00000002  1
  Zr  Zr5  1  -0.00000000  0.99953399  0.75586098  1
  Zr  Zr6  1  0.00000000  0.24367300  0.24413899  1
  Zr  Zr7  1  0.50000000  0.24472400  -0.00000001  1
  Zr  Zr8  1  0.50000000  0.99931199  0.24489298  1
  Zr  Zr9  1  0.50000000  0.75441899  0.75510698  1
  Al  Al10  1  0.00000000  0.39649600  -0.00000001  1
  Al  Al11  1  0.00000000  0.99947999  0.39432798  1
  Al  Al12  1  0.00000000  0.60515199  0.60567199  1
  Al  Al13  1  0.50000000  0.60507899  -0.00000001  1
  Al  Al14  1  0.50000000  0.99989499  0.60383098  1
  Al  Al15  1  0.50000000  0.39606400  0.39616899  1
