# generated using pymatgen
data_CaMg4Ga
_symmetry_space_group_name_H-M   'P 1'
_cell_length_a   4.80676413
_cell_length_b   4.80676413
_cell_length_c   7.72979689
_cell_angle_alpha   90.00000000
_cell_angle_beta   90.00000000
_cell_angle_gamma   120.00000000
_symmetry_Int_Tables_number   1
_chemical_formula_structural   CaMg4Ga
_chemical_formula_sum   'Ca1 Mg4 Ga1'
_cell_volume   154.66937708
_cell_formula_units_Z   1
loop_
 _symmetry_equiv_pos_site_id
 _symmetry_equiv_pos_as_xyz
  1  'x, y, z'
loop_
 _atom_site_type_symbol
 _atom_site_label
 _atom_site_symmetry_multiplicity
 _atom_site_fract_x
 _atom_site_fract_y
 _atom_site_fract_z
 _atom_site_occupancy
  Mg  Mg0  1  0.00000000  0.00000000  0.27485000  1
  Ca  Ca1  1  0.00000000  0.00000000  0.73664301  1
  Ga  Ga2  1  0.66666666  0.33333335  0.51673501  1
  Mg  Mg3  1  0.66666666  0.33333335  0.95028101  1
  Mg  Mg4  1  0.33333335  0.66666669  0.06213500  1
  Mg  Mg5  1  0.33333335  0.66666669  0.45935601  1
