# generated using pymatgen
data_W3(SeS2)2
_symmetry_space_group_name_H-M   'P 1'
_cell_length_a   3.27518392
_cell_length_b   3.27518439
_cell_length_c   30.26800346
_cell_angle_alpha   90.00000000
_cell_angle_beta   90.00000000
_cell_angle_gamma   119.99999237
_symmetry_Int_Tables_number   1
_chemical_formula_structural   W3(SeS2)2
_chemical_formula_sum   'W3 Se2 S4'
_cell_volume   281.18094647
_cell_formula_units_Z   1
loop_
 _symmetry_equiv_pos_site_id
 _symmetry_equiv_pos_as_xyz
  1  'x, y, z'
loop_
 _atom_site_type_symbol
 _atom_site_label
 _atom_site_symmetry_multiplicity
 _atom_site_fract_x
 _atom_site_fract_y
 _atom_site_fract_z
 _atom_site_occupancy
  W  W0  1  0.00000000  0.00000000  0.88435702  1
  W  W1  1  0.00000000  0.00000000  0.42166201  1
  W  W2  1  0.66666666  0.33333332  0.65303101  1
  Se  Se3  1  0.00000000  0.00000000  0.59686901  1
  S  S4  1  0.66666666  0.33333332  0.47786001  1
  S  S5  1  0.66666666  0.33333332  0.36547801  1
  Se  Se6  1  0.00000000  0.00000000  0.70919301  1
  S  S7  1  0.66666666  0.33333332  0.93538002  1
  S  S8  1  0.66666666  0.33333332  0.83333001  1
