# generated using pymatgen
data_Mg5Al(HO)6
_symmetry_space_group_name_H-M   'P 1'
_cell_length_a   6.14297104
_cell_length_b   6.14297104
_cell_length_c   6.14297056
_cell_angle_alpha   68.52442169
_cell_angle_beta   68.52442169
_cell_angle_gamma   68.52441406
_symmetry_Int_Tables_number   1
_chemical_formula_structural   Mg5Al(HO)6
_chemical_formula_sum   'Mg5 Al1 H6 O6'
_cell_volume   193.39850685
_cell_formula_units_Z   1
loop_
 _symmetry_equiv_pos_site_id
 _symmetry_equiv_pos_as_xyz
  1  'x, y, z'
loop_
 _atom_site_type_symbol
 _atom_site_label
 _atom_site_symmetry_multiplicity
 _atom_site_fract_x
 _atom_site_fract_y
 _atom_site_fract_z
 _atom_site_occupancy
  Mg  Mg0  1  0.49999998  0.49999998  0.50000000  1
  Mg  Mg1  1  0.49999998  0.49999998  -0.00000001  1
  Mg  Mg2  1  0.49999998  0.00000000  0.50000000  1
  Mg  Mg3  1  0.00000000  0.49999998  0.50000000  1
  H  H4  1  0.22808899  0.22808899  0.82508201  1
  H  H5  1  0.22808899  0.82508197  0.22808899  1
  H  H6  1  0.82508197  0.22808899  0.22808899  1
  H  H7  1  0.77191098  0.77191097  0.17491799  1
  H  H8  1  0.77191098  0.17491799  0.77191100  1
  H  H9  1  0.17491800  0.77191097  0.77191100  1
  Al  Al10  1  0.18836299  0.18836299  0.18836300  1
  Mg  Mg11  1  0.81163697  0.81163697  0.81163700  1
  O  O12  1  0.64440698  0.26966599  0.26966600  1
  O  O13  1  0.26966599  0.26966599  0.64440700  1
  O  O14  1  0.26966599  0.64440698  0.26966600  1
  O  O15  1  0.35559299  0.73033398  0.73033400  1
  O  O16  1  0.73033398  0.73033398  0.35559299  1
  O  O17  1  0.73033398  0.35559299  0.73033400  1
