# generated using pymatgen
data_ScS2
_symmetry_space_group_name_H-M   'P 1'
_cell_length_a   6.15881491
_cell_length_b   6.15881491
_cell_length_c   6.15881491
_cell_angle_alpha   90.00000000
_cell_angle_beta   90.00000000
_cell_angle_gamma   90.00000000
_symmetry_Int_Tables_number   1
_chemical_formula_structural   ScS2
_chemical_formula_sum   'Sc4 S8'
_cell_volume   233.61001477
_cell_formula_units_Z   4
loop_
 _symmetry_equiv_pos_site_id
 _symmetry_equiv_pos_as_xyz
  1  'x, y, z'
loop_
 _atom_site_type_symbol
 _atom_site_label
 _atom_site_symmetry_multiplicity
 _atom_site_fract_x
 _atom_site_fract_y
 _atom_site_fract_z
 _atom_site_occupancy
  S  S0  1  0.00000000  0.00000000  0.00000000  1
  Sc  Sc1  1  0.50000001  0.00000000  0.50000001  1
  Sc  Sc2  1  0.50000001  0.50000001  -0.00000000  1
  Sc  Sc3  1  0.00000000  0.50000001  0.50000001  1
  S  S4  1  0.38865601  0.38865601  0.38865601  1
  S  S5  1  0.11134400  0.61134401  0.88865601  1
  S  S6  1  0.88865601  0.11134400  0.61134401  1
  S  S7  1  0.61134401  0.88865601  0.11134400  1
  Sc  Sc8  1  0.61134401  0.61134401  0.61134401  1
  S  S9  1  0.88865601  0.38865601  0.11134400  1
  S  S10  1  0.11134400  0.88865601  0.38865601  1
  S  S11  1  0.38865601  0.11134400  0.88865601  1
