# generated using pymatgen
data_Eu4In5B
_symmetry_space_group_name_H-M   'P 1'
_cell_length_a   6.06651306
_cell_length_b   7.12279177
_cell_length_c   7.12279224
_cell_angle_alpha   60.00000000
_cell_angle_beta   90.00000000
_cell_angle_gamma   90.00000000
_symmetry_Int_Tables_number   1
_chemical_formula_structural   Eu4In5B
_chemical_formula_sum   'Eu4 In5 B1'
_cell_volume   266.54484881
_cell_formula_units_Z   1
loop_
 _symmetry_equiv_pos_site_id
 _symmetry_equiv_pos_as_xyz
  1  'x, y, z'
loop_
 _atom_site_type_symbol
 _atom_site_label
 _atom_site_symmetry_multiplicity
 _atom_site_fract_x
 _atom_site_fract_y
 _atom_site_fract_z
 _atom_site_occupancy
  Eu  Eu0  1  0.25000000  0.33333335  0.33333332  1
  Eu  Eu1  1  0.74999999  0.66666669  0.66666665  1
  B  B2  1  0.49999999  0.00000000  0.00000000  1
  Eu  Eu3  1  0.00000000  0.00000000  0.00000000  1
  In  In4  1  0.74999999  0.16850601  0.66298799  1
  In  In5  1  0.74999999  0.66298703  0.16850699  1
  In  In6  1  0.74999999  0.16850601  0.16850700  1
  In  In7  1  0.25000000  0.83149403  0.33701198  1
  In  In8  1  0.25000000  0.33701301  0.83149299  1
  Eu  Eu9  1  0.25000000  0.83149403  0.83149298  1
