# generated using pymatgen
data_Li2Cu3Te
_symmetry_space_group_name_H-M   'P 1'
_cell_length_a   3.55916810
_cell_length_b   3.57180810
_cell_length_c   6.97971106
_cell_angle_alpha   90.00000000
_cell_angle_beta   104.77153015
_cell_angle_gamma   90.00000000
_symmetry_Int_Tables_number   1
_chemical_formula_structural   Li2Cu3Te
_chemical_formula_sum   'Li2 Cu3 Te1'
_cell_volume   85.79819850
_cell_formula_units_Z   1
loop_
 _symmetry_equiv_pos_site_id
 _symmetry_equiv_pos_as_xyz
  1  'x, y, z'
loop_
 _atom_site_type_symbol
 _atom_site_label
 _atom_site_symmetry_multiplicity
 _atom_site_fract_x
 _atom_site_fract_y
 _atom_site_fract_z
 _atom_site_occupancy
  Cu  Cu0  1  0.89724898  0.74999998  0.79449801  1
  Cu  Cu1  1  0.10275100  0.24999999  0.20550200  1
  Li  Li2  1  0.55976999  0.74999998  0.11954001  1
  Li  Li3  1  0.44022999  0.24999999  0.88046000  1
  Cu  Cu4  1  0.24984500  0.74999998  0.49969000  1
  Te  Te5  1  0.75015499  0.24999999  0.50031001  1
