# generated using pymatgen
data_Lu2Ag9Te5Se4
_symmetry_space_group_name_H-M   'P 1'
_cell_length_a   3.78946996
_cell_length_b   10.18481159
_cell_length_c   10.63463402
_cell_angle_alpha   90.00000000
_cell_angle_beta   90.00000000
_cell_angle_gamma   90.00000000
_symmetry_Int_Tables_number   1
_chemical_formula_structural   Lu2Ag9Te5Se4
_chemical_formula_sum   'Lu2 Ag9 Te5 Se4'
_cell_volume   410.44409925
_cell_formula_units_Z   1
loop_
 _symmetry_equiv_pos_site_id
 _symmetry_equiv_pos_as_xyz
  1  'x, y, z'
loop_
 _atom_site_type_symbol
 _atom_site_label
 _atom_site_symmetry_multiplicity
 _atom_site_fract_x
 _atom_site_fract_y
 _atom_site_fract_z
 _atom_site_occupancy
  Lu  Lu0  1  0.75000001  0.20536901  0.21440200  1
  Ag  Ag1  1  0.25000000  0.70536903  0.28559800  1
  Lu  Lu2  1  0.75000001  0.29463101  0.71440200  1
  Ag  Ag3  1  0.25000000  0.79463103  0.78559800  1
  Te  Te4  1  0.25000000  0.43265902  0.12388500  1
  Te  Te5  1  0.75000001  0.93265904  0.37611500  1
  Te  Te6  1  0.25000000  0.06734100  0.62388500  1
  Ag  Ag7  1  0.75000001  0.56734102  0.87611500  1
  Te  Te8  1  0.75000001  0.87552304  0.04501600  1
  Ag  Ag9  1  0.25000000  0.37552302  0.45498400  1
  Ag  Ag10  1  0.75000001  0.62447703  0.54501600  1
  Ag  Ag11  1  0.25000000  0.12447700  0.95498400  1
  Te  Te12  1  0.75000001  0.50093702  0.30516800  1
  Se  Se13  1  0.25000000  0.00093700  0.19483200  1
  Se  Se14  1  0.25000000  0.49906302  0.69483200  1
  Ag  Ag15  1  0.75000001  0.99906304  0.80516800  1
  Se  Se16  1  0.75000001  0.31976101  0.97127500  1
  Ag  Ag17  1  0.25000000  0.81976103  0.52872500  1
  Se  Se18  1  0.75000001  0.18023901  0.47127500  1
  Ag  Ag19  1  0.25000000  0.68023903  0.02872500  1
