# generated using pymatgen
data_La2Cr3(NCl)3
_symmetry_space_group_name_H-M   'P 1'
_cell_length_a   5.49020386
_cell_length_b   5.49020386
_cell_length_c   7.55502796
_cell_angle_alpha   111.30593109
_cell_angle_beta   111.30593109
_cell_angle_gamma   90.00000000
_symmetry_Int_Tables_number   1
_chemical_formula_structural   La2Cr3(NCl)3
_chemical_formula_sum   'La2 Cr3 N3 Cl3'
_cell_volume   195.36160664
_cell_formula_units_Z   1
loop_
 _symmetry_equiv_pos_site_id
 _symmetry_equiv_pos_as_xyz
  1  'x, y, z'
loop_
 _atom_site_type_symbol
 _atom_site_label
 _atom_site_symmetry_multiplicity
 _atom_site_fract_x
 _atom_site_fract_y
 _atom_site_fract_z
 _atom_site_occupancy
  La  La0  1  0.36107600  0.36107600  0.72215197  1
  La  La1  1  0.63892399  0.63892401  0.27784796  1
  Cr  Cr2  1  0.00000000  0.00000000  0.00000000  1
  Cr  Cr3  1  -0.00000001  0.50000001  -0.00000002  1
  Cr  Cr4  1  0.50000001  0.00000000  -0.00000001  1
  Cl  Cl5  1  0.24999998  0.75000001  0.49999996  1
  Cl  Cl6  1  0.75000000  0.25000000  0.49999997  1
  N  N7  1  0.25067900  0.25067900  -0.00000001  1
  Cl  Cl8  1  0.74932099  0.74932101  -0.00000004  1
  N  N9  1  0.25067898  0.74932101  -0.00000003  1
  N  N10  1  0.74932100  0.25067900  -0.00000002  1
