# generated using pymatgen
data_K2Eu3O5
_symmetry_space_group_name_H-M   'P 1'
_cell_length_a   4.00024605
_cell_length_b   6.87533331
_cell_length_c   8.95357800
_cell_angle_alpha   71.21140289
_cell_angle_beta   77.09188843
_cell_angle_gamma   73.08738708
_symmetry_Int_Tables_number   1
_chemical_formula_structural   K2Eu3O5
_chemical_formula_sum   'K2 Eu3 O5'
_cell_volume   220.74745484
_cell_formula_units_Z   1
loop_
 _symmetry_equiv_pos_site_id
 _symmetry_equiv_pos_as_xyz
  1  'x, y, z'
loop_
 _atom_site_type_symbol
 _atom_site_label
 _atom_site_symmetry_multiplicity
 _atom_site_fract_x
 _atom_site_fract_y
 _atom_site_fract_z
 _atom_site_occupancy
  K  K0  1  0.17168904  0.35958299  0.29703902  1
  K  K1  1  0.82831106  0.64041698  0.70296103  1
  Eu  Eu2  1  0.00000000  0.00000000  0.00000000  1
  Eu  Eu3  1  0.56010601  0.18088199  0.69890602  1
  Eu  Eu4  1  0.43989408  0.81911797  0.30109403  1
  O  O5  1  0.15690911  0.99364497  0.69253704  1
  O  O6  1  0.84309099  0.00635500  0.30746301  1
  O  O7  1  0.38376203  0.30113399  0.93134203  1
  O  O8  1  0.61623807  0.69886598  0.06865802  1
  O  O9  1  0.50000005  0.49999998  0.50000003  1
