# generated using pymatgen
data_K5AgTe5
_symmetry_space_group_name_H-M   'P 1'
_cell_length_a   6.11799002
_cell_length_b   6.11798954
_cell_length_c   11.22353554
_cell_angle_alpha   90.00000000
_cell_angle_beta   90.00000000
_cell_angle_gamma   120.00000000
_symmetry_Int_Tables_number   1
_chemical_formula_structural   K5AgTe5
_chemical_formula_sum   'K5 Ag1 Te5'
_cell_volume   363.81266354
_cell_formula_units_Z   1
loop_
 _symmetry_equiv_pos_site_id
 _symmetry_equiv_pos_as_xyz
  1  'x, y, z'
loop_
 _atom_site_type_symbol
 _atom_site_label
 _atom_site_symmetry_multiplicity
 _atom_site_fract_x
 _atom_site_fract_y
 _atom_site_fract_z
 _atom_site_occupancy
  K  K0  1  0.33333328  0.66666662  0.79914603  1
  K  K1  1  0.33333328  0.66666662  0.20085401  1
  K  K2  1  0.00000000  0.00000000  0.67064203  1
  K  K3  1  0.00000000  0.00000000  0.32935801  1
  K  K4  1  0.66666664  0.33333331  -0.00000000  1
  Te  Te5  1  0.66666664  0.33333331  0.67673903  1
  Ag  Ag6  1  0.48823696  0.51176296  0.50000002  1
  Te  Te7  1  0.48823693  0.97647393  0.50000002  1
  Te  Te8  1  0.66666664  0.33333331  0.32326101  1
  Te  Te9  1  0.02352596  0.51176296  0.50000002  1
  Te  Te10  1  0.00000000  0.00000000  0.00000000  1
