# generated using pymatgen
data_Al
_symmetry_space_group_name_H-M   'P 1'
_cell_length_a   3.94033003
_cell_length_b   6.27729177
_cell_length_c   6.27729177
_cell_angle_alpha   84.34687805
_cell_angle_beta   71.70824432
_cell_angle_gamma   71.70824432
_symmetry_Int_Tables_number   1
_chemical_formula_structural   Al
_chemical_formula_sum   Al9
_cell_volume   139.97172562
_cell_formula_units_Z   9
loop_
 _symmetry_equiv_pos_site_id
 _symmetry_equiv_pos_as_xyz
  1  'x, y, z'
loop_
 _atom_site_type_symbol
 _atom_site_label
 _atom_site_symmetry_multiplicity
 _atom_site_fract_x
 _atom_site_fract_y
 _atom_site_fract_z
 _atom_site_occupancy
  Al  Al0  1  0.00000000  0.00000000  0.00000000  1
  Al  Al1  1  0.66188398  0.00000000  0.67623201  1
  Al  Al2  1  0.33811599  0.00000000  0.32376801  1
  Al  Al3  1  0.66188408  0.67623197  0.99999995  1
  Al  Al4  1  0.32897209  0.67102797  0.67102794  1
  Al  Al5  1  0.00000010  0.67102797  0.32897193  1
  Al  Al6  1  0.00000005  0.32897199  0.67102796  1
  Al  Al7  1  0.67102803  0.32897199  0.32897199  1
  Al  Al8  1  0.33811604  0.32376799  0.99999997  1
