# generated using pymatgen
data_Lu4Si5Pd3
_symmetry_space_group_name_H-M   'P 1'
_cell_length_a   4.24005795
_cell_length_b   6.85821104
_cell_length_c   7.40426397
_cell_angle_alpha   90.00000000
_cell_angle_beta   90.00000000
_cell_angle_gamma   90.00000000
_symmetry_Int_Tables_number   1
_chemical_formula_structural   Lu4Si5Pd3
_chemical_formula_sum   'Lu4 Si5 Pd3'
_cell_volume   215.31016335
_cell_formula_units_Z   1
loop_
 _symmetry_equiv_pos_site_id
 _symmetry_equiv_pos_as_xyz
  1  'x, y, z'
loop_
 _atom_site_type_symbol
 _atom_site_label
 _atom_site_symmetry_multiplicity
 _atom_site_fract_x
 _atom_site_fract_y
 _atom_site_fract_z
 _atom_site_occupancy
  Lu  Lu0  1  0.25000000  0.01932000  0.80873400  1
  Lu  Lu1  1  0.25000000  0.51932000  0.69126600  1
  Lu  Lu2  1  0.75000001  0.98067999  0.19126600  1
  Lu  Lu3  1  0.75000001  0.48068000  0.30873400  1
  Pd  Pd4  1  0.25000000  0.17208800  0.42180600  1
  Si  Si5  1  0.25000000  0.67208800  0.07819400  1
  Si  Si6  1  0.75000001  0.82791200  0.57819400  1
  Pd  Pd7  1  0.75000001  0.32791200  0.92180600  1
  Pd  Pd8  1  0.25000000  0.79575500  0.39964300  1
  Si  Si9  1  0.25000000  0.29575500  0.10035700  1
  Si  Si10  1  0.75000001  0.20424500  0.60035700  1
  Si  Si11  1  0.75000001  0.70424500  0.89964300  1
