# generated using pymatgen
data_K2Cu3Se4
_symmetry_space_group_name_H-M   'P 1'
_cell_length_a   6.25916243
_cell_length_b   6.25916243
_cell_length_c   7.41476774
_cell_angle_alpha   102.62206268
_cell_angle_beta   102.62206268
_cell_angle_gamma   118.83398437
_symmetry_Int_Tables_number   1
_chemical_formula_structural   K2Cu3Se4
_chemical_formula_sum   'K2 Cu3 Se4'
_cell_volume   229.80865705
_cell_formula_units_Z   1
loop_
 _symmetry_equiv_pos_site_id
 _symmetry_equiv_pos_as_xyz
  1  'x, y, z'
loop_
 _atom_site_type_symbol
 _atom_site_label
 _atom_site_symmetry_multiplicity
 _atom_site_fract_x
 _atom_site_fract_y
 _atom_site_fract_z
 _atom_site_occupancy
  K  K0  1  0.15864600  0.15864600  0.31729200  1
  K  K1  1  0.84135402  0.84135402  0.68270802  1
  Cu  Cu2  1  0.50000001  0.50000001  0.99999999  1
  Cu  Cu3  1  0.50000001  1.00000003  1.00000000  1
  Cu  Cu4  1  -0.00000000  0.50000001  0.00000001  1
  Se  Se5  1  0.44656101  0.78272702  0.22928802  1
  Se  Se6  1  0.55343901  0.21727301  0.77071200  1
  Se  Se7  1  0.21727300  0.55343901  0.77071199  1
  Se  Se8  1  0.78272702  0.44656101  0.22928802  1
