# generated using pymatgen
data_EuAu2
_symmetry_space_group_name_H-M   'P 1'
_cell_length_a   6.09916353
_cell_length_b   6.09916353
_cell_length_c   6.09916353
_cell_angle_alpha   60.00000000
_cell_angle_beta   60.00000000
_cell_angle_gamma   60.00000000
_symmetry_Int_Tables_number   1
_chemical_formula_structural   EuAu2
_chemical_formula_sum   'Eu3 Au6'
_cell_volume   160.43378733
_cell_formula_units_Z   3
loop_
 _symmetry_equiv_pos_site_id
 _symmetry_equiv_pos_as_xyz
  1  'x, y, z'
loop_
 _atom_site_type_symbol
 _atom_site_label
 _atom_site_symmetry_multiplicity
 _atom_site_fract_x
 _atom_site_fract_y
 _atom_site_fract_z
 _atom_site_occupancy
  Au  Au0  1  0.75000002  0.75000002  0.75000002  1
  Au  Au1  1  0.25000001  0.25000001  0.25000001  1
  Eu  Eu2  1  0.00000000  0.00000000  0.00000000  1
  Au  Au3  1  0.23179601  0.76820402  0.23179601  1
  Au  Au4  1  0.76820402  0.23179601  0.76820402  1
  Au  Au5  1  0.23179601  0.76820402  0.76820402  1
  Au  Au6  1  0.76820402  0.23179601  0.23179601  1
  Eu  Eu7  1  0.23179601  0.23179601  0.76820402  1
  Eu  Eu8  1  0.76820402  0.76820402  0.23179601  1
