# generated using pymatgen
data_Na2ZnSi5O12
_symmetry_space_group_name_H-M   'P 1'
_cell_length_a   5.51826715
_cell_length_b   7.03863573
_cell_length_c   7.03863573
_cell_angle_alpha   88.63825226
_cell_angle_beta   75.83256531
_cell_angle_gamma   75.83256531
_symmetry_Int_Tables_number   1
_chemical_formula_structural   Na2ZnSi5O12
_chemical_formula_sum   'Na2 Zn1 Si5 O12'
_cell_volume   256.82066703
_cell_formula_units_Z   1
loop_
 _symmetry_equiv_pos_site_id
 _symmetry_equiv_pos_as_xyz
  1  'x, y, z'
loop_
 _atom_site_type_symbol
 _atom_site_label
 _atom_site_symmetry_multiplicity
 _atom_site_fract_x
 _atom_site_fract_y
 _atom_site_fract_z
 _atom_site_occupancy
  Na  Na0  1  0.74999998  0.10843000  0.89156998  1
  Na  Na1  1  0.25000002  0.89156997  0.10842998  1
  Zn  Zn2  1  0.25000000  0.24056699  0.75943298  1
  Si  Si3  1  0.75000000  0.75943298  0.24056699  1
  Si  Si4  1  0.29004302  0.78292797  0.61759197  1
  Si  Si5  1  0.20995701  0.38240799  0.21707199  1
  Si  Si6  1  0.70995699  0.21707199  0.38240800  1
  Si  Si7  1  0.79004300  0.61759198  0.78292798  1
  O  O8  1  0.39125902  0.83503097  0.39177198  1
  O  O9  1  0.95659698  0.32019899  0.36514600  1
  O  O10  1  0.54340300  0.63485398  0.67980098  1
  O  O11  1  0.31715400  0.22347999  0.02996000  1
  O  O12  1  0.18284603  0.97003997  0.77651996  1
  O  O13  1  0.10874102  0.60822798  0.16496898  1
  O  O14  1  0.81715398  0.02996000  0.22348001  1
  O  O15  1  0.89125899  0.39177199  0.83503098  1
  O  O16  1  0.45659700  0.36514599  0.32019899  1
  O  O17  1  0.60874099  0.16496899  0.60822799  1
  O  O18  1  0.68284601  0.77651997  0.97003997  1
  O  O19  1  0.04340302  0.67980098  0.63485397  1
