# generated using pymatgen
data_ZnCd2GaSe4
_symmetry_space_group_name_H-M   'P 1'
_cell_length_a   3.34089804
_cell_length_b   3.34089851
_cell_length_c   17.64769745
_cell_angle_alpha   90.00000000
_cell_angle_beta   90.00000000
_cell_angle_gamma   119.99999237
_symmetry_Int_Tables_number   1
_chemical_formula_structural   ZnCd2GaSe4
_chemical_formula_sum   'Zn1 Cd2 Ga1 Se4'
_cell_volume   170.58672023
_cell_formula_units_Z   1
loop_
 _symmetry_equiv_pos_site_id
 _symmetry_equiv_pos_as_xyz
  1  'x, y, z'
loop_
 _atom_site_type_symbol
 _atom_site_label
 _atom_site_symmetry_multiplicity
 _atom_site_fract_x
 _atom_site_fract_y
 _atom_site_fract_z
 _atom_site_occupancy
  Zn  Zn0  1  0.33333328  0.66666662  0.24999999  1
  Ga  Ga1  1  0.66666663  0.33333331  0.74999998  1
  Cd  Cd2  1  0.00000000  0.00000000  0.00000000  1
  Cd  Cd3  1  0.00000000  0.00000000  0.49999999  1
  Se  Se4  1  0.00000000  0.00000000  0.66159398  1
  Se  Se5  1  0.00000000  0.00000000  0.16159400  1
  Se  Se6  1  0.00000000  0.00000000  0.83840598  1
  Se  Se7  1  0.00000000  0.00000000  0.33840599  1
