# generated using pymatgen
data_Mg3Pb
_symmetry_space_group_name_H-M   'P 1'
_cell_length_a   4.69290590
_cell_length_b   4.76869202
_cell_length_c   9.30654621
_cell_angle_alpha   90.00000000
_cell_angle_beta   90.00000000
_cell_angle_gamma   90.00000000
_symmetry_Int_Tables_number   1
_chemical_formula_structural   Mg3Pb
_chemical_formula_sum   'Mg6 Pb2'
_cell_volume   208.27141091
_cell_formula_units_Z   2
loop_
 _symmetry_equiv_pos_site_id
 _symmetry_equiv_pos_as_xyz
  1  'x, y, z'
loop_
 _atom_site_type_symbol
 _atom_site_label
 _atom_site_symmetry_multiplicity
 _atom_site_fract_x
 _atom_site_fract_y
 _atom_site_fract_z
 _atom_site_occupancy
  Mg  Mg0  1  0.00000000  0.00000000  0.24571999  1
  Mg  Mg1  1  0.00000000  0.00000000  0.75427998  1
  Pb  Pb2  1  0.50000001  0.50000000  0.25166299  1
  Pb  Pb3  1  0.50000001  0.50000000  0.74833698  1
  Mg  Mg4  1  0.00000000  0.50000000  0.49999999  1
  Mg  Mg5  1  0.00000000  0.50000000  -0.00000000  1
  Mg  Mg6  1  0.50000001  0.00000000  0.49999999  1
  Mg  Mg7  1  0.50000001  0.00000000  0.00000000  1
