# generated using pymatgen
data_LiTeAu
_symmetry_space_group_name_H-M   'P 1'
_cell_length_a   3.34213996
_cell_length_b   3.34213996
_cell_length_c   4.77266121
_cell_angle_alpha   110.49549866
_cell_angle_beta   110.49549866
_cell_angle_gamma   90.00000000
_symmetry_Int_Tables_number   1
_chemical_formula_structural   LiTeAu
_chemical_formula_sum   'Li1 Te1 Au1'
_cell_volume   46.31583084
_cell_formula_units_Z   1
loop_
 _symmetry_equiv_pos_site_id
 _symmetry_equiv_pos_as_xyz
  1  'x, y, z'
loop_
 _atom_site_type_symbol
 _atom_site_label
 _atom_site_symmetry_multiplicity
 _atom_site_fract_x
 _atom_site_fract_y
 _atom_site_fract_z
 _atom_site_occupancy
  Te  Te0  1  0.33728000  0.33728000  0.67456002  1
  Au  Au1  1  0.66272001  0.66272001  0.32544001  1
  Li  Li2  1  0.00000000  0.00000000  0.00000000  1
