# generated using pymatgen
data_Ho(SiNi)2
_symmetry_space_group_name_H-M   'P 1'
_cell_length_a   3.87791610
_cell_length_b   3.87791610
_cell_length_c   5.36787605
_cell_angle_alpha   111.17484283
_cell_angle_beta   111.17484283
_cell_angle_gamma   90.00000000
_symmetry_Int_Tables_number   1
_chemical_formula_structural   Ho(SiNi)2
_chemical_formula_sum   'Ho1 Si2 Ni2'
_cell_volume   69.39615089
_cell_formula_units_Z   1
loop_
 _symmetry_equiv_pos_site_id
 _symmetry_equiv_pos_as_xyz
  1  'x, y, z'
loop_
 _atom_site_type_symbol
 _atom_site_label
 _atom_site_symmetry_multiplicity
 _atom_site_fract_x
 _atom_site_fract_y
 _atom_site_fract_z
 _atom_site_occupancy
  Ho  Ho0  1  0.00000000  0.00000000  0.00000000  1
  Ni  Ni1  1  0.25000003  0.75000000  0.50000004  1
  Ni  Ni2  1  0.75000001  0.25000000  0.50000004  1
  Si  Si3  1  0.37770902  0.37770900  0.75541802  1
  Si  Si4  1  0.62229103  0.62229100  0.24458205  1
