# generated using pymatgen
data_Li3O4
_symmetry_space_group_name_H-M   'P 1'
_cell_length_a   2.98711610
_cell_length_b   3.09851408
_cell_length_c   6.65591240
_cell_angle_alpha   103.45985413
_cell_angle_beta   102.96734619
_cell_angle_gamma   90.00000000
_symmetry_Int_Tables_number   1
_chemical_formula_structural   Li3O4
_chemical_formula_sum   'Li3 O4'
_cell_volume   58.29590998
_cell_formula_units_Z   1
loop_
 _symmetry_equiv_pos_site_id
 _symmetry_equiv_pos_as_xyz
  1  'x, y, z'
loop_
 _atom_site_type_symbol
 _atom_site_label
 _atom_site_symmetry_multiplicity
 _atom_site_fract_x
 _atom_site_fract_y
 _atom_site_fract_z
 _atom_site_occupancy
  Li  Li0  1  0.18415999  0.18415999  0.36832000  1
  Li  Li1  1  0.81583998  0.81583997  0.63168000  1
  O  O2  1  0.07429600  0.57429598  0.14859199  1
  O  O3  1  0.92570397  0.42570398  0.85140801  1
  O  O4  1  0.65248098  0.65248098  0.30496200  1
  O  O5  1  0.34751899  0.34751899  0.69503801  1
  Li  Li6  1  0.49999999  0.00000000  0.00000001  1
