# generated using pymatgen
data_VRe
_symmetry_space_group_name_H-M   'P 1'
_cell_length_a   3.39349794
_cell_length_b   3.39349771
_cell_length_c   3.44509506
_cell_angle_alpha   90.00000000
_cell_angle_beta   90.00000000
_cell_angle_gamma   120.00000763
_symmetry_Int_Tables_number   1
_chemical_formula_structural   VRe
_chemical_formula_sum   'V1 Re1'
_cell_volume   34.35792748
_cell_formula_units_Z   1
loop_
 _symmetry_equiv_pos_site_id
 _symmetry_equiv_pos_as_xyz
  1  'x, y, z'
loop_
 _atom_site_type_symbol
 _atom_site_label
 _atom_site_symmetry_multiplicity
 _atom_site_fract_x
 _atom_site_fract_y
 _atom_site_fract_z
 _atom_site_occupancy
  Re  Re0  1  0.00000000  0.00000000  0.00000000  1
  V  V1  1  0.33333339  0.66666667  0.49999999  1
