# generated using pymatgen
data_Dy2Al(Fe2Si3)3
_symmetry_space_group_name_H-M   'P 1'
_cell_length_a   5.93166590
_cell_length_b   6.61164618
_cell_length_c   6.61164618
_cell_angle_alpha   90.00000000
_cell_angle_beta   90.00000000
_cell_angle_gamma   90.00000000
_symmetry_Int_Tables_number   1
_chemical_formula_structural   Dy2Al(Fe2Si3)3
_chemical_formula_sum   'Dy2 Al1 Fe6 Si9'
_cell_volume   259.29604314
_cell_formula_units_Z   1
loop_
 _symmetry_equiv_pos_site_id
 _symmetry_equiv_pos_as_xyz
  1  'x, y, z'
loop_
 _atom_site_type_symbol
 _atom_site_label
 _atom_site_symmetry_multiplicity
 _atom_site_fract_x
 _atom_site_fract_y
 _atom_site_fract_z
 _atom_site_occupancy
  Dy  Dy0  1  0.00000000  0.49999999  0.49999999  1
  Dy  Dy1  1  0.00000000  0.00000000  0.00000000  1
  Fe  Fe2  1  0.50000001  0.67403798  0.17403800  1
  Fe  Fe3  1  0.50000001  0.17403800  0.32596199  1
  Fe  Fe4  1  0.50000001  0.82596198  0.67403798  1
  Fe  Fe5  1  0.50000001  0.32596199  0.82596198  1
  Fe  Fe6  1  0.00000000  0.00000000  0.49999999  1
  Fe  Fe7  1  0.00000000  0.49999999  -0.00000000  1
  Al  Al8  1  0.50000001  0.49999999  0.49999999  1
  Si  Si9  1  0.50000001  0.00000000  0.00000000  1
  Si  Si10  1  0.25918400  0.14052000  0.64051998  1
  Si  Si11  1  0.25918400  0.85947998  0.35947999  1
  Si  Si12  1  0.25918400  0.35947999  0.14052000  1
  Si  Si13  1  0.25918400  0.64051998  0.85947998  1
  Si  Si14  1  0.74081601  0.14052000  0.64051998  1
  Si  Si15  1  0.74081601  0.64051998  0.85947998  1
  Si  Si16  1  0.74081601  0.85947998  0.35947999  1
  Si  Si17  1  0.74081601  0.35947999  0.14052000  1
