# generated using pymatgen
data_Mg5O7
_symmetry_space_group_name_H-M   'P 1'
_cell_length_a   4.75632191
_cell_length_b   5.23726511
_cell_length_c   6.11103392
_cell_angle_alpha   90.00000000
_cell_angle_beta   90.00000000
_cell_angle_gamma   90.00000000
_symmetry_Int_Tables_number   1
_chemical_formula_structural   Mg5O7
_chemical_formula_sum   'Mg5 O7'
_cell_volume   152.22658070
_cell_formula_units_Z   1
loop_
 _symmetry_equiv_pos_site_id
 _symmetry_equiv_pos_as_xyz
  1  'x, y, z'
loop_
 _atom_site_type_symbol
 _atom_site_label
 _atom_site_symmetry_multiplicity
 _atom_site_fract_x
 _atom_site_fract_y
 _atom_site_fract_z
 _atom_site_occupancy
  O  O0  1  0.24480500  0.08118700  0.87642001  1
  O  O1  1  0.74480501  0.91881298  0.62358001  1
  O  O2  1  0.25519500  0.58118699  0.62358001  1
  O  O3  1  0.75519501  0.41881299  0.87642001  1
  O  O4  1  0.24480500  0.58118699  0.12358000  1
  O  O5  1  0.74480501  0.41881299  0.37642001  1
  O  O6  1  0.25519500  0.08118700  0.37642001  1
  Mg  Mg7  1  0.75519501  0.91881298  0.12358000  1
  Mg  Mg8  1  0.50000001  0.74999998  0.87825001  1
  Mg  Mg9  1  0.00000000  0.24999999  0.62175001  1
  Mg  Mg10  1  0.50000001  0.24999999  0.12175000  1
  Mg  Mg11  1  0.00000000  0.74999998  0.37825001  1
