# generated using pymatgen
data_LiCr(CuS)3
_symmetry_space_group_name_H-M   'P 1'
_cell_length_a   3.15826797
_cell_length_b   5.30109882
_cell_length_c   5.91243887
_cell_angle_alpha   90.00000000
_cell_angle_beta   90.00000000
_cell_angle_gamma   90.00000000
_symmetry_Int_Tables_number   1
_chemical_formula_structural   LiCr(CuS)3
_chemical_formula_sum   'Li1 Cr1 Cu3 S3'
_cell_volume   98.98776998
_cell_formula_units_Z   1
loop_
 _symmetry_equiv_pos_site_id
 _symmetry_equiv_pos_as_xyz
  1  'x, y, z'
loop_
 _atom_site_type_symbol
 _atom_site_label
 _atom_site_symmetry_multiplicity
 _atom_site_fract_x
 _atom_site_fract_y
 _atom_site_fract_z
 _atom_site_occupancy
  Cr  Cr0  1  0.50000000  0.49687502  0.04343000  1
  Cu  Cu1  1  0.50000000  0.99687503  0.95657002  1
  Cu  Cu2  1  0.00000000  0.49498502  0.44177401  1
  Cu  Cu3  1  0.00000000  0.99498503  0.55822601  1
  Li  Li4  1  0.50000000  0.30725401  0.67927601  1
  S  S5  1  0.50000000  0.80725403  0.32072401  1
  S  S6  1  0.00000000  0.70088602  0.82426502  1
  S  S7  1  0.00000000  0.20088601  0.17573500  1
