# generated using pymatgen
data_In2O3
_symmetry_space_group_name_H-M   'P 1'
_cell_length_a   6.38898182
_cell_length_b   6.38898182
_cell_length_c   8.47689915
_cell_angle_alpha   90.00000000
_cell_angle_beta   90.00000000
_cell_angle_gamma   90.00000000
_symmetry_Int_Tables_number   1
_chemical_formula_structural   In2O3
_chemical_formula_sum   'In8 O12'
_cell_volume   346.01929806
_cell_formula_units_Z   4
loop_
 _symmetry_equiv_pos_site_id
 _symmetry_equiv_pos_as_xyz
  1  'x, y, z'
loop_
 _atom_site_type_symbol
 _atom_site_label
 _atom_site_symmetry_multiplicity
 _atom_site_fract_x
 _atom_site_fract_y
 _atom_site_fract_z
 _atom_site_occupancy
  O  O0  1  0.49864501  0.74481902  0.62769899  1
  O  O1  1  0.99864503  0.75518102  0.62230099  1
  O  O2  1  0.24481901  0.00135500  0.87769898  1
  O  O3  1  0.75518102  0.99864503  0.37769899  1
  O  O4  1  0.25518101  0.50135501  0.87230098  1
  O  O5  1  0.00135500  0.24481901  0.12230100  1
  O  O6  1  0.50135501  0.25518101  0.12769900  1
  O  O7  1  0.74481902  0.49864501  0.37230099  1
  O  O8  1  0.21784301  0.21784301  0.49999999  1
  O  O9  1  0.28215701  0.71784302  0.25000000  1
  O  O10  1  0.71784302  0.28215701  0.74999999  1
  O  O11  1  0.78215702  0.78215702  0.00000000  1
  In  In12  1  0.24777601  0.62689602  0.48542599  1
  In  In13  1  0.75222402  0.37310401  0.98542598  1
  In  In14  1  0.62689602  0.24777601  0.51457399  1
  In  In15  1  0.12689600  0.25222401  0.73542599  1
  In  In16  1  0.74777602  0.87310402  0.76457399  1
  In  In17  1  0.37310401  0.75222402  0.01457400  1
  In  In18  1  0.87310402  0.74777602  0.23542600  1
  In  In19  1  0.25222401  0.12689600  0.26457400  1
