# generated using pymatgen
data_Ce2B9Rh7
_symmetry_space_group_name_H-M   'P 1'
_cell_length_a   5.32565689
_cell_length_b   5.32565689
_cell_length_c   7.42021513
_cell_angle_alpha   90.00000000
_cell_angle_beta   90.00000000
_cell_angle_gamma   90.00000000
_symmetry_Int_Tables_number   1
_chemical_formula_structural   Ce2B9Rh7
_chemical_formula_sum   'Ce2 B9 Rh7'
_cell_volume   210.45675184
_cell_formula_units_Z   1
loop_
 _symmetry_equiv_pos_site_id
 _symmetry_equiv_pos_as_xyz
  1  'x, y, z'
loop_
 _atom_site_type_symbol
 _atom_site_label
 _atom_site_symmetry_multiplicity
 _atom_site_fract_x
 _atom_site_fract_y
 _atom_site_fract_z
 _atom_site_occupancy
  Ce  Ce0  1  0.00000000  0.00000000  0.00000000  1
  Ce  Ce1  1  0.50000001  0.50000001  0.49999999  1
  B  B2  1  0.83127202  0.50000001  0.14949500  1
  B  B3  1  0.16872800  0.50000001  0.14949500  1
  B  B4  1  0.00000000  0.33127201  0.64949499  1
  B  B5  1  0.00000000  0.66872801  0.64949499  1
  B  B6  1  0.66872801  0.00000000  0.35050499  1
  B  B7  1  0.33127201  0.00000000  0.35050499  1
  B  B8  1  0.50000001  0.16872800  0.85050499  1
  B  B9  1  0.50000001  0.83127202  0.85050499  1
  Rh  Rh10  1  0.25094101  0.50000001  0.85411099  1
  Rh  Rh11  1  0.74905902  0.50000001  0.85411099  1
  B  B12  1  0.00000000  0.75094102  0.35411099  1
  Rh  Rh13  1  0.00000000  0.24905901  0.35411099  1
  Rh  Rh14  1  0.24905901  0.00000000  0.64588899  1
  Rh  Rh15  1  0.75094102  0.00000000  0.64588899  1
  Rh  Rh16  1  0.50000001  0.74905902  0.14588900  1
  Rh  Rh17  1  0.50000001  0.25094101  0.14588900  1
