# generated using pymatgen
data_Ba4Ce3UO12
_symmetry_space_group_name_H-M   'P 1'
_cell_length_a   6.34114695
_cell_length_b   6.38888121
_cell_length_c   9.00899982
_cell_angle_alpha   89.90316772
_cell_angle_beta   89.89923096
_cell_angle_gamma   89.99137115
_symmetry_Int_Tables_number   1
_chemical_formula_structural   Ba4Ce3UO12
_chemical_formula_sum   'Ba4 Ce3 U1 O12'
_cell_volume   364.97902967
_cell_formula_units_Z   1
loop_
 _symmetry_equiv_pos_site_id
 _symmetry_equiv_pos_as_xyz
  1  'x, y, z'
loop_
 _atom_site_type_symbol
 _atom_site_label
 _atom_site_symmetry_multiplicity
 _atom_site_fract_x
 _atom_site_fract_y
 _atom_site_fract_z
 _atom_site_occupancy
  Ba  Ba0  1  0.50941899  0.53089299  0.24262197  1
  Ba  Ba1  1  0.99451501  0.03175300  0.24215595  1
  Ba  Ba2  1  0.49058099  0.46910699  0.75737797  1
  Ba  Ba3  1  0.00548497  0.96824698  0.75784398  1
  Ce  Ce4  1  0.50000000  0.00000000  -0.00000002  1
  Ce  Ce5  1  -0.00000001  0.49999999  0.49999999  1
  Ce  Ce6  1  0.50000000  0.00000000  0.49999998  1
  U  U7  1  -0.00000001  0.49999999  -0.00000001  1
  O  O8  1  0.08050599  0.48158899  0.23394799  1
  O  O9  1  0.41940098  0.97216698  0.24767396  1
  O  O10  1  0.91949399  0.51841099  0.76605195  1
  O  O11  1  0.58059900  0.02783300  0.75232597  1
  O  O12  1  0.25907098  0.71504598  0.95646697  1
  O  O13  1  0.19855400  0.20062700  0.54438599  1
  O  O14  1  0.70043900  0.30129899  0.45320196  1
  O  O15  1  0.78750799  0.76133798  0.04021795  1
  O  O16  1  0.74092900  0.28495399  0.04353296  1
  O  O17  1  0.80144598  0.79937298  0.45561395  1
  O  O18  1  0.29956098  0.69870099  0.54679797  1
  O  O19  1  0.21249200  0.23866199  0.95978198  1
