# generated using pymatgen
data_Ca6BeMoO9
_symmetry_space_group_name_H-M   'P 1'
_cell_length_a   6.91765547
_cell_length_b   6.91765547
_cell_length_c   6.91765547
_cell_angle_alpha   60.00000000
_cell_angle_beta   60.00000000
_cell_angle_gamma   60.00000000
_symmetry_Int_Tables_number   1
_chemical_formula_structural   Ca6BeMoO9
_chemical_formula_sum   'Ca6 Be1 Mo1 O9'
_cell_volume   234.07864082
_cell_formula_units_Z   1
loop_
 _symmetry_equiv_pos_site_id
 _symmetry_equiv_pos_as_xyz
  1  'x, y, z'
loop_
 _atom_site_type_symbol
 _atom_site_label
 _atom_site_symmetry_multiplicity
 _atom_site_fract_x
 _atom_site_fract_y
 _atom_site_fract_z
 _atom_site_occupancy
  Ca  Ca0  1  0.23570400  0.76429599  0.23570400  1
  Ca  Ca1  1  0.23570400  0.76429599  0.76429599  1
  Ca  Ca2  1  0.76429599  0.23570400  0.23570400  1
  Ca  Ca3  1  0.23570400  0.23570400  0.76429599  1
  Ca  Ca4  1  0.76429599  0.76429599  0.23570400  1
  Ca  Ca5  1  0.76429599  0.23570400  0.76429599  1
  Mo  Mo6  1  0.74999999  0.74999999  0.74999999  1
  Be  Be7  1  0.25000000  0.25000000  0.25000000  1
  O  O8  1  0.00000000  0.00000000  0.00000000  1
  O  O9  1  0.66179199  0.01462400  0.66179199  1
  O  O10  1  0.33820799  0.33820799  0.33820799  1
  O  O11  1  0.98537598  0.33820799  0.33820799  1
  O  O12  1  0.33820799  0.33820799  0.98537598  1
  O  O13  1  0.66179199  0.66179199  0.01462400  1
  O  O14  1  0.66179199  0.66179199  0.66179199  1
  O  O15  1  0.01462400  0.66179199  0.66179199  1
  O  O16  1  0.33820799  0.98537598  0.33820799  1
