# generated using pymatgen
data_K8SF11
_symmetry_space_group_name_H-M   'P 1'
_cell_length_a   6.53539991
_cell_length_b   7.18761301
_cell_length_c   9.62115955
_cell_angle_alpha   90.00000000
_cell_angle_beta   90.00000000
_cell_angle_gamma   90.00000000
_symmetry_Int_Tables_number   1
_chemical_formula_structural   K8SF11
_chemical_formula_sum   'K8 S1 F11'
_cell_volume   451.94363160
_cell_formula_units_Z   1
loop_
 _symmetry_equiv_pos_site_id
 _symmetry_equiv_pos_as_xyz
  1  'x, y, z'
loop_
 _atom_site_type_symbol
 _atom_site_label
 _atom_site_symmetry_multiplicity
 _atom_site_fract_x
 _atom_site_fract_y
 _atom_site_fract_z
 _atom_site_occupancy
  K  K0  1  0.53778501  0.40358700  0.75000003  1
  K  K1  1  0.46221501  0.59641300  0.25000001  1
  K  K2  1  0.03778500  0.09641300  0.25000001  1
  K  K3  1  0.96221501  0.90358700  0.75000003  1
  K  K4  1  0.00000000  0.50000000  -0.00000000  1
  K  K5  1  0.00000000  0.50000000  0.50000002  1
  K  K6  1  0.50000001  0.00000000  0.50000002  1
  K  K7  1  0.50000001  0.00000000  0.00000000  1
  F  F8  1  0.82144701  0.18955100  0.56080503  1
  F  F9  1  0.17855300  0.81044900  0.06080500  1
  F  F10  1  0.32144700  0.31044900  0.06080500  1
  F  F11  1  0.67855301  0.68955100  0.56080503  1
  F  F12  1  0.82144701  0.18955100  0.93919504  1
  F  F13  1  0.17855300  0.81044900  0.43919502  1
  F  F14  1  0.32144700  0.31044900  0.43919502  1
  F  F15  1  0.67855301  0.68955100  0.93919504  1
  F  F16  1  0.87409901  0.46398200  0.25000001  1
  F  F17  1  0.12590100  0.53601800  0.75000003  1
  F  F18  1  0.37409900  0.03601800  0.75000003  1
  S  S19  1  0.62590101  0.96398200  0.25000001  1
