# generated using pymatgen
data_Na2Mn2O5
_symmetry_space_group_name_H-M   'P 1'
_cell_length_a   5.47642422
_cell_length_b   5.69119596
_cell_length_c   8.42374897
_cell_angle_alpha   109.74329376
_cell_angle_beta   108.96912384
_cell_angle_gamma   90.00000000
_symmetry_Int_Tables_number   1
_chemical_formula_structural   Na2Mn2O5
_chemical_formula_sum   'Na4 Mn4 O10'
_cell_volume   231.90792748
_cell_formula_units_Z   2
loop_
 _symmetry_equiv_pos_site_id
 _symmetry_equiv_pos_as_xyz
  1  'x, y, z'
loop_
 _atom_site_type_symbol
 _atom_site_label
 _atom_site_symmetry_multiplicity
 _atom_site_fract_x
 _atom_site_fract_y
 _atom_site_fract_z
 _atom_site_occupancy
  Na  Na0  1  0.60591797  0.07807300  0.21412699  1
  Na  Na1  1  0.39179096  0.92192699  0.78587296  1
  Na  Na2  1  0.10591798  0.63605399  0.21412697  1
  Na  Na3  1  0.89179095  0.36394599  0.78587298  1
  Mn  Mn4  1  0.01014900  0.00000000  -0.00000000  1
  Mn  Mn5  1  0.51014896  0.49999999  -0.00000003  1
  Mn  Mn6  1  0.20869698  0.31945500  0.49999999  1
  Mn  Mn7  1  0.70869695  0.68054499  0.49999996  1
  O  O8  1  0.24426497  0.73088899  0.96902897  1
  O  O9  1  0.27523698  0.26911100  0.03097199  1
  O  O10  1  0.74426595  0.73813999  0.96902996  1
  O  O11  1  0.77523596  0.26186000  0.03097098  1
  O  O12  1  0.17815699  0.06696500  0.28154000  1
  O  O13  1  0.89661693  0.93303499  0.71846095  1
  O  O14  1  0.67815595  0.71457399  0.28153896  1
  O  O15  1  0.39661797  0.28542600  0.71846199  1
  O  O16  1  0.85316895  0.36886299  0.49999998  1
  O  O17  1  0.35316897  0.63113699  0.49999997  1
