# generated using pymatgen
data_LaDy(CrTe3)3
_symmetry_space_group_name_H-M   'P 1'
_cell_length_a   8.26931381
_cell_length_b   8.26931381
_cell_length_c   8.26931477
_cell_angle_alpha   60.46654510
_cell_angle_beta   60.46654510
_cell_angle_gamma   60.46654892
_symmetry_Int_Tables_number   1
_chemical_formula_structural   LaDy(CrTe3)3
_chemical_formula_sum   'La1 Dy1 Cr3 Te9'
_cell_volume   404.06352190
_cell_formula_units_Z   1
loop_
 _symmetry_equiv_pos_site_id
 _symmetry_equiv_pos_as_xyz
  1  'x, y, z'
loop_
 _atom_site_type_symbol
 _atom_site_label
 _atom_site_symmetry_multiplicity
 _atom_site_fract_x
 _atom_site_fract_y
 _atom_site_fract_z
 _atom_site_occupancy
  La  La0  1  0.00000000  0.00000000  0.00000000  1
  Te  Te1  1  0.50000002  0.00000000  0.00000002  1
  Cr  Cr2  1  -0.00000003  0.50000003  1.00000001  1
  Te  Te3  1  0.00000000  0.00000000  0.49999999  1
  Cr  Cr4  1  0.41513899  0.41513902  0.41513903  1
  Cr  Cr5  1  0.58486099  0.58486103  0.58486104  1
  Te  Te6  1  0.20938197  0.75834704  0.75834704  1
  Te  Te7  1  0.75834702  0.20938201  0.75834703  1
  Te  Te8  1  0.75834699  0.75834704  0.20938206  1
  Te  Te9  1  0.79061802  0.24165301  0.24165304  1
  Te  Te10  1  0.24165296  0.79061805  0.24165305  1
  Te  Te11  1  0.24165300  0.24165301  0.79061801  1
  Te  Te12  1  0.73572699  0.73572704  0.73572705  1
  Dy  Dy13  1  0.26427300  0.26427302  0.26427302  1
