# generated using pymatgen
data_Na4S2O5
_symmetry_space_group_name_H-M   'P 1'
_cell_length_a   3.68532610
_cell_length_b   6.58228922
_cell_length_c   7.33639669
_cell_angle_alpha   82.44711304
_cell_angle_beta   75.45339966
_cell_angle_gamma   73.74322510
_symmetry_Int_Tables_number   1
_chemical_formula_structural   Na4S2O5
_chemical_formula_sum   'Na4 S2 O5'
_cell_volume   165.01478344
_cell_formula_units_Z   1
loop_
 _symmetry_equiv_pos_site_id
 _symmetry_equiv_pos_as_xyz
  1  'x, y, z'
loop_
 _atom_site_type_symbol
 _atom_site_label
 _atom_site_symmetry_multiplicity
 _atom_site_fract_x
 _atom_site_fract_y
 _atom_site_fract_z
 _atom_site_occupancy
  Na  Na0  1  0.81223403  0.76131200  0.61422002  1
  Na  Na1  1  0.18776601  0.23868800  0.38578001  1
  Na  Na2  1  0.57673903  0.69131600  0.15520602  1
  Na  Na3  1  0.42326101  0.30868400  0.84479401  1
  S  S4  1  0.91156999  0.06683000  0.11002998  1
  S  S5  1  0.08843005  0.93317000  0.88997004  1
  O  O6  1  0.88346304  0.93924000  0.29383403  1
  O  O7  1  0.11653700  0.06076000  0.70616600  1
  O  O8  1  0.79861900  0.30138400  0.10137800  1
  O  O9  1  0.20138104  0.69861600  0.89862203  1
  O  O10  1  0.50000002  0.50000000  0.50000001  1
