# generated using pymatgen
data_La5In8NiPt4
_symmetry_space_group_name_H-M   'P 1'
_cell_length_a   8.38297367
_cell_length_b   8.38297367
_cell_length_c   8.38297367
_cell_angle_alpha   72.90166473
_cell_angle_beta   69.25841522
_cell_angle_gamma   110.59951782
_symmetry_Int_Tables_number   1
_chemical_formula_structural   La5In8NiPt4
_chemical_formula_sum   'La5 In8 Ni1 Pt4'
_cell_volume   452.91383296
_cell_formula_units_Z   1
loop_
 _symmetry_equiv_pos_site_id
 _symmetry_equiv_pos_as_xyz
  1  'x, y, z'
loop_
 _atom_site_type_symbol
 _atom_site_label
 _atom_site_symmetry_multiplicity
 _atom_site_fract_x
 _atom_site_fract_y
 _atom_site_fract_z
 _atom_site_occupancy
  La  La0  1  0.47156798  0.28870799  0.81713995  1
  La  La1  1  0.52843198  0.71129197  0.18285997  1
  La  La2  1  0.10584900  0.28870899  0.18285899  1
  La  La3  1  0.89415097  0.71129097  0.81714094  1
  In  In4  1  0.30939899  0.99778296  0.31161597  1
  In  In5  1  0.69060098  0.00221700  0.68838395  1
  In  In6  1  0.69060098  0.37898498  0.31161597  1
  In  In7  1  0.30939899  0.62101497  0.68838396  1
  In  In8  1  0.19514899  0.79309997  0.01175099  1
  In  In9  1  0.80485097  0.20689999  0.98824894  1
  In  In10  1  0.80485097  0.79309997  0.40204896  1
  In  In11  1  0.19514899  0.20689999  0.59795097  1
  Pt  Pt12  1  0.37924699  0.00000000  0.62075296  1
  Ni  Ni13  1  0.62075298  0.00000000  0.37924697  1
  Pt  Pt14  1  0.49999998  0.60976298  0.89023695  1
  Pt  Pt15  1  0.49999998  0.39023698  0.10976298  1
  Pt  Pt16  1  0.00000000  0.00000000  0.00000000  1
  La  La17  1  -0.00000000  0.49999998  0.49999998  1
