# generated using pymatgen
data_CeTe3
_symmetry_space_group_name_H-M   'P 1'
_cell_length_a   4.33743382
_cell_length_b   4.34013605
_cell_length_c   13.11046696
_cell_angle_alpha   90.00000000
_cell_angle_beta   99.52156067
_cell_angle_gamma   90.00000000
_symmetry_Int_Tables_number   1
_chemical_formula_structural   CeTe3
_chemical_formula_sum   'Ce2 Te6'
_cell_volume   243.40510244
_cell_formula_units_Z   2
loop_
 _symmetry_equiv_pos_site_id
 _symmetry_equiv_pos_as_xyz
  1  'x, y, z'
loop_
 _atom_site_type_symbol
 _atom_site_label
 _atom_site_symmetry_multiplicity
 _atom_site_fract_x
 _atom_site_fract_y
 _atom_site_fract_z
 _atom_site_occupancy
  Ce  Ce0  1  0.16973701  0.74999999  0.33947401  1
  Ce  Ce1  1  0.83026303  0.25000000  0.66052602  1
  Te  Te2  1  0.92539804  0.74999999  0.85079603  1
  Te  Te3  1  0.07460200  0.25000000  0.14920400  1
  Te  Te4  1  0.57471902  0.74999999  0.14943800  1
  Te  Te5  1  0.42528102  0.25000000  0.85056203  1
  Te  Te6  1  0.29332001  0.74999999  0.58664002  1
  Te  Te7  1  0.70668003  0.25000000  0.41336001  1
