# generated using pymatgen
data_Mg5O7
_symmetry_space_group_name_H-M   'P 1'
_cell_length_a   4.75410509
_cell_length_b   5.24148083
_cell_length_c   6.07648516
_cell_angle_alpha   90.00000000
_cell_angle_beta   90.00000000
_cell_angle_gamma   90.00000000
_symmetry_Int_Tables_number   1
_chemical_formula_structural   Mg5O7
_chemical_formula_sum   'Mg5 O7'
_cell_volume   151.41720338
_cell_formula_units_Z   1
loop_
 _symmetry_equiv_pos_site_id
 _symmetry_equiv_pos_as_xyz
  1  'x, y, z'
loop_
 _atom_site_type_symbol
 _atom_site_label
 _atom_site_symmetry_multiplicity
 _atom_site_fract_x
 _atom_site_fract_y
 _atom_site_fract_z
 _atom_site_occupancy
  O  O0  1  0.24650000  0.07945700  0.87744698  1
  O  O1  1  0.74649999  0.92054303  0.62255298  1
  O  O2  1  0.25350000  0.57945702  0.62255298  1
  O  O3  1  0.75349999  0.42054301  0.87744698  1
  O  O4  1  0.24650000  0.57945702  0.12255300  1
  O  O5  1  0.74649999  0.42054301  0.37744699  1
  O  O6  1  0.25350000  0.07945700  0.37744699  1
  Mg  Mg7  1  0.75349999  0.92054303  0.12255300  1
  Mg  Mg8  1  0.49999999  0.75000002  0.87702298  1
  Mg  Mg9  1  0.00000000  0.25000001  0.62297698  1
  Mg  Mg10  1  0.49999999  0.25000001  0.12297700  1
  Mg  Mg11  1  0.00000000  0.75000002  0.37702299  1
