# generated using pymatgen
data_LiV4F12
_symmetry_space_group_name_H-M   'P 1'
_cell_length_a   4.67640591
_cell_length_b   4.67640591
_cell_length_c   8.93748856
_cell_angle_alpha   90.00000000
_cell_angle_beta   90.00000000
_cell_angle_gamma   93.68723297
_symmetry_Int_Tables_number   1
_chemical_formula_structural   LiV4F12
_chemical_formula_sum   'Li1 V4 F12'
_cell_volume   195.04731060
_cell_formula_units_Z   1
loop_
 _symmetry_equiv_pos_site_id
 _symmetry_equiv_pos_as_xyz
  1  'x, y, z'
loop_
 _atom_site_type_symbol
 _atom_site_label
 _atom_site_symmetry_multiplicity
 _atom_site_fract_x
 _atom_site_fract_y
 _atom_site_fract_z
 _atom_site_occupancy
  V  V0  1  0.00000000  0.00000000  0.31928002  1
  V  V1  1  0.00000000  0.00000000  0.68072003  1
  V  V2  1  0.49999998  0.49999998  0.50000002  1
  Li  Li3  1  0.49999998  0.49999998  0.82702504  1
  V  V4  1  0.49999998  0.49999998  0.17297501  1
  F  F5  1  0.30312399  0.30312399  0.65439103  1
  F  F6  1  0.30312399  0.30312399  0.34560902  1
  F  F7  1  0.69687597  0.69687597  0.65439103  1
  F  F8  1  0.69687597  0.69687597  0.34560902  1
  F  F9  1  0.79202897  0.20797099  0.50000002  1
  F  F10  1  0.79126497  0.20873499  0.17472701  1
  F  F11  1  0.79126497  0.20873499  0.82527304  1
  F  F12  1  0.30619999  0.30619999  -0.00000000  1
  F  F13  1  0.69379997  0.69379997  -0.00000000  1
  F  F14  1  0.20873499  0.79126497  0.82527304  1
  F  F15  1  0.20873499  0.79126497  0.17472701  1
  F  F16  1  0.20797099  0.79202897  0.50000002  1
