# generated using pymatgen
data_PrAlC2
_symmetry_space_group_name_H-M   'P 1'
_cell_length_a   3.08635998
_cell_length_b   3.08635998
_cell_length_c   13.04986668
_cell_angle_alpha   90.00000000
_cell_angle_beta   90.00000000
_cell_angle_gamma   120.00000000
_symmetry_Int_Tables_number   1
_chemical_formula_structural   PrAlC2
_chemical_formula_sum   'Pr2 Al2 C4'
_cell_volume   107.65392379
_cell_formula_units_Z   2
loop_
 _symmetry_equiv_pos_site_id
 _symmetry_equiv_pos_as_xyz
  1  'x, y, z'
loop_
 _atom_site_type_symbol
 _atom_site_label
 _atom_site_symmetry_multiplicity
 _atom_site_fract_x
 _atom_site_fract_y
 _atom_site_fract_z
 _atom_site_occupancy
  C  C0  1  0.33333332  0.66666663  0.41112901  1
  C  C1  1  0.66666666  0.33333332  0.58887101  1
  C  C2  1  0.66666666  0.33333332  0.91112902  1
  C  C3  1  0.33333332  0.66666663  0.08887100  1
  Pr  Pr4  1  0.33333332  0.66666663  0.75000002  1
  Pr  Pr5  1  0.66666666  0.33333332  0.25000001  1
  Al  Al6  1  0.00000000  0.00000000  0.50000001  1
  Al  Al7  1  0.00000000  0.00000000  0.00000000  1
