# generated using pymatgen
data_TmNi4B
_symmetry_space_group_name_H-M   'P 1'
_cell_length_a   5.05390692
_cell_length_b   5.05390787
_cell_length_c   6.82150412
_cell_angle_alpha   90.00000000
_cell_angle_beta   90.00000000
_cell_angle_gamma   119.98815155
_symmetry_Int_Tables_number   1
_chemical_formula_structural   TmNi4B
_chemical_formula_sum   'Tm2 Ni8 B2'
_cell_volume   150.90970709
_cell_formula_units_Z   2
loop_
 _symmetry_equiv_pos_site_id
 _symmetry_equiv_pos_as_xyz
  1  'x, y, z'
loop_
 _atom_site_type_symbol
 _atom_site_label
 _atom_site_symmetry_multiplicity
 _atom_site_fract_x
 _atom_site_fract_y
 _atom_site_fract_z
 _atom_site_occupancy
  Tm  Tm0  1  0.00002200  0.00002200  0.99999998  1
  Tm  Tm1  1  0.00000800  0.00000800  0.49999999  1
  Ni  Ni2  1  0.66666667  0.33343166  0.99999998  1
  Ni  Ni3  1  0.33342298  0.66665798  0.99999998  1
  Ni  Ni4  1  0.50000099  0.50000098  0.71140799  1
  Ni  Ni5  1  0.50000601  0.00001500  0.71143499  1
  Ni  Ni6  1  0.00001598  0.50000698  0.71143499  1
  Ni  Ni7  1  0.50000099  0.50000098  0.28859200  1
  Ni  Ni8  1  0.50000601  0.00001500  0.28856600  1
  Ni  Ni9  1  0.00001598  0.50000698  0.28856600  1
  B  B10  1  0.66666667  0.33333332  0.49999999  1
  B  B11  1  0.33333331  0.66666665  0.49999999  1
