# generated using pymatgen
data_SrH7BrO7
_symmetry_space_group_name_H-M   'P 1'
_cell_length_a   4.17621279
_cell_length_b   6.43950367
_cell_length_c   7.20690632
_cell_angle_alpha   70.63074493
_cell_angle_beta   89.39181519
_cell_angle_gamma   89.31600952
_symmetry_Int_Tables_number   1
_chemical_formula_structural   SrH7BrO7
_chemical_formula_sum   'Sr1 H7 Br1 O7'
_cell_volume   182.82616782
_cell_formula_units_Z   1
loop_
 _symmetry_equiv_pos_site_id
 _symmetry_equiv_pos_as_xyz
  1  'x, y, z'
loop_
 _atom_site_type_symbol
 _atom_site_label
 _atom_site_symmetry_multiplicity
 _atom_site_fract_x
 _atom_site_fract_y
 _atom_site_fract_z
 _atom_site_occupancy
  Sr  Sr0  1  0.74884703  0.13489201  0.71798704  1
  Br  Br1  1  0.25115294  0.86510804  0.28201298  1
  H  H2  1  0.24816398  0.35070302  0.93743502  1
  O  O3  1  0.75183598  0.64929703  0.06256500  1
  O  O4  1  0.24990695  0.76749303  0.83225800  1
  O  O5  1  0.75009302  0.23250701  0.16774202  1
  O  O6  1  0.44062600  0.31508301  0.33879801  1
  O  O7  1  0.05633698  0.31942101  0.33820800  1
  H  H8  1  0.94932099  0.65971403  0.65890102  1
  H  H9  1  0.55937397  0.68491703  0.66120201  1
  H  H10  1  0.24805098  0.38925602  0.37860900  1
  O  O11  1  0.75622299  0.59818603  0.61385302  1
  O  O12  1  0.24257900  0.20037601  0.93612803  1
  H  H13  1  0.75742097  0.79962403  0.06387199  1
  H  H14  1  0.26699195  0.81887904  0.68884800  1
  H  H15  1  0.75058702  0.17110201  0.30652103  1
