# generated using pymatgen
data_LaZr4FeS11
_symmetry_space_group_name_H-M   'P 1'
_cell_length_a   7.24265003
_cell_length_b   7.24265003
_cell_length_c   7.24265003
_cell_angle_alpha   109.47122192
_cell_angle_beta   109.47122192
_cell_angle_gamma   109.47122192
_symmetry_Int_Tables_number   1
_chemical_formula_structural   LaZr4FeS11
_chemical_formula_sum   'La1 Zr4 Fe1 S11'
_cell_volume   292.46277050
_cell_formula_units_Z   1
loop_
 _symmetry_equiv_pos_site_id
 _symmetry_equiv_pos_as_xyz
  1  'x, y, z'
loop_
 _atom_site_type_symbol
 _atom_site_label
 _atom_site_symmetry_multiplicity
 _atom_site_fract_x
 _atom_site_fract_y
 _atom_site_fract_z
 _atom_site_occupancy
  La  La0  1  0.00000000  0.00000000  0.00000000  1
  Fe  Fe1  1  0.50000004  0.50000003  0.50000005  1
  S  S2  1  1.00000002  0.00000000  0.50000003  1
  S  S3  1  0.00000003  0.50000003  0.00000003  1
  S  S4  1  0.50000001  0.00000000  0.00000001  1
  S  S5  1  0.34399902  0.15682701  0.50082602  1
  S  S6  1  0.65600107  0.84317304  0.49917407  1
  S  S7  1  0.18717203  0.34399902  0.84317304  1
  Zr  Zr8  1  0.15682706  0.81282804  0.65600106  1
  S  S9  1  0.50082603  0.34399902  0.15682703  1
  Zr  Zr10  1  0.84317303  0.18717201  0.34399904  1
  S  S11  1  0.81282806  0.65600103  0.15682706  1
  S  S12  1  0.15682704  0.50082603  0.34399904  1
  S  S13  1  0.84317305  0.49917403  0.65600106  1
  S  S14  1  0.49917405  0.65600103  0.84317306  1
  Zr  Zr15  1  0.34399906  0.84317304  0.18717206  1
  Zr  Zr16  1  0.65600102  0.15682701  0.81282804  1
