# generated using pymatgen
data_Mg3GeIr
_symmetry_space_group_name_H-M   'P 1'
_cell_length_a   3.56185389
_cell_length_b   3.88755798
_cell_length_c   7.30096054
_cell_angle_alpha   74.55958557
_cell_angle_beta   90.00000000
_cell_angle_gamma   90.00000000
_symmetry_Int_Tables_number   1
_chemical_formula_structural   Mg3GeIr
_chemical_formula_sum   'Mg3 Ge1 Ir1'
_cell_volume   97.44700552
_cell_formula_units_Z   1
loop_
 _symmetry_equiv_pos_site_id
 _symmetry_equiv_pos_as_xyz
  1  'x, y, z'
loop_
 _atom_site_type_symbol
 _atom_site_label
 _atom_site_symmetry_multiplicity
 _atom_site_fract_x
 _atom_site_fract_y
 _atom_site_fract_z
 _atom_site_occupancy
  Mg  Mg0  1  0.50000002  0.35947600  0.28104799  1
  Mg  Mg1  1  0.50000002  0.64052401  0.71895197  1
  Mg  Mg2  1  0.00000000  0.00000000  0.00000000  1
  Ir  Ir3  1  1.00000003  0.19781800  0.60436398  1
  Ge  Ge4  1  1.00000003  0.80218201  0.39563598  1
