# generated using pymatgen
data_Li2Ni10TeO6
_symmetry_space_group_name_H-M   'P 1'
_cell_length_a   6.11471701
_cell_length_b   6.11471701
_cell_length_c   6.11471701
_cell_angle_alpha   104.60375977
_cell_angle_beta   104.60375977
_cell_angle_gamma   104.60376740
_symmetry_Int_Tables_number   1
_chemical_formula_structural   Li2Ni10TeO6
_chemical_formula_sum   'Li2 Ni10 Te1 O6'
_cell_volume   201.55981618
_cell_formula_units_Z   1
loop_
 _symmetry_equiv_pos_site_id
 _symmetry_equiv_pos_as_xyz
  1  'x, y, z'
loop_
 _atom_site_type_symbol
 _atom_site_label
 _atom_site_symmetry_multiplicity
 _atom_site_fract_x
 _atom_site_fract_y
 _atom_site_fract_z
 _atom_site_occupancy
  Te  Te0  1  0.00000000  0.00000000  0.00000000  1
  Ni  Ni1  1  0.50000012  0.86766708  0.13233311  1
  Ni  Ni2  1  0.53485211  0.81228507  0.53485210  1
  Ni  Ni3  1  0.13233306  0.50000004  0.86766704  1
  Ni  Ni4  1  0.81228510  0.53485205  0.53485209  1
  Ni  Ni5  1  0.18771506  0.46514804  0.46514804  1
  Ni  Ni6  1  0.46514804  0.18771502  0.46514803  1
  Li  Li7  1  0.46514807  0.46514804  0.18771507  1
  Ni  Ni8  1  0.86766710  0.50000004  0.13233309  1
  Ni  Ni9  1  0.50000004  0.13233301  0.86766702  1
  Ni  Ni10  1  0.13233310  0.86766708  0.50000008  1
  Li  Li11  1  0.53485208  0.53485205  0.81228506  1
  Ni  Ni12  1  0.86766706  0.13233301  0.50000005  1
  O  O13  1  0.23170904  0.23170902  0.64963002  1
  O  O14  1  0.35037010  0.76829107  0.76829108  1
  O  O15  1  0.76829112  0.76829107  0.35037011  1
  O  O16  1  0.76829108  0.35037003  0.76829106  1
  O  O17  1  0.23170908  0.64963006  0.23170907  1
  O  O18  1  0.64963006  0.23170902  0.23170905  1
