# generated using pymatgen
data_RbAg6Te5
_symmetry_space_group_name_H-M   'P 1'
_cell_length_a   4.69092607
_cell_length_b   9.21735668
_cell_length_c   9.64148998
_cell_angle_alpha   111.20075989
_cell_angle_beta   90.00000000
_cell_angle_gamma   104.74168396
_symmetry_Int_Tables_number   1
_chemical_formula_structural   RbAg6Te5
_chemical_formula_sum   'Rb1 Ag6 Te5'
_cell_volume   373.90694445
_cell_formula_units_Z   1
loop_
 _symmetry_equiv_pos_site_id
 _symmetry_equiv_pos_as_xyz
  1  'x, y, z'
loop_
 _atom_site_type_symbol
 _atom_site_label
 _atom_site_symmetry_multiplicity
 _atom_site_fract_x
 _atom_site_fract_y
 _atom_site_fract_z
 _atom_site_occupancy
  Rb  Rb0  1  0.13680601  0.27361201  0.04897601  1
  Te  Te1  1  0.86319403  0.72638802  0.95102402  1
  Ag  Ag2  1  0.41109004  0.82218002  0.37594202  1
  Ag  Ag3  1  0.58891000  0.17782000  0.62405801  1
  Ag  Ag4  1  0.06151801  0.12303600  0.40985601  1
  Ag  Ag5  1  0.93848203  0.87696402  0.59014403  1
  Ag  Ag6  1  0.31175103  0.62350202  0.55586202  1
  Ag  Ag7  1  0.68824901  0.37649801  0.44413801  1
  Te  Te8  1  0.19659902  0.39319801  0.68671401  1
  Te  Te9  1  0.80340102  0.60680202  0.31328602  1
  Te  Te10  1  0.52081699  0.04163400  0.23313900  1
  Te  Te11  1  0.47918305  0.95836602  0.76686103  1
