# generated using pymatgen
data_KNaLa3ZrCuAgS11
_symmetry_space_group_name_H-M   'P 1'
_cell_length_a   4.12312222
_cell_length_b   7.46931934
_cell_length_c   15.84175110
_cell_angle_alpha   82.07192230
_cell_angle_beta   82.52262878
_cell_angle_gamma   73.97814941
_symmetry_Int_Tables_number   1
_chemical_formula_structural   KNaLa3ZrCuAgS11
_chemical_formula_sum   'K1 Na1 La3 Zr1 Cu1 Ag1 S11'
_cell_volume   462.26717984
_cell_formula_units_Z   1
loop_
 _symmetry_equiv_pos_site_id
 _symmetry_equiv_pos_as_xyz
  1  'x, y, z'
loop_
 _atom_site_type_symbol
 _atom_site_label
 _atom_site_symmetry_multiplicity
 _atom_site_fract_x
 _atom_site_fract_y
 _atom_site_fract_z
 _atom_site_occupancy
  K  K0  1  0.03269297  0.20356700  0.73104701  1
  S  S1  1  0.96730683  0.79643301  0.26895302  1
  La  La2  1  0.23190790  0.63922701  0.89695702  1
  Na  Na3  1  0.34487888  0.75435201  0.55589002  1
  La  La4  1  0.65512093  0.24564800  0.44411002  1
  La  La5  1  0.76809191  0.36077300  0.10304302  1
  Cu  Cu6  1  0.42521495  0.17865900  0.97091102  1
  Zr  Zr7  1  0.76001585  0.75135101  0.72861702  1
  Ag  Ag8  1  0.23998395  0.24864900  0.27138301  1
  S  S9  1  0.57478485  0.82134101  0.02908902  1
  S  S10  1  0.86540090  0.34723700  0.92196102  1
  S  S11  1  0.60710784  0.91534901  0.87043503  1
  S  S12  1  0.35560890  0.56614001  0.72264202  1
  S  S13  1  0.69814682  0.99891401  0.60479203  1
  S  S14  1  -0.00000007  0.50000001  0.50000001  1
  S  S15  1  0.30185298  0.00108600  0.39520801  1
  S  S16  1  0.64439090  0.43386001  0.27735802  1
  S  S17  1  0.39289197  0.08465100  0.12956501  1
  S  S18  1  0.13459890  0.65276301  0.07803901  1
