# generated using pymatgen
data_Mn3Ni3P2
_symmetry_space_group_name_H-M   'P 1'
_cell_length_a   3.47228789
_cell_length_b   4.57853985
_cell_length_c   6.55721998
_cell_angle_alpha   90.00000000
_cell_angle_beta   90.00000000
_cell_angle_gamma   112.28362274
_symmetry_Int_Tables_number   1
_chemical_formula_structural   Mn3Ni3P2
_chemical_formula_sum   'Mn3 Ni3 P2'
_cell_volume   96.46139889
_cell_formula_units_Z   1
loop_
 _symmetry_equiv_pos_site_id
 _symmetry_equiv_pos_as_xyz
  1  'x, y, z'
loop_
 _atom_site_type_symbol
 _atom_site_label
 _atom_site_symmetry_multiplicity
 _atom_site_fract_x
 _atom_site_fract_y
 _atom_site_fract_z
 _atom_site_occupancy
  Mn  Mn0  1  0.14728403  0.29456800  0.94533900  1
  Ni  Ni1  1  0.85271608  0.70543200  0.05466100  1
  Ni  Ni2  1  0.85271608  0.70543200  0.44533900  1
  Ni  Ni3  1  0.14728403  0.29456800  0.55466100  1
  P  P4  1  0.73134606  0.46269200  0.75000000  1
  P  P5  1  0.26865405  0.53730800  0.25000000  1
  Mn  Mn6  1  0.44519308  0.89038600  0.75000000  1
  Mn  Mn7  1  0.55480703  0.10961400  0.25000000  1
