# generated using pymatgen
data_Tb(SiNi)2
_symmetry_space_group_name_H-M   'P 1'
_cell_length_a   4.05295181
_cell_length_b   4.05295181
_cell_length_c   5.54782295
_cell_angle_alpha   111.42445374
_cell_angle_beta   111.42445374
_cell_angle_gamma   90.00000000
_symmetry_Int_Tables_number   1
_chemical_formula_structural   Tb(SiNi)2
_chemical_formula_sum   'Tb1 Si2 Ni2'
_cell_volume   78.03003163
_cell_formula_units_Z   1
loop_
 _symmetry_equiv_pos_site_id
 _symmetry_equiv_pos_as_xyz
  1  'x, y, z'
loop_
 _atom_site_type_symbol
 _atom_site_label
 _atom_site_symmetry_multiplicity
 _atom_site_fract_x
 _atom_site_fract_y
 _atom_site_fract_z
 _atom_site_occupancy
  Tb  Tb0  1  0.00000000  0.00000000  0.00000000  1
  Si  Si1  1  0.62397407  0.62397404  0.24794806  1
  Si  Si2  1  0.37602604  0.37602603  0.75205206  1
  Ni  Ni3  1  0.25000005  0.75000005  0.50000006  1
  Ni  Ni4  1  0.75000006  0.25000002  0.50000006  1
