# generated using pymatgen
data_Te
_symmetry_space_group_name_H-M   'P 1'
_cell_length_a   4.11369085
_cell_length_b   11.63559437
_cell_length_c   12.41788483
_cell_angle_alpha   90.00000000
_cell_angle_beta   90.00000000
_cell_angle_gamma   90.00000000
_symmetry_Int_Tables_number   1
_chemical_formula_structural   Te
_chemical_formula_sum   Te20
_cell_volume   594.38501420
_cell_formula_units_Z   20
loop_
 _symmetry_equiv_pos_site_id
 _symmetry_equiv_pos_as_xyz
  1  'x, y, z'
loop_
 _atom_site_type_symbol
 _atom_site_label
 _atom_site_symmetry_multiplicity
 _atom_site_fract_x
 _atom_site_fract_y
 _atom_site_fract_z
 _atom_site_occupancy
  Te  Te0  1  0.25000001  0.16830399  0.51595301  1
  Te  Te1  1  0.25000001  0.33169599  0.01595300  1
  Te  Te2  1  0.75000003  0.83169597  0.48404701  1
  Te  Te3  1  0.75000003  0.66830398  0.98404701  1
  Te  Te4  1  0.75000003  0.45819699  0.64509801  1
  Te  Te5  1  0.75000003  0.04180300  0.14509800  1
  Te  Te6  1  0.25000001  0.54180298  0.35490200  1
  Te  Te7  1  0.25000001  0.95819697  0.85490201  1
  Te  Te8  1  0.75000003  0.05220100  0.62671801  1
  Te  Te9  1  0.75000003  0.44779899  0.12671800  1
  Te  Te10  1  0.25000001  0.94779897  0.37328201  1
  Te  Te11  1  0.25000001  0.55220098  0.87328201  1
  Te  Te12  1  0.25000001  0.30883999  0.70789301  1
  Te  Te13  1  0.25000001  0.19115999  0.20789300  1
  Te  Te14  1  0.75000003  0.69115998  0.29210700  1
  Te  Te15  1  0.75000003  0.80883997  0.79210701  1
  Te  Te16  1  0.25000001  0.63091798  0.55053901  1
  Te  Te17  1  0.25000001  0.86908197  0.05053900  1
  Te  Te18  1  0.75000003  0.36908199  0.44946101  1
  Te  Te19  1  0.75000003  0.13091800  0.94946101  1
