# generated using pymatgen
data_La4Ni2Sn11Ru3
_symmetry_space_group_name_H-M   'P 1'
_cell_length_a   6.47363615
_cell_length_b   9.12301826
_cell_length_c   9.12301826
_cell_angle_alpha   73.89347076
_cell_angle_beta   69.21900940
_cell_angle_gamma   69.21900940
_symmetry_Int_Tables_number   1
_chemical_formula_structural   La4Ni2Sn11Ru3
_chemical_formula_sum   'La4 Ni2 Sn11 Ru3'
_cell_volume   463.84124378
_cell_formula_units_Z   1
loop_
 _symmetry_equiv_pos_site_id
 _symmetry_equiv_pos_as_xyz
  1  'x, y, z'
loop_
 _atom_site_type_symbol
 _atom_site_label
 _atom_site_symmetry_multiplicity
 _atom_site_fract_x
 _atom_site_fract_y
 _atom_site_fract_z
 _atom_site_occupancy
  La  La0  1  0.14386502  0.62737302  0.08489700  1
  La  La1  1  0.85613499  0.37262701  0.91510306  1
  La  La2  1  0.35613503  0.91510304  0.37262701  1
  La  La3  1  0.64386498  0.08489700  0.62737304  1
  Sn  Sn4  1  0.91282200  0.75460403  0.41975203  1
  Sn  Sn5  1  0.41282300  0.41975202  0.75460304  1
  Sn  Sn6  1  0.08717801  0.24539601  0.58024803  1
  Sn  Sn7  1  0.58717700  0.58024802  0.24539702  1
  Sn  Sn8  1  0.74999997  0.00000000  1.00000006  1
  Sn  Sn9  1  0.24999999  0.00000000  1.00000005  1
  Sn  Sn10  1  0.47144600  0.27855401  0.27855402  1
  Sn  Sn11  1  0.02855403  0.72144603  0.72144603  1
  Sn  Sn12  1  0.52855401  0.72144603  0.72144604  1
  Sn  Sn13  1  0.97144598  0.27855401  0.27855403  1
  Ru  Ru14  1  0.14123704  0.96353404  0.75399203  1
  Sn  Sn15  1  0.35876300  0.24600801  0.03646601  1
  Ni  Ni16  1  0.64123701  0.75399203  0.96353405  1
  Ni  Ni17  1  0.85876297  0.03646600  0.24600803  1
  Ru  Ru18  1  0.75000000  0.50000002  0.50000003  1
  Ru  Ru19  1  0.25000001  0.50000002  0.50000002  1
