# generated using pymatgen
data_CaMnO3
_symmetry_space_group_name_H-M   'P 1'
_cell_length_a   5.51331806
_cell_length_b   5.68072701
_cell_length_c   7.75325489
_cell_angle_alpha   90.00000000
_cell_angle_beta   90.00000000
_cell_angle_gamma   89.95019531
_symmetry_Int_Tables_number   1
_chemical_formula_structural   CaMnO3
_chemical_formula_sum   'Ca4 Mn4 O12'
_cell_volume   242.82917501
_cell_formula_units_Z   4
loop_
 _symmetry_equiv_pos_site_id
 _symmetry_equiv_pos_as_xyz
  1  'x, y, z'
loop_
 _atom_site_type_symbol
 _atom_site_label
 _atom_site_symmetry_multiplicity
 _atom_site_fract_x
 _atom_site_fract_y
 _atom_site_fract_z
 _atom_site_occupancy
  Ca  Ca0  1  0.48126199  0.56377501  0.75000001  1
  Ca  Ca1  1  0.51873799  0.43622501  0.25000000  1
  Ca  Ca2  1  0.00387900  0.04347800  0.75000001  1
  Ca  Ca3  1  0.99612099  0.95652202  0.25000000  1
  Mn  Mn4  1  0.49999999  0.00000000  0.50000001  1
  Mn  Mn5  1  0.49999999  0.00000000  0.00000000  1
  Mn  Mn6  1  -0.00000000  0.50000001  0.50000001  1
  Mn  Mn7  1  -0.00000000  0.50000001  0.00000000  1
  O  O8  1  0.70662599  0.69233102  0.45303701  1
  O  O9  1  0.81098999  0.20830501  0.04906400  1
  O  O10  1  0.29337400  0.30766901  0.95303701  1
  O  O11  1  0.18901000  0.79169502  0.54906401  1
  O  O12  1  0.81098999  0.20830501  0.45093601  1
  O  O13  1  0.18901000  0.79169502  0.95093601  1
  O  O14  1  0.10425500  0.53403401  0.25000000  1
  O  O15  1  0.70662599  0.69233102  0.04696300  1
  O  O16  1  0.57052499  0.97988103  0.75000001  1
  O  O17  1  0.29337400  0.30766901  0.54696301  1
  O  O18  1  0.89574499  0.46596601  0.75000001  1
  O  O19  1  0.42947500  0.02011900  0.25000000  1
