# generated using pymatgen
data_SmLu3Al11Re
_symmetry_space_group_name_H-M   'P 1'
_cell_length_a   5.92371178
_cell_length_b   7.09761095
_cell_length_c   7.60544491
_cell_angle_alpha   90.00000000
_cell_angle_beta   90.00000000
_cell_angle_gamma   90.00000000
_symmetry_Int_Tables_number   1
_chemical_formula_structural   SmLu3Al11Re
_chemical_formula_sum   'Sm1 Lu3 Al11 Re1'
_cell_volume   319.76485878
_cell_formula_units_Z   1
loop_
 _symmetry_equiv_pos_site_id
 _symmetry_equiv_pos_as_xyz
  1  'x, y, z'
loop_
 _atom_site_type_symbol
 _atom_site_label
 _atom_site_symmetry_multiplicity
 _atom_site_fract_x
 _atom_site_fract_y
 _atom_site_fract_z
 _atom_site_occupancy
  Sm  Sm0  1  0.34656501  0.75000001  0.03205500  1
  Lu  Lu1  1  0.15343501  0.75000001  0.53205501  1
  Lu  Lu2  1  0.65343502  0.25000000  0.96794501  1
  Lu  Lu3  1  0.84656503  0.25000000  0.46794501  1
  Al  Al4  1  0.65336202  0.75000001  0.38123800  1
  Al  Al5  1  0.84663803  0.75000001  0.88123801  1
  Al  Al6  1  0.34663801  0.25000000  0.61876201  1
  Re  Re7  1  0.15336201  0.25000000  0.11876200  1
  Al  Al8  1  0.91214903  0.55335300  0.17640900  1
  Al  Al9  1  0.58785102  0.94664701  0.67640901  1
  Al  Al10  1  0.08785100  0.05335300  0.82359101  1
  Al  Al11  1  0.41214902  0.44664700  0.32359100  1
  Al  Al12  1  0.08785100  0.44664700  0.82359101  1
  Al  Al13  1  0.41214902  0.05335300  0.32359100  1
  Al  Al14  1  0.91214903  0.94664701  0.17640900  1
  Al  Al15  1  0.58785102  0.55335300  0.67640901  1
