# generated using pymatgen
data_Al7Tc
_symmetry_space_group_name_H-M   'P 1'
_cell_length_a   4.42308283
_cell_length_b   5.54668379
_cell_length_c   5.54668474
_cell_angle_alpha   60.00000381
_cell_angle_beta   90.00000000
_cell_angle_gamma   90.00000000
_symmetry_Int_Tables_number   1
_chemical_formula_structural   Al7Tc
_chemical_formula_sum   'Al7 Tc1'
_cell_volume   117.84810703
_cell_formula_units_Z   1
loop_
 _symmetry_equiv_pos_site_id
 _symmetry_equiv_pos_as_xyz
  1  'x, y, z'
loop_
 _atom_site_type_symbol
 _atom_site_label
 _atom_site_symmetry_multiplicity
 _atom_site_fract_x
 _atom_site_fract_y
 _atom_site_fract_z
 _atom_site_occupancy
  Al  Al0  1  0.75000003  0.33333335  0.33333333  1
  Tc  Tc1  1  0.25000001  0.66666669  0.66666665  1
  Al  Al2  1  0.75000003  0.33275501  0.83362299  1
  Al  Al3  1  0.25000001  0.16637801  0.66724399  1
  Al  Al4  1  0.25000001  0.16637801  0.16637700  1
  Al  Al5  1  0.75000003  0.83362203  0.83362299  1
  Al  Al6  1  0.75000003  0.83362203  0.33275599  1
  Al  Al7  1  0.25000001  0.66724503  0.16637700  1
