# generated using pymatgen
data_K6Ag2As3
_symmetry_space_group_name_H-M   'P 1'
_cell_length_a   6.07573986
_cell_length_b   6.07573891
_cell_length_c   11.00960064
_cell_angle_alpha   90.00000000
_cell_angle_beta   90.00000000
_cell_angle_gamma   120.00000763
_symmetry_Int_Tables_number   1
_chemical_formula_structural   K6Ag2As3
_chemical_formula_sum   'K6 Ag2 As3'
_cell_volume   351.96577705
_cell_formula_units_Z   1
loop_
 _symmetry_equiv_pos_site_id
 _symmetry_equiv_pos_as_xyz
  1  'x, y, z'
loop_
 _atom_site_type_symbol
 _atom_site_label
 _atom_site_symmetry_multiplicity
 _atom_site_fract_x
 _atom_site_fract_y
 _atom_site_fract_z
 _atom_site_occupancy
  K  K0  1  0.00000000  0.00000000  0.33096201  1
  K  K1  1  0.33333337  0.66666669  0.20212201  1
  K  K2  1  0.33333337  0.66666669  0.79787803  1
  K  K3  1  0.66666670  0.33333334  -0.00000000  1
  K  K4  1  0.00000000  0.00000000  0.66903802  1
  Ag  Ag5  1  0.48539805  0.97079603  0.50000002  1
  As  As6  1  0.02920402  0.51460202  0.50000002  1
  Ag  Ag7  1  0.48539803  0.51460202  0.50000002  1
  As  As8  1  0.66666670  0.33333334  0.32568601  1
  As  As9  1  0.66666670  0.33333334  0.67431402  1
  K  K10  1  0.00000000  0.00000000  0.00000000  1
