# generated using pymatgen
data_Rb3GaO3
_symmetry_space_group_name_H-M   'P 1'
_cell_length_a   5.68407297
_cell_length_b   8.46459866
_cell_length_c   8.46449852
_cell_angle_alpha   119.99987030
_cell_angle_beta   90.00000000
_cell_angle_gamma   90.00000000
_symmetry_Int_Tables_number   1
_chemical_formula_structural   Rb3GaO3
_chemical_formula_sum   'Rb6 Ga2 O6'
_cell_volume   352.69430611
_cell_formula_units_Z   2
loop_
 _symmetry_equiv_pos_site_id
 _symmetry_equiv_pos_as_xyz
  1  'x, y, z'
loop_
 _atom_site_type_symbol
 _atom_site_label
 _atom_site_symmetry_multiplicity
 _atom_site_fract_x
 _atom_site_fract_y
 _atom_site_fract_z
 _atom_site_occupancy
  Rb  Rb0  1  0.75000000  0.09360000  0.73559097  1
  Rb  Rb1  1  0.75000000  0.26440801  0.35800798  1
  Rb  Rb2  1  0.75000000  0.64199302  0.90640294  1
  Rb  Rb3  1  0.25000000  0.90640003  0.26440895  1
  Rb  Rb4  1  0.25000000  0.73559202  0.64199195  1
  Rb  Rb5  1  0.25000000  0.35800701  0.09359698  1
  Ga  Ga6  1  0.25000000  0.33333334  0.66666663  1
  Ga  Ga7  1  0.75000000  0.66666669  0.33333329  1
  O  O8  1  0.25000000  0.12495700  0.68978297  1
  O  O9  1  0.25000000  0.31021601  0.43516497  1
  O  O10  1  0.25000000  0.56483002  0.87504395  1
  O  O11  1  0.75000000  0.87504303  0.31021695  1
  O  O12  1  0.75000000  0.68978402  0.56483495  1
  O  O13  1  0.75000000  0.43517001  0.12495598  1
