# generated using pymatgen
data_CeNiSn
_symmetry_space_group_name_H-M   'P 1'
_cell_length_a   4.13555288
_cell_length_b   7.01127005
_cell_length_c   7.01127005
_cell_angle_alpha   120.00000000
_cell_angle_beta   90.00000000
_cell_angle_gamma   90.00000000
_symmetry_Int_Tables_number   1
_chemical_formula_structural   CeNiSn
_chemical_formula_sum   'Ce3 Ni3 Sn3'
_cell_volume   176.05874424
_cell_formula_units_Z   3
loop_
 _symmetry_equiv_pos_site_id
 _symmetry_equiv_pos_as_xyz
  1  'x, y, z'
loop_
 _atom_site_type_symbol
 _atom_site_label
 _atom_site_symmetry_multiplicity
 _atom_site_fract_x
 _atom_site_fract_y
 _atom_site_fract_z
 _atom_site_occupancy
  Ce  Ce0  1  0.50000001  0.58132600  0.00000000  1
  Ce  Ce1  1  0.50000001  0.41867400  0.41867400  1
  Ce  Ce2  1  0.50000001  1.00000000  0.58132601  1
  Ni  Ni3  1  1.00000003  0.33333333  0.66666667  1
  Ni  Ni4  1  0.00000000  0.66666666  0.33333334  1
  Ni  Ni5  1  0.50000001  0.00000000  -0.00000000  1
  Sn  Sn6  1  0.00000000  0.25179600  0.00000000  1
  Sn  Sn7  1  1.00000003  0.74820400  0.74820401  1
  Sn  Sn8  1  0.00000000  1.00000000  0.25179601  1
