# generated using pymatgen
data_Na(Ti3S4)2
_symmetry_space_group_name_H-M   'P 1'
_cell_length_a   6.66215181
_cell_length_b   6.66215181
_cell_length_c   6.66215181
_cell_angle_alpha   88.98487854
_cell_angle_beta   88.98487854
_cell_angle_gamma   88.98487854
_symmetry_Int_Tables_number   1
_chemical_formula_structural   Na(Ti3S4)2
_chemical_formula_sum   'Na1 Ti6 S8'
_cell_volume   295.55712256
_cell_formula_units_Z   1
loop_
 _symmetry_equiv_pos_site_id
 _symmetry_equiv_pos_as_xyz
  1  'x, y, z'
loop_
 _atom_site_type_symbol
 _atom_site_label
 _atom_site_symmetry_multiplicity
 _atom_site_fract_x
 _atom_site_fract_y
 _atom_site_fract_z
 _atom_site_occupancy
  Na  Na0  1  0.00000000  0.00000000  0.00000000  1
  Ti  Ti1  1  0.41281801  0.22931601  0.56326698  1
  Ti  Ti2  1  0.22931600  0.56326701  0.41281797  1
  Ti  Ti3  1  0.56326701  0.41281801  0.22931596  1
  Ti  Ti4  1  0.58718200  0.77068402  0.43673295  1
  Ti  Ti5  1  0.77068401  0.43673301  0.58718196  1
  Ti  Ti6  1  0.43673300  0.58718202  0.77068397  1
  S  S7  1  0.24710100  0.24710101  0.24710098  1
  S  S8  1  0.75289901  0.75289902  0.75289895  1
  S  S9  1  0.39310700  0.73266502  0.12418895  1
  S  S10  1  0.73266502  0.12418900  0.39310697  1
  S  S11  1  0.12418900  0.39310701  0.73266499  1
  S  S12  1  0.60689301  0.26733501  0.87581098  1
  S  S13  1  0.26733499  0.87581102  0.60689296  1
  S  S14  1  0.87581101  0.60689302  0.26733494  1
