# generated using pymatgen
data_LaNi2Se15
_symmetry_space_group_name_H-M   'P 1'
_cell_length_a   6.62877607
_cell_length_b   9.05225182
_cell_length_c   9.05225277
_cell_angle_alpha   120.00000000
_cell_angle_beta   90.00000000
_cell_angle_gamma   90.00000000
_symmetry_Int_Tables_number   1
_chemical_formula_structural   LaNi2Se15
_chemical_formula_sum   'La1 Ni2 Se15'
_cell_volume   470.41079475
_cell_formula_units_Z   1
loop_
 _symmetry_equiv_pos_site_id
 _symmetry_equiv_pos_as_xyz
  1  'x, y, z'
loop_
 _atom_site_type_symbol
 _atom_site_label
 _atom_site_symmetry_multiplicity
 _atom_site_fract_x
 _atom_site_fract_y
 _atom_site_fract_z
 _atom_site_occupancy
  La  La0  1  0.25000000  0.77117704  0.77117703  1
  Se  Se1  1  0.74999999  0.22882301  0.22882301  1
  Se  Se2  1  0.25000000  1.00000005  0.22882305  1
  Se  Se3  1  0.74999999  1.00000005  0.77117705  1
  Se  Se4  1  0.25000000  0.22882301  1.00000000  1
  Se  Se5  1  0.74999999  0.77117704  1.00000003  1
  Se  Se6  1  0.49999999  0.66666670  0.33333337  1
  Se  Se7  1  0.49999999  0.33333335  0.66666668  1
  Se  Se8  1  0.99999999  0.33333335  0.66666668  1
  Se  Se9  1  0.99999999  0.66666670  0.33333337  1
  Se  Se10  1  0.25000000  0.39507702  0.39507702  1
  Se  Se11  1  0.74999999  0.60492303  0.60492303  1
  Se  Se12  1  0.25000000  0.00000000  0.60492300  1
  Se  Se13  1  0.74999999  0.00000000  0.39507700  1
  Se  Se14  1  0.25000000  0.60492303  1.00000002  1
  Se  Se15  1  0.74999999  0.39507702  1.00000001  1
  Ni  Ni16  1  0.49999999  0.00000000  -0.00000000  1
  Ni  Ni17  1  0.00000000  0.00000000  0.00000000  1
