# generated using pymatgen
data_La3Ni3As5
_symmetry_space_group_name_H-M   'P 1'
_cell_length_a   6.68903971
_cell_length_b   6.68903971
_cell_length_c   6.68903971
_cell_angle_alpha   109.47122192
_cell_angle_beta   109.47122192
_cell_angle_gamma   109.47122192
_symmetry_Int_Tables_number   1
_chemical_formula_structural   La3Ni3As5
_chemical_formula_sum   'La3 Ni3 As5'
_cell_volume   230.39306932
_cell_formula_units_Z   1
loop_
 _symmetry_equiv_pos_site_id
 _symmetry_equiv_pos_as_xyz
  1  'x, y, z'
loop_
 _atom_site_type_symbol
 _atom_site_label
 _atom_site_symmetry_multiplicity
 _atom_site_fract_x
 _atom_site_fract_y
 _atom_site_fract_z
 _atom_site_occupancy
  La  La0  1  0.00000003  0.50000004  0.50000004  1
  La  La1  1  0.50000002  0.00000000  0.50000003  1
  La  La2  1  0.50000005  0.50000004  1.00000007  1
  As  As3  1  0.00000000  0.00000000  0.36703601  1
  As  As4  1  0.63296407  0.63296405  0.63296407  1
  As  As5  1  0.00000002  0.36703603  0.00000002  1
  As  As6  1  0.36703608  1.00000007  1.00000010  1
  Ni  Ni7  1  0.00000005  0.72232805  0.00000004  1
  Ni  Ni8  1  0.27767203  0.27767202  0.27767203  1
  As  As9  1  0.72232803  0.00000000  1.00000005  1
  Ni  Ni10  1  0.00000000  0.00000000  0.72232802  1
