# generated using pymatgen
data_RbBeH5
_symmetry_space_group_name_H-M   'P 1'
_cell_length_a   4.28012609
_cell_length_b   4.28012609
_cell_length_c   4.28012609
_cell_angle_alpha   90.00000000
_cell_angle_beta   90.00000000
_cell_angle_gamma   90.00000000
_symmetry_Int_Tables_number   1
_chemical_formula_structural   RbBeH5
_chemical_formula_sum   'Rb1 Be1 H5'
_cell_volume   78.40968177
_cell_formula_units_Z   1
loop_
 _symmetry_equiv_pos_site_id
 _symmetry_equiv_pos_as_xyz
  1  'x, y, z'
loop_
 _atom_site_type_symbol
 _atom_site_label
 _atom_site_symmetry_multiplicity
 _atom_site_fract_x
 _atom_site_fract_y
 _atom_site_fract_z
 _atom_site_occupancy
  Rb  Rb0  1  0.00000000  0.00000000  0.00000000  1
  H  H1  1  0.20545400  0.49999999  0.49999999  1
  H  H2  1  0.49999999  0.49999999  0.79454598  1
  H  H3  1  0.49999999  0.49999999  0.20545400  1
  H  H4  1  0.49999999  0.20545400  0.49999999  1
  H  H5  1  0.49999999  0.79454598  0.49999999  1
  Be  Be6  1  0.79454598  0.49999999  0.49999999  1
