# generated using pymatgen
data_W2SeS3
_symmetry_space_group_name_H-M   'P 1'
_cell_length_a   3.25389600
_cell_length_b   3.25389552
_cell_length_c   36.89824677
_cell_angle_alpha   90.00000000
_cell_angle_beta   90.00000000
_cell_angle_gamma   120.00000763
_symmetry_Int_Tables_number   1
_chemical_formula_structural   W2SeS3
_chemical_formula_sum   'W4 Se2 S6'
_cell_volume   338.33240912
_cell_formula_units_Z   2
loop_
 _symmetry_equiv_pos_site_id
 _symmetry_equiv_pos_as_xyz
  1  'x, y, z'
loop_
 _atom_site_type_symbol
 _atom_site_label
 _atom_site_symmetry_multiplicity
 _atom_site_fract_x
 _atom_site_fract_y
 _atom_site_fract_z
 _atom_site_occupancy
  W  W0  1  0.00000000  0.00000000  0.90608798  1
  W  W1  1  0.66666668  0.33333334  0.71823099  1
  W  W2  1  0.00000000  0.00000000  0.53032299  1
  W  W3  1  0.66666668  0.33333334  0.34245399  1
  Se  Se4  1  0.00000000  0.00000000  0.67224199  1
  S  S5  1  0.66666668  0.33333334  0.57664099  1
  S  S6  1  0.66666668  0.33333334  0.48399799  1
  Se  Se7  1  0.00000000  0.00000000  0.76419998  1
  S  S8  1  0.00000000  0.00000000  0.30046099  1
  S  S9  1  0.66666668  0.33333334  0.94796398  1
  S  S10  1  0.66666668  0.33333334  0.86419998  1
  S  S11  1  0.00000000  0.00000000  0.38445099  1
