# generated using pymatgen
data_NaTb4Mn3O12
_symmetry_space_group_name_H-M   'P 1'
_cell_length_a   5.33032179
_cell_length_b   5.86787891
_cell_length_c   7.49917412
_cell_angle_alpha   90.00000000
_cell_angle_beta   90.00000000
_cell_angle_gamma   90.00000000
_symmetry_Int_Tables_number   1
_chemical_formula_structural   NaTb4Mn3O12
_chemical_formula_sum   'Na1 Tb4 Mn3 O12'
_cell_volume   234.55678954
_cell_formula_units_Z   1
loop_
 _symmetry_equiv_pos_site_id
 _symmetry_equiv_pos_as_xyz
  1  'x, y, z'
loop_
 _atom_site_type_symbol
 _atom_site_label
 _atom_site_symmetry_multiplicity
 _atom_site_fract_x
 _atom_site_fract_y
 _atom_site_fract_z
 _atom_site_occupancy
  Na  Na0  1  0.01916400  0.91785301  0.74999999  1
  Tb  Tb1  1  0.51916402  0.58214701  0.25000000  1
  Tb  Tb2  1  0.48083602  0.41785301  0.74999999  1
  Tb  Tb3  1  0.98083604  0.08214700  0.25000000  1
  Mn  Mn4  1  0.50000002  0.00000000  0.49999999  1
  Mn  Mn5  1  0.00000000  0.50000001  0.49999999  1
  Mn  Mn6  1  0.00000000  0.50000001  -0.00000000  1
  Tb  Tb7  1  0.50000002  0.00000000  0.00000000  1
  O  O8  1  0.70120203  0.32521300  0.44320199  1
  O  O9  1  0.20120201  0.17478700  0.55679799  1
  O  O10  1  0.79879803  0.82521301  0.05679800  1
  O  O11  1  0.29879801  0.67478701  0.94320199  1
  O  O12  1  0.29879801  0.67478701  0.55679799  1
  O  O13  1  0.79879803  0.82521301  0.44320199  1
  O  O14  1  0.20120201  0.17478700  0.94320199  1
  O  O15  1  0.70120203  0.32521300  0.05679800  1
  O  O16  1  0.11900000  0.45811401  0.25000000  1
  O  O17  1  0.61900002  0.04188600  0.74999999  1
  O  O18  1  0.38100002  0.95811401  0.25000000  1
  O  O19  1  0.88100003  0.54188601  0.74999999  1
