# generated using pymatgen
data_RbNa2Au4F11
_symmetry_space_group_name_H-M   'P 1'
_cell_length_a   7.41264200
_cell_length_b   7.42701912
_cell_length_c   7.42701912
_cell_angle_alpha   60.11524200
_cell_angle_beta   60.06401443
_cell_angle_gamma   60.06401443
_symmetry_Int_Tables_number   1
_chemical_formula_structural   RbNa2Au4F11
_chemical_formula_sum   'Rb1 Na2 Au4 F11'
_cell_volume   289.65711354
_cell_formula_units_Z   1
loop_
 _symmetry_equiv_pos_site_id
 _symmetry_equiv_pos_as_xyz
  1  'x, y, z'
loop_
 _atom_site_type_symbol
 _atom_site_label
 _atom_site_symmetry_multiplicity
 _atom_site_fract_x
 _atom_site_fract_y
 _atom_site_fract_z
 _atom_site_occupancy
  Na  Na0  1  0.50000000  0.00000000  0.00000001  1
  Rb  Rb1  1  0.50000000  0.49999998  0.50000001  1
  Au  Au2  1  -0.00000000  0.49999998  0.00000001  1
  Au  Au3  1  0.50000000  0.49999998  0.00000002  1
  Au  Au4  1  0.99999999  0.49999998  0.50000001  1
  Au  Au5  1  0.00000000  0.00000000  0.00000000  1
  F  F6  1  0.69268500  0.55880998  0.68294701  1
  F  F7  1  0.06555800  0.55880998  0.68294700  1
  F  F8  1  0.05654400  0.19345599  0.69345599  1
  F  F9  1  0.06555800  0.18294699  0.05881000  1
  F  F10  1  0.69268500  0.18294699  0.05881001  1
  F  F11  1  0.67896500  0.57103498  0.07103502  1
  F  F12  1  0.30731500  0.44118998  0.31705301  1
  F  F13  1  0.93444199  0.44118998  0.31705302  1
  F  F14  1  0.94345599  0.80654397  0.30654403  1
  F  F15  1  0.93444199  0.81705297  0.94119001  1
  Na  Na16  1  0.30731500  0.81705297  0.94119000  1
  F  F17  1  0.32103500  0.42896498  0.92896499  1
