# generated using pymatgen
data_Ca(Mg4Zn)2
_symmetry_space_group_name_H-M   'P 1'
_cell_length_a   3.92329407
_cell_length_b   9.34488106
_cell_length_c   9.34488106
_cell_angle_alpha   60.64335632
_cell_angle_beta   77.88253021
_cell_angle_gamma   77.88253021
_symmetry_Int_Tables_number   1
_chemical_formula_structural   Ca(Mg4Zn)2
_chemical_formula_sum   'Ca1 Mg8 Zn2'
_cell_volume   289.64841245
_cell_formula_units_Z   1
loop_
 _symmetry_equiv_pos_site_id
 _symmetry_equiv_pos_as_xyz
  1  'x, y, z'
loop_
 _atom_site_type_symbol
 _atom_site_label
 _atom_site_symmetry_multiplicity
 _atom_site_fract_x
 _atom_site_fract_y
 _atom_site_fract_z
 _atom_site_occupancy
  Mg  Mg0  1  0.13192302  0.28304000  0.45311301  1
  Mg  Mg1  1  0.86807602  0.54688800  0.71696003  1
  Mg  Mg2  1  0.31544101  0.30906100  0.06005701  1
  Mg  Mg3  1  0.68455905  0.93994300  0.69093902  1
  Mg  Mg4  1  0.35383506  0.91358500  0.37874601  1
  Mg  Mg5  1  0.64616603  0.62125300  0.08641502  1
  Ca  Ca6  1  0.00000008  0.99961300  0.00038700  1
  Mg  Mg7  1  0.50000001  0.26351300  0.73648702  1
  Mg  Mg8  1  0.00000005  0.66180600  0.33819400  1
  Zn  Zn9  1  0.23783505  0.68824400  0.83608601  1
  Zn  Zn10  1  0.76216499  0.16391400  0.31175602  1
