# generated using pymatgen
data_PrSi4Pd
_symmetry_space_group_name_H-M   'P 1'
_cell_length_a   3.90359998
_cell_length_b   3.90359926
_cell_length_c   6.92727995
_cell_angle_alpha   90.00000000
_cell_angle_beta   90.00000000
_cell_angle_gamma   120.00000763
_symmetry_Int_Tables_number   1
_chemical_formula_structural   PrSi4Pd
_chemical_formula_sum   'Pr1 Si4 Pd1'
_cell_volume   91.41634878
_cell_formula_units_Z   1
loop_
 _symmetry_equiv_pos_site_id
 _symmetry_equiv_pos_as_xyz
  1  'x, y, z'
loop_
 _atom_site_type_symbol
 _atom_site_label
 _atom_site_symmetry_multiplicity
 _atom_site_fract_x
 _atom_site_fract_y
 _atom_site_fract_z
 _atom_site_occupancy
  Si  Si0  1  0.33333336  0.66666669  0.81600401  1
  Si  Si1  1  0.66666668  0.33333335  0.18399600  1
  Si  Si2  1  0.33333336  0.66666669  0.14577500  1
  Si  Si3  1  0.66666668  0.33333335  0.85422501  1
  Pd  Pd4  1  0.00000000  0.00000000  0.00000000  1
  Pr  Pr5  1  0.00000000  0.00000000  0.50000000  1
