# generated using pymatgen
data_NaV4O10
_symmetry_space_group_name_H-M   'P 1'
_cell_length_a   3.61774898
_cell_length_b   5.17477894
_cell_length_c   11.47621632
_cell_angle_alpha   90.00000000
_cell_angle_beta   90.00000000
_cell_angle_gamma   90.00000000
_symmetry_Int_Tables_number   1
_chemical_formula_structural   NaV4O10
_chemical_formula_sum   'Na1 V4 O10'
_cell_volume   214.84683328
_cell_formula_units_Z   1
loop_
 _symmetry_equiv_pos_site_id
 _symmetry_equiv_pos_as_xyz
  1  'x, y, z'
loop_
 _atom_site_type_symbol
 _atom_site_label
 _atom_site_symmetry_multiplicity
 _atom_site_fract_x
 _atom_site_fract_y
 _atom_site_fract_z
 _atom_site_occupancy
  Na  Na0  1  0.00000000  0.85217101  0.49999999  1
  V  V1  1  0.00000000  0.59270301  0.85093398  1
  V  V2  1  0.50000000  0.39300500  0.65133698  1
  V  V3  1  0.50000000  0.39300500  0.34866299  1
  V  V4  1  0.00000000  0.59270301  0.14906600  1
  O  O5  1  0.50000000  0.56343201  0.49999999  1
  O  O6  1  0.00000000  0.47773801  -0.00000000  1
  O  O7  1  0.50000000  0.48766901  0.82070198  1
  O  O8  1  0.00000000  0.52910201  0.67597698  1
  O  O9  1  0.50000000  0.48766901  0.17929800  1
  O  O10  1  0.00000000  0.52910201  0.32402299  1
  O  O11  1  0.00000000  0.90217501  0.13989800  1
  O  O12  1  0.50000000  0.07433400  0.37898799  1
  O  O13  1  0.50000000  0.07433400  0.62101198  1
  O  O14  1  0.00000000  0.90217501  0.86010198  1
