# generated using pymatgen
data_Lu4ZnGe4
_symmetry_space_group_name_H-M   'P 1'
_cell_length_a   4.07153988
_cell_length_b   5.47835636
_cell_length_c   8.83406162
_cell_angle_alpha   72.95414734
_cell_angle_beta   76.67669678
_cell_angle_gamma   68.18553162
_symmetry_Int_Tables_number   1
_chemical_formula_structural   Lu4ZnGe4
_chemical_formula_sum   'Lu4 Zn1 Ge4'
_cell_volume   173.25360533
_cell_formula_units_Z   1
loop_
 _symmetry_equiv_pos_site_id
 _symmetry_equiv_pos_as_xyz
  1  'x, y, z'
loop_
 _atom_site_type_symbol
 _atom_site_label
 _atom_site_symmetry_multiplicity
 _atom_site_fract_x
 _atom_site_fract_y
 _atom_site_fract_z
 _atom_site_occupancy
  Lu  Lu0  1  0.74530510  0.84868395  0.66070595  1
  Lu  Lu1  1  0.25469502  0.15131599  0.33929398  1
  Lu  Lu2  1  0.39045204  0.33478198  0.88431395  1
  Lu  Lu3  1  0.60954808  0.66521796  0.11568598  1
  Zn  Zn4  1  0.50000006  0.49999997  0.49999997  1
  Ge  Ge5  1  0.03696203  0.28000399  0.64607196  1
  Ge  Ge6  1  0.96303810  0.71999596  0.35392797  1
  Ge  Ge7  1  0.08898110  0.94277695  0.87926094  1
  Ge  Ge8  1  0.91101903  0.05722300  0.12073900  1
