# generated using pymatgen
data_Gd2TlO2
_symmetry_space_group_name_H-M   'P 1'
_cell_length_a   3.99073005
_cell_length_b   3.99073005
_cell_length_c   6.99095154
_cell_angle_alpha   106.58402252
_cell_angle_beta   106.58402252
_cell_angle_gamma   90.00000000
_symmetry_Int_Tables_number   1
_chemical_formula_structural   Gd2TlO2
_chemical_formula_sum   'Gd2 Tl1 O2'
_cell_volume   101.86424499
_cell_formula_units_Z   1
loop_
 _symmetry_equiv_pos_site_id
 _symmetry_equiv_pos_as_xyz
  1  'x, y, z'
loop_
 _atom_site_type_symbol
 _atom_site_label
 _atom_site_symmetry_multiplicity
 _atom_site_fract_x
 _atom_site_fract_y
 _atom_site_fract_z
 _atom_site_occupancy
  Tl  Tl0  1  0.00000000  0.00000000  0.00000000  1
  Gd  Gd1  1  0.64862301  0.64862300  0.29724603  1
  Gd  Gd2  1  0.35137701  0.35137700  0.70275402  1
  O  O3  1  0.25000002  0.75000000  0.50000002  1
  O  O4  1  0.75000000  0.25000000  0.50000002  1
