# generated using pymatgen
data_LaNi4B
_symmetry_space_group_name_H-M   'P 1'
_cell_length_a   4.98141813
_cell_length_b   4.98146248
_cell_length_c   6.93962622
_cell_angle_alpha   89.99317932
_cell_angle_beta   89.99383545
_cell_angle_gamma   60.80268097
_symmetry_Int_Tables_number   1
_chemical_formula_structural   LaNi4B
_chemical_formula_sum   'La2 Ni8 B2'
_cell_volume   150.32553915
_cell_formula_units_Z   2
loop_
 _symmetry_equiv_pos_site_id
 _symmetry_equiv_pos_as_xyz
  1  'x, y, z'
loop_
 _atom_site_type_symbol
 _atom_site_label
 _atom_site_symmetry_multiplicity
 _atom_site_fract_x
 _atom_site_fract_y
 _atom_site_fract_z
 _atom_site_occupancy
  La  La0  1  0.00003100  0.00007000  0.99781297  1
  La  La1  1  0.99999599  0.99999600  0.50424499  1
  Ni  Ni2  1  0.49996799  0.49996000  0.71719198  1
  Ni  Ni3  1  0.00000498  0.50005000  0.28420601  1
  Ni  Ni4  1  0.50004001  0.00001700  0.28413698  1
  Ni  Ni5  1  0.50002799  0.50004700  0.28633999  1
  Ni  Ni6  1  0.33629100  0.33674500  0.99987097  1
  Ni  Ni7  1  0.66369399  0.66335200  0.99973397  1
  Ni  Ni8  1  -0.00000002  0.49993800  0.71105599  1
  Ni  Ni9  1  0.49994701  0.00000400  0.71116897  1
  B  B10  1  0.33079400  0.33069100  0.50210299  1
  B  B11  1  0.66920699  0.66932900  0.50213399  1
