# generated using pymatgen
data_TlTc4O7
_symmetry_space_group_name_H-M   'P 1'
_cell_length_a   6.24576044
_cell_length_b   6.24576044
_cell_length_c   7.14968252
_cell_angle_alpha   64.10101318
_cell_angle_beta   64.10101318
_cell_angle_gamma   59.99999619
_symmetry_Int_Tables_number   1
_chemical_formula_structural   TlTc4O7
_chemical_formula_sum   'Tl1 Tc4 O7'
_cell_volume   208.56815364
_cell_formula_units_Z   1
loop_
 _symmetry_equiv_pos_site_id
 _symmetry_equiv_pos_as_xyz
  1  'x, y, z'
loop_
 _atom_site_type_symbol
 _atom_site_label
 _atom_site_symmetry_multiplicity
 _atom_site_fract_x
 _atom_site_fract_y
 _atom_site_fract_z
 _atom_site_occupancy
  Tl  Tl0  1  0.82971102  0.82971100  0.51086690  1
  Tc  Tc1  1  0.17028900  0.17028900  0.48913298  1
  O  O2  1  0.50000000  0.00000000  -0.00000003  1
  O  O3  1  0.00000001  0.50000000  -0.00000003  1
  O  O4  1  0.50000001  0.50000000  -0.00000006  1
  O  O5  1  0.00000000  0.00000000  0.00000000  1
  O  O6  1  0.38984102  0.88618800  0.83778292  1
  O  O7  1  0.88618802  0.88618800  0.83778289  1
  O  O8  1  0.88618801  0.38984100  0.83778292  1
  Tc  Tc9  1  0.61015900  0.11381200  0.16221696  1
  Tc  Tc10  1  0.11381200  0.11381200  0.16221699  1
  Tc  Tc11  1  0.11381201  0.61015900  0.16221696  1
