# generated using pymatgen
data_K(BrO3)2
_symmetry_space_group_name_H-M   'P 1'
_cell_length_a   7.41548109
_cell_length_b   7.41548109
_cell_length_c   7.98198700
_cell_angle_alpha   106.01246643
_cell_angle_beta   106.01246643
_cell_angle_gamma   113.96387482
_symmetry_Int_Tables_number   1
_chemical_formula_structural   K(BrO3)2
_chemical_formula_sum   'K2 Br4 O12'
_cell_volume   345.89925075
_cell_formula_units_Z   2
loop_
 _symmetry_equiv_pos_site_id
 _symmetry_equiv_pos_as_xyz
  1  'x, y, z'
loop_
 _atom_site_type_symbol
 _atom_site_label
 _atom_site_symmetry_multiplicity
 _atom_site_fract_x
 _atom_site_fract_y
 _atom_site_fract_z
 _atom_site_occupancy
  K  K0  1  0.74921013  0.74921007  0.00000014  1
  K  K1  1  0.99921009  0.49921005  0.50000013  1
  O  O2  1  0.48311502  0.09416301  0.95742306  1
  Br  Br3  1  0.13674009  0.52569205  0.04257708  1
  Br  Br4  1  0.34416304  0.23311502  0.45742306  1
  Br  Br5  1  0.77569215  0.88674008  0.54257717  1
  Br  Br6  1  0.54827105  0.30112503  0.89429409  1
  O  O7  1  0.40683211  0.65397706  0.10570711  1
  O  O8  1  0.55112505  0.29827103  0.39429308  1
  O  O9  1  0.90397703  0.15683201  0.60570609  1
  O  O10  1  0.12542303  0.16576902  0.26088703  1
  O  O11  1  0.90488315  0.86453608  0.73911418  1
  O  O12  1  0.86089113  0.78238707  0.38515016  1
  O  O13  1  0.39723708  0.47574104  0.61485010  1
  O  O14  1  0.03238710  0.61089106  0.88515009  1
  O  O15  1  0.72574103  0.14723701  0.11485007  1
  O  O16  1  0.11453611  0.65488306  0.23911309  1
  O  O17  1  0.41576914  0.87542308  0.76088615  1
