# generated using pymatgen
data_Na3Li(FeO3)2
_symmetry_space_group_name_H-M   'P 1'
_cell_length_a   5.28854179
_cell_length_b   5.29070377
_cell_length_c   5.69912672
_cell_angle_alpha   80.80972290
_cell_angle_beta   71.36380768
_cell_angle_gamma   60.01351547
_symmetry_Int_Tables_number   1
_chemical_formula_structural   Na3Li(FeO3)2
_chemical_formula_sum   'Na3 Li1 Fe2 O6'
_cell_volume   130.87517412
_cell_formula_units_Z   1
loop_
 _symmetry_equiv_pos_site_id
 _symmetry_equiv_pos_as_xyz
  1  'x, y, z'
loop_
 _atom_site_type_symbol
 _atom_site_label
 _atom_site_symmetry_multiplicity
 _atom_site_fract_x
 _atom_site_fract_y
 _atom_site_fract_z
 _atom_site_occupancy
  Li  Li0  1  0.00000000  0.00000000  0.00000000  1
  Na  Na1  1  0.33853501  0.32293002  -0.00000001  1
  Na  Na2  1  0.66146502  0.67707004  -0.00000002  1
  Na  Na3  1  0.50000002  0.00000000  0.49999999  1
  Fe  Fe4  1  0.16406499  0.67187004  0.49999999  1
  Fe  Fe5  1  0.83593503  0.32813002  0.49999998  1
  O  O6  1  0.05326999  0.38168702  0.69982000  1
  O  O7  1  0.94673003  0.61831303  0.30017998  1
  O  O8  1  0.19192101  0.00000000  0.29905100  1
  O  O9  1  0.43495701  0.61831303  0.69981999  1
  O  O10  1  0.56504302  0.38168702  0.30017999  1
  O  O11  1  0.80807904  0.00000000  0.70094898  1
