# generated using pymatgen
data_Li3Si2H4O9
_symmetry_space_group_name_H-M   'P 1'
_cell_length_a   5.37138796
_cell_length_b   5.37138748
_cell_length_c   7.37757492
_cell_angle_alpha   90.00000000
_cell_angle_beta   90.00000000
_cell_angle_gamma   120.00000000
_symmetry_Int_Tables_number   1
_chemical_formula_structural   Li3Si2H4O9
_chemical_formula_sum   'Li3 Si2 H4 O9'
_cell_volume   184.33901568
_cell_formula_units_Z   1
loop_
 _symmetry_equiv_pos_site_id
 _symmetry_equiv_pos_as_xyz
  1  'x, y, z'
loop_
 _atom_site_type_symbol
 _atom_site_label
 _atom_site_symmetry_multiplicity
 _atom_site_fract_x
 _atom_site_fract_y
 _atom_site_fract_z
 _atom_site_occupancy
  Li  Li0  1  0.66858097  0.66858100  0.54115801  1
  Li  Li1  1  0.99999999  0.33141900  0.54115801  1
  Li  Li2  1  0.33141895  1.00000000  0.54115801  1
  Si  Si3  1  0.66666666  0.33333333  0.92280601  1
  Si  Si4  1  0.33333330  0.66666666  0.92280601  1
  H  H5  1  0.00000000  0.00000000  0.82303701  1
  H  H6  1  0.65051900  0.00000000  0.27719800  1
  H  H7  1  0.99999998  0.65051900  0.27719800  1
  H  H8  1  0.34948099  0.34948100  0.27719800  1
  O  O9  1  0.00000000  0.00000000  0.69193701  1
  O  O10  1  0.66666666  0.33333333  0.70462701  1
  O  O11  1  0.33333330  0.66666666  0.70462701  1
  O  O12  1  0.48859098  0.48859100  0.00588500  1
  O  O13  1  0.99999998  0.51140900  0.00588500  1
  O  O14  1  0.51140900  0.00000000  0.00588500  1
  O  O15  1  0.33535299  0.33535300  0.40851200  1
  O  O16  1  0.99999997  0.66464700  0.40851200  1
  O  O17  1  0.66464701  0.00000000  0.40851200  1
