# generated using pymatgen
data_ZrAl5
_symmetry_space_group_name_H-M   'P 1'
_cell_length_a   4.75322580
_cell_length_b   4.75322628
_cell_length_c   5.64179420
_cell_angle_alpha   90.00000000
_cell_angle_beta   90.00000000
_cell_angle_gamma   120.00000000
_symmetry_Int_Tables_number   1
_chemical_formula_structural   ZrAl5
_chemical_formula_sum   'Zr1 Al5'
_cell_volume   110.38874802
_cell_formula_units_Z   1
loop_
 _symmetry_equiv_pos_site_id
 _symmetry_equiv_pos_as_xyz
  1  'x, y, z'
loop_
 _atom_site_type_symbol
 _atom_site_label
 _atom_site_symmetry_multiplicity
 _atom_site_fract_x
 _atom_site_fract_y
 _atom_site_fract_z
 _atom_site_occupancy
  Al  Al0  1  0.33333339  0.66666671  0.74999997  1
  Al  Al1  1  0.66666672  0.33333336  0.24999999  1
  Al  Al2  1  0.00000000  0.00000000  0.00000000  1
  Zr  Zr3  1  0.00000000  0.00000000  0.49999998  1
  Al  Al4  1  0.33333339  0.66666671  0.24999999  1
  Al  Al5  1  0.66666672  0.33333336  0.74999997  1
