# generated using pymatgen
data_MgCr5S6
_symmetry_space_group_name_H-M   'P 1'
_cell_length_a   6.14348221
_cell_length_b   6.15188217
_cell_length_c   6.24867249
_cell_angle_alpha   90.00000000
_cell_angle_beta   66.97179413
_cell_angle_gamma   90.00000000
_symmetry_Int_Tables_number   1
_chemical_formula_structural   MgCr5S6
_chemical_formula_sum   'Mg1 Cr5 S6'
_cell_volume   217.34299393
_cell_formula_units_Z   1
loop_
 _symmetry_equiv_pos_site_id
 _symmetry_equiv_pos_as_xyz
  1  'x, y, z'
loop_
 _atom_site_type_symbol
 _atom_site_label
 _atom_site_symmetry_multiplicity
 _atom_site_fract_x
 _atom_site_fract_y
 _atom_site_fract_z
 _atom_site_occupancy
  S  S0  1  0.15400500  0.87310098  0.12512900  1
  Cr  Cr1  1  0.84599499  0.37310099  0.37487098  1
  Cr  Cr2  1  0.84599499  0.12689900  0.87487099  1
  S  S3  1  0.15400500  0.62689898  0.62512901  1
  Cr  Cr4  1  0.33847899  0.37034699  0.81546901  1
  S  S5  1  0.66152099  0.87034698  0.68453099  1
  S  S6  1  0.66152099  0.62965298  0.18453098  1
  S  S7  1  0.33847899  0.12965300  0.31546900  1
  Mg  Mg8  1  0.27239200  0.49995899  0.20787500  1
  Cr  Cr9  1  0.72760799  0.99995897  0.29212498  1
  S  S10  1  0.72760799  0.50004099  0.79212499  1
  Cr  Cr11  1  0.27239200  0.00004100  0.70787501  1
