# generated using pymatgen
data_K4PtO4
_symmetry_space_group_name_H-M   'P 1'
_cell_length_a   6.64856100
_cell_length_b   6.67875814
_cell_length_c   9.92888546
_cell_angle_alpha   71.50599670
_cell_angle_beta   79.79359436
_cell_angle_gamma   66.90703583
_symmetry_Int_Tables_number   1
_chemical_formula_structural   K4PtO4
_chemical_formula_sum   'K8 Pt2 O8'
_cell_volume   383.90667209
_cell_formula_units_Z   2
loop_
 _symmetry_equiv_pos_site_id
 _symmetry_equiv_pos_as_xyz
  1  'x, y, z'
loop_
 _atom_site_type_symbol
 _atom_site_label
 _atom_site_symmetry_multiplicity
 _atom_site_fract_x
 _atom_site_fract_y
 _atom_site_fract_z
 _atom_site_occupancy
  K  K0  1  0.77858301  0.03968200  0.38164495  1
  K  K1  1  0.22141697  0.96031798  0.61835497  1
  K  K2  1  0.74189599  0.58739299  0.16661897  1
  K  K3  1  0.25810399  0.41260699  0.83338096  1
  K  K4  1  0.24238898  0.76320999  0.02661700  1
  K  K5  1  0.75761100  0.23679000  0.97338293  1
  K  K6  1  0.27377399  0.51207799  0.44103497  1
  K  K7  1  0.72622599  0.48792199  0.55896495  1
  Pt  Pt8  1  0.27670000  0.15429600  0.24661698  1
  Pt  Pt9  1  0.72329998  0.84570399  0.75338295  1
  O  O10  1  0.03540299  0.29409199  0.37887198  1
  O  O11  1  0.96459699  0.70590799  0.62112794  1
  O  O12  1  0.53843000  0.15802400  0.64706295  1
  O  O13  1  0.46156998  0.84197599  0.35293697  1
  O  O14  1  0.46501899  0.34406399  0.19022998  1
  O  O15  1  0.53498099  0.65593599  0.80976995  1
  O  O16  1  0.12881700  0.15910800  0.08618399  1
  O  O17  1  0.87118298  0.84089199  0.91381593  1
