# generated using pymatgen
data_NaLaFeTe3Se
_symmetry_space_group_name_H-M   'P 1'
_cell_length_a   4.57776213
_cell_length_b   4.59869289
_cell_length_c   8.82893181
_cell_angle_alpha   105.09576416
_cell_angle_beta   90.00000000
_cell_angle_gamma   90.00000000
_symmetry_Int_Tables_number   1
_chemical_formula_structural   NaLaFeTe3Se
_chemical_formula_sum   'Na1 La1 Fe1 Te3 Se1'
_cell_volume   179.45039598
_cell_formula_units_Z   1
loop_
 _symmetry_equiv_pos_site_id
 _symmetry_equiv_pos_as_xyz
  1  'x, y, z'
loop_
 _atom_site_type_symbol
 _atom_site_label
 _atom_site_symmetry_multiplicity
 _atom_site_fract_x
 _atom_site_fract_y
 _atom_site_fract_z
 _atom_site_occupancy
  La  La0  1  0.24999999  0.09838600  0.19677200  1
  Na  Na1  1  0.74999998  0.89565803  0.79131601  1
  Fe  Fe2  1  0.24999999  0.30000701  0.60001300  1
  Te  Te3  1  0.24999999  0.44562901  0.89125800  1
  Te  Te4  1  0.74999998  0.56204302  0.12408501  1
  Se  Se5  1  0.24999999  0.73862202  0.47724301  1
  Te  Te6  1  0.74999998  0.24165701  0.48331400  1
