# generated using pymatgen
data_VSO4
_symmetry_space_group_name_H-M   'P 1'
_cell_length_a   4.88200378
_cell_length_b   5.03980827
_cell_length_c   4.88200378
_cell_angle_alpha   61.03048325
_cell_angle_beta   90.00000000
_cell_angle_gamma   118.96951294
_symmetry_Int_Tables_number   1
_chemical_formula_structural   VSO4
_chemical_formula_sum   'V1 S1 O4'
_cell_volume   87.51539352
_cell_formula_units_Z   1
loop_
 _symmetry_equiv_pos_site_id
 _symmetry_equiv_pos_as_xyz
  1  'x, y, z'
loop_
 _atom_site_type_symbol
 _atom_site_label
 _atom_site_symmetry_multiplicity
 _atom_site_fract_x
 _atom_site_fract_y
 _atom_site_fract_z
 _atom_site_occupancy
  V  V0  1  0.00000000  0.00000000  0.00000000  1
  S  S1  1  0.24999999  0.50000002  0.25000000  1
  O  O2  1  0.59055000  0.72936203  0.23608199  1
  O  O3  1  0.23608200  0.27063801  0.13881200  1
  O  O4  1  0.13881198  0.72936203  0.03455598  1
  O  O5  1  0.03455599  0.27063801  0.59055002  1
