# generated using pymatgen
data_V
_symmetry_space_group_name_H-M   'P 1'
_cell_length_a   3.78622603
_cell_length_b   5.83520794
_cell_length_c   5.83520746
_cell_angle_alpha   120.00000000
_cell_angle_beta   90.00000000
_cell_angle_gamma   90.00000000
_symmetry_Int_Tables_number   1
_chemical_formula_structural   V
_chemical_formula_sum   V9
_cell_volume   111.64770681
_cell_formula_units_Z   9
loop_
 _symmetry_equiv_pos_site_id
 _symmetry_equiv_pos_as_xyz
  1  'x, y, z'
loop_
 _atom_site_type_symbol
 _atom_site_label
 _atom_site_symmetry_multiplicity
 _atom_site_fract_x
 _atom_site_fract_y
 _atom_site_fract_z
 _atom_site_occupancy
  V  V0  1  0.99999999  0.25344900  0.25344900  1
  V  V1  1  0.00000000  0.99999999  0.74655099  1
  V  V2  1  0.99999999  0.74655099  -0.00000003  1
  V  V3  1  0.00000000  0.66666666  0.33333332  1
  V  V4  1  0.00000000  0.33333333  0.66666668  1
  V  V5  1  0.50000000  0.00000000  -0.00000000  1
  V  V6  1  0.50000000  0.58529500  0.58529500  1
  V  V7  1  0.50000000  0.99999999  0.41470498  1
  V  V8  1  0.50000000  0.41470500  -0.00000001  1
