# generated using pymatgen
data_Sc5RhO8
_symmetry_space_group_name_H-M   'P 1'
_cell_length_a   6.40616274
_cell_length_b   6.40616274
_cell_length_c   6.40616274
_cell_angle_alpha   60.00000000
_cell_angle_beta   60.00000000
_cell_angle_gamma   60.00000000
_symmetry_Int_Tables_number   1
_chemical_formula_structural   Sc5RhO8
_chemical_formula_sum   'Sc5 Rh1 O8'
_cell_volume   185.89979178
_cell_formula_units_Z   1
loop_
 _symmetry_equiv_pos_site_id
 _symmetry_equiv_pos_as_xyz
  1  'x, y, z'
loop_
 _atom_site_type_symbol
 _atom_site_label
 _atom_site_symmetry_multiplicity
 _atom_site_fract_x
 _atom_site_fract_y
 _atom_site_fract_z
 _atom_site_occupancy
  Rh  Rh0  1  0.74999998  0.74999998  0.74999998  1
  O  O1  1  0.00000000  0.00000000  0.00000000  1
  Sc  Sc2  1  0.37499999  0.37499999  0.87499998  1
  Sc  Sc3  1  0.87499998  0.37499999  0.37499999  1
  Sc  Sc4  1  0.37499999  0.37499999  0.37499999  1
  Sc  Sc5  1  0.37499999  0.87499998  0.37499999  1
  O  O6  1  0.60736598  0.13087800  0.13087800  1
  O  O7  1  0.61912298  0.61912198  0.14263300  1
  O  O8  1  0.61912298  0.14263300  0.61912198  1
  O  O9  1  0.61912298  0.61912198  0.61912198  1
  O  O10  1  0.13087700  0.60736698  0.13087800  1
  Sc  Sc11  1  0.13087700  0.13087800  0.13087800  1
  O  O12  1  0.14263400  0.61912198  0.61912198  1
  O  O13  1  0.13087700  0.13087800  0.60736698  1
