# generated using pymatgen
data_Yb3SmGeAu5
_symmetry_space_group_name_H-M   'P 1'
_cell_length_a   5.69116402
_cell_length_b   5.70280600
_cell_length_c   7.87923813
_cell_angle_alpha   100.96256256
_cell_angle_beta   90.00000000
_cell_angle_gamma   119.93249512
_symmetry_Int_Tables_number   1
_chemical_formula_structural   Yb3SmGeAu5
_chemical_formula_sum   'Yb3 Sm1 Ge1 Au5'
_cell_volume   216.21369139
_cell_formula_units_Z   1
loop_
 _symmetry_equiv_pos_site_id
 _symmetry_equiv_pos_as_xyz
  1  'x, y, z'
loop_
 _atom_site_type_symbol
 _atom_site_label
 _atom_site_symmetry_multiplicity
 _atom_site_fract_x
 _atom_site_fract_y
 _atom_site_fract_z
 _atom_site_occupancy
  Sm  Sm0  1  0.21538904  0.69991101  0.35011800  1
  Yb  Yb1  1  0.51547801  0.30008901  0.14988200  1
  Yb  Yb2  1  0.78461101  0.30008901  0.64988200  1
  Yb  Yb3  1  0.48452203  0.69991101  0.85011799  1
  Au  Au4  1  0.87358600  0.00000000  0.25000000  1
  Ge  Ge5  1  0.12641400  0.00000000  0.74999999  1
  Au  Au6  1  0.99577601  0.26020200  0.00337900  1
  Au  Au7  1  0.73557404  0.73979801  0.49662100  1
  Au  Au8  1  0.00422404  0.73979801  0.99662099  1
  Au  Au9  1  0.26442601  0.26020200  0.50337900  1
