# generated using pymatgen
data_Ni3P
_symmetry_space_group_name_H-M   'P 1'
_cell_length_a   4.42377377
_cell_length_b   6.74702644
_cell_length_c   6.74702644
_cell_angle_alpha   83.83030701
_cell_angle_beta   70.86280060
_cell_angle_gamma   70.86280060
_symmetry_Int_Tables_number   1
_chemical_formula_structural   Ni3P
_chemical_formula_sum   'Ni12 P4'
_cell_volume   179.73758732
_cell_formula_units_Z   4
loop_
 _symmetry_equiv_pos_site_id
 _symmetry_equiv_pos_as_xyz
  1  'x, y, z'
loop_
 _atom_site_type_symbol
 _atom_site_label
 _atom_site_symmetry_multiplicity
 _atom_site_fract_x
 _atom_site_fract_y
 _atom_site_fract_z
 _atom_site_occupancy
  Ni  Ni0  1  0.84946513  0.81433397  0.02897196  1
  Ni  Ni1  1  0.69277105  0.18566599  0.97102699  1
  Ni  Ni2  1  0.12156301  0.02897300  0.18566500  1
  Ni  Ni3  1  0.33620213  0.97102697  0.81433392  1
  Ni  Ni4  1  0.41789909  0.61190898  0.04824596  1
  Ni  Ni5  1  0.07805305  0.38809099  0.95175495  1
  Ni  Ni6  1  0.53385603  0.04824500  0.38809101  1
  Ni  Ni7  1  0.97019115  0.95175497  0.61190994  1
  Ni  Ni8  1  0.38483809  0.60358098  0.66888795  1
  Ni  Ni9  1  0.65730707  0.39641899  0.33111198  1
  Ni  Ni10  1  0.94627412  0.66888798  0.39641897  1
  Ni  Ni11  1  0.01158104  0.33111199  0.60358096  1
  P  P12  1  0.80751011  0.66348398  0.75625896  1
  P  P13  1  0.22725305  0.33651599  0.24374098  1
  P  P14  1  0.43623111  0.75625897  0.33651595  1
  P  P15  1  0.52900605  0.24374099  0.66348399  1
