# generated using pymatgen
data_K2La2SnI11
_symmetry_space_group_name_H-M   'P 1'
_cell_length_a   8.99642372
_cell_length_b   9.27207851
_cell_length_c   8.99642372
_cell_angle_alpha   60.97866821
_cell_angle_beta   90.00000000
_cell_angle_gamma   119.02133179
_symmetry_Int_Tables_number   1
_chemical_formula_structural   K2La2SnI11
_chemical_formula_sum   'K2 La2 Sn1 I11'
_cell_volume   545.96246051
_cell_formula_units_Z   1
loop_
 _symmetry_equiv_pos_site_id
 _symmetry_equiv_pos_as_xyz
  1  'x, y, z'
loop_
 _atom_site_type_symbol
 _atom_site_label
 _atom_site_symmetry_multiplicity
 _atom_site_fract_x
 _atom_site_fract_y
 _atom_site_fract_z
 _atom_site_occupancy
  La  La0  1  0.01077099  0.31515599  0.19561502  1
  I  I1  1  0.69561400  0.68484198  0.51077204  1
  K  K2  1  0.30438600  0.31515799  0.48922803  1
  K  K3  1  0.80438601  0.31515699  0.69561403  1
  I  I4  1  0.51077101  0.31515699  0.98922904  1
  I  I5  1  0.19561398  0.68484298  0.30438603  1
  I  I6  1  0.48922899  0.68484298  0.01077102  1
  I  I7  1  0.98922901  0.68484398  0.80438505  1
  Sn  Sn8  1  0.16431497  0.99999997  0.33568504  1
  La  La9  1  0.66431499  0.99999897  0.16431604  1
  I  I10  1  0.75000001  0.49999999  0.25000002  1
  I  I11  1  0.24999999  0.49999999  0.75000004  1
  I  I12  1  0.33568501  0.00000100  0.83568403  1
  I  I13  1  0.83568503  0.00000000  0.66431502  1
  I  I14  1  0.00000000  0.00000000  0.00000000  1
  I  I15  1  0.50000002  0.00000000  0.50000002  1
