# generated using pymatgen
data_Sm4ScC9
_symmetry_space_group_name_H-M   'P 1'
_cell_length_a   6.17841053
_cell_length_b   6.17841053
_cell_length_c   6.17841053
_cell_angle_alpha   109.47122192
_cell_angle_beta   109.47122192
_cell_angle_gamma   109.47122192
_symmetry_Int_Tables_number   1
_chemical_formula_structural   Sm4ScC9
_chemical_formula_sum   'Sm4 Sc1 C9'
_cell_volume   181.55506720
_cell_formula_units_Z   1
loop_
 _symmetry_equiv_pos_site_id
 _symmetry_equiv_pos_as_xyz
  1  'x, y, z'
loop_
 _atom_site_type_symbol
 _atom_site_label
 _atom_site_symmetry_multiplicity
 _atom_site_fract_x
 _atom_site_fract_y
 _atom_site_fract_z
 _atom_site_occupancy
  Sc  Sc0  1  0.00000000  0.00000000  0.00000000  1
  Sm  Sm1  1  0.50000001  0.00000000  0.00000001  1
  Sm  Sm2  1  0.00000003  0.50000002  0.00000003  1
  Sm  Sm3  1  0.00000000  0.00000000  0.50000000  1
  Sm  Sm4  1  0.50000004  0.50000002  0.50000004  1
  C  C5  1  0.50000004  0.50000002  1.00000004  1
  C  C6  1  0.50000001  0.00000000  0.50000001  1
  C  C7  1  0.00000003  0.50000002  0.50000003  1
  C  C8  1  0.00000002  0.31205701  0.31205702  1
  C  C9  1  0.00000004  0.68794303  0.68794304  1
  C  C10  1  0.68794305  0.68794303  1.00000006  1
  C  C11  1  0.31205700  0.00000000  0.31205701  1
  C  C12  1  0.68794301  0.00000000  0.68794302  1
  C  C13  1  0.31205702  0.31205701  1.00000003  1
