# generated using pymatgen
data_La2Cu5S9
_symmetry_space_group_name_H-M   'P 1'
_cell_length_a   6.34477091
_cell_length_b   8.00435829
_cell_length_c   8.00435734
_cell_angle_alpha   120.00000000
_cell_angle_beta   90.00000000
_cell_angle_gamma   90.00000000
_symmetry_Int_Tables_number   1
_chemical_formula_structural   La2Cu5S9
_chemical_formula_sum   'La2 Cu5 S9'
_cell_volume   352.04612321
_cell_formula_units_Z   1
loop_
 _symmetry_equiv_pos_site_id
 _symmetry_equiv_pos_as_xyz
  1  'x, y, z'
loop_
 _atom_site_type_symbol
 _atom_site_label
 _atom_site_symmetry_multiplicity
 _atom_site_fract_x
 _atom_site_fract_y
 _atom_site_fract_z
 _atom_site_occupancy
  La  La0  1  0.75000001  0.33333332  0.66666669  1
  La  La1  1  0.25000000  0.66666663  0.33333333  1
  Cu  Cu2  1  0.75000001  0.83380696  0.17880599  1
  Cu  Cu3  1  0.75000001  0.34499898  0.16619300  1
  Cu  Cu4  1  0.25000000  0.65500097  0.82119402  1
  Cu  Cu5  1  0.75000001  0.82119396  0.65500101  1
  S  S6  1  0.25000000  0.17880599  0.83380703  1
  Cu  Cu7  1  0.25000000  0.16619299  0.34499901  1
  S  S8  1  0.75000001  0.66666663  0.33333333  1
  S  S9  1  0.25000000  0.33333332  0.66666669  1
  S  S10  1  0.00000000  0.60793097  0.60793101  1
  S  S11  1  1.00000001  0.00000000  0.39206902  1
  S  S12  1  0.50000001  0.60793097  0.60793101  1
  S  S13  1  0.00000000  0.39206898  -0.00000001  1
  S  S14  1  0.50000001  0.00000000  0.39206902  1
  S  S15  1  0.50000001  0.39206898  -0.00000001  1
