# generated using pymatgen
data_LiV2O4
_symmetry_space_group_name_H-M   'P 1'
_cell_length_a   5.84061861
_cell_length_b   5.84061909
_cell_length_c   5.97655487
_cell_angle_alpha   60.74958801
_cell_angle_beta   60.74958801
_cell_angle_gamma   60.00001144
_symmetry_Int_Tables_number   1
_chemical_formula_structural   LiV2O4
_chemical_formula_sum   'Li2 V4 O8'
_cell_volume   145.77479269
_cell_formula_units_Z   2
loop_
 _symmetry_equiv_pos_site_id
 _symmetry_equiv_pos_as_xyz
  1  'x, y, z'
loop_
 _atom_site_type_symbol
 _atom_site_label
 _atom_site_symmetry_multiplicity
 _atom_site_fract_x
 _atom_site_fract_y
 _atom_site_fract_z
 _atom_site_occupancy
  Li  Li0  1  0.12059501  0.12059500  0.63821500  1
  V  V1  1  0.87940504  0.87940499  0.36178497  1
  Li  Li2  1  0.50000001  0.00000000  -0.00000000  1
  V  V3  1  0.00000002  0.49999999  -0.00000002  1
  V  V4  1  0.50000002  0.49999999  -0.00000002  1
  V  V5  1  0.50000002  0.49999999  0.49999999  1
  O  O6  1  0.26497401  0.26497400  0.20507799  1
  O  O7  1  0.25435801  0.25435800  0.77587400  1
  O  O8  1  0.71541002  0.25435800  0.77587400  1
  O  O9  1  0.25435803  0.71540999  0.77587398  1
  O  O10  1  0.74564202  0.28459000  0.22412599  1
  O  O11  1  0.28459003  0.74564199  0.22412598  1
  O  O12  1  0.74564204  0.74564199  0.22412598  1
  O  O13  1  0.73502604  0.73502599  0.79492198  1
