# generated using pymatgen
data_Rh
_symmetry_space_group_name_H-M   'P 1'
_cell_length_a   3.77733207
_cell_length_b   3.77733207
_cell_length_c   4.67692947
_cell_angle_alpha   113.81758118
_cell_angle_beta   113.81758118
_cell_angle_gamma   90.00000000
_symmetry_Int_Tables_number   1
_chemical_formula_structural   Rh
_chemical_formula_sum   Rh4
_cell_volume   54.77879433
_cell_formula_units_Z   4
loop_
 _symmetry_equiv_pos_site_id
 _symmetry_equiv_pos_as_xyz
  1  'x, y, z'
loop_
 _atom_site_type_symbol
 _atom_site_label
 _atom_site_symmetry_multiplicity
 _atom_site_fract_x
 _atom_site_fract_y
 _atom_site_fract_z
 _atom_site_occupancy
  Rh  Rh0  1  0.00000000  0.00000000  0.00000000  1
  Rh  Rh1  1  0.74999996  0.24999999  0.49999993  1
  Rh  Rh2  1  0.24999995  0.74999996  0.49999992  1
  Rh  Rh3  1  0.49999995  0.49999997  -0.00000005  1
