# generated using pymatgen
data_La2TmScC5S
_symmetry_space_group_name_H-M   'P 1'
_cell_length_a   3.32032394
_cell_length_b   5.93885899
_cell_length_c   8.89805412
_cell_angle_alpha   90.00000000
_cell_angle_beta   90.00000000
_cell_angle_gamma   106.23288727
_symmetry_Int_Tables_number   1
_chemical_formula_structural   La2TmScC5S
_chemical_formula_sum   'La2 Tm1 Sc1 C5 S1'
_cell_volume   168.46515522
_cell_formula_units_Z   1
loop_
 _symmetry_equiv_pos_site_id
 _symmetry_equiv_pos_as_xyz
  1  'x, y, z'
loop_
 _atom_site_type_symbol
 _atom_site_label
 _atom_site_symmetry_multiplicity
 _atom_site_fract_x
 _atom_site_fract_y
 _atom_site_fract_z
 _atom_site_occupancy
  S  S0  1  0.37224103  0.74448203  0.54262899  1
  C  C1  1  0.62775902  0.25551801  0.45737099  1
  C  C2  1  0.37224103  0.74448203  0.95737099  1
  C  C3  1  0.62775902  0.25551801  0.04262900  1
  C  C4  1  0.04319300  0.08638600  0.74999999  1
  C  C5  1  0.95680705  0.91361403  0.25000000  1
  La  La6  1  0.74711003  0.49422002  0.74999999  1
  La  La7  1  0.25289002  0.50578002  0.25000000  1
  Tm  Tm8  1  0.00000000  0.00000000  0.49999999  1
  Sc  Sc9  1  0.00000000  0.00000000  0.00000000  1
