# generated using pymatgen
data_FeSe5
_symmetry_space_group_name_H-M   'P 1'
_cell_length_a   6.83256292
_cell_length_b   6.83306742
_cell_length_c   6.83366919
_cell_angle_alpha   90.46580505
_cell_angle_beta   119.63040161
_cell_angle_gamma   119.82549286
_symmetry_Int_Tables_number   1
_chemical_formula_structural   FeSe5
_chemical_formula_sum   'Fe2 Se10'
_cell_volume   226.53036168
_cell_formula_units_Z   2
loop_
 _symmetry_equiv_pos_site_id
 _symmetry_equiv_pos_as_xyz
  1  'x, y, z'
loop_
 _atom_site_type_symbol
 _atom_site_label
 _atom_site_symmetry_multiplicity
 _atom_site_fract_x
 _atom_site_fract_y
 _atom_site_fract_z
 _atom_site_occupancy
  Se  Se0  1  0.99995600  0.00001400  0.49994795  1
  Se  Se1  1  0.49996900  0.00008900  0.00006498  1
  Fe  Fe2  1  0.00000398  0.49999497  0.49999995  1
  Fe  Fe3  1  0.49989296  0.99984194  0.50010590  1
  Se  Se4  1  0.49994999  0.24669599  0.74669094  1
  Se  Se5  1  0.99995899  0.25321599  0.25323394  1
  Se  Se6  1  0.98827799  0.25111599  0.73937693  1
  Se  Se7  1  0.51177899  0.25117199  0.26287696  1
  Se  Se8  1  0.01168897  0.74889696  0.26052094  1
  Se  Se9  1  0.48848797  0.74889496  0.73727691  1
  Se  Se10  1  0.50002397  0.75330896  0.25325592  1
  Se  Se11  1  0.00000397  0.74674596  0.74665292  1
