# generated using pymatgen
data_LaGa3CoSe12
_symmetry_space_group_name_H-M   'P 1'
_cell_length_a   7.46988297
_cell_length_b   7.46988297
_cell_length_c   7.46988297
_cell_angle_alpha   109.47122192
_cell_angle_beta   109.47122192
_cell_angle_gamma   109.47122192
_symmetry_Int_Tables_number   1
_chemical_formula_structural   LaGa3CoSe12
_chemical_formula_sum   'La1 Ga3 Co1 Se12'
_cell_volume   320.86288280
_cell_formula_units_Z   1
loop_
 _symmetry_equiv_pos_site_id
 _symmetry_equiv_pos_as_xyz
  1  'x, y, z'
loop_
 _atom_site_type_symbol
 _atom_site_label
 _atom_site_symmetry_multiplicity
 _atom_site_fract_x
 _atom_site_fract_y
 _atom_site_fract_z
 _atom_site_occupancy
  La  La0  1  0.00000000  0.00000000  0.00000000  1
  Se  Se1  1  0.14911503  0.34645602  0.49557103  1
  Se  Se2  1  0.85088506  0.65354404  0.50442906  1
  Se  Se3  1  0.14911504  0.65354304  0.80265905  1
  Se  Se4  1  0.85088504  0.34645702  0.19734104  1
  Se  Se5  1  0.65354405  0.50442903  0.85088506  1
  Se  Se6  1  0.34645604  0.49557103  0.14911504  1
  Se  Se7  1  0.34645602  0.19734101  0.85088403  1
  Se  Se8  1  0.65354407  0.80265904  0.14911606  1
  Se  Se9  1  0.80265903  0.14911501  0.65354404  1
  Se  Se10  1  0.19734106  0.85088505  0.34645606  1
  Se  Se11  1  0.49557202  0.14911601  0.34645702  1
  Se  Se12  1  0.50442807  0.85088405  0.65354307  1
  Co  Co13  1  0.50000004  0.50000003  0.50000005  1
  Ga  Ga14  1  0.00000000  0.00000000  0.50000001  1
  Ga  Ga15  1  0.00000003  0.50000003  0.00000003  1
  Ga  Ga16  1  0.50000001  0.00000000  0.00000001  1
