# generated using pymatgen
data_Fe5Si3
_symmetry_space_group_name_H-M   'P 1'
_cell_length_a   4.43821287
_cell_length_b   4.44443178
_cell_length_c   4.45181227
_cell_angle_alpha   89.85942841
_cell_angle_beta   90.00000000
_cell_angle_gamma   90.00000000
_symmetry_Int_Tables_number   1
_chemical_formula_structural   Fe5Si3
_chemical_formula_sum   'Fe5 Si3'
_cell_volume   87.81322110
_cell_formula_units_Z   1
loop_
 _symmetry_equiv_pos_site_id
 _symmetry_equiv_pos_as_xyz
  1  'x, y, z'
loop_
 _atom_site_type_symbol
 _atom_site_label
 _atom_site_symmetry_multiplicity
 _atom_site_fract_x
 _atom_site_fract_y
 _atom_site_fract_z
 _atom_site_occupancy
  Fe  Fe0  1  0.35908601  0.85829604  0.38631797  1
  Si  Si1  1  0.85908602  0.14170401  0.61368201  1
  Si  Si2  1  0.63859902  0.63728703  0.89385699  1
  Si  Si3  1  0.13859900  0.36271302  0.10614298  1
  Fe  Fe4  1  0.34339501  0.34159202  0.58793600  1
  Fe  Fe5  1  0.84339502  0.65840803  0.41206398  1
  Fe  Fe6  1  0.65891902  0.15629701  0.09474399  1
  Fe  Fe7  1  0.15891900  0.84370304  0.90525598  1
