# generated using pymatgen
data_In8BRh7
_symmetry_space_group_name_H-M   'P 1'
_cell_length_a   5.25429010
_cell_length_b   7.88862991
_cell_length_c   7.88862991
_cell_angle_alpha   83.63230896
_cell_angle_beta   70.54725647
_cell_angle_gamma   70.54725647
_symmetry_Int_Tables_number   1
_chemical_formula_structural   In8BRh7
_chemical_formula_sum   'In8 B1 Rh7'
_cell_volume   290.71247716
_cell_formula_units_Z   1
loop_
 _symmetry_equiv_pos_site_id
 _symmetry_equiv_pos_as_xyz
  1  'x, y, z'
loop_
 _atom_site_type_symbol
 _atom_site_label
 _atom_site_symmetry_multiplicity
 _atom_site_fract_x
 _atom_site_fract_y
 _atom_site_fract_z
 _atom_site_occupancy
  In  In0  1  0.50000002  0.50000000  0.50000001  1
  Rh  Rh1  1  0.00000003  0.50000000  0.50000000  1
  In  In2  1  0.04849802  0.29080200  0.14129700  1
  In  In3  1  0.48059803  0.70919801  0.85870301  1
  In  In4  1  0.95150103  0.85870301  0.70919902  1
  In  In5  1  0.51940299  0.14129700  0.29080102  1
  In  In6  1  0.18979605  0.85870301  0.29080099  1
  In  In7  1  0.33930000  0.14129700  0.70919902  1
  In  In8  1  0.66069900  0.29080200  0.85870303  1
  Rh  Rh9  1  0.81020502  0.70919801  0.14129700  1
  B  B10  1  0.49999998  0.00000000  0.00000001  1
  Rh  Rh11  1  0.58652904  0.82694101  0.50000000  1
  Rh  Rh12  1  0.91347098  0.17305900  0.50000003  1
  Rh  Rh13  1  0.41347002  0.50000000  0.17306000  1
  Rh  Rh14  1  0.08653003  0.50000000  0.82694001  1
  Rh  Rh15  1  0.00000000  0.00000000  0.00000000  1
