# generated using pymatgen
data_K2Te3
_symmetry_space_group_name_H-M   'P 1'
_cell_length_a   6.66002417
_cell_length_b   7.47172213
_cell_length_c   8.18005657
_cell_angle_alpha   103.84741974
_cell_angle_beta   90.00000000
_cell_angle_gamma   116.46697998
_symmetry_Int_Tables_number   1
_chemical_formula_structural   K2Te3
_chemical_formula_sum   'K4 Te6'
_cell_volume   351.12697215
_cell_formula_units_Z   2
loop_
 _symmetry_equiv_pos_site_id
 _symmetry_equiv_pos_as_xyz
  1  'x, y, z'
loop_
 _atom_site_type_symbol
 _atom_site_label
 _atom_site_symmetry_multiplicity
 _atom_site_fract_x
 _atom_site_fract_y
 _atom_site_fract_z
 _atom_site_occupancy
  K  K0  1  0.23538499  0.78377100  0.55072005  1
  K  K1  1  0.45161399  0.21622900  0.94928002  1
  K  K2  1  0.76461498  0.21622900  0.44928002  1
  K  K3  1  0.54838598  0.78377100  0.05072005  1
  Te  Te4  1  0.03379800  0.35672900  0.07300202  1
  Te  Te5  1  0.67706898  0.64327100  0.42699804  1
  Te  Te6  1  0.96620197  0.64327100  0.92699804  1
  Te  Te7  1  0.32293099  0.35672900  0.57300202  1
  Te  Te8  1  0.13646799  1.00000001  0.25000006  1
  Te  Te9  1  0.86353198  0.00000000  0.75000000  1
