# generated using pymatgen
data_BaEu2
_symmetry_space_group_name_H-M   'P 1'
_cell_length_a   7.83839464
_cell_length_b   7.83839464
_cell_length_c   7.83839464
_cell_angle_alpha   60.00000000
_cell_angle_beta   60.00000000
_cell_angle_gamma   60.00000000
_symmetry_Int_Tables_number   1
_chemical_formula_structural   BaEu2
_chemical_formula_sum   'Ba3 Eu6'
_cell_volume   340.53862480
_cell_formula_units_Z   3
loop_
 _symmetry_equiv_pos_site_id
 _symmetry_equiv_pos_as_xyz
  1  'x, y, z'
loop_
 _atom_site_type_symbol
 _atom_site_label
 _atom_site_symmetry_multiplicity
 _atom_site_fract_x
 _atom_site_fract_y
 _atom_site_fract_z
 _atom_site_occupancy
  Ba  Ba0  1  0.75000000  0.75000000  0.75000000  1
  Eu  Eu1  1  0.25000000  0.25000000  0.25000000  1
  Eu  Eu2  1  0.00000000  0.00000000  0.00000000  1
  Eu  Eu3  1  0.23159200  0.76840800  0.23159200  1
  Eu  Eu4  1  0.76840800  0.23159200  0.76840800  1
  Ba  Ba5  1  0.23159200  0.76840800  0.76840800  1
  Ba  Ba6  1  0.76840800  0.23159200  0.23159200  1
  Eu  Eu7  1  0.23159200  0.23159200  0.76840800  1
  Eu  Eu8  1  0.76840800  0.76840800  0.23159200  1
