# generated using pymatgen
data_SrBi7O12
_symmetry_space_group_name_H-M   'P 1'
_cell_length_a   5.94160509
_cell_length_b   6.12790012
_cell_length_c   8.57697582
_cell_angle_alpha   90.00000000
_cell_angle_beta   90.00000000
_cell_angle_gamma   90.00000000
_symmetry_Int_Tables_number   1
_chemical_formula_structural   SrBi7O12
_chemical_formula_sum   'Sr1 Bi7 O12'
_cell_volume   312.28393789
_cell_formula_units_Z   1
loop_
 _symmetry_equiv_pos_site_id
 _symmetry_equiv_pos_as_xyz
  1  'x, y, z'
loop_
 _atom_site_type_symbol
 _atom_site_label
 _atom_site_symmetry_multiplicity
 _atom_site_fract_x
 _atom_site_fract_y
 _atom_site_fract_z
 _atom_site_occupancy
  Sr  Sr0  1  0.49012499  0.04396700  0.48675501  1
  Bi  Bi1  1  0.99012498  0.45603299  0.98675502  1
  Bi  Bi2  1  0.00987500  0.54396699  0.48675501  1
  Bi  Bi3  1  0.50987499  0.95603298  0.98675502  1
  Bi  Bi4  1  0.00011600  0.00502600  0.74181802  1
  Bi  Bi5  1  0.50011599  0.49497399  0.24181801  1
  Bi  Bi6  1  0.49988399  0.50502599  0.74181802  1
  Bi  Bi7  1  0.99988398  0.99497398  0.24181801  1
  O  O8  1  0.12706900  0.06386900  0.99400602  1
  O  O9  1  0.67695899  0.17264800  0.18481300  1
  O  O10  1  0.69317099  0.20169600  0.81640602  1
  O  O11  1  0.19317100  0.29830399  0.31640601  1
  O  O12  1  0.17695900  0.32735199  0.68481301  1
  O  O13  1  0.62706899  0.43613099  0.49400601  1
  O  O14  1  0.37293099  0.56386899  0.99400602  1
  O  O15  1  0.82304099  0.67264799  0.18481300  1
  O  O16  1  0.80682899  0.70169599  0.81640602  1
  O  O17  1  0.30682900  0.79830398  0.31640601  1
  O  O18  1  0.32304100  0.82735198  0.68481301  1
  O  O19  1  0.87293099  0.93613098  0.49400601  1
