# generated using pymatgen
data_Ba3La(ClO3)2
_symmetry_space_group_name_H-M   'P 1'
_cell_length_a   7.05219603
_cell_length_b   7.16577816
_cell_length_c   7.12385130
_cell_angle_alpha   90.00000000
_cell_angle_beta   80.29336548
_cell_angle_gamma   90.00000000
_symmetry_Int_Tables_number   1
_chemical_formula_structural   Ba3La(ClO3)2
_chemical_formula_sum   'Ba3 La1 Cl2 O6'
_cell_volume   354.84628780
_cell_formula_units_Z   1
loop_
 _symmetry_equiv_pos_site_id
 _symmetry_equiv_pos_as_xyz
  1  'x, y, z'
loop_
 _atom_site_type_symbol
 _atom_site_label
 _atom_site_symmetry_multiplicity
 _atom_site_fract_x
 _atom_site_fract_y
 _atom_site_fract_z
 _atom_site_occupancy
  La  La0  1  0.21044900  0.03533000  0.68054299  1
  Ba  Ba1  1  0.78955100  0.96466998  0.31945696  1
  Ba  Ba2  1  0.28955100  0.53532999  0.31945699  1
  Ba  Ba3  1  0.71044900  0.46466999  0.68054296  1
  O  O4  1  0.00761500  0.25869799  0.44807000  1
  O  O5  1  0.99238501  0.74130198  0.55192995  1
  O  O6  1  0.49238500  0.75869798  0.55192997  1
  O  O7  1  0.50761500  0.24130199  0.44806997  1
  Cl  Cl8  1  0.28877000  0.38424099  0.91471499  1
  O  O9  1  0.71123000  0.61575899  0.08528496  1
  O  O10  1  0.21123000  0.88424098  0.08528499  1
  Cl  Cl11  1  0.78877000  0.11575900  0.91471496  1
