# generated using pymatgen
data_EuAg2
_symmetry_space_group_name_H-M   'P 1'
_cell_length_a   4.89833784
_cell_length_b   6.26742554
_cell_length_c   6.28896856
_cell_angle_alpha   78.68904877
_cell_angle_beta   67.08040619
_cell_angle_gamma   66.99710846
_symmetry_Int_Tables_number   1
_chemical_formula_structural   EuAg2
_chemical_formula_sum   'Eu2 Ag4'
_cell_volume   163.46850469
_cell_formula_units_Z   2
loop_
 _symmetry_equiv_pos_site_id
 _symmetry_equiv_pos_as_xyz
  1  'x, y, z'
loop_
 _atom_site_type_symbol
 _atom_site_label
 _atom_site_symmetry_multiplicity
 _atom_site_fract_x
 _atom_site_fract_y
 _atom_site_fract_z
 _atom_site_occupancy
  Eu  Eu0  1  0.54340901  0.20466800  0.70851399  1
  Eu  Eu1  1  0.45659095  0.79533199  0.29148601  1
  Ag  Ag2  1  0.82625403  0.23440100  0.11309097  1
  Ag  Ag3  1  0.17374594  0.76559899  0.88690904  1
  Ag  Ag4  1  0.15197397  0.39637600  0.29967601  1
  Ag  Ag5  1  0.84802600  0.60362399  0.70032399  1
