# generated using pymatgen
data_V4Se5
_symmetry_space_group_name_H-M   'P 1'
_cell_length_a   3.37759590
_cell_length_b   7.10327435
_cell_length_c   7.28280115
_cell_angle_alpha   85.08498383
_cell_angle_beta   76.59172058
_cell_angle_gamma   76.24626160
_symmetry_Int_Tables_number   1
_chemical_formula_structural   V4Se5
_chemical_formula_sum   'V4 Se5'
_cell_volume   165.00638431
_cell_formula_units_Z   1
loop_
 _symmetry_equiv_pos_site_id
 _symmetry_equiv_pos_as_xyz
  1  'x, y, z'
loop_
 _atom_site_type_symbol
 _atom_site_label
 _atom_site_symmetry_multiplicity
 _atom_site_fract_x
 _atom_site_fract_y
 _atom_site_fract_z
 _atom_site_occupancy
  Se  Se0  1  0.00000000  0.00000000  0.00000000  1
  V  V1  1  0.37207397  0.33012100  0.92573102  1
  V  V2  1  0.62792594  0.66987900  0.07426903  1
  V  V3  1  0.69891292  0.92342900  0.67874504  1
  V  V4  1  0.30108700  0.07657100  0.32125501  1
  Se  Se5  1  0.94363194  0.76782200  0.34491404  1
  Se  Se6  1  0.05636798  0.23217800  0.65508601  1
  Se  Se7  1  0.26611494  0.67165000  0.79612003  1
  Se  Se8  1  0.73388498  0.32835000  0.20388003  1
