# generated using pymatgen
data_Dy2Fe17
_symmetry_space_group_name_H-M   'P 1'
_cell_length_a   6.32856989
_cell_length_b   6.32856989
_cell_length_c   6.32856989
_cell_angle_alpha   83.65629578
_cell_angle_beta   83.65629578
_cell_angle_gamma   83.65630341
_symmetry_Int_Tables_number   1
_chemical_formula_structural   Dy2Fe17
_chemical_formula_sum   'Dy2 Fe17'
_cell_volume   249.12742091
_cell_formula_units_Z   1
loop_
 _symmetry_equiv_pos_site_id
 _symmetry_equiv_pos_as_xyz
  1  'x, y, z'
loop_
 _atom_site_type_symbol
 _atom_site_label
 _atom_site_symmetry_multiplicity
 _atom_site_fract_x
 _atom_site_fract_y
 _atom_site_fract_z
 _atom_site_occupancy
  Dy  Dy0  1  0.34412001  0.34412001  0.34412000  1
  Dy  Dy1  1  0.65537703  0.65537702  0.65537701  1
  Fe  Fe2  1  0.71655003  0.28284701  0.00004599  1
  Fe  Fe3  1  0.28284701  0.00004600  0.71655001  1
  Fe  Fe4  1  0.00004600  0.71655003  0.28284700  1
  Fe  Fe5  1  0.71655003  0.00004600  0.28284700  1
  Fe  Fe6  1  0.00004600  0.28284701  0.71655001  1
  Fe  Fe7  1  0.28284701  0.71655003  0.00004599  1
  Fe  Fe8  1  0.65487103  0.65487102  0.15242499  1
  Fe  Fe9  1  0.65487102  0.15242501  0.65487101  1
  Fe  Fe10  1  0.15242501  0.65487102  0.65487101  1
  Fe  Fe11  1  0.34242501  0.34242501  0.84974101  1
  Fe  Fe12  1  0.34242502  0.84974103  0.34242500  1
  Fe  Fe13  1  0.84974103  0.34242501  0.34242500  1
  Fe  Fe14  1  0.00248500  0.00248500  0.49581301  1
  Fe  Fe15  1  0.00248500  0.49581302  0.00248500  1
  Fe  Fe16  1  0.49581302  0.00248500  0.00248500  1
  Fe  Fe17  1  0.10299600  0.10299600  0.10299600  1
  Fe  Fe18  1  0.90107804  0.90107803  0.90107801  1
