# generated using pymatgen
data_MgAl2
_symmetry_space_group_name_H-M   'P 1'
_cell_length_a   3.74915600
_cell_length_b   3.74915600
_cell_length_c   8.29512596
_cell_angle_alpha   90.00000000
_cell_angle_beta   90.00000000
_cell_angle_gamma   90.00000000
_symmetry_Int_Tables_number   1
_chemical_formula_structural   MgAl2
_chemical_formula_sum   'Mg2 Al4'
_cell_volume   116.59770648
_cell_formula_units_Z   2
loop_
 _symmetry_equiv_pos_site_id
 _symmetry_equiv_pos_as_xyz
  1  'x, y, z'
loop_
 _atom_site_type_symbol
 _atom_site_label
 _atom_site_symmetry_multiplicity
 _atom_site_fract_x
 _atom_site_fract_y
 _atom_site_fract_z
 _atom_site_occupancy
  Al  Al0  1  0.00000000  0.50000000  0.75486200  1
  Al  Al1  1  0.50000000  0.00000000  0.24513800  1
  Al  Al2  1  0.00000000  0.00000000  0.00000000  1
  Al  Al3  1  0.50000000  0.50000000  -0.00000000  1
  Mg  Mg4  1  0.00000000  0.50000000  0.38598100  1
  Mg  Mg5  1  0.50000000  0.00000000  0.61401900  1
