# generated using pymatgen
data_V7O10
_symmetry_space_group_name_H-M   'P 1'
_cell_length_a   5.14844990
_cell_length_b   6.59510040
_cell_length_c   6.88974476
_cell_angle_alpha   107.94248962
_cell_angle_beta   105.38024902
_cell_angle_gamma   96.80875397
_symmetry_Int_Tables_number   1
_chemical_formula_structural   V7O10
_chemical_formula_sum   'V7 O10'
_cell_volume   209.41387897
_cell_formula_units_Z   1
loop_
 _symmetry_equiv_pos_site_id
 _symmetry_equiv_pos_as_xyz
  1  'x, y, z'
loop_
 _atom_site_type_symbol
 _atom_site_label
 _atom_site_symmetry_multiplicity
 _atom_site_fract_x
 _atom_site_fract_y
 _atom_site_fract_z
 _atom_site_occupancy
  V  V0  1  0.66967700  0.18044400  0.39789800  1
  V  V1  1  0.33032293  0.81955601  0.60210198  1
  V  V2  1  0.90340000  0.24512500  0.96638702  1
  V  V3  1  0.35045097  0.38012800  0.76396200  1
  V  V4  1  0.64954896  0.61987300  0.23603798  1
  V  V5  1  0.09659993  0.75487501  0.03361297  1
  V  V6  1  0.00000000  0.00000000  0.00000000  1
  O  O7  1  0.73399497  0.52487700  0.94803000  1
  O  O8  1  0.26600496  0.47512300  0.05196998  1
  O  O9  1  0.48805700  0.10908400  0.80292802  1
  O  O10  1  0.95426500  0.20654100  0.66607101  1
  O  O11  1  0.38069998  0.28522400  0.48267400  1
  O  O12  1  0.80298599  0.34918500  0.25081799  1
  O  O13  1  0.19701395  0.65081501  0.74918199  1
  O  O14  1  0.61929995  0.71477601  0.51732598  1
  O  O15  1  0.04573493  0.79345901  0.33392897  1
  O  O16  1  0.51194293  0.89091601  0.19707197  1
