# generated using pymatgen
data_MgAl(CrS2)4
_symmetry_space_group_name_H-M   'P 1'
_cell_length_a   7.22642136
_cell_length_b   7.23118162
_cell_length_c   7.23511219
_cell_angle_alpha   60.06443405
_cell_angle_beta   60.07905960
_cell_angle_gamma   60.08021545
_symmetry_Int_Tables_number   1
_chemical_formula_structural   MgAl(CrS2)4
_chemical_formula_sum   'Mg1 Al1 Cr4 S8'
_cell_volume   267.79106978
_cell_formula_units_Z   1
loop_
 _symmetry_equiv_pos_site_id
 _symmetry_equiv_pos_as_xyz
  1  'x, y, z'
loop_
 _atom_site_type_symbol
 _atom_site_label
 _atom_site_symmetry_multiplicity
 _atom_site_fract_x
 _atom_site_fract_y
 _atom_site_fract_z
 _atom_site_occupancy
  Cr  Cr0  1  0.12478081  0.12478881  0.12478741  1
  Mg  Mg1  1  0.87520519  0.87522109  0.87521915  1
  Al  Al2  1  0.50001890  0.49998300  0.50000054  1
  Cr  Cr3  1  0.00000369  0.50000328  0.50000573  1
  Cr  Cr4  1  0.50001147  0.49998270  0.99998470  1
  Cr  Cr5  1  0.49999515  0.00001114  0.49998905  1
  S  S6  1  0.26315345  0.26314288  0.26322420  1
  S  S7  1  0.28840505  0.73765103  0.73779176  1
  S  S8  1  0.73772507  0.28838513  0.73779488  1
  S  S9  1  0.73781771  0.73772599  0.28838238  1
  S  S10  1  0.26228962  0.71159800  0.26222400  1
  S  S11  1  0.26217147  0.26228276  0.71162421  1
  S  S12  1  0.73683093  0.73687473  0.73677768  1
  S  S13  1  0.71159045  0.26235459  0.26219051  1
