# generated using pymatgen
data_Ce2In3Cu5
_symmetry_space_group_name_H-M   'P 1'
_cell_length_a   5.03176785
_cell_length_b   5.44293642
_cell_length_c   7.90308189
_cell_angle_alpha   90.00000000
_cell_angle_beta   90.00000000
_cell_angle_gamma   117.53104401
_symmetry_Int_Tables_number   1
_chemical_formula_structural   Ce2In3Cu5
_chemical_formula_sum   'Ce2 In3 Cu5'
_cell_volume   191.93610954
_cell_formula_units_Z   1
loop_
 _symmetry_equiv_pos_site_id
 _symmetry_equiv_pos_as_xyz
  1  'x, y, z'
loop_
 _atom_site_type_symbol
 _atom_site_label
 _atom_site_symmetry_multiplicity
 _atom_site_fract_x
 _atom_site_fract_y
 _atom_site_fract_z
 _atom_site_occupancy
  Ce  Ce0  1  0.15393199  0.30786399  0.40484901  1
  In  In1  1  0.84606800  0.69213598  0.59515101  1
  Ce  Ce2  1  0.34606798  0.69213598  0.90484901  1
  In  In3  1  0.65393201  0.30786399  0.09515100  1
  Cu  Cu4  1  0.49999997  0.99999997  0.50000001  1
  In  In5  1  0.00000000  0.00000000  0.00000000  1
  Cu  Cu6  1  0.15786597  0.81573198  0.25000000  1
  Cu  Cu7  1  0.34213400  0.18426800  0.75000001  1
  Cu  Cu8  1  0.65786599  0.81573198  0.25000000  1
  Cu  Cu9  1  0.84213402  0.18426800  0.75000001  1
