# generated using pymatgen
data_K2NaNb3O8
_symmetry_space_group_name_H-M   'P 1'
_cell_length_a   3.91400695
_cell_length_b   3.91400099
_cell_length_c   12.10007381
_cell_angle_alpha   89.99997711
_cell_angle_beta   89.99996185
_cell_angle_gamma   89.99996948
_symmetry_Int_Tables_number   1
_chemical_formula_structural   K2NaNb3O8
_chemical_formula_sum   'K2 Na1 Nb3 O8'
_cell_volume   185.36619826
_cell_formula_units_Z   1
loop_
 _symmetry_equiv_pos_site_id
 _symmetry_equiv_pos_as_xyz
  1  'x, y, z'
loop_
 _atom_site_type_symbol
 _atom_site_label
 _atom_site_symmetry_multiplicity
 _atom_site_fract_x
 _atom_site_fract_y
 _atom_site_fract_z
 _atom_site_occupancy
  K  K0  1  0.50000000  0.49999900  0.16764499  1
  K  K1  1  0.50000000  0.49999900  0.83258400  1
  Na  Na2  1  0.50000000  0.50000100  0.49997400  1
  Nb  Nb3  1  0.99999901  0.00000000  0.33886401  1
  Nb  Nb4  1  0.00000000  0.00000000  0.00015100  1
  Nb  Nb5  1  0.00000100  0.00000000  0.66105201  1
  O  O6  1  0.49999898  1.00000000  0.38239599  1
  O  O7  1  0.99999900  0.50000000  0.38239600  1
  O  O8  1  -0.00000001  0.50000100  0.00009899  1
  O  O9  1  -0.00000002  0.99999900  0.19154398  1
  O  O10  1  0.50000001  0.00000000  0.61739801  1
  O  O11  1  0.00000099  0.50000100  0.61739800  1
  O  O12  1  -0.00000002  0.99999900  0.80839799  1
  O  O13  1  0.50000001  0.00000100  0.00009900  1
