# generated using pymatgen
data_V2InW2Se11
_symmetry_space_group_name_H-M   'P 1'
_cell_length_a   4.67754412
_cell_length_b   9.80469513
_cell_length_c   9.96308231
_cell_angle_alpha   90.00000000
_cell_angle_beta   90.00000000
_cell_angle_gamma   90.00000000
_symmetry_Int_Tables_number   1
_chemical_formula_structural   V2InW2Se11
_chemical_formula_sum   'V2 In1 W2 Se11'
_cell_volume   456.92582519
_cell_formula_units_Z   1
loop_
 _symmetry_equiv_pos_site_id
 _symmetry_equiv_pos_as_xyz
  1  'x, y, z'
loop_
 _atom_site_type_symbol
 _atom_site_label
 _atom_site_symmetry_multiplicity
 _atom_site_fract_x
 _atom_site_fract_y
 _atom_site_fract_z
 _atom_site_occupancy
  Se  Se0  1  0.00000000  0.20932800  0.41521199  1
  Se  Se1  1  0.00000000  0.79067199  0.58478798  1
  Se  Se2  1  0.00000000  0.20932800  0.08478800  1
  Se  Se3  1  0.00000000  0.79067199  0.91521197  1
  Se  Se4  1  0.49999999  0.22930000  0.74999998  1
  Se  Se5  1  0.49999999  0.77069999  0.24999999  1
  Se  Se6  1  0.49999999  0.49999999  -0.00000000  1
  Se  Se7  1  0.49999999  0.49999999  0.49999998  1
  V  V8  1  0.49999999  0.25425200  0.99167097  1
  W  W9  1  0.49999999  0.74574799  0.00832900  1
  W  W10  1  0.49999999  0.74574799  0.49167098  1
  V  V11  1  0.49999999  0.25425200  0.50832898  1
  Se  Se12  1  0.00000000  0.01243300  0.74999998  1
  In  In13  1  0.00000000  0.53521899  0.74999998  1
  Se  Se14  1  0.00000000  0.46478099  0.24999999  1
  Se  Se15  1  0.00000000  0.98756699  0.24999999  1
