# generated using pymatgen
data_InTe
_symmetry_space_group_name_H-M   'P 1'
_cell_length_a   4.29119587
_cell_length_b   4.29119539
_cell_length_c   10.69915771
_cell_angle_alpha   90.00000000
_cell_angle_beta   90.00000000
_cell_angle_gamma   120.00000763
_symmetry_Int_Tables_number   1
_chemical_formula_structural   InTe
_chemical_formula_sum   'In3 Te3'
_cell_volume   170.62270222
_cell_formula_units_Z   3
loop_
 _symmetry_equiv_pos_site_id
 _symmetry_equiv_pos_as_xyz
  1  'x, y, z'
loop_
 _atom_site_type_symbol
 _atom_site_label
 _atom_site_symmetry_multiplicity
 _atom_site_fract_x
 _atom_site_fract_y
 _atom_site_fract_z
 _atom_site_occupancy
  Te  Te0  1  0.66666670  0.33333334  0.33659101  1
  Te  Te1  1  0.33333338  0.66666668  0.64990502  1
  Te  Te2  1  0.00000000  0.00000000  0.00056900  1
  In  In3  1  0.33333338  0.66666668  0.17611000  1
  In  In4  1  0.66666670  0.33333334  0.83068602  1
  In  In5  1  0.00000000  0.00000000  0.50614001  1
