# generated using pymatgen
data_La5YMgTiO12
_symmetry_space_group_name_H-M   'P 1'
_cell_length_a   5.61089468
_cell_length_b   5.90082598
_cell_length_c   8.11438465
_cell_angle_alpha   90.00000000
_cell_angle_beta   90.06092072
_cell_angle_gamma   90.00000000
_symmetry_Int_Tables_number   1
_chemical_formula_structural   La5YMgTiO12
_chemical_formula_sum   'La5 Y1 Mg1 Ti1 O12'
_cell_volume   268.65830428
_cell_formula_units_Z   1
loop_
 _symmetry_equiv_pos_site_id
 _symmetry_equiv_pos_as_xyz
  1  'x, y, z'
loop_
 _atom_site_type_symbol
 _atom_site_label
 _atom_site_symmetry_multiplicity
 _atom_site_fract_x
 _atom_site_fract_y
 _atom_site_fract_z
 _atom_site_occupancy
  Y  Y0  1  0.50043200  0.00371200  0.49963701  1
  La  La1  1  0.00043200  0.49628800  0.99963705  1
  La  La2  1  0.98522600  0.05907900  0.24538299  1
  La  La3  1  0.48522600  0.44092100  0.74538302  1
  La  La4  1  0.01643300  0.93985300  0.75421003  1
  La  La5  1  0.51643300  0.56014700  0.25421000  1
  Ti  Ti6  1  0.00015700  0.49944100  0.50080802  1
  Mg  Mg7  1  0.50015700  0.00055900  0.00080799  1
  O  O8  1  0.16978200  0.21617600  0.56867602  1
  O  O9  1  0.66978200  0.28382400  0.06867599  1
  O  O10  1  0.82610600  0.78013700  0.43235600  1
  O  O11  1  0.32610600  0.71986300  0.93235603  1
  O  O12  1  0.11637400  0.44891800  0.27046201  1
  O  O13  1  0.61637400  0.05108200  0.77046202  1
  O  O14  1  0.88706300  0.55158000  0.72943101  1
  O  O15  1  0.38706300  0.94842000  0.22943100  1
  O  O16  1  0.28803200  0.67940900  0.55178502  1
  O  O17  1  0.78803200  0.82059100  0.05178498  1
  O  O18  1  0.71039500  0.32347400  0.44725300  1
  O  O19  1  0.21039500  0.17652600  0.94725304  1
