# generated using pymatgen
data_ZrNi2
_symmetry_space_group_name_H-M   'P 1'
_cell_length_a   3.41441011
_cell_length_b   6.93142223
_cell_length_c   6.93142223
_cell_angle_alpha   120.00000000
_cell_angle_beta   90.00000000
_cell_angle_gamma   90.00000000
_symmetry_Int_Tables_number   1
_chemical_formula_structural   ZrNi2
_chemical_formula_sum   'Zr3 Ni6'
_cell_volume   142.06628571
_cell_formula_units_Z   3
loop_
 _symmetry_equiv_pos_site_id
 _symmetry_equiv_pos_as_xyz
  1  'x, y, z'
loop_
 _atom_site_type_symbol
 _atom_site_label
 _atom_site_symmetry_multiplicity
 _atom_site_fract_x
 _atom_site_fract_y
 _atom_site_fract_z
 _atom_site_occupancy
  Zr  Zr0  1  0.49999998  0.00000000  0.59671001  1
  Zr  Zr1  1  0.49999998  0.59670999  0.00000002  1
  Zr  Zr2  1  0.49999998  0.40328999  0.40329003  1
  Ni  Ni3  1  0.00000000  0.74699999  0.74700005  1
  Ni  Ni4  1  0.00000000  0.25300000  0.00000001  1
  Ni  Ni5  1  0.99999997  0.00000000  0.25300001  1
  Ni  Ni6  1  -0.00000000  0.33333333  0.66666670  1
  Ni  Ni7  1  0.99999997  0.66666666  0.33333337  1
  Ni  Ni8  1  0.49999998  0.00000000  -0.00000000  1
