# generated using pymatgen
data_Li2MnV3O8
_symmetry_space_group_name_H-M   'P 1'
_cell_length_a   5.79571962
_cell_length_b   5.79571962
_cell_length_c   6.08145475
_cell_angle_alpha   61.54243851
_cell_angle_beta   61.54243851
_cell_angle_gamma   60.00000381
_symmetry_Int_Tables_number   1
_chemical_formula_structural   Li2MnV3O8
_chemical_formula_sum   'Li2 Mn1 V3 O8'
_cell_volume   147.72307246
_cell_formula_units_Z   1
loop_
 _symmetry_equiv_pos_site_id
 _symmetry_equiv_pos_as_xyz
  1  'x, y, z'
loop_
 _atom_site_type_symbol
 _atom_site_label
 _atom_site_symmetry_multiplicity
 _atom_site_fract_x
 _atom_site_fract_y
 _atom_site_fract_z
 _atom_site_occupancy
  Li  Li0  1  0.11921399  0.11921400  0.64235798  1
  V  V1  1  0.88078596  0.88078600  0.35764200  1
  Li  Li2  1  0.49999999  0.00000000  0.00000000  1
  V  V3  1  -0.00000002  0.50000000  0.00000001  1
  V  V4  1  0.49999998  0.50000000  0.00000001  1
  Mn  Mn5  1  0.49999998  0.50000000  0.49999999  1
  O  O6  1  0.71428798  0.24619700  0.79331798  1
  O  O7  1  0.24619697  0.71428800  0.79331798  1
  O  O8  1  0.73340996  0.73341000  0.79976999  1
  O  O9  1  0.24619699  0.24619700  0.79331798  1
  O  O10  1  0.75380296  0.75380300  0.20668201  1
  O  O11  1  0.26658999  0.26659000  0.20023000  1
  O  O12  1  0.75380298  0.28571200  0.20668200  1
  O  O13  1  0.28571197  0.75380300  0.20668200  1
