# generated using pymatgen
data_GaSe
_symmetry_space_group_name_H-M   'P 1'
_cell_length_a   5.70658779
_cell_length_b   5.70658779
_cell_length_c   6.99923515
_cell_angle_alpha   114.05780029
_cell_angle_beta   114.05780029
_cell_angle_gamma   90.00000000
_symmetry_Int_Tables_number   1
_chemical_formula_structural   GaSe
_chemical_formula_sum   'Ga4 Se4'
_cell_volume   186.23935958
_cell_formula_units_Z   4
loop_
 _symmetry_equiv_pos_site_id
 _symmetry_equiv_pos_as_xyz
  1  'x, y, z'
loop_
 _atom_site_type_symbol
 _atom_site_label
 _atom_site_symmetry_multiplicity
 _atom_site_fract_x
 _atom_site_fract_y
 _atom_site_fract_z
 _atom_site_occupancy
  Se  Se0  1  0.75000007  0.25000002  0.50000007  1
  Ga  Ga1  1  0.00000000  0.00000000  0.00000000  1
  Se  Se2  1  0.25000007  0.75000006  0.50000009  1
  Se  Se3  1  0.50000007  0.50000004  0.00000007  1
  Ga  Ga4  1  0.37500009  0.89655207  0.25000010  1
  Ga  Ga5  1  0.64655209  0.62500005  0.75000010  1
  Se  Se6  1  0.10344802  0.12500001  0.75000003  1
  Ga  Ga7  1  0.87500008  0.35344803  0.25000009  1
