# generated using pymatgen
data_Dy6Ga2Ni11
_symmetry_space_group_name_H-M   'P 1'
_cell_length_a   6.35695267
_cell_length_b   6.35695267
_cell_length_c   6.35695314
_cell_angle_alpha   82.78723907
_cell_angle_beta   82.78723907
_cell_angle_gamma   82.78723145
_symmetry_Int_Tables_number   1
_chemical_formula_structural   Dy6Ga2Ni11
_chemical_formula_sum   'Dy6 Ga2 Ni11'
_cell_volume   251.26229732
_cell_formula_units_Z   1
loop_
 _symmetry_equiv_pos_site_id
 _symmetry_equiv_pos_as_xyz
  1  'x, y, z'
loop_
 _atom_site_type_symbol
 _atom_site_label
 _atom_site_symmetry_multiplicity
 _atom_site_fract_x
 _atom_site_fract_y
 _atom_site_fract_z
 _atom_site_occupancy
  Dy  Dy0  1  0.35045999  0.35046000  0.35046005  1
  Dy  Dy1  1  0.64953998  0.64954001  0.64954010  1
  Ni  Ni2  1  0.10652200  0.10652200  0.10652202  1
  Dy  Dy3  1  0.89347797  0.89347801  0.89347813  1
  Dy  Dy4  1  0.00000000  0.00000000  0.50000001  1
  Ni  Ni5  1  -0.00000002  0.50000001  1.00000005  1
  Dy  Dy6  1  0.49999997  1.00000001  0.00000010  1
  Ni  Ni7  1  0.71144600  0.28855400  0.00000007  1
  Dy  Dy8  1  0.28855396  1.00000001  0.71144610  1
  Ni  Ni9  1  -0.00000003  0.71144601  0.28855405  1
  Ni  Ni10  1  0.71144601  0.00000000  0.28855405  1
  Ni  Ni11  1  -0.00000001  0.28855400  0.71144603  1
  Ni  Ni12  1  0.28855398  0.71144601  0.00000007  1
  Ni  Ni13  1  0.65081598  0.65081601  0.15113509  1
  Ni  Ni14  1  0.65081600  0.15113500  0.65081606  1
  Ni  Ni15  1  0.15113498  0.65081601  0.65081606  1
  Ga  Ga16  1  0.34918399  0.34918400  0.84886506  1
  Ni  Ni17  1  0.34918397  0.84886501  0.34918409  1
  Ga  Ga18  1  0.84886499  0.34918400  0.34918409  1
