# generated using pymatgen
data_Sr2TaN3
_symmetry_space_group_name_H-M   'P 1'
_cell_length_a   3.85418200
_cell_length_b   4.17360592
_cell_length_c   7.17678118
_cell_angle_alpha   106.90414429
_cell_angle_beta   105.57606506
_cell_angle_gamma   90.00000000
_symmetry_Int_Tables_number   1
_chemical_formula_structural   Sr2TaN3
_chemical_formula_sum   'Sr2 Ta1 N3'
_cell_volume   106.01745755
_cell_formula_units_Z   1
loop_
 _symmetry_equiv_pos_site_id
 _symmetry_equiv_pos_as_xyz
  1  'x, y, z'
loop_
 _atom_site_type_symbol
 _atom_site_label
 _atom_site_symmetry_multiplicity
 _atom_site_fract_x
 _atom_site_fract_y
 _atom_site_fract_z
 _atom_site_occupancy
  Sr  Sr0  1  0.35476198  0.85476200  0.70952397  1
  Sr  Sr1  1  0.64523799  0.14523800  0.29047599  1
  Ta  Ta2  1  -0.00000001  0.50000000  -0.00000001  1
  N  N3  1  0.00000000  0.00000000  0.00000000  1
  N  N4  1  0.14732799  0.64732800  0.29465598  1
  N  N5  1  0.85267199  0.35267200  0.70534398  1
