# generated using pymatgen
data_Si2B3P2CO6
_symmetry_space_group_name_H-M   'P 1'
_cell_length_a   5.15348291
_cell_length_b   5.15348291
_cell_length_c   5.15348387
_cell_angle_alpha   63.10621262
_cell_angle_beta   63.10621262
_cell_angle_gamma   63.10620880
_symmetry_Int_Tables_number   1
_chemical_formula_structural   Si2B3P2CO6
_chemical_formula_sum   'Si2 B3 P2 C1 O6'
_cell_volume   103.44886943
_cell_formula_units_Z   1
loop_
 _symmetry_equiv_pos_site_id
 _symmetry_equiv_pos_as_xyz
  1  'x, y, z'
loop_
 _atom_site_type_symbol
 _atom_site_label
 _atom_site_symmetry_multiplicity
 _atom_site_fract_x
 _atom_site_fract_y
 _atom_site_fract_z
 _atom_site_occupancy
  O  O0  1  0.20117098  0.67627902  0.20117101  1
  O  O1  1  0.20117100  0.20117101  0.67627898  1
  O  O2  1  0.67627901  0.20117101  0.20117100  1
  O  O3  1  0.32372098  0.79882902  0.79882899  1
  O  O4  1  0.79882900  0.32372101  0.79882898  1
  O  O5  1  0.79882899  0.79882902  0.32372101  1
  B  B6  1  0.00230299  0.33316301  0.00230301  1
  C  C7  1  0.00230300  0.00230300  0.33316299  1
  Si  Si8  1  0.33316301  0.00230300  0.00230300  1
  B  B9  1  0.66683698  0.99769703  0.99769699  1
  Si  Si10  1  0.99769700  0.66683702  0.99769699  1
  B  B11  1  0.99769699  0.99769703  0.66683701  1
  P  P12  1  0.62226699  0.62226702  0.62226700  1
  P  P13  1  0.37773299  0.37773301  0.37773300  1
