# generated using pymatgen
data_Na2H5ClO4
_symmetry_space_group_name_H-M   'P 1'
_cell_length_a   3.61866999
_cell_length_b   6.18299723
_cell_length_c   6.63808966
_cell_angle_alpha   106.93119812
_cell_angle_beta   90.00000000
_cell_angle_gamma   90.00000000
_symmetry_Int_Tables_number   1
_chemical_formula_structural   Na2H5ClO4
_chemical_formula_sum   'Na2 H5 Cl1 O4'
_cell_volume   142.08445268
_cell_formula_units_Z   1
loop_
 _symmetry_equiv_pos_site_id
 _symmetry_equiv_pos_as_xyz
  1  'x, y, z'
loop_
 _atom_site_type_symbol
 _atom_site_label
 _atom_site_symmetry_multiplicity
 _atom_site_fract_x
 _atom_site_fract_y
 _atom_site_fract_z
 _atom_site_occupancy
  H  H0  1  0.25000000  0.28721400  0.11454702  1
  Cl  Cl1  1  0.75000000  0.71278599  0.88545307  1
  O  O2  1  0.25000000  0.87394099  0.23039206  1
  O  O3  1  0.75000000  0.65549699  0.30542805  1
  O  O4  1  0.25000000  0.34450299  0.69457204  1
  O  O5  1  0.75000000  0.12605900  0.76960803  1
  Na  Na6  1  0.75000000  0.23240600  0.42984103  1
  Na  Na7  1  0.25000000  0.76759399  0.57015907  1
  H  H8  1  0.25000000  0.89555198  0.09029306  1
  H  H9  1  0.75000000  0.55263699  0.16205704  1
  H  H10  1  0.25000000  0.44736299  0.83794305  1
  H  H11  1  0.75000000  0.10444800  0.90970704  1
