# generated using pymatgen
data_LaHo5Te8
_symmetry_space_group_name_H-M   'P 1'
_cell_length_a   8.07224178
_cell_length_b   8.07224178
_cell_length_c   8.07224178
_cell_angle_alpha   109.47122192
_cell_angle_beta   109.47122192
_cell_angle_gamma   109.47122192
_symmetry_Int_Tables_number   1
_chemical_formula_structural   LaHo5Te8
_chemical_formula_sum   'La1 Ho5 Te8'
_cell_volume   404.91193059
_cell_formula_units_Z   1
loop_
 _symmetry_equiv_pos_site_id
 _symmetry_equiv_pos_as_xyz
  1  'x, y, z'
loop_
 _atom_site_type_symbol
 _atom_site_label
 _atom_site_symmetry_multiplicity
 _atom_site_fract_x
 _atom_site_fract_y
 _atom_site_fract_z
 _atom_site_occupancy
  La  La0  1  0.87500006  0.75000004  0.62500007  1
  Ho  Ho1  1  0.37500005  0.62500003  0.75000005  1
  Ho  Ho2  1  0.62500003  0.25000001  0.87500003  1
  Ho  Ho3  1  0.25000003  0.37500002  0.12500003  1
  Ho  Ho4  1  0.75000002  0.12500001  0.37500003  1
  Ho  Ho5  1  0.12500006  0.87500004  0.25000005  1
  Te  Te6  1  0.34801801  0.00000000  0.00000001  1
  Te  Te7  1  0.00000003  0.50000002  0.84801803  1
  Te  Te8  1  0.15198201  0.15198201  0.65198202  1
  Te  Te9  1  0.00000003  0.50000002  0.34801803  1
  Te  Te10  1  0.50000003  0.34801802  0.50000003  1
  Te  Te11  1  0.50000006  0.84801804  0.50000006  1
  Te  Te12  1  0.65198205  0.65198203  0.15198205  1
  Te  Te13  1  0.84801801  0.00000000  0.00000002  1
