# generated using pymatgen
data_ZrPt3SeBr3
_symmetry_space_group_name_H-M   'P 1'
_cell_length_a   5.98764515
_cell_length_b   5.98764515
_cell_length_c   5.98764515
_cell_angle_alpha   90.00000000
_cell_angle_beta   90.00000000
_cell_angle_gamma   90.00000000
_symmetry_Int_Tables_number   1
_chemical_formula_structural   ZrPt3SeBr3
_chemical_formula_sum   'Zr1 Pt3 Se1 Br3'
_cell_volume   214.66842179
_cell_formula_units_Z   1
loop_
 _symmetry_equiv_pos_site_id
 _symmetry_equiv_pos_as_xyz
  1  'x, y, z'
loop_
 _atom_site_type_symbol
 _atom_site_label
 _atom_site_symmetry_multiplicity
 _atom_site_fract_x
 _atom_site_fract_y
 _atom_site_fract_z
 _atom_site_occupancy
  Zr  Zr0  1  0.00000000  0.00000000  0.00000000  1
  Pt  Pt1  1  0.00000000  0.49999999  -0.00000000  1
  Pt  Pt2  1  0.49999999  0.00000000  -0.00000000  1
  Pt  Pt3  1  0.00000000  0.00000000  0.49999999  1
  Br  Br4  1  0.25723899  0.74276098  0.74276098  1
  Se  Se5  1  0.25723899  0.25723899  0.25723899  1
  Br  Br6  1  0.74276098  0.25723899  0.74276098  1
  Br  Br7  1  0.74276098  0.74276098  0.25723899  1
