# generated using pymatgen
data_Ce2Sn11Rh7
_symmetry_space_group_name_H-M   'P 1'
_cell_length_a   4.41109705
_cell_length_b   7.70492077
_cell_length_c   11.87064648
_cell_angle_alpha   90.00000000
_cell_angle_beta   90.00000000
_cell_angle_gamma   90.00000000
_symmetry_Int_Tables_number   1
_chemical_formula_structural   Ce2Sn11Rh7
_chemical_formula_sum   'Ce2 Sn11 Rh7'
_cell_volume   403.44948123
_cell_formula_units_Z   1
loop_
 _symmetry_equiv_pos_site_id
 _symmetry_equiv_pos_as_xyz
  1  'x, y, z'
loop_
 _atom_site_type_symbol
 _atom_site_label
 _atom_site_symmetry_multiplicity
 _atom_site_fract_x
 _atom_site_fract_y
 _atom_site_fract_z
 _atom_site_occupancy
  Ce  Ce0  1  0.74999999  0.75000002  0.67599497  1
  Ce  Ce1  1  0.25000000  0.25000001  0.32400499  1
  Sn  Sn2  1  0.25000000  0.75000002  0.25141299  1
  Sn  Sn3  1  0.74999999  0.25000001  0.74858697  1
  Sn  Sn4  1  0.74999999  0.75000002  0.98788996  1
  Sn  Sn5  1  0.25000000  0.25000001  0.01211000  1
  Sn  Sn6  1  0.74999999  0.94994003  0.41568598  1
  Sn  Sn7  1  0.74999999  0.55006002  0.41568598  1
  Sn  Sn8  1  0.25000000  0.05006000  0.58431398  1
  Sn  Sn9  1  0.25000000  0.44994001  0.58431398  1
  Rh  Rh10  1  0.74999999  0.04957300  0.16403499  1
  Sn  Sn11  1  0.74999999  0.45042701  0.16403499  1
  Sn  Sn12  1  0.25000000  0.95042703  0.83596497  1
  Sn  Sn13  1  0.25000000  0.54957302  0.83596497  1
  Rh  Rh14  1  0.74999999  0.25000001  0.52961198  1
  Rh  Rh15  1  0.25000000  0.75000002  0.47038798  1
  Rh  Rh16  1  0.74999999  0.07442400  0.93474096  1
  Rh  Rh17  1  0.74999999  0.42557601  0.93474096  1
  Rh  Rh18  1  0.25000000  0.92557603  0.06525900  1
  Rh  Rh19  1  0.25000000  0.57442402  0.06525900  1
