# generated using pymatgen
data_Zr11Sn6Ge
_symmetry_space_group_name_H-M   'P 1'
_cell_length_a   5.91735792
_cell_length_b   8.74468994
_cell_length_c   8.74468994
_cell_angle_alpha   120.00000000
_cell_angle_beta   90.00000000
_cell_angle_gamma   90.00000000
_symmetry_Int_Tables_number   1
_chemical_formula_structural   Zr11Sn6Ge
_chemical_formula_sum   'Zr11 Sn6 Ge1'
_cell_volume   391.87476851
_cell_formula_units_Z   1
loop_
 _symmetry_equiv_pos_site_id
 _symmetry_equiv_pos_as_xyz
  1  'x, y, z'
loop_
 _atom_site_type_symbol
 _atom_site_label
 _atom_site_symmetry_multiplicity
 _atom_site_fract_x
 _atom_site_fract_y
 _atom_site_fract_z
 _atom_site_occupancy
  Zr  Zr0  1  0.00000000  0.66666668  0.33333336  1
  Zr  Zr1  1  0.50000001  0.33333334  0.66666670  1
  Zr  Zr2  1  0.00000000  0.33333334  0.66666670  1
  Zr  Zr3  1  0.50000001  0.66666668  0.33333336  1
  Zr  Zr4  1  0.75000001  0.73028401  0.73028404  1
  Zr  Zr5  1  0.25000000  0.73028401  0.00000002  1
  Zr  Zr6  1  0.25000000  0.00000000  0.73028403  1
  Zr  Zr7  1  0.75000001  0.00000000  0.26971601  1
  Zr  Zr8  1  0.75000001  0.26971600  0.00000001  1
  Zr  Zr9  1  0.25000000  0.26971600  0.26971602  1
  Zr  Zr10  1  0.00000000  0.00000000  0.00000000  1
  Ge  Ge11  1  0.50000001  0.00000000  -0.00000000  1
  Sn  Sn12  1  0.75000001  0.38622101  0.38622102  1
  Sn  Sn13  1  0.25000000  0.38622101  0.00000001  1
  Sn  Sn14  1  0.25000000  0.00000000  0.38622101  1
  Sn  Sn15  1  0.75000001  0.00000000  0.61377902  1
  Sn  Sn16  1  0.75000001  0.61377901  0.00000001  1
  Sn  Sn17  1  0.25000000  0.61377901  0.61377904  1
