# generated using pymatgen
data_Mg2F7
_symmetry_space_group_name_H-M   'P 1'
_cell_length_a   5.18680620
_cell_length_b   5.29088402
_cell_length_c   5.29088402
_cell_angle_alpha   60.00000000
_cell_angle_beta   90.00000000
_cell_angle_gamma   90.00000000
_symmetry_Int_Tables_number   1
_chemical_formula_structural   Mg2F7
_chemical_formula_sum   'Mg2 F7'
_cell_volume   125.74396079
_cell_formula_units_Z   1
loop_
 _symmetry_equiv_pos_site_id
 _symmetry_equiv_pos_as_xyz
  1  'x, y, z'
loop_
 _atom_site_type_symbol
 _atom_site_label
 _atom_site_symmetry_multiplicity
 _atom_site_fract_x
 _atom_site_fract_y
 _atom_site_fract_z
 _atom_site_occupancy
  F  F0  1  0.00000000  0.00000000  0.00000000  1
  Mg  Mg1  1  0.49999998  0.66666667  0.66666667  1
  Mg  Mg2  1  0.49999998  0.33333333  0.33333333  1
  F  F3  1  0.28564699  0.37607100  0.99677400  1
  F  F4  1  0.28564699  0.62715500  0.37607100  1
  F  F5  1  0.28564699  0.99677400  0.62715500  1
  F  F6  1  0.71435297  0.62715500  0.99677400  1
  F  F7  1  0.71435297  0.37607100  0.62715500  1
  F  F8  1  0.71435297  0.99677400  0.37607100  1
