# generated using pymatgen
data_Tm3(AlGe2)2
_symmetry_space_group_name_H-M   'P 1'
_cell_length_a   3.91543794
_cell_length_b   6.93116999
_cell_length_c   6.93116951
_cell_angle_alpha   120.00000000
_cell_angle_beta   90.00000000
_cell_angle_gamma   90.00000000
_symmetry_Int_Tables_number   1
_chemical_formula_structural   Tm3(AlGe2)2
_chemical_formula_sum   'Tm3 Al2 Ge4'
_cell_volume   162.90111102
_cell_formula_units_Z   1
loop_
 _symmetry_equiv_pos_site_id
 _symmetry_equiv_pos_as_xyz
  1  'x, y, z'
loop_
 _atom_site_type_symbol
 _atom_site_label
 _atom_site_symmetry_multiplicity
 _atom_site_fract_x
 _atom_site_fract_y
 _atom_site_fract_z
 _atom_site_occupancy
  Tm  Tm0  1  0.50000001  0.00000000  0.58286202  1
  Tm  Tm1  1  0.50000001  0.58286199  1.00000002  1
  Tm  Tm2  1  0.50000001  0.41713800  0.41713800  1
  Al  Al3  1  0.00000000  0.23465900  1.00000003  1
  Al  Al4  1  -0.00000000  0.76534099  0.76534101  1
  Ge  Ge5  1  1.00000002  0.00000000  0.23465901  1
  Ge  Ge6  1  -0.00000000  0.66666666  0.33333333  1
  Ge  Ge7  1  0.00000000  0.33333333  0.66666668  1
  Ge  Ge8  1  0.50000001  0.00000000  -0.00000000  1
