# generated using pymatgen
data_Tm2Si3
_symmetry_space_group_name_H-M   'P 1'
_cell_length_a   4.07034779
_cell_length_b   5.41960764
_cell_length_c   5.41960764
_cell_angle_alpha   60.78248596
_cell_angle_beta   67.94351196
_cell_angle_gamma   67.94351196
_symmetry_Int_Tables_number   1
_chemical_formula_structural   Tm2Si3
_chemical_formula_sum   'Tm2 Si3'
_cell_volume   93.93757214
_cell_formula_units_Z   1
loop_
 _symmetry_equiv_pos_site_id
 _symmetry_equiv_pos_as_xyz
  1  'x, y, z'
loop_
 _atom_site_type_symbol
 _atom_site_label
 _atom_site_symmetry_multiplicity
 _atom_site_fract_x
 _atom_site_fract_y
 _atom_site_fract_z
 _atom_site_occupancy
  Tm  Tm0  1  0.20526501  0.29473500  0.29473501  1
  Tm  Tm1  1  0.79473504  0.70526500  0.70526502  1
  Si  Si2  1  0.00000000  0.00000000  0.00000000  1
  Si  Si3  1  0.50000003  0.27683400  0.72316602  1
  Si  Si4  1  0.50000003  0.72316601  0.27683401  1
