# generated using pymatgen
data_Na2In
_symmetry_space_group_name_H-M   'P 1'
_cell_length_a   6.17307186
_cell_length_b   6.17307186
_cell_length_c   6.17307186
_cell_angle_alpha   60.00000000
_cell_angle_beta   60.00000000
_cell_angle_gamma   60.00000000
_symmetry_Int_Tables_number   1
_chemical_formula_structural   Na2In
_chemical_formula_sum   'Na6 In3'
_cell_volume   166.33705198
_cell_formula_units_Z   3
loop_
 _symmetry_equiv_pos_site_id
 _symmetry_equiv_pos_as_xyz
  1  'x, y, z'
loop_
 _atom_site_type_symbol
 _atom_site_label
 _atom_site_symmetry_multiplicity
 _atom_site_fract_x
 _atom_site_fract_y
 _atom_site_fract_z
 _atom_site_occupancy
  Na  Na0  1  0.75000000  0.75000000  0.75000000  1
  In  In1  1  0.25000000  0.25000000  0.25000000  1
  Na  Na2  1  0.00000000  0.00000000  0.00000000  1
  Na  Na3  1  0.78957300  0.21042700  0.21042700  1
  In  In4  1  0.21042700  0.21042700  0.78957300  1
  In  In5  1  0.78957300  0.78957300  0.21042700  1
  Na  Na6  1  0.21042700  0.78957300  0.78957300  1
  Na  Na7  1  0.78957300  0.21042700  0.78957300  1
  Na  Na8  1  0.21042700  0.78957300  0.21042700  1
