# generated using pymatgen
data_Sr2ScSbO6
_symmetry_space_group_name_H-M   'P 1'
_cell_length_a   5.77942991
_cell_length_b   5.79142237
_cell_length_c   5.79142237
_cell_angle_alpha   60.18537140
_cell_angle_beta   60.06847763
_cell_angle_gamma   60.06847763
_symmetry_Int_Tables_number   1
_chemical_formula_structural   Sr2ScSbO6
_chemical_formula_sum   'Sr2 Sc1 Sb1 O6'
_cell_volume   137.40268212
_cell_formula_units_Z   1
loop_
 _symmetry_equiv_pos_site_id
 _symmetry_equiv_pos_as_xyz
  1  'x, y, z'
loop_
 _atom_site_type_symbol
 _atom_site_label
 _atom_site_symmetry_multiplicity
 _atom_site_fract_x
 _atom_site_fract_y
 _atom_site_fract_z
 _atom_site_occupancy
  Sc  Sc0  1  1.00000004  0.98959403  0.01040599  1
  Sb  Sb1  1  0.50000002  0.49573002  0.50427001  1
  Sr  Sr2  1  0.75893603  0.71446202  0.76766702  1
  Sr  Sr3  1  0.24106501  0.23233201  0.28553801  1
  O  O4  1  0.75156401  0.26135701  0.73864303  1
  O  O5  1  0.24843601  0.26135701  0.73864302  1
  O  O6  1  0.74385801  0.26200201  0.25028302  1
  O  O7  1  0.25710203  0.74192402  0.25807598  1
  O  O8  1  0.74289803  0.74192402  0.25807600  1
  O  O9  1  0.25614303  0.74971602  0.73799800  1
