# generated using pymatgen
data_Mg5(OF)3
_symmetry_space_group_name_H-M   'P 1'
_cell_length_a   3.53699207
_cell_length_b   3.53699207
_cell_length_c   14.32262611
_cell_angle_alpha   90.00000000
_cell_angle_beta   90.00000000
_cell_angle_gamma   120.00000000
_symmetry_Int_Tables_number   1
_chemical_formula_structural   Mg5(OF)3
_chemical_formula_sum   'Mg5 O3 F3'
_cell_volume   155.17489482
_cell_formula_units_Z   1
loop_
 _symmetry_equiv_pos_site_id
 _symmetry_equiv_pos_as_xyz
  1  'x, y, z'
loop_
 _atom_site_type_symbol
 _atom_site_label
 _atom_site_symmetry_multiplicity
 _atom_site_fract_x
 _atom_site_fract_y
 _atom_site_fract_z
 _atom_site_occupancy
  Mg  Mg0  1  0.66666666  0.33333333  0.13752800  1
  Mg  Mg1  1  0.66666666  0.33333333  0.49484400  1
  Mg  Mg2  1  0.00000000  0.00000000  0.30974700  1
  Mg  Mg3  1  0.00000000  0.00000000  0.96251299  1
  Mg  Mg4  1  0.00000000  0.00000000  0.68017999  1
  F  F5  1  0.66666666  0.33333333  0.27629900  1
  O  O6  1  0.66666666  0.33333333  0.64055399  1
  F  F7  1  0.66666666  0.33333333  0.00079700  1
  F  F8  1  0.00000000  0.00000000  0.13949000  1
  O  O9  1  0.00000000  0.00000000  0.45711900  1
  O  O10  1  0.00000000  0.00000000  0.82172899  1
