# generated using pymatgen
data_Zr3Al2Cu2Te2Se
_symmetry_space_group_name_H-M   'P 1'
_cell_length_a   4.31969023
_cell_length_b   4.73214817
_cell_length_c   13.27867413
_cell_angle_alpha   89.65796661
_cell_angle_beta   87.07948303
_cell_angle_gamma   89.88723755
_symmetry_Int_Tables_number   1
_chemical_formula_structural   Zr3Al2Cu2Te2Se
_chemical_formula_sum   'Zr3 Al2 Cu2 Te2 Se1'
_cell_volume   271.07712549
_cell_formula_units_Z   1
loop_
 _symmetry_equiv_pos_site_id
 _symmetry_equiv_pos_as_xyz
  1  'x, y, z'
loop_
 _atom_site_type_symbol
 _atom_site_label
 _atom_site_symmetry_multiplicity
 _atom_site_fract_x
 _atom_site_fract_y
 _atom_site_fract_z
 _atom_site_occupancy
  Zr  Zr0  1  0.77760594  0.44815900  0.06725600  1
  Cu  Cu1  1  0.60394292  0.94397300  0.17434400  1
  Al  Al2  1  0.93103892  0.51598600  0.64033798  1
  Al  Al3  1  0.51040093  0.80623200  0.90894598  1
  Zr  Zr4  1  0.45115192  0.97677800  0.67606299  1
  Zr  Zr5  1  0.90401394  0.29647700  0.85353998  1
  Cu  Cu6  1  0.40623195  0.48646000  0.76491298  1
  Se  Se7  1  0.96084190  0.96201600  0.00559201  1
  Te  Te8  1  0.38720796  0.44658700  0.26522000  1
  Te  Te9  1  0.96756095  0.01733300  0.51878798  1
