# generated using pymatgen
data_Zr6CuS9
_symmetry_space_group_name_H-M   'P 1'
_cell_length_a   3.94496489
_cell_length_b   6.24253416
_cell_length_c   13.39075470
_cell_angle_alpha   90.00000000
_cell_angle_beta   90.00000000
_cell_angle_gamma   90.00000000
_symmetry_Int_Tables_number   1
_chemical_formula_structural   Zr6CuS9
_chemical_formula_sum   'Zr6 Cu1 S9'
_cell_volume   329.76846591
_cell_formula_units_Z   1
loop_
 _symmetry_equiv_pos_site_id
 _symmetry_equiv_pos_as_xyz
  1  'x, y, z'
loop_
 _atom_site_type_symbol
 _atom_site_label
 _atom_site_symmetry_multiplicity
 _atom_site_fract_x
 _atom_site_fract_y
 _atom_site_fract_z
 _atom_site_occupancy
  S  S0  1  0.25000001  0.50070099  0.13332100  1
  Zr  Zr1  1  0.75000002  0.49929899  0.86667902  1
  S  S2  1  0.75000002  0.00070100  0.36667901  1
  Zr  Zr3  1  0.25000001  0.99929897  0.63332101  1
  S  S4  1  0.25000001  0.12708800  0.95516002  1
  S  S5  1  0.75000002  0.62708798  0.54484001  1
  S  S6  1  0.75000002  0.87291198  0.04484000  1
  S  S7  1  0.25000001  0.37291199  0.45516001  1
  S  S8  1  0.25000001  0.26084099  0.79510902  1
  Zr  Zr9  1  0.75000002  0.73915898  0.20489100  1
  S  S10  1  0.75000002  0.76084098  0.70489102  1
  Zr  Zr11  1  0.25000001  0.23915899  0.29510901  1
  S  S12  1  0.25000001  0.74651998  0.96009002  1
  Cu  Cu13  1  0.25000001  0.75347998  0.46009001  1
  Zr  Zr14  1  0.75000002  0.24651999  0.53991001  1
  Zr  Zr15  1  0.75000002  0.25347999  0.03991000  1
