# generated using pymatgen
data_K7NaLaCl7
_symmetry_space_group_name_H-M   'P 1'
_cell_length_a   9.19288349
_cell_length_b   9.19288349
_cell_length_c   9.19288349
_cell_angle_alpha   60.00000000
_cell_angle_beta   60.00000000
_cell_angle_gamma   60.00000000
_symmetry_Int_Tables_number   1
_chemical_formula_structural   K7NaLaCl7
_chemical_formula_sum   'K7 Na1 La1 Cl7'
_cell_volume   549.33879456
_cell_formula_units_Z   1
loop_
 _symmetry_equiv_pos_site_id
 _symmetry_equiv_pos_as_xyz
  1  'x, y, z'
loop_
 _atom_site_type_symbol
 _atom_site_label
 _atom_site_symmetry_multiplicity
 _atom_site_fract_x
 _atom_site_fract_y
 _atom_site_fract_z
 _atom_site_occupancy
  La  La0  1  0.87499997  0.87499997  0.87499997  1
  K  K1  1  0.87499997  0.37499999  0.87499997  1
  K  K2  1  0.87499997  0.87499997  0.37499999  1
  K  K3  1  0.37499999  0.87499997  0.87499997  1
  K  K4  1  0.37499999  0.37499999  0.37499999  1
  K  K5  1  0.87499997  0.37499999  0.37499999  1
  K  K6  1  0.37499999  0.37499999  0.87499997  1
  K  K7  1  0.37499999  0.87499997  0.37499999  1
  Cl  Cl8  1  0.62216798  0.62216898  0.62216898  1
  Na  Na9  1  0.12783199  0.12783099  0.12783099  1
  Cl  Cl10  1  0.12783199  0.61650598  0.12783099  1
  Cl  Cl11  1  0.61650698  0.12783099  0.12783099  1
  Cl  Cl12  1  0.62216798  0.62216898  0.13349399  1
  Cl  Cl13  1  0.62216798  0.13349399  0.62216898  1
  Cl  Cl14  1  0.13349299  0.62216898  0.62216898  1
  Cl  Cl15  1  0.12783199  0.12783099  0.61650598  1
