# generated using pymatgen
data_Cu2Bi2Te4O
_symmetry_space_group_name_H-M   'P 1'
_cell_length_a   4.32041121
_cell_length_b   4.32033205
_cell_length_c   10.46587467
_cell_angle_alpha   101.91299438
_cell_angle_beta   101.91209412
_cell_angle_gamma   89.99559784
_symmetry_Int_Tables_number   1
_chemical_formula_structural   Cu2Bi2Te4O
_chemical_formula_sum   'Cu2 Bi2 Te4 O1'
_cell_volume   186.84363452
_cell_formula_units_Z   1
loop_
 _symmetry_equiv_pos_site_id
 _symmetry_equiv_pos_as_xyz
  1  'x, y, z'
loop_
 _atom_site_type_symbol
 _atom_site_label
 _atom_site_symmetry_multiplicity
 _atom_site_fract_x
 _atom_site_fract_y
 _atom_site_fract_z
 _atom_site_occupancy
  Te  Te0  1  0.32863299  0.32861600  0.65724900  1
  Te  Te1  1  0.67136797  0.67138299  0.34275099  1
  O  O2  1  0.99999695  0.50000399  0.99999799  1
  Te  Te3  1  0.50000097  0.00000000  0.00000300  1
  Bi  Bi4  1  0.90660796  0.90642199  0.81302999  1
  Te  Te5  1  0.09339300  0.09357700  0.18697000  1
  Bi  Bi6  1  0.49999998  0.49999899  0.99999999  1
  Cu  Cu7  1  0.24999899  0.74999899  0.49999700  1
  Cu  Cu8  1  0.75000196  0.25000000  0.50000199  1
