# generated using pymatgen
data_In8CuS11
_symmetry_space_group_name_H-M   'P 1'
_cell_length_a   3.50524998
_cell_length_b   9.11114216
_cell_length_c   13.42202854
_cell_angle_alpha   90.00000000
_cell_angle_beta   90.00000000
_cell_angle_gamma   90.00000000
_symmetry_Int_Tables_number   1
_chemical_formula_structural   In8CuS11
_chemical_formula_sum   'In8 Cu1 S11'
_cell_volume   428.65705510
_cell_formula_units_Z   1
loop_
 _symmetry_equiv_pos_site_id
 _symmetry_equiv_pos_as_xyz
  1  'x, y, z'
loop_
 _atom_site_type_symbol
 _atom_site_label
 _atom_site_symmetry_multiplicity
 _atom_site_fract_x
 _atom_site_fract_y
 _atom_site_fract_z
 _atom_site_occupancy
  S  S0  1  0.75000000  0.34658099  0.95273403  1
  In  In1  1  0.75000000  0.84658099  0.54726602  1
  In  In2  1  0.25000000  0.65341899  0.04726600  1
  S  S3  1  0.25000000  0.15341900  0.45273402  1
  S  S4  1  0.25000000  0.07087900  0.83934203  1
  In  In5  1  0.25000000  0.57087899  0.66065802  1
  In  In6  1  0.75000000  0.92912098  0.16065801  1
  S  S7  1  0.75000000  0.42912099  0.33934201  1
  In  In8  1  0.25000000  0.51282699  0.89284003  1
  In  In9  1  0.25000000  0.01282700  0.60716002  1
  S  S10  1  0.75000000  0.48717299  0.10716000  1
  S  S11  1  0.75000000  0.98717298  0.39284001  1
  Cu  Cu12  1  0.75000000  0.23487700  0.78691603  1
  S  S13  1  0.75000000  0.73487699  0.71308402  1
  S  S14  1  0.25000000  0.76512299  0.21308401  1
  In  In15  1  0.25000000  0.26512300  0.28691601  1
  S  S16  1  0.25000000  0.17831200  0.00827500  1
  S  S17  1  0.25000000  0.67831199  0.49172502  1
  S  S18  1  0.75000000  0.82168799  0.99172503  1
  In  In19  1  0.75000000  0.32168799  0.50827502  1
