# generated using pymatgen
data_VO2
_symmetry_space_group_name_H-M   'P 1'
_cell_length_a   3.68874693
_cell_length_b   6.19146872
_cell_length_c   9.17920876
_cell_angle_alpha   91.34312439
_cell_angle_beta   90.00000000
_cell_angle_gamma   107.33088684
_symmetry_Int_Tables_number   1
_chemical_formula_structural   VO2
_chemical_formula_sum   'V5 O10'
_cell_volume   200.06375591
_cell_formula_units_Z   5
loop_
 _symmetry_equiv_pos_site_id
 _symmetry_equiv_pos_as_xyz
  1  'x, y, z'
loop_
 _atom_site_type_symbol
 _atom_site_label
 _atom_site_symmetry_multiplicity
 _atom_site_fract_x
 _atom_site_fract_y
 _atom_site_fract_z
 _atom_site_occupancy
  V  V0  1  0.93452194  0.86904300  0.33427403  1
  V  V1  1  0.06789999  0.13580000  0.66473800  1
  V  V2  1  0.22873496  0.45747000  0.33548601  1
  V  V3  1  0.77154296  0.54308600  0.66335701  1
  V  V4  1  0.62012899  0.24025900  0.01647601  1
  O  O5  1  0.39652993  0.79306000  0.36422303  1
  O  O6  1  0.60133399  0.20266900  0.63546400  1
  O  O7  1  0.75951597  0.51903300  0.38174502  1
  O  O8  1  0.24037596  0.48075200  0.61628301  1
  O  O9  1  0.94997093  0.89994300  0.15888403  1
  O  O10  1  0.06467199  0.12934400  0.84576099  1
  O  O11  1  0.19962297  0.39924700  0.15691401  1
  O  O12  1  0.78432496  0.56865100  0.83955901  1
  O  O13  1  0.07656699  0.15313400  0.40472900  1
  O  O14  1  0.92095394  0.84190800  0.60680702  1
