# generated using pymatgen
data_KCr2O9
_symmetry_space_group_name_H-M   'P 1'
_cell_length_a   5.05250359
_cell_length_b   5.05250359
_cell_length_c   7.17575169
_cell_angle_alpha   87.97660065
_cell_angle_beta   87.97660065
_cell_angle_gamma   65.86065674
_symmetry_Int_Tables_number   1
_chemical_formula_structural   KCr2O9
_chemical_formula_sum   'K1 Cr2 O9'
_cell_volume   167.01459841
_cell_formula_units_Z   1
loop_
 _symmetry_equiv_pos_site_id
 _symmetry_equiv_pos_as_xyz
  1  'x, y, z'
loop_
 _atom_site_type_symbol
 _atom_site_label
 _atom_site_symmetry_multiplicity
 _atom_site_fract_x
 _atom_site_fract_y
 _atom_site_fract_z
 _atom_site_occupancy
  K  K0  1  0.00000000  0.00000000  0.50000001  1
  Cr  Cr1  1  0.36818498  0.36818500  0.78845804  1
  Cr  Cr2  1  0.63181497  0.63181500  0.21154204  1
  O  O3  1  0.00000000  0.00000000  0.00000000  1
  O  O4  1  0.29309399  0.29309400  0.58558703  1
  O  O5  1  0.70690597  0.70690600  0.41441305  1
  O  O6  1  0.22623897  0.73696000  0.80503204  1
  O  O7  1  0.77376098  0.26304000  0.19496803  1
  O  O8  1  0.26303997  0.77376100  0.19496803  1
  O  O9  1  0.73695998  0.22623900  0.80503204  1
  O  O10  1  0.22679799  0.22679800  0.95492203  1
  O  O11  1  0.77320196  0.77320200  0.04507804  1
