# generated using pymatgen
data_LiCu9F10
_symmetry_space_group_name_H-M   'P 1'
_cell_length_a   5.29051685
_cell_length_b   5.99180555
_cell_length_c   9.35621643
_cell_angle_alpha   90.00000000
_cell_angle_beta   90.00000000
_cell_angle_gamma   95.97540283
_symmetry_Int_Tables_number   1
_chemical_formula_structural   LiCu9F10
_chemical_formula_sum   'Li1 Cu9 F10'
_cell_volume   294.97823815
_cell_formula_units_Z   1
loop_
 _symmetry_equiv_pos_site_id
 _symmetry_equiv_pos_as_xyz
  1  'x, y, z'
loop_
 _atom_site_type_symbol
 _atom_site_label
 _atom_site_symmetry_multiplicity
 _atom_site_fract_x
 _atom_site_fract_y
 _atom_site_fract_z
 _atom_site_occupancy
  Li  Li0  1  0.26153900  0.63995098  0.48428198  1
  Cu  Cu1  1  0.76153902  0.13995100  0.01571800  1
  Cu  Cu2  1  0.73846102  0.36004899  0.51571798  1
  Cu  Cu3  1  0.23846100  0.86004898  0.98428195  1
  Cu  Cu4  1  0.24729100  0.41034199  0.78970596  1
  Cu  Cu5  1  0.75270902  0.58965799  0.21029399  1
  Cu  Cu6  1  0.25270901  0.08965800  0.28970599  1
  Cu  Cu7  1  0.74729101  0.91034198  0.71029397  1
  F  F8  1  0.06088500  0.64145998  0.86216596  1
  F  F9  1  0.91825502  0.59658499  0.39741298  1
  F  F10  1  0.49263901  0.64964698  0.64917197  1
  F  F11  1  0.58174501  0.90341498  0.89741296  1
  Cu  Cu12  1  0.00736099  0.85035298  0.14917199  1
  Cu  Cu13  1  0.99263903  0.14964700  0.85082796  1
  F  F14  1  0.43911501  0.85853998  0.36216598  1
  F  F15  1  0.93911502  0.35853999  0.13783399  1
  F  F16  1  0.41825501  0.09658500  0.10258700  1
  F  F17  1  0.08174500  0.40341499  0.60258697  1
  F  F18  1  0.56088501  0.14146000  0.63783397  1
  F  F19  1  0.50736101  0.35035299  0.35082798  1
