# generated using pymatgen
data_KWO3
_symmetry_space_group_name_H-M   'P 1'
_cell_length_a   5.76708031
_cell_length_b   5.76708555
_cell_length_c   5.76704454
_cell_angle_alpha   60.00059128
_cell_angle_beta   60.00072861
_cell_angle_gamma   90.00145721
_symmetry_Int_Tables_number   1
_chemical_formula_structural   KWO3
_chemical_formula_sum   'K2 W2 O6'
_cell_volume   135.62940060
_cell_formula_units_Z   2
loop_
 _symmetry_equiv_pos_site_id
 _symmetry_equiv_pos_as_xyz
  1  'x, y, z'
loop_
 _atom_site_type_symbol
 _atom_site_label
 _atom_site_symmetry_multiplicity
 _atom_site_fract_x
 _atom_site_fract_y
 _atom_site_fract_z
 _atom_site_occupancy
  K  K0  1  0.75000001  0.24999899  0.50000102  1
  K  K1  1  0.24999997  0.74999997  0.50000103  1
  W  W2  1  0.50000099  0.50000098  0.99999903  1
  W  W3  1  0.00000000  0.00000000  0.00000000  1
  O  O4  1  0.73923501  0.26076399  0.00000002  1
  O  O5  1  0.26076299  0.26076399  0.47847301  1
  O  O6  1  0.73923698  0.73923797  0.52152604  1
  O  O7  1  0.26076199  0.26076299  0.00000001  1
  O  O8  1  0.26076397  0.73923797  0.99999904  1
  O  O9  1  0.73923798  0.73923897  0.99999904  1
