# generated using pymatgen
data_CrInFeCo3S8
_symmetry_space_group_name_H-M   'P 1'
_cell_length_a   6.87604761
_cell_length_b   6.87604761
_cell_length_c   6.87604761
_cell_angle_alpha   60.00000000
_cell_angle_beta   60.00000000
_cell_angle_gamma   60.00000000
_symmetry_Int_Tables_number   1
_chemical_formula_structural   CrInFeCo3S8
_chemical_formula_sum   'Cr1 In1 Fe1 Co3 S8'
_cell_volume   229.88023249
_cell_formula_units_Z   1
loop_
 _symmetry_equiv_pos_site_id
 _symmetry_equiv_pos_as_xyz
  1  'x, y, z'
loop_
 _atom_site_type_symbol
 _atom_site_label
 _atom_site_symmetry_multiplicity
 _atom_site_fract_x
 _atom_site_fract_y
 _atom_site_fract_z
 _atom_site_occupancy
  Cr  Cr0  1  0.75000002  0.75000002  0.75000002  1
  S  S1  1  0.00000000  0.00000000  0.00000000  1
  Fe  Fe2  1  0.37500001  0.37500001  0.37500001  1
  Co  Co3  1  0.37500001  0.37500001  0.87500002  1
  Co  Co4  1  0.87500002  0.37500001  0.37500001  1
  Co  Co5  1  0.37500001  0.87500002  0.37500001  1
  S  S6  1  0.16297100  0.61234301  0.61234301  1
  S  S7  1  0.13765600  0.58703001  0.13765700  1
  S  S8  1  0.61234401  0.61234301  0.16297000  1
  S  S9  1  0.61234401  0.61234301  0.61234301  1
  S  S10  1  0.58702901  0.13765700  0.13765700  1
  S  S11  1  0.61234401  0.16297000  0.61234301  1
  S  S12  1  0.13765600  0.13765700  0.58703001  1
  In  In13  1  0.13765600  0.13765700  0.13765700  1
