# generated using pymatgen
data_CeGaAu
_symmetry_space_group_name_H-M   'P 1'
_cell_length_a   4.43208981
_cell_length_b   5.76278687
_cell_length_c   5.86802721
_cell_angle_alpha   78.29690552
_cell_angle_beta   67.81197357
_cell_angle_gamma   67.38456726
_symmetry_Int_Tables_number   1
_chemical_formula_structural   CeGaAu
_chemical_formula_sum   'Ce2 Ga2 Au2'
_cell_volume   127.81548157
_cell_formula_units_Z   2
loop_
 _symmetry_equiv_pos_site_id
 _symmetry_equiv_pos_as_xyz
  1  'x, y, z'
loop_
 _atom_site_type_symbol
 _atom_site_label
 _atom_site_symmetry_multiplicity
 _atom_site_fract_x
 _atom_site_fract_y
 _atom_site_fract_z
 _atom_site_occupancy
  Ce  Ce0  1  0.54538800  0.21774800  0.69147607  1
  Ce  Ce1  1  0.45461198  0.78225200  0.30852409  1
  Au  Au2  1  0.83827001  0.22536600  0.09809406  1
  Ga  Ga3  1  0.16172998  0.77463400  0.90190610  1
  Ga  Ga4  1  0.18029099  0.35880800  0.28061004  1
  Au  Au5  1  0.81970899  0.64119200  0.71939011  1
