# generated using pymatgen
data_CuBiO4
_symmetry_space_group_name_H-M   'P 1'
_cell_length_a   5.23387384
_cell_length_b   5.23387384
_cell_length_c   6.12958145
_cell_angle_alpha   115.27324677
_cell_angle_beta   115.27324677
_cell_angle_gamma   90.00000000
_symmetry_Int_Tables_number   1
_chemical_formula_structural   CuBiO4
_chemical_formula_sum   'Cu2 Bi2 O8'
_cell_volume   133.85008466
_cell_formula_units_Z   2
loop_
 _symmetry_equiv_pos_site_id
 _symmetry_equiv_pos_as_xyz
  1  'x, y, z'
loop_
 _atom_site_type_symbol
 _atom_site_label
 _atom_site_symmetry_multiplicity
 _atom_site_fract_x
 _atom_site_fract_y
 _atom_site_fract_z
 _atom_site_occupancy
  Bi  Bi0  1  0.75000000  0.75000001  0.49999995  1
  Bi  Bi1  1  0.25000000  0.25000000  0.49999998  1
  Cu  Cu2  1  0.50000001  0.00000000  -0.00000001  1
  Cu  Cu3  1  1.00000001  0.50000001  -0.00000003  1
  O  O4  1  0.45357699  0.95357702  0.25598696  1
  O  O5  1  0.95357700  0.80241001  0.25598696  1
  O  O6  1  0.19758999  0.69759001  0.74401296  1
  O  O7  1  0.30241000  0.45357701  0.25598698  1
  O  O8  1  0.69759000  0.54642301  0.74401295  1
  O  O9  1  0.80241001  0.30241000  0.25598697  1
  O  O10  1  0.04642300  0.19759000  0.74401297  1
  O  O11  1  0.54642301  0.04642300  0.74401297  1
