# generated using pymatgen
data_NaTe7
_symmetry_space_group_name_H-M   'P 1'
_cell_length_a   4.41287613
_cell_length_b   4.42525482
_cell_length_c   11.76895523
_cell_angle_alpha   90.00000000
_cell_angle_beta   100.80572510
_cell_angle_gamma   90.00000000
_symmetry_Int_Tables_number   1
_chemical_formula_structural   NaTe7
_chemical_formula_sum   'Na1 Te7'
_cell_volume   225.75020767
_cell_formula_units_Z   1
loop_
 _symmetry_equiv_pos_site_id
 _symmetry_equiv_pos_as_xyz
  1  'x, y, z'
loop_
 _atom_site_type_symbol
 _atom_site_label
 _atom_site_symmetry_multiplicity
 _atom_site_fract_x
 _atom_site_fract_y
 _atom_site_fract_z
 _atom_site_occupancy
  Na  Na0  1  0.86237097  0.25000001  0.72474197  1
  Te  Te1  1  0.13762899  0.75000003  0.27525799  1
  Te  Te2  1  0.15952499  1.00000004  0.99999998  1
  Te  Te3  1  0.84047497  0.50000002  -0.00000002  1
  Te  Te4  1  0.58974098  0.25000001  0.17948199  1
  Te  Te5  1  0.41025898  0.75000003  0.82051798  1
  Te  Te6  1  0.24974399  0.25000001  0.49948799  1
  Te  Te7  1  0.75025597  0.75000003  0.50051198  1
