# generated using pymatgen
data_BaLa2Ho(TiC2)2
_symmetry_space_group_name_H-M   'P 1'
_cell_length_a   3.95567012
_cell_length_b   5.92686987
_cell_length_c   7.13804388
_cell_angle_alpha   90.00000000
_cell_angle_beta   90.00000000
_cell_angle_gamma   109.49389648
_symmetry_Int_Tables_number   1
_chemical_formula_structural   BaLa2Ho(TiC2)2
_chemical_formula_sum   'Ba1 La2 Ho1 Ti2 C4'
_cell_volume   157.75662398
_cell_formula_units_Z   1
loop_
 _symmetry_equiv_pos_site_id
 _symmetry_equiv_pos_as_xyz
  1  'x, y, z'
loop_
 _atom_site_type_symbol
 _atom_site_label
 _atom_site_symmetry_multiplicity
 _atom_site_fract_x
 _atom_site_fract_y
 _atom_site_fract_z
 _atom_site_occupancy
  Ba  Ba0  1  0.44767089  0.89534197  0.75000001  1
  La  La1  1  0.55232897  0.10465800  0.25000000  1
  C  C2  1  0.72770193  0.45540399  0.75000001  1
  C  C3  1  0.27229794  0.54459598  0.25000000  1
  La  La4  1  0.16546496  0.33092999  0.94276102  1
  Ti  Ti5  1  0.83453491  0.66906998  0.05723900  1
  Ho  Ho6  1  0.83453491  0.66906998  0.44276101  1
  Ti  Ti7  1  0.16546496  0.33092999  0.55723901  1
  C  C8  1  0.00000000  0.00000000  0.00000000  1
  C  C9  1  0.00000000  0.00000000  0.50000001  1
