# generated using pymatgen
data_Li3Cr5O8
_symmetry_space_group_name_H-M   'P 1'
_cell_length_a   5.78022671
_cell_length_b   5.78022671
_cell_length_c   5.82465363
_cell_angle_alpha   60.25200272
_cell_angle_beta   60.25200272
_cell_angle_gamma   59.99999619
_symmetry_Int_Tables_number   1
_chemical_formula_structural   Li3Cr5O8
_chemical_formula_sum   'Li3 Cr5 O8'
_cell_volume   138.13019197
_cell_formula_units_Z   1
loop_
 _symmetry_equiv_pos_site_id
 _symmetry_equiv_pos_as_xyz
  1  'x, y, z'
loop_
 _atom_site_type_symbol
 _atom_site_label
 _atom_site_symmetry_multiplicity
 _atom_site_fract_x
 _atom_site_fract_y
 _atom_site_fract_z
 _atom_site_occupancy
  Li  Li0  1  0.49999999  0.49999997  0.00000001  1
  Li  Li1  1  0.50000001  0.99999995  0.00000001  1
  Cr  Cr2  1  0.00000000  0.00000000  0.00000000  1
  Li  Li3  1  0.00000002  0.49999997  0.00000000  1
  Cr  Cr4  1  0.49999999  0.49999997  0.50000002  1
  Cr  Cr5  1  0.00000000  0.00000000  0.50000001  1
  Cr  Cr6  1  0.00000002  0.49999997  0.50000002  1
  Cr  Cr7  1  0.50000001  0.99999995  0.50000002  1
  O  O8  1  0.74809999  0.74809996  0.28225702  1
  O  O9  1  0.25190000  0.25189999  0.71774302  1
  O  O10  1  0.25190001  0.77845696  0.71774302  1
  O  O11  1  0.74809997  0.22154299  0.28225702  1
  O  O12  1  0.75262099  0.75262096  0.74213703  1
  O  O13  1  0.24737900  0.24737899  0.25786301  1
  O  O14  1  0.22154301  0.74809996  0.28225701  1
  O  O15  1  0.77845697  0.25189999  0.71774303  1
