# generated using pymatgen
data_TmAu2
_symmetry_space_group_name_H-M   'P 1'
_cell_length_a   3.99151611
_cell_length_b   7.46492577
_cell_length_c   7.46492529
_cell_angle_alpha   120.00000000
_cell_angle_beta   90.00000000
_cell_angle_gamma   90.00000000
_symmetry_Int_Tables_number   1
_chemical_formula_structural   TmAu2
_chemical_formula_sum   'Tm3 Au6'
_cell_volume   192.62802743
_cell_formula_units_Z   3
loop_
 _symmetry_equiv_pos_site_id
 _symmetry_equiv_pos_as_xyz
  1  'x, y, z'
loop_
 _atom_site_type_symbol
 _atom_site_label
 _atom_site_symmetry_multiplicity
 _atom_site_fract_x
 _atom_site_fract_y
 _atom_site_fract_z
 _atom_site_occupancy
  Tm  Tm0  1  -0.00000000  0.59123901  -0.00000003  1
  Tm  Tm1  1  0.99999997  0.40876100  0.40876100  1
  Tm  Tm2  1  0.00000000  0.00000000  0.59123902  1
  Au  Au3  1  0.49999999  0.24230000  -0.00000001  1
  Au  Au4  1  0.49999999  0.75770001  0.75769999  1
  Au  Au5  1  0.49999999  1.00000001  0.24229996  1
  Au  Au6  1  0.00000000  0.00000000  0.00000000  1
  Au  Au7  1  0.49999999  0.33333334  0.66666667  1
  Au  Au8  1  0.49999999  0.66666667  0.33333332  1
