# generated using pymatgen
data_Ce4Ti3S13
_symmetry_space_group_name_H-M   'P 1'
_cell_length_a   3.77988505
_cell_length_b   8.05837917
_cell_length_c   13.24855614
_cell_angle_alpha   90.00000000
_cell_angle_beta   90.00000000
_cell_angle_gamma   90.00000000
_symmetry_Int_Tables_number   1
_chemical_formula_structural   Ce4Ti3S13
_chemical_formula_sum   'Ce4 Ti3 S13'
_cell_volume   403.54766797
_cell_formula_units_Z   1
loop_
 _symmetry_equiv_pos_site_id
 _symmetry_equiv_pos_as_xyz
  1  'x, y, z'
loop_
 _atom_site_type_symbol
 _atom_site_label
 _atom_site_symmetry_multiplicity
 _atom_site_fract_x
 _atom_site_fract_y
 _atom_site_fract_z
 _atom_site_occupancy
  Ce  Ce0  1  0.25000000  0.92664398  0.17032800  1
  Ce  Ce1  1  0.74999999  0.07335600  0.82967199  1
  Ce  Ce2  1  0.74999999  0.57335599  0.67032799  1
  Ce  Ce3  1  0.25000000  0.42664399  0.32967200  1
  S  S4  1  0.25000000  0.65068699  0.94898999  1
  Ti  Ti5  1  0.74999999  0.34931299  0.05101000  1
  Ti  Ti6  1  0.74999999  0.84931298  0.44899000  1
  Ti  Ti7  1  0.25000000  0.15068700  0.55100999  1
  S  S8  1  0.25000000  0.52660999  0.11192700  1
  S  S9  1  0.74999999  0.47338999  0.88807299  1
  S  S10  1  0.74999999  0.97338998  0.61192699  1
  S  S11  1  0.25000000  0.02661000  0.38807300  1
  S  S12  1  0.25000000  0.66392899  0.50794499  1
  S  S13  1  0.74999999  0.33607099  0.49205499  1
  S  S14  1  0.74999999  0.83607098  0.00794500  1
  S  S15  1  0.25000000  0.16392900  0.99205499  1
  S  S16  1  0.25000000  0.79269898  0.78557799  1
  S  S17  1  0.74999999  0.20730100  0.21442200  1
  S  S18  1  0.74999999  0.70730098  0.28557800  1
  S  S19  1  0.25000000  0.29269899  0.71442199  1
