# generated using pymatgen
data_BaTl2Cl13
_symmetry_space_group_name_H-M   'P 1'
_cell_length_a   7.80490685
_cell_length_b   9.56572819
_cell_length_c   9.56572723
_cell_angle_alpha   120.00000000
_cell_angle_beta   90.00000000
_cell_angle_gamma   90.00000000
_symmetry_Int_Tables_number   1
_chemical_formula_structural   BaTl2Cl13
_chemical_formula_sum   'Ba1 Tl2 Cl13'
_cell_volume   618.49242447
_cell_formula_units_Z   1
loop_
 _symmetry_equiv_pos_site_id
 _symmetry_equiv_pos_as_xyz
  1  'x, y, z'
loop_
 _atom_site_type_symbol
 _atom_site_label
 _atom_site_symmetry_multiplicity
 _atom_site_fract_x
 _atom_site_fract_y
 _atom_site_fract_z
 _atom_site_occupancy
  Ba  Ba0  1  0.25000000  0.00000000  0.25709401  1
  Cl  Cl1  1  0.75000001  0.00000000  0.74290603  1
  Cl  Cl2  1  0.75000001  0.74290598  -0.00000002  1
  Cl  Cl3  1  0.25000000  0.74290598  0.74290601  1
  Cl  Cl4  1  0.25000000  0.25709399  -0.00000001  1
  Cl  Cl5  1  0.75000001  0.25709399  0.25709400  1
  Cl  Cl6  1  0.50000001  0.66666664  0.33333333  1
  Cl  Cl7  1  0.00000000  0.33333332  0.66666668  1
  Cl  Cl8  1  0.50000001  0.33333332  0.66666668  1
  Cl  Cl9  1  1.00000002  0.66666664  0.33333333  1
  Cl  Cl10  1  0.25000000  0.39300999  0.39301000  1
  Tl  Tl11  1  0.75000001  0.39300999  -0.00000001  1
  Cl  Cl12  1  0.75000001  0.00000000  0.39301002  1
  Cl  Cl13  1  0.25000000  0.00000000  0.60699002  1
  Cl  Cl14  1  0.25000000  0.60698998  -0.00000002  1
  Tl  Tl15  1  0.75000001  0.60698998  0.60699001  1
