# generated using pymatgen
data_Li6Cu3TeO9
_symmetry_space_group_name_H-M   'P 1'
_cell_length_a   4.07354355
_cell_length_b   6.63412476
_cell_length_c   7.57248735
_cell_angle_alpha   106.79842377
_cell_angle_beta   105.60298157
_cell_angle_gamma   90.00000763
_symmetry_Int_Tables_number   1
_chemical_formula_structural   Li6Cu3TeO9
_chemical_formula_sum   'Li6 Cu3 Te1 O9'
_cell_volume   188.01802124
_cell_formula_units_Z   1
loop_
 _symmetry_equiv_pos_site_id
 _symmetry_equiv_pos_as_xyz
  1  'x, y, z'
loop_
 _atom_site_type_symbol
 _atom_site_label
 _atom_site_symmetry_multiplicity
 _atom_site_fract_x
 _atom_site_fract_y
 _atom_site_fract_z
 _atom_site_occupancy
  Li  Li0  1  0.50000002  0.49999998  -0.00000000  1
  O  O1  1  0.21733401  0.17681999  0.43466901  1
  Cu  Cu2  1  0.78266603  0.82317997  0.56533100  1
  Cu  Cu3  1  0.04175701  0.21790299  0.08351600  1
  Li  Li4  1  0.95824302  0.78209697  0.91648402  1
  Li  Li5  1  0.32045302  0.57904698  0.64090601  1
  Li  Li6  1  0.67954701  0.42095298  0.35909401  1
  O  O7  1  0.40207000  0.03530700  0.80414102  1
  Cu  Cu8  1  0.59793003  0.96469296  0.19585899  1
  Li  Li9  1  0.14982302  0.71290297  0.29964699  1
  O  O10  1  0.85017701  0.28709699  0.70035302  1
  O  O11  1  0.09886203  0.95400396  0.19772499  1
  Te  Te12  1  0.90113800  0.04599600  0.80227503  1
  O  O13  1  0.17587401  0.42818198  0.35174600  1
  O  O14  1  0.82412602  0.57181798  0.64825401  1
  Li  Li15  1  0.35400301  0.29186099  0.70800501  1
  O  O16  1  0.64599702  0.70813897  0.29199500  1
  O  O17  1  0.45210902  0.77722997  0.90421701  1
  O  O18  1  0.54789101  0.22276999  0.09578300  1
