# generated using pymatgen
data_Nb2Co2BS2
_symmetry_space_group_name_H-M   'P 1'
_cell_length_a   5.45701981
_cell_length_b   5.45701981
_cell_length_c   6.56233406
_cell_angle_alpha   114.56866455
_cell_angle_beta   114.56866455
_cell_angle_gamma   90.00000000
_symmetry_Int_Tables_number   1
_chemical_formula_structural   Nb2Co2BS2
_chemical_formula_sum   'Nb2 Co2 B1 S2'
_cell_volume   158.06680358
_cell_formula_units_Z   1
loop_
 _symmetry_equiv_pos_site_id
 _symmetry_equiv_pos_as_xyz
  1  'x, y, z'
loop_
 _atom_site_type_symbol
 _atom_site_label
 _atom_site_symmetry_multiplicity
 _atom_site_fract_x
 _atom_site_fract_y
 _atom_site_fract_z
 _atom_site_occupancy
  Nb  Nb0  1  0.50000002  0.00000000  -0.00000000  1
  Co  Co1  1  1.00000003  0.50000002  0.99999998  1
  Co  Co2  1  0.00000000  0.00000000  0.00000000  1
  Nb  Nb3  1  0.88533002  0.88533003  0.24517499  1
  B  B4  1  0.35984501  0.35984501  0.24517499  1
  S  S5  1  0.11467000  0.64015502  0.75482499  1
  S  S6  1  0.64015502  0.11467000  0.75482499  1
