# generated using pymatgen
data_TiCu2Se4S7
_symmetry_space_group_name_H-M   'P 1'
_cell_length_a   3.87378931
_cell_length_b   3.87378931
_cell_length_c   16.22725105
_cell_angle_alpha   83.14480591
_cell_angle_beta   83.14480591
_cell_angle_gamma   60.00001144
_symmetry_Int_Tables_number   1
_chemical_formula_structural   TiCu2Se4S7
_chemical_formula_sum   'Ti1 Cu2 Se4 S7'
_cell_volume   208.87335497
_cell_formula_units_Z   1
loop_
 _symmetry_equiv_pos_site_id
 _symmetry_equiv_pos_as_xyz
  1  'x, y, z'
loop_
 _atom_site_type_symbol
 _atom_site_label
 _atom_site_symmetry_multiplicity
 _atom_site_fract_x
 _atom_site_fract_y
 _atom_site_fract_z
 _atom_site_occupancy
  Ti  Ti0  1  0.50000002  0.50000000  0.50000000  1
  S  S1  1  0.05204100  0.05204100  0.84387698  1
  S  S2  1  0.94795904  0.94795901  0.15612302  1
  Se  Se3  1  0.13705001  0.13705000  0.58884999  1
  Se  Se4  1  0.86295003  0.86295001  0.41115001  1
  S  S5  1  0.24811001  0.24811000  0.25567000  1
  S  S6  1  0.75189003  0.75189001  0.74433000  1
  S  S7  1  0.35171001  0.35171000  0.94486999  1
  S  S8  1  0.64829002  0.64829001  0.05513001  1
  S  S9  1  0.00000000  0.00000000  0.00000000  1
  Se  Se10  1  0.20116801  0.20116800  0.39649600  1
  Se  Se11  1  0.79883203  0.79883201  0.60350401  1
  Cu  Cu12  1  0.40013102  0.40013100  0.79960699  1
  Cu  Cu13  1  0.59986902  0.59986901  0.20039301  1
