# generated using pymatgen
data_Sm2Fe17
_symmetry_space_group_name_H-M   'P 1'
_cell_length_a   6.43933392
_cell_length_b   6.43933392
_cell_length_c   6.43933439
_cell_angle_alpha   82.60182190
_cell_angle_beta   82.60182190
_cell_angle_gamma   82.60182190
_symmetry_Int_Tables_number   1
_chemical_formula_structural   Sm2Fe17
_chemical_formula_sum   'Sm2 Fe17'
_cell_volume   260.86601604
_cell_formula_units_Z   1
loop_
 _symmetry_equiv_pos_site_id
 _symmetry_equiv_pos_as_xyz
  1  'x, y, z'
loop_
 _atom_site_type_symbol
 _atom_site_label
 _atom_site_symmetry_multiplicity
 _atom_site_fract_x
 _atom_site_fract_y
 _atom_site_fract_z
 _atom_site_occupancy
  Sm  Sm0  1  0.34168599  0.34168599  0.34168603  1
  Sm  Sm1  1  0.65412198  0.65412199  0.65412205  1
  Fe  Fe2  1  0.90839697  0.90839698  0.90839707  1
  Fe  Fe3  1  0.29588998  0.70555599  0.00035206  1
  Fe  Fe4  1  0.00035199  0.29589000  0.70555599  1
  Fe  Fe5  1  0.70555599  0.00035200  0.29589003  1
  Fe  Fe6  1  0.00035199  0.70555599  0.29589003  1
  Fe  Fe7  1  0.29588999  0.00035200  0.70555599  1
  Fe  Fe8  1  0.70555598  0.29589000  0.00035206  1
  Fe  Fe9  1  0.99887796  0.99887798  0.50159510  1
  Fe  Fe10  1  0.50159497  0.99887798  0.99887805  1
  Fe  Fe11  1  0.99887797  0.50159499  0.99887805  1
  Fe  Fe12  1  0.65925098  0.15554900  0.65925102  1
  Fe  Fe13  1  0.65925098  0.65925099  0.15554907  1
  Fe  Fe14  1  0.15554898  0.65925099  0.65925103  1
  Fe  Fe15  1  0.34102798  0.84402399  0.34102806  1
  Fe  Fe16  1  0.34102799  0.34102799  0.84402401  1
  Fe  Fe17  1  0.84402398  0.34102799  0.34102806  1
  Fe  Fe18  1  0.09271800  0.09271800  0.09271801  1
