# generated using pymatgen
data_LuTe7
_symmetry_space_group_name_H-M   'P 1'
_cell_length_a   4.29121590
_cell_length_b   4.29121590
_cell_length_c   14.07750320
_cell_angle_alpha   81.23316193
_cell_angle_beta   81.23316193
_cell_angle_gamma   60.00000381
_symmetry_Int_Tables_number   1
_chemical_formula_structural   LuTe7
_chemical_formula_sum   'Lu1 Te7'
_cell_volume   220.99623950
_cell_formula_units_Z   1
loop_
 _symmetry_equiv_pos_site_id
 _symmetry_equiv_pos_as_xyz
  1  'x, y, z'
loop_
 _atom_site_type_symbol
 _atom_site_label
 _atom_site_symmetry_multiplicity
 _atom_site_fract_x
 _atom_site_fract_y
 _atom_site_fract_z
 _atom_site_occupancy
  Te  Te0  1  0.87474301  0.87474298  0.37577099  1
  Te  Te1  1  0.12525700  0.12525700  0.62422901  1
  Te  Te2  1  0.37682300  0.37682299  0.86953101  1
  Te  Te3  1  0.62317700  0.62317698  0.13046899  1
  Te  Te4  1  0.00000000  0.00000000  0.00000000  1
  Te  Te5  1  0.24950300  0.24950299  0.25149100  1
  Lu  Lu6  1  0.50000000  0.49999999  0.50000000  1
  Te  Te7  1  0.75049700  0.75049698  0.74850900  1
