# generated using pymatgen
data_Ba3In5
_symmetry_space_group_name_H-M   'P 1'
_cell_length_a   6.24571800
_cell_length_b   6.24571848
_cell_length_c   11.09282398
_cell_angle_alpha   90.00000000
_cell_angle_beta   90.00000000
_cell_angle_gamma   120.00000000
_symmetry_Int_Tables_number   1
_chemical_formula_structural   Ba3In5
_chemical_formula_sum   'Ba3 In5'
_cell_volume   374.74645224
_cell_formula_units_Z   1
loop_
 _symmetry_equiv_pos_site_id
 _symmetry_equiv_pos_as_xyz
  1  'x, y, z'
loop_
 _atom_site_type_symbol
 _atom_site_label
 _atom_site_symmetry_multiplicity
 _atom_site_fract_x
 _atom_site_fract_y
 _atom_site_fract_z
 _atom_site_occupancy
  Ba  Ba0  1  0.66666668  0.33333334  0.08191900  1
  Ba  Ba1  1  0.33333337  0.66666668  0.58191900  1
  In  In2  1  0.00000000  0.00000000  0.75000000  1
  In  In3  1  0.33333337  0.66666668  0.91808100  1
  In  In4  1  0.00000000  0.00000000  0.25000000  1
  In  In5  1  0.66666668  0.33333334  0.41808100  1
  In  In6  1  0.33333337  0.66666668  0.25000000  1
  Ba  Ba7  1  0.66666668  0.33333334  0.75000000  1
