# generated using pymatgen
data_La7Y
_symmetry_space_group_name_H-M   'P 1'
_cell_length_a   5.97619295
_cell_length_b   7.32071590
_cell_length_c   7.32071495
_cell_angle_alpha   120.00000763
_cell_angle_beta   90.00000000
_cell_angle_gamma   90.00000000
_symmetry_Int_Tables_number   1
_chemical_formula_structural   La7Y
_chemical_formula_sum   'La7 Y1'
_cell_volume   277.37177110
_cell_formula_units_Z   1
loop_
 _symmetry_equiv_pos_site_id
 _symmetry_equiv_pos_as_xyz
  1  'x, y, z'
loop_
 _atom_site_type_symbol
 _atom_site_label
 _atom_site_symmetry_multiplicity
 _atom_site_fract_x
 _atom_site_fract_y
 _atom_site_fract_z
 _atom_site_occupancy
  La  La0  1  0.75000001  0.83331804  0.16665140  1
  Y  Y1  1  0.75000001  0.33333335  0.16665136  1
  La  La2  1  0.75000001  0.83331804  0.66663607  1
  La  La3  1  0.25000000  0.16668201  0.83334870  1
  La  La4  1  0.25000000  0.66666670  0.83334873  1
  La  La5  1  0.25000000  0.16668201  0.33336402  1
  La  La6  1  0.25000000  0.66666670  0.33333339  1
  La  La7  1  0.75000001  0.33333335  0.66666671  1
