# generated using pymatgen
data_ScAl11BC
_symmetry_space_group_name_H-M   'P 1'
_cell_length_a   3.91548395
_cell_length_b   3.91600990
_cell_length_c   13.51542091
_cell_angle_alpha   90.00000000
_cell_angle_beta   90.00000000
_cell_angle_gamma   90.00000000
_symmetry_Int_Tables_number   1
_chemical_formula_structural   ScAl11BC
_chemical_formula_sum   'Sc1 Al11 B1 C1'
_cell_volume   207.23294805
_cell_formula_units_Z   1
loop_
 _symmetry_equiv_pos_site_id
 _symmetry_equiv_pos_as_xyz
  1  'x, y, z'
loop_
 _atom_site_type_symbol
 _atom_site_label
 _atom_site_symmetry_multiplicity
 _atom_site_fract_x
 _atom_site_fract_y
 _atom_site_fract_z
 _atom_site_occupancy
  Al  Al0  1  0.00000000  0.99349802  0.75000000  1
  Al  Al1  1  0.00000000  0.00650200  0.25000000  1
  C  C2  1  0.50000001  0.50000001  -0.00000000  1
  B  B3  1  0.50000001  0.50000001  0.50000000  1
  Al  Al4  1  0.00000000  0.49395401  0.90727501  1
  Al  Al5  1  0.00000000  0.49395401  0.59272500  1
  Al  Al6  1  0.00000000  0.50604601  0.40727500  1
  Sc  Sc7  1  0.00000000  0.50604601  0.09272500  1
  Al  Al8  1  0.50000001  0.00368000  0.40732200  1
  Al  Al9  1  0.50000001  0.99632002  0.90732201  1
  Al  Al10  1  0.50000001  0.99632002  0.59267800  1
  Al  Al11  1  0.50000001  0.00368000  0.09267800  1
  Al  Al12  1  0.50000001  0.49260201  0.75000000  1
  Al  Al13  1  0.50000001  0.50739801  0.25000000  1
