# generated using pymatgen
data_Al7Ni6
_symmetry_space_group_name_H-M   'P 1'
_cell_length_a   4.74974537
_cell_length_b   4.74974537
_cell_length_c   8.94153881
_cell_angle_alpha   74.59738922
_cell_angle_beta   74.59738922
_cell_angle_gamma   60.00000763
_symmetry_Int_Tables_number   1
_chemical_formula_structural   Al7Ni6
_chemical_formula_sum   'Al7 Ni6'
_cell_volume   166.27762741
_cell_formula_units_Z   1
loop_
 _symmetry_equiv_pos_site_id
 _symmetry_equiv_pos_as_xyz
  1  'x, y, z'
loop_
 _atom_site_type_symbol
 _atom_site_label
 _atom_site_symmetry_multiplicity
 _atom_site_fract_x
 _atom_site_fract_y
 _atom_site_fract_z
 _atom_site_occupancy
  Al  Al0  1  0.08994600  0.08994600  0.23104999  1
  Ni  Ni1  1  0.91005402  0.41094201  0.76894997  1
  Ni  Ni2  1  0.00000000  0.00000000  0.00000000  1
  Ni  Ni3  1  0.08994600  0.58905801  0.23104999  1
  Ni  Ni4  1  0.91005402  0.91005402  0.76894996  1
  Ni  Ni5  1  0.41094201  0.91005402  0.76894997  1
  Ni  Ni6  1  0.58905801  0.08994600  0.23104999  1
  Al  Al7  1  0.83429002  0.83429002  0.49712997  1
  Al  Al8  1  0.65268901  0.65268901  0.04193298  1
  Al  Al9  1  0.45034101  0.45034101  0.64897697  1
  Al  Al10  1  0.54965901  0.54965901  0.35102298  1
  Al  Al11  1  0.16571000  0.16571000  0.50286998  1
  Al  Al12  1  0.34731101  0.34731101  0.95806697  1
