# generated using pymatgen
data_NaBr5O12
_symmetry_space_group_name_H-M   'P 1'
_cell_length_a   3.98656011
_cell_length_b   7.68556309
_cell_length_c   7.68556309
_cell_angle_alpha   90.00000000
_cell_angle_beta   90.00000000
_cell_angle_gamma   90.00000000
_symmetry_Int_Tables_number   1
_chemical_formula_structural   NaBr5O12
_chemical_formula_sum   'Na1 Br5 O12'
_cell_volume   235.47765386
_cell_formula_units_Z   1
loop_
 _symmetry_equiv_pos_site_id
 _symmetry_equiv_pos_as_xyz
  1  'x, y, z'
loop_
 _atom_site_type_symbol
 _atom_site_label
 _atom_site_symmetry_multiplicity
 _atom_site_fract_x
 _atom_site_fract_y
 _atom_site_fract_z
 _atom_site_occupancy
  Na  Na0  1  0.00000000  0.00000000  0.00000000  1
  Br  Br1  1  0.49999999  0.49999999  0.49999999  1
  O  O2  1  0.11044900  0.65811099  0.77889099  1
  Br  Br3  1  0.11044900  0.34188900  0.22110900  1
  O  O4  1  0.61044898  0.27889100  0.84188899  1
  O  O5  1  0.61044898  0.72110899  0.15811100  1
  O  O6  1  0.38955099  0.84188899  0.72110899  1
  O  O7  1  0.38955099  0.15811100  0.27889100  1
  Br  Br8  1  0.88955098  0.22110900  0.65811099  1
  Br  Br9  1  0.88955098  0.77889099  0.34188900  1
  O  O10  1  0.88919498  0.15979500  0.39080800  1
  O  O11  1  0.88919498  0.84020499  0.60919199  1
  O  O12  1  0.38919499  0.89080799  0.34020500  1
  O  O13  1  0.38919499  0.10919200  0.65979499  1
  O  O14  1  0.61080498  0.34020500  0.10919200  1
  Br  Br15  1  0.61080498  0.65979499  0.89080799  1
  O  O16  1  0.11080500  0.60919199  0.15979500  1
  O  O17  1  0.11080500  0.39080800  0.84020499  1
