# generated using pymatgen
data_Al5Tc3
_symmetry_space_group_name_H-M   'P 1'
_cell_length_a   4.99841738
_cell_length_b   4.99841738
_cell_length_c   4.99841738
_cell_angle_alpha   90.11686707
_cell_angle_beta   90.11686707
_cell_angle_gamma   89.88313293
_symmetry_Int_Tables_number   1
_chemical_formula_structural   Al5Tc3
_chemical_formula_sum   'Al5 Tc3'
_cell_volume   124.88056259
_cell_formula_units_Z   1
loop_
 _symmetry_equiv_pos_site_id
 _symmetry_equiv_pos_as_xyz
  1  'x, y, z'
loop_
 _atom_site_type_symbol
 _atom_site_label
 _atom_site_symmetry_multiplicity
 _atom_site_fract_x
 _atom_site_fract_y
 _atom_site_fract_z
 _atom_site_occupancy
  Al  Al0  1  0.24999997  0.50303998  0.00304002  1
  Tc  Tc1  1  0.99695995  0.24999999  0.49696002  1
  Tc  Tc2  1  0.50303995  0.99695996  0.75000002  1
  Tc  Tc3  1  0.74999996  0.50278298  0.00278304  1
  Al  Al4  1  0.99721694  0.74999997  0.49721704  1
  Al  Al5  1  0.50278295  0.99721696  0.25000004  1
  Al  Al6  1  0.50365097  0.50365098  0.49634901  1
  Al  Al7  1  0.99634893  0.99634896  0.00365106  1
