# generated using pymatgen
data_RbRhF7
_symmetry_space_group_name_H-M   'P 1'
_cell_length_a   4.89364910
_cell_length_b   6.07545614
_cell_length_c   6.07545662
_cell_angle_alpha   60.00000381
_cell_angle_beta   90.00000000
_cell_angle_gamma   90.00000000
_symmetry_Int_Tables_number   1
_chemical_formula_structural   RbRhF7
_chemical_formula_sum   'Rb1 Rh1 F7'
_cell_volume   156.43044754
_cell_formula_units_Z   1
loop_
 _symmetry_equiv_pos_site_id
 _symmetry_equiv_pos_as_xyz
  1  'x, y, z'
loop_
 _atom_site_type_symbol
 _atom_site_label
 _atom_site_symmetry_multiplicity
 _atom_site_fract_x
 _atom_site_fract_y
 _atom_site_fract_z
 _atom_site_occupancy
  F  F0  1  0.20574700  0.33333332  0.33333334  1
  Rb  Rb1  1  0.79425298  0.66666665  0.66666667  1
  Rh  Rh2  1  0.49999999  0.00000000  0.00000000  1
  F  F3  1  0.72101899  0.68599098  0.15700500  1
  F  F4  1  0.72101899  0.15700400  0.15700500  1
  F  F5  1  0.72101899  0.15700400  0.68599201  1
  F  F6  1  0.27898099  0.31400899  0.84299501  1
  F  F7  1  0.27898099  0.84299598  0.84299501  1
  F  F8  1  0.27898099  0.84299598  0.31400801  1
