# generated using pymatgen
data_CeP4
_symmetry_space_group_name_H-M   'P 1'
_cell_length_a   3.90927291
_cell_length_b   3.90927291
_cell_length_c   19.95788574
_cell_angle_alpha   90.00000000
_cell_angle_beta   90.00000000
_cell_angle_gamma   90.00000000
_symmetry_Int_Tables_number   1
_chemical_formula_structural   CeP4
_chemical_formula_sum   'Ce4 P16'
_cell_volume   305.00468601
_cell_formula_units_Z   4
loop_
 _symmetry_equiv_pos_site_id
 _symmetry_equiv_pos_as_xyz
  1  'x, y, z'
loop_
 _atom_site_type_symbol
 _atom_site_label
 _atom_site_symmetry_multiplicity
 _atom_site_fract_x
 _atom_site_fract_y
 _atom_site_fract_z
 _atom_site_occupancy
  Ce  Ce0  1  0.00000000  0.00000000  0.00000000  1
  Ce  Ce1  1  0.50000001  0.50000001  0.25035000  1
  Ce  Ce2  1  0.00000000  0.00000000  0.50000001  1
  Ce  Ce3  1  0.50000001  0.50000001  0.74965001  1
  P  P4  1  0.00000000  0.50000001  0.12625700  1
  P  P5  1  0.50000001  0.00000000  0.37503400  1
  P  P6  1  0.00000000  0.50000001  0.62496601  1
  P  P7  1  0.50000001  0.00000000  0.87374301  1
  P  P8  1  0.50000001  0.00000000  0.12625700  1
  P  P9  1  0.00000000  0.50000001  0.37503400  1
  P  P10  1  0.50000001  0.00000000  0.62496601  1
  P  P11  1  0.00000000  0.50000001  0.87374301  1
  P  P12  1  0.50000001  0.50000001  0.07068900  1
  P  P13  1  0.00000000  0.00000000  0.31860100  1
  P  P14  1  0.50000001  0.50000001  0.56868301  1
  P  P15  1  0.00000000  0.00000000  0.81761601  1
  P  P16  1  0.00000000  0.00000000  0.18238400  1
  P  P17  1  0.50000001  0.50000001  0.43131701  1
  P  P18  1  0.00000000  0.00000000  0.68139901  1
  P  P19  1  0.50000001  0.50000001  0.92931101  1
