# generated using pymatgen
data_LuCu2Si3
_symmetry_space_group_name_H-M   'P 1'
_cell_length_a   3.94234991
_cell_length_b   4.88228416
_cell_length_c   4.88228321
_cell_angle_alpha   120.00000763
_cell_angle_beta   90.00000000
_cell_angle_gamma   90.00000000
_symmetry_Int_Tables_number   1
_chemical_formula_structural   LuCu2Si3
_chemical_formula_sum   'Lu1 Si3 Cu2'
_cell_volume   81.38264263
_cell_formula_units_Z   1
loop_
 _symmetry_equiv_pos_site_id
 _symmetry_equiv_pos_as_xyz
  1  'x, y, z'
loop_
 _atom_site_type_symbol
 _atom_site_label
 _atom_site_symmetry_multiplicity
 _atom_site_fract_x
 _atom_site_fract_y
 _atom_site_fract_z
 _atom_site_occupancy
  Lu  Lu0  1  0.00000000  0.00000000  0.00000000  1
  Si  Si1  1  1.00000002  0.33333333  0.66666667  1
  Si  Si2  1  0.00000000  0.66666666  0.33333336  1
  Si  Si3  1  0.50000001  0.49999999  0.00000002  1
  Cu  Cu4  1  0.50000001  0.49999999  0.50000001  1
  Cu  Cu5  1  0.50000001  0.99999999  0.50000003  1
