# generated using pymatgen
data_Sm4Ge7Pd
_symmetry_space_group_name_H-M   'P 1'
_cell_length_a   4.53755379
_cell_length_b   5.81275272
_cell_length_c   10.64944363
_cell_angle_alpha   95.42675018
_cell_angle_beta   90.00000000
_cell_angle_gamma   112.97380829
_symmetry_Int_Tables_number   1
_chemical_formula_structural   Sm4Ge7Pd
_chemical_formula_sum   'Sm4 Ge7 Pd1'
_cell_volume   257.23937620
_cell_formula_units_Z   1
loop_
 _symmetry_equiv_pos_site_id
 _symmetry_equiv_pos_as_xyz
  1  'x, y, z'
loop_
 _atom_site_type_symbol
 _atom_site_label
 _atom_site_symmetry_multiplicity
 _atom_site_fract_x
 _atom_site_fract_y
 _atom_site_fract_z
 _atom_site_occupancy
  Sm  Sm0  1  0.31572406  0.63144802  0.68851901  1
  Sm  Sm1  1  0.81306808  0.62613602  0.18129700  1
  Sm  Sm2  1  0.60612504  0.21225001  0.90017602  1
  Sm  Sm3  1  0.10514902  0.21029801  0.39715801  1
  Ge  Ge4  1  0.82374508  0.64749002  0.48753601  1
  Ge  Ge5  1  0.01447800  0.02895600  0.66942402  1
  Pd  Pd6  1  0.51531403  0.03062800  0.18563700  1
  Ge  Ge7  1  0.31537306  0.63074602  0.98989902  1
  Ge  Ge8  1  0.61532205  0.23064401  0.60608401  1
  Ge  Ge9  1  0.09681702  0.19363401  0.11240500  1
  Ge  Ge10  1  0.90373710  0.80747403  0.87629001  1
  Ge  Ge11  1  0.39394907  0.78789803  0.38677400  1
