# generated using pymatgen
data_CeAu2
_symmetry_space_group_name_H-M   'P 1'
_cell_length_a   4.38227606
_cell_length_b   7.42210579
_cell_length_c   8.83475208
_cell_angle_alpha   89.83354187
_cell_angle_beta   90.00000000
_cell_angle_gamma   90.00000000
_symmetry_Int_Tables_number   1
_chemical_formula_structural   CeAu2
_chemical_formula_sum   'Ce4 Au8'
_cell_volume   287.35542890
_cell_formula_units_Z   4
loop_
 _symmetry_equiv_pos_site_id
 _symmetry_equiv_pos_as_xyz
  1  'x, y, z'
loop_
 _atom_site_type_symbol
 _atom_site_label
 _atom_site_symmetry_multiplicity
 _atom_site_fract_x
 _atom_site_fract_y
 _atom_site_fract_z
 _atom_site_occupancy
  Ce  Ce0  1  0.49999999  0.54248802  0.81436001  1
  Ce  Ce1  1  0.49999999  0.03685500  0.67762701  1
  Ce  Ce2  1  0.00000000  0.46445901  0.18944900  1
  Ce  Ce3  1  0.00000000  0.94871403  0.32218000  1
  Au  Au4  1  0.49999999  0.14296700  0.06099800  1
  Au  Au5  1  0.00000000  0.36215301  0.55974801  1
  Au  Au6  1  0.00000000  0.85873002  0.93908502  1
  Au  Au7  1  0.49999999  0.74970002  0.12437900  1
  Au  Au8  1  0.49999999  0.24907601  0.37205701  1
  Au  Au9  1  0.00000000  0.24982601  0.87122202  1
  Au  Au10  1  0.00000000  0.74938902  0.63174701  1
  Au  Au11  1  0.49999999  0.64564302  0.43714801  1
