# generated using pymatgen
data_Na3F4
_symmetry_space_group_name_H-M   'P 1'
_cell_length_a   7.26150608
_cell_length_b   7.26150608
_cell_length_c   7.26150608
_cell_angle_alpha   89.05707550
_cell_angle_beta   60.18055344
_cell_angle_gamma   119.09605408
_symmetry_Int_Tables_number   1
_chemical_formula_structural   Na3F4
_chemical_formula_sum   'Na6 F8'
_cell_volume   272.91364847
_cell_formula_units_Z   2
loop_
 _symmetry_equiv_pos_site_id
 _symmetry_equiv_pos_as_xyz
  1  'x, y, z'
loop_
 _atom_site_type_symbol
 _atom_site_label
 _atom_site_symmetry_multiplicity
 _atom_site_fract_x
 _atom_site_fract_y
 _atom_site_fract_z
 _atom_site_occupancy
  Na  Na0  1  0.52866101  0.27866100  0.74999997  1
  Na  Na1  1  0.97133899  0.22133900  0.24999999  1
  Na  Na2  1  0.99519399  0.25000000  0.75480598  1
  Na  Na3  1  0.50480604  0.75000001  0.74519393  1
  Na  Na4  1  0.75000002  0.62102301  0.12897695  1
  Na  Na5  1  0.25000005  0.87897701  0.37102292  1
  F  F6  1  0.98276701  0.46434301  0.50465696  1
  F  F7  1  0.52929899  0.00877400  0.95467199  1
  F  F8  1  0.51723299  0.01257600  0.51842400  1
  F  F9  1  0.97070098  0.01603000  0.52052400  1
  F  F10  1  0.03100000  0.03565700  0.98157598  1
  F  F11  1  0.03655403  0.49122501  0.97947494  1
  F  F12  1  0.46900002  0.48742401  0.99534294  1
  F  F13  1  0.46344602  0.48397101  0.54532895  1
