# generated using pymatgen
data_Mg3Si2
_symmetry_space_group_name_H-M   'P 1'
_cell_length_a   3.42736411
_cell_length_b   6.62862778
_cell_length_c   9.31089211
_cell_angle_alpha   104.39559174
_cell_angle_beta   90.00000000
_cell_angle_gamma   90.00000000
_symmetry_Int_Tables_number   1
_chemical_formula_structural   Mg3Si2
_chemical_formula_sum   'Mg6 Si4'
_cell_volume   204.88995341
_cell_formula_units_Z   2
loop_
 _symmetry_equiv_pos_site_id
 _symmetry_equiv_pos_as_xyz
  1  'x, y, z'
loop_
 _atom_site_type_symbol
 _atom_site_label
 _atom_site_symmetry_multiplicity
 _atom_site_fract_x
 _atom_site_fract_y
 _atom_site_fract_z
 _atom_site_occupancy
  Si  Si0  1  0.74999998  0.11366500  0.63494297  1
  Si  Si1  1  0.24999999  0.88633502  0.36505697  1
  Si  Si2  1  0.74999998  0.32180301  0.00079999  1
  Si  Si3  1  0.24999999  0.67819702  0.99919994  1
  Mg  Mg4  1  0.74999998  0.72780902  0.51308596  1
  Mg  Mg5  1  0.24999999  0.27219101  0.48691397  1
  Mg  Mg6  1  0.74999998  0.97225703  0.15726897  1
  Mg  Mg7  1  0.24999999  0.02774300  0.84273096  1
  Mg  Mg8  1  0.24999999  0.47651001  0.20562198  1
  Mg  Mg9  1  0.74999998  0.52349001  0.79437796  1
