# generated using pymatgen
data_LaF2
_symmetry_space_group_name_H-M   'P 1'
_cell_length_a   6.84103584
_cell_length_b   6.84103584
_cell_length_c   7.64222336
_cell_angle_alpha   103.12271118
_cell_angle_beta   102.77350616
_cell_angle_gamma   119.95910645
_symmetry_Int_Tables_number   1
_chemical_formula_structural   LaF2
_chemical_formula_sum   'La4 F8'
_cell_volume   277.04993566
_cell_formula_units_Z   4
loop_
 _symmetry_equiv_pos_site_id
 _symmetry_equiv_pos_as_xyz
  1  'x, y, z'
loop_
 _atom_site_type_symbol
 _atom_site_label
 _atom_site_symmetry_multiplicity
 _atom_site_fract_x
 _atom_site_fract_y
 _atom_site_fract_z
 _atom_site_occupancy
  La  La0  1  0.50000000  0.50000001  -0.00000001  1
  La  La1  1  -0.00000002  0.50000001  0.00000000  1
  La  La2  1  0.49999998  1.00000002  -0.00000001  1
  La  La3  1  0.00000000  0.00000000  0.00000000  1
  F  F4  1  0.96276001  0.28551500  0.24827497  1
  F  F5  1  0.45725099  0.79212601  0.24937699  1
  F  F6  1  0.96240400  0.80297401  0.24771998  1
  F  F7  1  0.44474600  0.28531600  0.24771999  1
  F  F8  1  0.03759599  0.19702600  0.75228000  1
  F  F9  1  0.55525399  0.71468401  0.75227999  1
  F  F10  1  0.03723998  0.71448501  0.75172501  1
  F  F11  1  0.54274901  0.20787400  0.75062299  1
