# generated using pymatgen
data_SmAl2Fe10C
_symmetry_space_group_name_H-M   'P 1'
_cell_length_a   4.95467281
_cell_length_b   6.52996826
_cell_length_c   6.52996874
_cell_angle_alpha   81.43324280
_cell_angle_beta   67.70474243
_cell_angle_gamma   67.70475006
_symmetry_Int_Tables_number   1
_chemical_formula_structural   SmAl2Fe10C
_chemical_formula_sum   'Sm1 Al2 Fe10 C1'
_cell_volume   180.85875047
_cell_formula_units_Z   1
loop_
 _symmetry_equiv_pos_site_id
 _symmetry_equiv_pos_as_xyz
  1  'x, y, z'
loop_
 _atom_site_type_symbol
 _atom_site_label
 _atom_site_symmetry_multiplicity
 _atom_site_fract_x
 _atom_site_fract_y
 _atom_site_fract_z
 _atom_site_occupancy
  Sm  Sm0  1  0.00000007  0.99329397  0.00670596  1
  Al  Al1  1  0.00000003  0.36650199  0.63349797  1
  Fe  Fe2  1  0.50000007  0.77512698  0.22487298  1
  Fe  Fe3  1  0.50000003  0.22308599  0.77691399  1
  Fe  Fe4  1  0.72140607  0.78082098  0.77636597  1
  Fe  Fe5  1  0.27859302  0.22363399  0.21917900  1
  Fe  Fe6  1  0.00110708  0.99750697  0.49902894  1
  Fe  Fe7  1  0.50235708  0.99750697  0.49902896  1
  Fe  Fe8  1  0.49764305  0.50097099  0.00249300  1
  Fe  Fe9  1  0.99889306  0.50097099  0.00249302  1
  Fe  Fe10  1  0.00000005  0.64158298  0.35841696  1
  Al  Al11  1  0.63995104  0.36028799  0.35981000  1
  Fe  Fe12  1  0.36004905  0.64018998  0.63971197  1
  C  C13  1  0.50000008  0.99851797  0.00148198  1
