# generated using pymatgen
data_Te
_symmetry_space_group_name_H-M   'P 1'
_cell_length_a   4.33154202
_cell_length_b   7.52560472
_cell_length_c   20.63349724
_cell_angle_alpha   90.00000000
_cell_angle_beta   90.00000000
_cell_angle_gamma   106.72550964
_symmetry_Int_Tables_number   1
_chemical_formula_structural   Te
_chemical_formula_sum   Te16
_cell_volume   644.14516898
_cell_formula_units_Z   16
loop_
 _symmetry_equiv_pos_site_id
 _symmetry_equiv_pos_as_xyz
  1  'x, y, z'
loop_
 _atom_site_type_symbol
 _atom_site_label
 _atom_site_symmetry_multiplicity
 _atom_site_fract_x
 _atom_site_fract_y
 _atom_site_fract_z
 _atom_site_occupancy
  Te  Te0  1  0.74496997  0.48994000  0.13549601  1
  Te  Te1  1  0.25502997  0.51006000  0.63549602  1
  Te  Te2  1  0.94370795  0.88741601  0.49619802  1
  Te  Te3  1  0.05629199  0.11258400  0.99619804  1
  Te  Te4  1  0.70521998  0.41044000  0.98890704  1
  Te  Te5  1  0.29477997  0.58956000  0.48890702  1
  Te  Te6  1  0.98382595  0.96765201  0.34900401  1
  Te  Te7  1  0.01617400  0.03234800  0.84900403  1
  Te  Te8  1  0.65911798  0.31823600  0.80433003  1
  Te  Te9  1  0.34088196  0.68176401  0.30433001  1
  Te  Te10  1  0.61868599  0.23737200  0.37538301  1
  Te  Te11  1  0.38131396  0.76262801  0.87538303  1
  Te  Te12  1  0.88290596  0.76581201  0.67407502  1
  Te  Te13  1  0.11709399  0.23418800  0.17407501  1
  Te  Te14  1  0.62413699  0.24827400  0.60170802  1
  Te  Te15  1  0.37586296  0.75172601  0.10170800  1
