# generated using pymatgen
data_Zn2H3Cl13O2
_symmetry_space_group_name_H-M   'P 1'
_cell_length_a   5.65136909
_cell_length_b   6.67455292
_cell_length_c   10.49190807
_cell_angle_alpha   90.00000000
_cell_angle_beta   90.00000000
_cell_angle_gamma   90.00000000
_symmetry_Int_Tables_number   1
_chemical_formula_structural   Zn2H3Cl13O2
_chemical_formula_sum   'Zn2 H3 Cl13 O2'
_cell_volume   395.75857144
_cell_formula_units_Z   1
loop_
 _symmetry_equiv_pos_site_id
 _symmetry_equiv_pos_as_xyz
  1  'x, y, z'
loop_
 _atom_site_type_symbol
 _atom_site_label
 _atom_site_symmetry_multiplicity
 _atom_site_fract_x
 _atom_site_fract_y
 _atom_site_fract_z
 _atom_site_occupancy
  Cl  Cl0  1  0.00022700  0.56081701  0.88932299  1
  Cl  Cl1  1  0.49977299  0.93918301  0.38932300  1
  Zn  Zn2  1  0.50022699  0.43918301  0.11067700  1
  Cl  Cl3  1  0.99977298  0.06081700  0.61067700  1
  Cl  Cl4  1  0.99977298  0.43918301  0.11067700  1
  Cl  Cl5  1  0.50022699  0.06081700  0.61067700  1
  Zn  Zn6  1  0.49977299  0.56081701  0.88932299  1
  Cl  Cl7  1  0.00022700  0.93918301  0.38932300  1
  Cl  Cl8  1  0.25000000  0.77415901  0.54419600  1
  H  H9  1  0.25000000  0.72584101  0.04419600  1
  Cl  Cl10  1  0.74999999  0.22584100  0.45580400  1
  H  H11  1  0.74999999  0.27415900  0.95580399  1
  Cl  Cl12  1  0.25000000  0.41599301  0.67470700  1
  Cl  Cl13  1  0.25000000  0.08400700  0.17470700  1
  Cl  Cl14  1  0.74999999  0.58400701  0.32529300  1
  Cl  Cl15  1  0.74999999  0.91599301  0.82529299  1
  Cl  Cl16  1  0.25000000  0.91597301  0.51884900  1
  O  O17  1  0.25000000  0.58402701  0.01884900  1
  H  H18  1  0.74999999  0.08402700  0.48115100  1
  O  O19  1  0.74999999  0.41597301  0.98115099  1
