# generated using pymatgen
data_Li4C5O11
_symmetry_space_group_name_H-M   'P 1'
_cell_length_a   5.20611382
_cell_length_b   6.46711016
_cell_length_c   7.65314007
_cell_angle_alpha   90.00000000
_cell_angle_beta   90.00000000
_cell_angle_gamma   113.64975739
_symmetry_Int_Tables_number   1
_chemical_formula_structural   Li4C5O11
_chemical_formula_sum   'Li4 C5 O11'
_cell_volume   236.02935857
_cell_formula_units_Z   1
loop_
 _symmetry_equiv_pos_site_id
 _symmetry_equiv_pos_as_xyz
  1  'x, y, z'
loop_
 _atom_site_type_symbol
 _atom_site_label
 _atom_site_symmetry_multiplicity
 _atom_site_fract_x
 _atom_site_fract_y
 _atom_site_fract_z
 _atom_site_occupancy
  Li  Li0  1  0.37891900  0.42364100  0.94206799  1
  Li  Li1  1  0.62108100  0.57635900  0.44206800  1
  Li  Li2  1  0.00686597  0.75860300  0.00270800  1
  Li  Li3  1  0.99313403  0.24139700  0.50270800  1
  C  C4  1  0.86970300  0.86496400  0.73893399  1
  C  C5  1  0.85637502  0.37581900  0.75865099  1
  C  C6  1  0.13029700  0.13503600  0.23893400  1
  C  C7  1  0.14362498  0.62418100  0.25865100  1
  O  O8  1  0.71662400  0.82156900  0.87986999  1
  O  O9  1  0.78649800  0.90216100  0.59112199  1
  O  O10  1  0.88752203  0.14306000  0.26539200  1
  C  C11  1  0.11247797  0.85694000  0.76539199  1
  O  O12  1  0.21350200  0.09783900  0.09112200  1
  O  O13  1  0.28337600  0.17843100  0.37987000  1
  O  O14  1  0.72080901  0.34351300  0.61035399  1
  O  O15  1  0.76821601  0.42776800  0.89890799  1
  O  O16  1  0.91003101  0.65526700  0.24721300  1
  O  O17  1  0.08996899  0.34473300  0.74721299  1
  O  O18  1  0.23178399  0.57223200  0.39890800  1
  O  O19  1  0.27919099  0.65648700  0.11035400  1
