# generated using pymatgen
data_Nb5TeSe8
_symmetry_space_group_name_H-M   'P 1'
_cell_length_a   3.92696190
_cell_length_b   9.39676476
_cell_length_c   9.85152912
_cell_angle_alpha   102.01253510
_cell_angle_beta   101.49645233
_cell_angle_gamma   90.00000000
_symmetry_Int_Tables_number   1
_chemical_formula_structural   Nb5TeSe8
_chemical_formula_sum   'Nb5 Te1 Se8'
_cell_volume   348.10796315
_cell_formula_units_Z   1
loop_
 _symmetry_equiv_pos_site_id
 _symmetry_equiv_pos_as_xyz
  1  'x, y, z'
loop_
 _atom_site_type_symbol
 _atom_site_label
 _atom_site_symmetry_multiplicity
 _atom_site_fract_x
 _atom_site_fract_y
 _atom_site_fract_z
 _atom_site_occupancy
  Te  Te0  1  0.50000001  0.50000000  -0.00000001  1
  Nb  Nb1  1  0.71171502  0.33917300  0.42342998  1
  Nb  Nb2  1  0.64746601  0.91889601  0.29493197  1
  Nb  Nb3  1  0.35253401  0.08110400  0.70506797  1
  Nb  Nb4  1  0.28828501  0.66082700  0.57656996  1
  Nb  Nb5  1  0.00000000  0.00000000  0.00000000  1
  Se  Se6  1  0.83414302  0.52037100  0.66828596  1
  Se  Se7  1  0.92633303  0.20723100  0.85266597  1
  Se  Se8  1  0.07366700  0.79276900  0.14733397  1
  Se  Se9  1  0.58374502  0.12965300  0.16748999  1
  Se  Se10  1  0.41625501  0.87034700  0.83250994  1
  Se  Se11  1  0.76371602  0.84733900  0.52743196  1
  Se  Se12  1  0.23628401  0.15266100  0.47256798  1
  Se  Se13  1  0.16585700  0.47962900  0.33171397  1
