# generated using pymatgen
data_ErSi4Ru
_symmetry_space_group_name_H-M   'P 1'
_cell_length_a   4.00732422
_cell_length_b   4.93248415
_cell_length_c   4.98609972
_cell_angle_alpha   60.35507584
_cell_angle_beta   90.00000000
_cell_angle_gamma   90.00000000
_symmetry_Int_Tables_number   1
_chemical_formula_structural   ErSi4Ru
_chemical_formula_sum   'Er1 Si4 Ru1'
_cell_volume   85.65536591
_cell_formula_units_Z   1
loop_
 _symmetry_equiv_pos_site_id
 _symmetry_equiv_pos_as_xyz
  1  'x, y, z'
loop_
 _atom_site_type_symbol
 _atom_site_label
 _atom_site_symmetry_multiplicity
 _atom_site_fract_x
 _atom_site_fract_y
 _atom_site_fract_z
 _atom_site_occupancy
  Er  Er0  1  -0.00000000  0.49999998  0.00000001  1
  Si  Si1  1  0.49999997  0.00000000  0.00000000  1
  Si  Si2  1  -0.00000000  0.17575799  0.64848401  1
  Si  Si3  1  0.99999995  0.82424197  0.35151602  1
  Si  Si4  1  0.49999997  0.49999998  0.50000001  1
  Ru  Ru5  1  0.49999997  0.00000000  0.50000000  1
