# generated using pymatgen
data_Sr4Mn4O11
_symmetry_space_group_name_H-M   'P 1'
_cell_length_a   6.82475996
_cell_length_b   6.82475996
_cell_length_c   6.82475996
_cell_angle_alpha   109.47122192
_cell_angle_beta   109.47122192
_cell_angle_gamma   109.47122192
_symmetry_Int_Tables_number   1
_chemical_formula_structural   Sr4Mn4O11
_chemical_formula_sum   'Sr4 Mn4 O11'
_cell_volume   244.70352842
_cell_formula_units_Z   1
loop_
 _symmetry_equiv_pos_site_id
 _symmetry_equiv_pos_as_xyz
  1  'x, y, z'
loop_
 _atom_site_type_symbol
 _atom_site_label
 _atom_site_symmetry_multiplicity
 _atom_site_fract_x
 _atom_site_fract_y
 _atom_site_fract_z
 _atom_site_occupancy
  Sr  Sr0  1  0.00000003  0.50000002  0.50000003  1
  Sr  Sr1  1  0.50000007  1.00000004  0.50000007  1
  Sr  Sr2  1  0.50000004  0.50000002  1.00000004  1
  Mn  Mn3  1  0.00000003  0.50000002  0.00000003  1
  Mn  Mn4  1  0.00000000  0.00000000  0.50000000  1
  Mn  Mn5  1  0.50000004  0.50000002  0.50000004  1
  Mn  Mn6  1  0.50000007  1.00000004  1.00000007  1
  O  O7  1  0.74744705  0.74744703  0.49489406  1
  O  O8  1  0.74744702  0.25255201  0.00000003  1
  O  O9  1  0.00000005  0.74744703  0.25255304  1
  O  O10  1  0.00000002  0.25255301  0.74744701  1
  O  O11  1  0.74744704  0.49489402  0.74744705  1
  Sr  Sr12  1  0.74744701  0.00000000  0.25255202  1
  O  O13  1  0.25255302  0.25255301  0.50510602  1
  O  O14  1  0.25255305  0.74744803  1.00000005  1
  O  O15  1  0.49489505  0.74744803  0.74744805  1
  O  O16  1  0.50510502  0.25255201  0.25255203  1
  O  O17  1  0.25255307  1.00000004  0.74744806  1
  O  O18  1  0.25255303  0.50510602  0.25255303  1
