# generated using pymatgen
data_Ce2(GePt2)3
_symmetry_space_group_name_H-M   'P 1'
_cell_length_a   4.11110687
_cell_length_b   7.68311977
_cell_length_c   7.68311977
_cell_angle_alpha   120.00000000
_cell_angle_beta   90.00000000
_cell_angle_gamma   90.00000000
_symmetry_Int_Tables_number   1
_chemical_formula_structural   Ce2(GePt2)3
_chemical_formula_sum   'Ce2 Ge3 Pt6'
_cell_volume   210.16703904
_cell_formula_units_Z   1
loop_
 _symmetry_equiv_pos_site_id
 _symmetry_equiv_pos_as_xyz
  1  'x, y, z'
loop_
 _atom_site_type_symbol
 _atom_site_label
 _atom_site_symmetry_multiplicity
 _atom_site_fract_x
 _atom_site_fract_y
 _atom_site_fract_z
 _atom_site_occupancy
  Ce  Ce0  1  1.00000003  0.33333334  0.66666668  1
  Ce  Ce1  1  1.00000003  0.66666668  0.33333333  1
  Ge  Ge2  1  0.50000002  0.28749901  0.28749900  1
  Pt  Pt3  1  0.50000002  0.00000000  0.71250101  1
  Ge  Ge4  1  1.00000003  0.81032102  0.81032101  1
  Pt  Pt5  1  1.00000003  0.18967900  -0.00000000  1
  Pt  Pt6  1  0.50000002  0.71250102  -0.00000001  1
  Pt  Pt7  1  0.00000000  0.00000000  0.18967900  1
  Pt  Pt8  1  0.50000002  0.61691802  0.61691801  1
  Ge  Ge9  1  0.50000002  0.38308201  1.00000001  1
  Pt  Pt10  1  0.50000002  1.00000003  0.38308200  1
