# generated using pymatgen
data_Sr
_symmetry_space_group_name_H-M   'P 1'
_cell_length_a   4.01908922
_cell_length_b   4.01908922
_cell_length_c   13.32631683
_cell_angle_alpha   81.32697296
_cell_angle_beta   81.32697296
_cell_angle_gamma   60.00001144
_symmetry_Int_Tables_number   1
_chemical_formula_structural   Sr
_chemical_formula_sum   Sr4
_cell_volume   183.57373651
_cell_formula_units_Z   4
loop_
 _symmetry_equiv_pos_site_id
 _symmetry_equiv_pos_as_xyz
  1  'x, y, z'
loop_
 _atom_site_type_symbol
 _atom_site_label
 _atom_site_symmetry_multiplicity
 _atom_site_fract_x
 _atom_site_fract_y
 _atom_site_fract_z
 _atom_site_occupancy
  Sr  Sr0  1  0.00000000  0.00000000  0.00000000  1
  Sr  Sr1  1  0.24574401  0.24574401  0.26276800  1
  Sr  Sr2  1  0.50000003  0.50000001  0.49999999  1
  Sr  Sr3  1  0.75425604  0.75425602  0.73723199  1
