# generated using pymatgen
data_CeSnPd2
_symmetry_space_group_name_H-M   'P 1'
_cell_length_a   4.57630396
_cell_length_b   8.70987511
_cell_length_c   9.16035557
_cell_angle_alpha   90.00000000
_cell_angle_beta   90.00000000
_cell_angle_gamma   105.23078918
_symmetry_Int_Tables_number   1
_chemical_formula_structural   CeSnPd2
_chemical_formula_sum   'Ce4 Sn4 Pd8'
_cell_volume   352.29816704
_cell_formula_units_Z   4
loop_
 _symmetry_equiv_pos_site_id
 _symmetry_equiv_pos_as_xyz
  1  'x, y, z'
loop_
 _atom_site_type_symbol
 _atom_site_label
 _atom_site_symmetry_multiplicity
 _atom_site_fract_x
 _atom_site_fract_y
 _atom_site_fract_z
 _atom_site_occupancy
  Ce  Ce0  1  0.79290194  0.58580402  0.75000004  1
  Ce  Ce1  1  0.20709795  0.41419601  0.25000001  1
  Ce  Ce2  1  0.00000000  0.00000000  0.50000002  1
  Ce  Ce3  1  0.00000000  0.00000000  0.00000000  1
  Sn  Sn4  1  0.18524496  0.37049001  0.60810703  1
  Sn  Sn5  1  0.81475493  0.62951002  0.39189302  1
  Pd  Pd6  1  0.18524496  0.37049001  0.89189304  1
  Pd  Pd7  1  0.81475493  0.62951002  0.10810701  1
  Pd  Pd8  1  0.34381992  0.68764002  0.51436302  1
  Pd  Pd9  1  0.65617997  0.31236001  0.48563702  1
  Pd  Pd10  1  0.34381992  0.68764002  0.98563705  1
  Sn  Sn11  1  0.65617997  0.31236001  0.01436300  1
  Pd  Pd12  1  0.60243498  0.20487001  0.75000004  1
  Pd  Pd13  1  0.39756491  0.79513002  0.25000001  1
  Sn  Sn14  1  0.44354890  0.88709802  0.75000004  1
  Pd  Pd15  1  0.55645099  0.11290200  0.25000001  1
