# generated using pymatgen
data_CeEr(B3Ir)4
_symmetry_space_group_name_H-M   'P 1'
_cell_length_a   5.40279007
_cell_length_b   5.40279007
_cell_length_c   7.46239281
_cell_angle_alpha   90.00000000
_cell_angle_beta   90.00000000
_cell_angle_gamma   90.00000000
_symmetry_Int_Tables_number   1
_chemical_formula_structural   CeEr(B3Ir)4
_chemical_formula_sum   'Ce1 Er1 B12 Ir4'
_cell_volume   217.82829477
_cell_formula_units_Z   1
loop_
 _symmetry_equiv_pos_site_id
 _symmetry_equiv_pos_as_xyz
  1  'x, y, z'
loop_
 _atom_site_type_symbol
 _atom_site_label
 _atom_site_symmetry_multiplicity
 _atom_site_fract_x
 _atom_site_fract_y
 _atom_site_fract_z
 _atom_site_occupancy
  Ce  Ce0  1  0.00000000  0.00000000  0.00000000  1
  Er  Er1  1  0.49999999  0.49999999  0.50000001  1
  B  B2  1  0.82738099  0.49999999  0.15349800  1
  Ir  Ir3  1  0.17261900  0.49999999  0.15349800  1
  Ir  Ir4  1  0.00000000  0.32738100  0.65349802  1
  B  B5  1  0.00000000  0.67261899  0.65349802  1
  B  B6  1  0.67261899  0.00000000  0.34650201  1
  Ir  Ir7  1  0.32738100  0.00000000  0.34650201  1
  Ir  Ir8  1  0.49999999  0.17261900  0.84650202  1
  B  B9  1  0.49999999  0.82738099  0.84650202  1
  B  B10  1  0.25107700  0.49999999  0.85525102  1
  B  B11  1  0.74892299  0.49999999  0.85525102  1
  B  B12  1  0.00000000  0.75107699  0.35525101  1
  B  B13  1  0.00000000  0.24892300  0.35525101  1
  B  B14  1  0.24892300  0.00000000  0.64474902  1
  B  B15  1  0.75107699  0.00000000  0.64474902  1
  B  B16  1  0.49999999  0.74892299  0.14474900  1
  B  B17  1  0.49999999  0.25107700  0.14474900  1
