# generated using pymatgen
data_LiLaMn6O12
_symmetry_space_group_name_H-M   'P 1'
_cell_length_a   6.46278954
_cell_length_b   6.46278954
_cell_length_c   6.46278954
_cell_angle_alpha   108.78720856
_cell_angle_beta   109.36589050
_cell_angle_gamma   110.26399231
_symmetry_Int_Tables_number   1
_chemical_formula_structural   LiLaMn6O12
_chemical_formula_sum   'Li1 La1 Mn6 O12'
_cell_volume   207.76134659
_cell_formula_units_Z   1
loop_
 _symmetry_equiv_pos_site_id
 _symmetry_equiv_pos_as_xyz
  1  'x, y, z'
loop_
 _atom_site_type_symbol
 _atom_site_label
 _atom_site_symmetry_multiplicity
 _atom_site_fract_x
 _atom_site_fract_y
 _atom_site_fract_z
 _atom_site_occupancy
  La  La0  1  0.00000000  0.00000000  0.00000000  1
  Mn  Mn1  1  0.50000000  0.00000000  0.49999998  1
  Li  Li2  1  0.00000004  0.50000004  0.50000006  1
  Mn  Mn3  1  0.00000004  0.50000004  0.00000005  1
  Mn  Mn4  1  0.50000000  0.00000000  -0.00000002  1
  Mn  Mn5  1  0.50000004  0.50000004  0.50000003  1
  Mn  Mn6  1  0.00000000  0.00000000  0.50000001  1
  Mn  Mn7  1  0.50000004  0.50000004  0.00000003  1
  O  O8  1  0.18208006  0.70669205  0.88877307  1
  O  O9  1  0.81792002  0.29330802  0.11122699  1
  O  O10  1  0.18208002  0.29330702  0.47538703  1
  O  O11  1  0.81792006  0.70669305  0.52461304  1
  O  O12  1  0.30762704  0.49649204  0.18886504  1
  O  O13  1  0.69237304  0.50350804  0.81113503  1
  O  O14  1  0.69237307  0.88123807  0.18886506  1
  O  O15  1  0.30762701  0.11876201  0.81113501  1
  O  O16  1  0.50635607  0.81022706  0.69612907  1
  O  O17  1  0.49364402  0.18977301  0.30387100  1
  O  O18  1  0.11409807  0.81022706  0.30387108  1
  O  O19  1  0.88590101  0.18977201  0.69612799  1
