# generated using pymatgen
data_Lu3Sc(CO3)4
_symmetry_space_group_name_H-M   'P 1'
_cell_length_a   4.86317205
_cell_length_b   6.19728279
_cell_length_c   7.70673800
_cell_angle_alpha   73.72312927
_cell_angle_beta   89.75279236
_cell_angle_gamma   89.68064880
_symmetry_Int_Tables_number   1
_chemical_formula_structural   Lu3Sc(CO3)4
_chemical_formula_sum   'Lu3 Sc1 C4 O12'
_cell_volume   222.95508405
_cell_formula_units_Z   1
loop_
 _symmetry_equiv_pos_site_id
 _symmetry_equiv_pos_as_xyz
  1  'x, y, z'
loop_
 _atom_site_type_symbol
 _atom_site_label
 _atom_site_symmetry_multiplicity
 _atom_site_fract_x
 _atom_site_fract_y
 _atom_site_fract_z
 _atom_site_occupancy
  Sc  Sc0  1  0.31523600  0.24994099  0.50308900  1
  Lu  Lu1  1  0.68477099  0.75014098  0.49681701  1
  Lu  Lu2  1  0.31516300  0.24976499  0.00302001  1
  Lu  Lu3  1  0.68487399  0.75022598  0.99704300  1
  C  C4  1  0.81324800  0.24978799  0.25021600  1
  C  C5  1  0.81327800  0.24978399  0.75019799  1
  C  C6  1  0.18671399  0.75019598  0.24980101  1
  C  C7  1  0.18674899  0.75020898  0.74979301  1
  O  O8  1  0.08049100  0.24926299  0.25260600  1
  O  O9  1  0.08051300  0.24927099  0.75260299  1
  O  O10  1  0.91947600  0.75075098  0.24742501  1
  O  O11  1  0.91950200  0.75071798  0.74744601  1
  O  O12  1  0.67531600  0.11627200  0.38062800  1
  O  O13  1  0.67536500  0.11629100  0.88063299  1
  O  O14  1  0.32461099  0.88369497  0.11936902  1
  O  O15  1  0.32462899  0.88374097  0.61935701  1
  O  O16  1  0.31940899  0.61636198  0.38291601  1
  O  O17  1  0.31944499  0.61634098  0.88292700  1
  O  O18  1  0.68060500  0.38363799  0.11705801  1
  O  O19  1  0.68060700  0.38360499  0.61705300  1
