# generated using pymatgen
data_La3Te3Br
_symmetry_space_group_name_H-M   'P 1'
_cell_length_a   4.42203188
_cell_length_b   7.54379702
_cell_length_c   7.76245594
_cell_angle_alpha   107.84857941
_cell_angle_beta   90.00000000
_cell_angle_gamma   90.00000000
_symmetry_Int_Tables_number   1
_chemical_formula_structural   La3Te3Br
_chemical_formula_sum   'La3 Te3 Br1'
_cell_volume   246.48391716
_cell_formula_units_Z   1
loop_
 _symmetry_equiv_pos_site_id
 _symmetry_equiv_pos_as_xyz
  1  'x, y, z'
loop_
 _atom_site_type_symbol
 _atom_site_label
 _atom_site_symmetry_multiplicity
 _atom_site_fract_x
 _atom_site_fract_y
 _atom_site_fract_z
 _atom_site_occupancy
  La  La0  1  1.00000003  0.50000000  0.50000001  1
  La  La1  1  0.00000000  0.00000000  0.00000000  1
  La  La2  1  0.50000001  0.50000000  0.00000000  1
  Te  Te3  1  0.50000001  0.24016900  0.24490201  1
  Te  Te4  1  -0.00000000  0.74594900  0.23776601  1
  Te  Te5  1  0.50000001  0.75983100  0.75509802  1
  Br  Br6  1  1.00000003  0.25405100  0.76223402  1
