# generated using pymatgen
data_Zn7Te2Se
_symmetry_space_group_name_H-M   'P 1'
_cell_length_a   4.16481972
_cell_length_b   4.16481972
_cell_length_c   17.10643578
_cell_angle_alpha   83.00788879
_cell_angle_beta   83.00788879
_cell_angle_gamma   60.00000763
_symmetry_Int_Tables_number   1
_chemical_formula_structural   Zn7Te2Se
_chemical_formula_sum   'Zn7 Te2 Se1'
_cell_volume   254.41877705
_cell_formula_units_Z   1
loop_
 _symmetry_equiv_pos_site_id
 _symmetry_equiv_pos_as_xyz
  1  'x, y, z'
loop_
 _atom_site_type_symbol
 _atom_site_label
 _atom_site_symmetry_multiplicity
 _atom_site_fract_x
 _atom_site_fract_y
 _atom_site_fract_z
 _atom_site_occupancy
  Se  Se0  1  0.40044601  0.40044599  0.79866200  1
  Te  Te1  1  0.00132300  0.00132300  0.99603101  1
  Zn  Zn2  1  0.60018902  0.60018898  0.19943299  1
  Zn  Zn3  1  0.19973901  0.19973899  0.40078300  1
  Te  Te4  1  0.79814403  0.79814397  0.60556798  1
  Zn  Zn5  1  0.95080403  0.95080397  0.14758797  1
  Zn  Zn6  1  0.55001902  0.55001898  0.34994299  1
  Zn  Zn7  1  0.14932101  0.14932099  0.55203700  1
  Zn  Zn8  1  0.74724703  0.74724697  0.75825899  1
  Zn  Zn9  1  0.35276801  0.35276799  0.94169600  1
