# generated using pymatgen
data_La7AgTe10
_symmetry_space_group_name_H-M   'P 1'
_cell_length_a   6.27766800
_cell_length_b   9.51279640
_cell_length_c   9.51279640
_cell_angle_alpha   120.00000000
_cell_angle_beta   90.00000000
_cell_angle_gamma   90.00000000
_symmetry_Int_Tables_number   1
_chemical_formula_structural   La7AgTe10
_chemical_formula_sum   'La7 Ag1 Te10'
_cell_volume   491.97765629
_cell_formula_units_Z   1
loop_
 _symmetry_equiv_pos_site_id
 _symmetry_equiv_pos_as_xyz
  1  'x, y, z'
loop_
 _atom_site_type_symbol
 _atom_site_label
 _atom_site_symmetry_multiplicity
 _atom_site_fract_x
 _atom_site_fract_y
 _atom_site_fract_z
 _atom_site_occupancy
  La  La0  1  0.75000000  0.37995998  0.37995998  1
  La  La1  1  0.25000000  0.62003997  0.62003997  1
  La  La2  1  0.75000000  0.00000000  0.62003997  1
  La  La3  1  0.25000000  0.00000000  0.37995998  1
  La  La4  1  0.75000000  0.62003997  0.99999996  1
  La  La5  1  0.25000000  0.37995998  0.00000000  1
  La  La6  1  0.00000000  0.00000000  0.00000000  1
  Ag  Ag7  1  0.50000000  0.00000000  -0.00000000  1
  Te  Te8  1  0.75000000  0.74054397  0.74054397  1
  Te  Te9  1  0.25000000  0.25945599  0.25945599  1
  Te  Te10  1  0.75000000  0.00000000  0.25945599  1
  Te  Te11  1  0.25000000  0.99999996  0.74054397  1
  Te  Te12  1  0.75000000  0.25945599  0.99999996  1
  Te  Te13  1  0.25000000  0.74054397  0.99999996  1
  Te  Te14  1  0.00000000  0.66666664  0.33333332  1
  Te  Te15  1  1.00000000  0.33333332  0.66666664  1
  Te  Te16  1  0.50000000  0.33333332  0.66666664  1
  Te  Te17  1  0.50000000  0.66666664  0.33333332  1
