# generated using pymatgen
data_ZrPd
_symmetry_space_group_name_H-M   'P 1'
_cell_length_a   4.02320814
_cell_length_b   5.63273001
_cell_length_c   6.91270638
_cell_angle_alpha   114.04277802
_cell_angle_beta   106.91789246
_cell_angle_gamma   90.00000000
_symmetry_Int_Tables_number   1
_chemical_formula_structural   ZrPd
_chemical_formula_sum   'Zr3 Pd3'
_cell_volume   135.60499187
_cell_formula_units_Z   3
loop_
 _symmetry_equiv_pos_site_id
 _symmetry_equiv_pos_as_xyz
  1  'x, y, z'
loop_
 _atom_site_type_symbol
 _atom_site_label
 _atom_site_symmetry_multiplicity
 _atom_site_fract_x
 _atom_site_fract_y
 _atom_site_fract_z
 _atom_site_occupancy
  Zr  Zr0  1  0.66474199  0.16474200  0.32948402  1
  Zr  Zr1  1  0.00000002  0.50000001  0.00000001  1
  Zr  Zr2  1  0.33525803  0.83525801  0.67051604  1
  Pd  Pd3  1  0.00000000  0.00000000  0.00000000  1
  Pd  Pd4  1  0.33342301  0.33342300  0.66684602  1
  Pd  Pd5  1  0.66657701  0.66657701  0.33315404  1
