# generated using pymatgen
data_Mg7Ag
_symmetry_space_group_name_H-M   'P 1'
_cell_length_a   4.62574482
_cell_length_b   6.23658419
_cell_length_c   6.23658466
_cell_angle_alpha   120.00000000
_cell_angle_beta   90.00000000
_cell_angle_gamma   90.00000000
_symmetry_Int_Tables_number   1
_chemical_formula_structural   Mg7Ag
_chemical_formula_sum   'Mg7 Ag1'
_cell_volume   155.81379824
_cell_formula_units_Z   1
loop_
 _symmetry_equiv_pos_site_id
 _symmetry_equiv_pos_as_xyz
  1  'x, y, z'
loop_
 _atom_site_type_symbol
 _atom_site_label
 _atom_site_symmetry_multiplicity
 _atom_site_fract_x
 _atom_site_fract_y
 _atom_site_fract_z
 _atom_site_occupancy
  Mg  Mg0  1  0.75000003  0.33333334  0.66666670  1
  Ag  Ag1  1  0.25000001  0.66666667  0.33333339  1
  Mg  Mg2  1  0.25000001  0.14826600  0.29653201  1
  Mg  Mg3  1  0.25000001  0.70346801  0.85173406  1
  Mg  Mg4  1  0.25000001  0.14826600  0.85173402  1
  Mg  Mg5  1  0.75000003  0.85173401  0.70346807  1
  Mg  Mg6  1  0.75000003  0.29653200  0.14826602  1
  Mg  Mg7  1  0.75000003  0.85173401  0.14826607  1
