# generated using pymatgen
data_CePr3Ag8
_symmetry_space_group_name_H-M   'P 1'
_cell_length_a   4.69267178
_cell_length_b   7.54551506
_cell_length_c   8.01150322
_cell_angle_alpha   90.00000000
_cell_angle_beta   90.00000000
_cell_angle_gamma   90.00000000
_symmetry_Int_Tables_number   1
_chemical_formula_structural   CePr3Ag8
_chemical_formula_sum   'Ce1 Pr3 Ag8'
_cell_volume   283.67631766
_cell_formula_units_Z   1
loop_
 _symmetry_equiv_pos_site_id
 _symmetry_equiv_pos_as_xyz
  1  'x, y, z'
loop_
 _atom_site_type_symbol
 _atom_site_label
 _atom_site_symmetry_multiplicity
 _atom_site_fract_x
 _atom_site_fract_y
 _atom_site_fract_z
 _atom_site_occupancy
  Ce  Ce0  1  0.25000001  0.00523600  0.30167699  1
  Pr  Pr1  1  0.25000001  0.50523600  0.19832299  1
  Pr  Pr2  1  0.75000004  0.99476399  0.69832298  1
  Pr  Pr3  1  0.75000004  0.49476400  0.80167698  1
  Ag  Ag4  1  0.25000001  0.67658399  0.58046998  1
  Ag  Ag5  1  0.25000001  0.17658400  0.91952997  1
  Ag  Ag6  1  0.75000004  0.32341600  0.41952999  1
  Ag  Ag7  1  0.75000004  0.82341599  0.08047000  1
  Ag  Ag8  1  0.25000001  0.29609000  0.59397798  1
  Ag  Ag9  1  0.25000001  0.79608999  0.90602198  1
  Ag  Ag10  1  0.75000004  0.70390999  0.40602199  1
  Ag  Ag11  1  0.75000004  0.20391000  0.09397800  1
