# generated using pymatgen
data_La3(MgGe)4
_symmetry_space_group_name_H-M   'P 1'
_cell_length_a   4.73127794
_cell_length_b   7.43149614
_cell_length_c   8.99606705
_cell_angle_alpha   114.39603424
_cell_angle_beta   105.24598694
_cell_angle_gamma   90.00000000
_symmetry_Int_Tables_number   1
_chemical_formula_structural   La3(MgGe)4
_chemical_formula_sum   'La3 Mg4 Ge4'
_cell_volume   275.79395299
_cell_formula_units_Z   1
loop_
 _symmetry_equiv_pos_site_id
 _symmetry_equiv_pos_as_xyz
  1  'x, y, z'
loop_
 _atom_site_type_symbol
 _atom_site_label
 _atom_site_symmetry_multiplicity
 _atom_site_fract_x
 _atom_site_fract_y
 _atom_site_fract_z
 _atom_site_occupancy
  La  La0  1  -0.00000002  0.49999999  -0.00000000  1
  La  La1  1  0.12934099  0.12934100  0.25868199  1
  La  La2  1  0.87065896  0.87065898  0.74131794  1
  Mg  Mg3  1  0.32971197  0.52418199  0.65942297  1
  Mg  Mg4  1  0.32971099  0.13524100  0.65942197  1
  Mg  Mg5  1  0.67028896  0.86475898  0.34057796  1
  Mg  Mg6  1  0.67028797  0.47581799  0.34057696  1
  Ge  Ge7  1  0.21499097  0.71499098  0.42998197  1
  Ge  Ge8  1  0.78500898  0.28500899  0.57001796  1
  Ge  Ge9  1  0.49999999  0.19389600  -0.00000002  1
  Ge  Ge10  1  0.49999996  0.80610398  0.99999995  1
