# generated using pymatgen
data_RbLi3As2
_symmetry_space_group_name_H-M   'P 1'
_cell_length_a   4.37754011
_cell_length_b   8.44943619
_cell_length_c   9.16837120
_cell_angle_alpha   112.18885803
_cell_angle_beta   90.00000000
_cell_angle_gamma   105.01330566
_symmetry_Int_Tables_number   1
_chemical_formula_structural   RbLi3As2
_chemical_formula_sum   'Rb2 Li6 As4'
_cell_volume   301.46541947
_cell_formula_units_Z   2
loop_
 _symmetry_equiv_pos_site_id
 _symmetry_equiv_pos_as_xyz
  1  'x, y, z'
loop_
 _atom_site_type_symbol
 _atom_site_label
 _atom_site_symmetry_multiplicity
 _atom_site_fract_x
 _atom_site_fract_y
 _atom_site_fract_z
 _atom_site_occupancy
  Rb  Rb0  1  0.86454704  0.72909403  0.95683098  1
  Rb  Rb1  1  0.13545302  0.27090601  0.04316900  1
  Li  Li2  1  0.94167605  0.88335204  0.59856998  1
  Li  Li3  1  0.05832401  0.11664801  0.40142999  1
  Li  Li4  1  0.59584000  0.19168001  0.64647399  1
  Li  Li5  1  0.40416006  0.80832004  0.35352598  1
  Li  Li6  1  0.31180205  0.62360403  0.58211998  1
  Li  Li7  1  0.68819802  0.37639602  0.41787999  1
  As  As8  1  0.19163303  0.38326602  0.68526598  1
  As  As9  1  0.80836703  0.61673403  0.31473399  1
  As  As10  1  0.47833107  0.95666204  0.76472197  1
  As  As11  1  0.52166899  0.04333800  0.23527800  1
