# generated using pymatgen
data_LuBiSeO2
_symmetry_space_group_name_H-M   'P 1'
_cell_length_a   3.88984609
_cell_length_b   3.90356994
_cell_length_c   7.27064753
_cell_angle_alpha   105.57188416
_cell_angle_beta   105.51576233
_cell_angle_gamma   90.00000000
_symmetry_Int_Tables_number   1
_chemical_formula_structural   LuBiSeO2
_chemical_formula_sum   'Lu1 Bi1 Se1 O2'
_cell_volume   102.16455084
_cell_formula_units_Z   1
loop_
 _symmetry_equiv_pos_site_id
 _symmetry_equiv_pos_as_xyz
  1  'x, y, z'
loop_
 _atom_site_type_symbol
 _atom_site_label
 _atom_site_symmetry_multiplicity
 _atom_site_fract_x
 _atom_site_fract_y
 _atom_site_fract_z
 _atom_site_occupancy
  Lu  Lu0  1  0.65165000  0.66385700  0.32771402  1
  Bi  Bi1  1  0.32393600  0.33614300  0.67228502  1
  Se  Se2  1  0.96780400  0.00000000  1.00000007  1
  O  O3  1  0.73593800  0.24983300  0.49966604  1
  O  O4  1  0.23627200  0.75016700  0.50033401  1
