# generated using pymatgen
data_Cd2P2O7
_symmetry_space_group_name_H-M   'P 1'
_cell_length_a   4.75012064
_cell_length_b   5.72453070
_cell_length_c   5.72453070
_cell_angle_alpha   105.73343658
_cell_angle_beta   97.45420074
_cell_angle_gamma   97.45420074
_symmetry_Int_Tables_number   1
_chemical_formula_structural   Cd2P2O7
_chemical_formula_sum   'Cd2 P2 O7'
_cell_volume   146.32965121
_cell_formula_units_Z   1
loop_
 _symmetry_equiv_pos_site_id
 _symmetry_equiv_pos_as_xyz
  1  'x, y, z'
loop_
 _atom_site_type_symbol
 _atom_site_label
 _atom_site_symmetry_multiplicity
 _atom_site_fract_x
 _atom_site_fract_y
 _atom_site_fract_z
 _atom_site_occupancy
  Cd  Cd0  1  0.50000000  0.29674998  0.70324996  1
  Cd  Cd1  1  0.49999999  0.92278195  0.07721796  1
  P  P2  1  0.91327100  0.80505196  0.60711294  1
  P  P3  1  0.08672900  0.39288698  0.19494798  1
  O  O4  1  0.20139099  0.97223895  0.74629393  1
  O  O5  1  0.73667100  0.94423295  0.46692494  1
  O  O6  1  0.74002900  0.68509697  0.76772694  1
  O  O7  1  0.25997100  0.23227299  0.31490298  1
  O  O8  1  0.79860901  0.25370599  0.02776099  1
  O  O9  1  1.00000001  0.57763897  0.42236096  1
  O  O10  1  0.26332900  0.53307497  0.05576697  1
