# generated using pymatgen
data_Zr4Mn(SnPd)6
_symmetry_space_group_name_H-M   'P 1'
_cell_length_a   7.41283798
_cell_length_b   7.41283798
_cell_length_c   7.41283798
_cell_angle_alpha   109.47122192
_cell_angle_beta   109.47122192
_cell_angle_gamma   109.47122192
_symmetry_Int_Tables_number   1
_chemical_formula_structural   Zr4Mn(SnPd)6
_chemical_formula_sum   'Zr4 Mn1 Sn6 Pd6'
_cell_volume   313.56791111
_cell_formula_units_Z   1
loop_
 _symmetry_equiv_pos_site_id
 _symmetry_equiv_pos_as_xyz
  1  'x, y, z'
loop_
 _atom_site_type_symbol
 _atom_site_label
 _atom_site_symmetry_multiplicity
 _atom_site_fract_x
 _atom_site_fract_y
 _atom_site_fract_z
 _atom_site_occupancy
  Zr  Zr0  1  0.50000004  0.50000002  0.50000004  1
  Zr  Zr1  1  1.00000004  0.50000002  0.00000005  1
  Zr  Zr2  1  0.00000000  0.00000000  0.50000000  1
  Zr  Zr3  1  0.50000007  1.00000004  1.00000007  1
  Pd  Pd4  1  0.50000005  0.75000003  0.25000005  1
  Pd  Pd5  1  0.75000002  0.25000001  0.50000003  1
  Pd  Pd6  1  0.25000003  0.50000002  0.75000003  1
  Pd  Pd7  1  0.25000005  0.75000003  0.50000005  1
  Pd  Pd8  1  0.50000002  0.25000001  0.75000002  1
  Pd  Pd9  1  0.75000004  0.50000002  0.25000005  1
  Sn  Sn10  1  0.00000005  0.71640203  0.71640204  1
  Sn  Sn11  1  0.71640205  0.71640203  1.00000006  1
  Sn  Sn12  1  0.71640207  1.00000004  0.71640207  1
  Sn  Sn13  1  0.00000002  0.28359801  0.28359802  1
  Sn  Sn14  1  0.28359802  0.28359801  1.00000002  1
  Sn  Sn15  1  0.28359807  1.00000004  0.28359806  1
  Mn  Mn16  1  0.00000000  0.00000000  0.00000000  1
