# generated using pymatgen
data_Gd(CoB)2
_symmetry_space_group_name_H-M   'P 1'
_cell_length_a   4.97205448
_cell_length_b   4.97205448
_cell_length_c   6.08377171
_cell_angle_alpha   102.62871552
_cell_angle_beta   104.19842529
_cell_angle_gamma   115.61737061
_symmetry_Int_Tables_number   1
_chemical_formula_structural   Gd(CoB)2
_chemical_formula_sum   'Gd2 Co4 B4'
_cell_volume   122.06714359
_cell_formula_units_Z   2
loop_
 _symmetry_equiv_pos_site_id
 _symmetry_equiv_pos_as_xyz
  1  'x, y, z'
loop_
 _atom_site_type_symbol
 _atom_site_label
 _atom_site_symmetry_multiplicity
 _atom_site_fract_x
 _atom_site_fract_y
 _atom_site_fract_z
 _atom_site_occupancy
  Gd  Gd0  1  0.86810799  0.11810800  0.75000001  1
  Gd  Gd1  1  0.13189199  0.88189197  0.24999997  1
  Co  Co2  1  0.47913599  0.53207398  0.19978499  1
  Co  Co3  1  0.52086399  0.46792598  0.80021499  1
  Co  Co4  1  0.83228899  0.27935099  0.30021501  1
  Co  Co5  1  0.16771099  0.72064897  0.69978497  1
  B  B6  1  0.32147299  0.50481398  0.47569099  1
  B  B7  1  0.67852699  0.49518598  0.52430900  1
  B  B8  1  0.52912299  0.84578197  0.02430898  1
  B  B9  1  0.47087699  0.15421799  0.97569100  1
