# generated using pymatgen
data_ZrAl5Ni
_symmetry_space_group_name_H-M   'P 1'
_cell_length_a   3.99595404
_cell_length_b   3.99595404
_cell_length_c   7.16021919
_cell_angle_alpha   90.00000000
_cell_angle_beta   90.00000000
_cell_angle_gamma   90.00000000
_symmetry_Int_Tables_number   1
_chemical_formula_structural   ZrAl5Ni
_chemical_formula_sum   'Zr1 Al5 Ni1'
_cell_volume   114.33186442
_cell_formula_units_Z   1
loop_
 _symmetry_equiv_pos_site_id
 _symmetry_equiv_pos_as_xyz
  1  'x, y, z'
loop_
 _atom_site_type_symbol
 _atom_site_label
 _atom_site_symmetry_multiplicity
 _atom_site_fract_x
 _atom_site_fract_y
 _atom_site_fract_z
 _atom_site_occupancy
  Zr  Zr0  1  0.00000000  0.00000000  0.00000000  1
  Ni  Ni1  1  0.50000000  0.50000000  0.49999999  1
  Al  Al2  1  0.50000000  0.50000000  -0.00000000  1
  Al  Al3  1  0.50000000  0.00000000  0.70033198  1
  Al  Al4  1  0.00000000  0.50000000  0.70033198  1
  Al  Al5  1  0.50000000  0.00000000  0.29966799  1
  Al  Al6  1  0.00000000  0.50000000  0.29966799  1
