# generated using pymatgen
data_LuFe2Si2Ir
_symmetry_space_group_name_H-M   'P 1'
_cell_length_a   3.94479394
_cell_length_b   5.08874798
_cell_length_c   5.08874798
_cell_angle_alpha   120.00000000
_cell_angle_beta   90.00000000
_cell_angle_gamma   90.00000000
_symmetry_Int_Tables_number   1
_chemical_formula_structural   LuFe2Si2Ir
_chemical_formula_sum   'Lu1 Fe2 Si2 Ir1'
_cell_volume   88.46609139
_cell_formula_units_Z   1
loop_
 _symmetry_equiv_pos_site_id
 _symmetry_equiv_pos_as_xyz
  1  'x, y, z'
loop_
 _atom_site_type_symbol
 _atom_site_label
 _atom_site_symmetry_multiplicity
 _atom_site_fract_x
 _atom_site_fract_y
 _atom_site_fract_z
 _atom_site_occupancy
  Lu  Lu0  1  0.00000000  0.00000000  0.00000000  1
  Si  Si1  1  0.00000000  0.66666667  0.33333334  1
  Si  Si2  1  1.00000002  0.33333333  0.66666667  1
  Ir  Ir3  1  0.50000001  0.50000000  0.50000000  1
  Fe  Fe4  1  0.50000001  0.50000000  0.00000001  1
  Fe  Fe5  1  0.50000001  1.00000000  0.50000001  1
