# generated using pymatgen
data_Ho3Co13B2
_symmetry_space_group_name_H-M   'P 1'
_cell_length_a   4.92826414
_cell_length_b   4.92826319
_cell_length_c   10.90637398
_cell_angle_alpha   90.00000000
_cell_angle_beta   90.00000000
_cell_angle_gamma   120.00000763
_symmetry_Int_Tables_number   1
_chemical_formula_structural   Ho3Co13B2
_chemical_formula_sum   'Ho3 Co13 B2'
_cell_volume   229.40287332
_cell_formula_units_Z   1
loop_
 _symmetry_equiv_pos_site_id
 _symmetry_equiv_pos_as_xyz
  1  'x, y, z'
loop_
 _atom_site_type_symbol
 _atom_site_label
 _atom_site_symmetry_multiplicity
 _atom_site_fract_x
 _atom_site_fract_y
 _atom_site_fract_z
 _atom_site_occupancy
  Ho  Ho0  1  0.00000000  0.00000000  0.00000000  1
  Ho  Ho1  1  0.00000000  0.00000000  0.67229200  1
  Ho  Ho2  1  0.00000000  0.00000000  0.32770800  1
  Co  Co3  1  0.50000001  0.50000002  0.50000000  1
  Co  Co4  1  0.49999999  0.00000000  0.50000000  1
  Co  Co5  1  1.00000000  0.50000002  0.50000000  1
  Co  Co6  1  0.66666667  0.33333335  0.68107600  1
  Co  Co7  1  0.33333336  0.66666670  0.68107600  1
  Co  Co8  1  0.33333336  0.66666670  0.31892400  1
  Co  Co9  1  0.66666667  0.33333335  0.31892400  1
  Co  Co10  1  0.50000001  0.50000002  0.86655100  1
  Co  Co11  1  0.49999999  0.00000000  0.86655100  1
  Co  Co12  1  1.00000000  0.50000002  0.86655100  1
  Co  Co13  1  0.50000001  0.50000002  0.13344900  1
  Co  Co14  1  0.49999999  0.00000000  0.13344900  1
  Co  Co15  1  1.00000000  0.50000002  0.13344900  1
  B  B16  1  0.66666667  0.33333335  -0.00000000  1
  B  B17  1  0.33333336  0.66666670  -0.00000000  1
