# generated using pymatgen
data_RbNbCrSe2
_symmetry_space_group_name_H-M   'P 1'
_cell_length_a   4.26514006
_cell_length_b   4.26514006
_cell_length_c   7.27756596
_cell_angle_alpha   107.03964996
_cell_angle_beta   107.03964996
_cell_angle_gamma   90.00000000
_symmetry_Int_Tables_number   1
_chemical_formula_structural   RbNbCrSe2
_chemical_formula_sum   'Rb1 Nb1 Cr1 Se2'
_cell_volume   120.48606756
_cell_formula_units_Z   1
loop_
 _symmetry_equiv_pos_site_id
 _symmetry_equiv_pos_as_xyz
  1  'x, y, z'
loop_
 _atom_site_type_symbol
 _atom_site_label
 _atom_site_symmetry_multiplicity
 _atom_site_fract_x
 _atom_site_fract_y
 _atom_site_fract_z
 _atom_site_occupancy
  Rb  Rb0  1  0.00000000  0.00000000  0.00000000  1
  Nb  Nb1  1  0.74999999  0.25000000  0.49999999  1
  Cr  Cr2  1  0.25000000  0.74999999  0.49999999  1
  Se  Se3  1  0.63495599  0.63495599  0.26991200  1
  Se  Se4  1  0.36504400  0.36504400  0.73008799  1
