# generated using pymatgen
data_Ce2AlPt2
_symmetry_space_group_name_H-M   'P 1'
_cell_length_a   4.58687401
_cell_length_b   6.82302904
_cell_length_c   6.82302904
_cell_angle_alpha   90.00000000
_cell_angle_beta   90.00000000
_cell_angle_gamma   90.00000000
_symmetry_Int_Tables_number   1
_chemical_formula_structural   Ce2AlPt2
_chemical_formula_sum   'Ce4 Al2 Pt4'
_cell_volume   213.53607255
_cell_formula_units_Z   2
loop_
 _symmetry_equiv_pos_site_id
 _symmetry_equiv_pos_as_xyz
  1  'x, y, z'
loop_
 _atom_site_type_symbol
 _atom_site_label
 _atom_site_symmetry_multiplicity
 _atom_site_fract_x
 _atom_site_fract_y
 _atom_site_fract_z
 _atom_site_occupancy
  Ce  Ce0  1  0.50000000  0.32532800  0.82532800  1
  Ce  Ce1  1  0.50000000  0.82532800  0.67467200  1
  Ce  Ce2  1  0.50000000  0.17467200  0.32532800  1
  Ce  Ce3  1  0.50000000  0.67467200  0.17467200  1
  Al  Al4  1  0.00000000  0.50000000  0.50000000  1
  Al  Al5  1  0.00000000  0.00000000  0.00000000  1
  Pt  Pt6  1  0.00000000  0.62379400  0.87620599  1
  Pt  Pt7  1  0.00000000  0.87620599  0.37620600  1
  Pt  Pt8  1  0.00000000  0.37620600  0.12379400  1
  Pt  Pt9  1  0.00000000  0.12379400  0.62379400  1
