# generated using pymatgen
data_Ni
_symmetry_space_group_name_H-M   'P 1'
_cell_length_a   4.02774620
_cell_length_b   4.98557997
_cell_length_c   4.98557901
_cell_angle_alpha   120.00000763
_cell_angle_beta   90.00000000
_cell_angle_gamma   90.00000000
_symmetry_Int_Tables_number   1
_chemical_formula_structural   Ni
_chemical_formula_sum   Ni8
_cell_volume   86.70097575
_cell_formula_units_Z   8
loop_
 _symmetry_equiv_pos_site_id
 _symmetry_equiv_pos_as_xyz
  1  'x, y, z'
loop_
 _atom_site_type_symbol
 _atom_site_label
 _atom_site_symmetry_multiplicity
 _atom_site_fract_x
 _atom_site_fract_y
 _atom_site_fract_z
 _atom_site_occupancy
  Ni  Ni0  1  0.74999996  0.83385502  0.16614504  1
  Ni  Ni1  1  0.24999999  0.16614500  0.33229002  1
  Ni  Ni2  1  0.24999999  0.66771002  0.83385506  1
  Ni  Ni3  1  0.24999999  0.16614500  0.83385504  1
  Ni  Ni4  1  0.74999996  0.83385502  0.66771006  1
  Ni  Ni5  1  0.74999996  0.33229001  0.16614502  1
  Ni  Ni6  1  0.74999996  0.33333334  0.66666671  1
  Ni  Ni7  1  0.24999999  0.66666669  0.33333338  1
