# generated using pymatgen
data_ErCu2
_symmetry_space_group_name_H-M   'P 1'
_cell_length_a   5.07120800
_cell_length_b   5.12158108
_cell_length_c   5.12158108
_cell_angle_alpha   61.17039490
_cell_angle_beta   60.32482529
_cell_angle_gamma   60.32482529
_symmetry_Int_Tables_number   1
_chemical_formula_structural   ErCu2
_chemical_formula_sum   'Er2 Cu4'
_cell_volume   95.33498075
_cell_formula_units_Z   2
loop_
 _symmetry_equiv_pos_site_id
 _symmetry_equiv_pos_as_xyz
  1  'x, y, z'
loop_
 _atom_site_type_symbol
 _atom_site_label
 _atom_site_symmetry_multiplicity
 _atom_site_fract_x
 _atom_site_fract_y
 _atom_site_fract_z
 _atom_site_occupancy
  Er  Er0  1  0.12720600  0.12279401  0.62279403  1
  Er  Er1  1  0.87279400  0.87720604  0.37720601  1
  Cu  Cu2  1  1.00000000  0.50000002  1.00000003  1
  Cu  Cu3  1  0.50000000  0.50000002  -0.00000000  1
  Cu  Cu4  1  0.50000000  0.50000002  0.50000002  1
  Cu  Cu5  1  0.50000000  1.00000005  1.00000004  1
