# generated using pymatgen
data_K2Mn4O7
_symmetry_space_group_name_H-M   'P 1'
_cell_length_a   5.30839205
_cell_length_b   5.30839157
_cell_length_c   6.98524284
_cell_angle_alpha   90.00000000
_cell_angle_beta   90.00000000
_cell_angle_gamma   120.00000000
_symmetry_Int_Tables_number   1
_chemical_formula_structural   K2Mn4O7
_chemical_formula_sum   'K2 Mn4 O7'
_cell_volume   170.46612210
_cell_formula_units_Z   1
loop_
 _symmetry_equiv_pos_site_id
 _symmetry_equiv_pos_as_xyz
  1  'x, y, z'
loop_
 _atom_site_type_symbol
 _atom_site_label
 _atom_site_symmetry_multiplicity
 _atom_site_fract_x
 _atom_site_fract_y
 _atom_site_fract_z
 _atom_site_occupancy
  K  K0  1  0.66666665  0.33333334  -0.00000000  1
  K  K1  1  0.33333331  0.66666667  1.00000002  1
  Mn  Mn2  1  0.00000000  0.00000000  0.72862802  1
  Mn  Mn3  1  0.00000000  0.00000000  0.27137201  1
  Mn  Mn4  1  0.66666665  0.33333334  0.50000001  1
  Mn  Mn5  1  0.33333331  0.66666667  0.50000001  1
  O  O6  1  0.99999997  0.64732901  0.66394501  1
  O  O7  1  -0.00000001  0.35267100  0.33605501  1
  O  O8  1  0.00000000  0.00000000  0.00000000  1
  O  O9  1  0.64732896  1.00000001  0.66394501  1
  O  O10  1  0.35267096  1.00000001  0.33605501  1
  O  O11  1  0.64732897  0.64732901  0.33605501  1
  O  O12  1  0.35267098  0.35267100  0.66394501  1
