# generated using pymatgen
data_In9Cu2Te7Se2
_symmetry_space_group_name_H-M   'P 1'
_cell_length_a   7.05114317
_cell_length_b   7.35710812
_cell_length_c   11.50451756
_cell_angle_alpha   90.00000000
_cell_angle_beta   90.00000000
_cell_angle_gamma   90.00000000
_symmetry_Int_Tables_number   1
_chemical_formula_structural   In9Cu2Te7Se2
_chemical_formula_sum   'In9 Cu2 Te7 Se2'
_cell_volume   596.80861315
_cell_formula_units_Z   1
loop_
 _symmetry_equiv_pos_site_id
 _symmetry_equiv_pos_as_xyz
  1  'x, y, z'
loop_
 _atom_site_type_symbol
 _atom_site_label
 _atom_site_symmetry_multiplicity
 _atom_site_fract_x
 _atom_site_fract_y
 _atom_site_fract_z
 _atom_site_occupancy
  Te  Te0  1  0.41247599  0.59676699  0.15910601  1
  Te  Te1  1  0.58752399  0.09676700  0.15910601  1
  Te  Te2  1  0.08752400  0.09676700  0.34089401  1
  Te  Te3  1  0.91247598  0.59676699  0.34089401  1
  Te  Te4  1  0.08752400  0.40323299  0.65910603  1
  Te  Te5  1  0.91247598  0.90323299  0.65910603  1
  In  In6  1  0.41247599  0.90323299  0.84089403  1
  Te  Te7  1  0.58752399  0.40323299  0.84089403  1
  In  In8  1  0.02670600  0.25000000  -0.00000000  1
  Cu  Cu9  1  0.97329398  0.74999999  -0.00000000  1
  Se  Se10  1  0.47329399  0.74999999  0.50000002  1
  Se  Se11  1  0.52670599  0.25000000  0.50000002  1
  In  In12  1  0.19308000  0.97542798  0.10582800  1
  In  In13  1  0.80691998  0.47542799  0.10582800  1
  In  In14  1  0.30691999  0.47542799  0.39417202  1
  In  In15  1  0.69307998  0.97542798  0.39417202  1
  In  In16  1  0.30691999  0.02457200  0.60582802  1
  In  In17  1  0.69307998  0.52457199  0.60582802  1
  In  In18  1  0.19308000  0.52457199  0.89417203  1
  Cu  Cu19  1  0.80691998  0.02457200  0.89417203  1
