# generated using pymatgen
data_Mg4CrBS14
_symmetry_space_group_name_H-M   'P 1'
_cell_length_a   6.82000208
_cell_length_b   6.82000208
_cell_length_c   6.82000208
_cell_angle_alpha   90.00000000
_cell_angle_beta   90.00000000
_cell_angle_gamma   90.00000000
_symmetry_Int_Tables_number   1
_chemical_formula_structural   Mg4CrBS14
_chemical_formula_sum   'Mg4 Cr1 B1 S14'
_cell_volume   317.21485810
_cell_formula_units_Z   1
loop_
 _symmetry_equiv_pos_site_id
 _symmetry_equiv_pos_as_xyz
  1  'x, y, z'
loop_
 _atom_site_type_symbol
 _atom_site_label
 _atom_site_symmetry_multiplicity
 _atom_site_fract_x
 _atom_site_fract_y
 _atom_site_fract_z
 _atom_site_occupancy
  Cr  Cr0  1  0.07848600  0.07848600  0.07848600  1
  Mg  Mg1  1  0.42151400  0.92151399  0.57848599  1
  Mg  Mg2  1  0.57848599  0.42151400  0.92151399  1
  Mg  Mg3  1  0.92151399  0.57848599  0.42151400  1
  B  B4  1  0.40433300  0.40433300  0.40433300  1
  S  S5  1  0.09566700  0.59566699  0.90433299  1
  S  S6  1  0.90433299  0.09566700  0.59566699  1
  Mg  Mg7  1  0.59566699  0.90433299  0.09566700  1
  S  S8  1  0.21472100  0.40125500  0.00184700  1
  S  S9  1  0.71472099  0.09874500  0.99815299  1
  S  S10  1  0.78527899  0.90125499  0.49815299  1
  S  S11  1  0.09874500  0.99815299  0.71472099  1
  S  S12  1  0.49815299  0.78527899  0.90125499  1
  S  S13  1  0.99815299  0.71472099  0.09874500  1
  S  S14  1  0.40125500  0.00184700  0.21472100  1
  S  S15  1  0.00184700  0.21472100  0.40125500  1
  S  S16  1  0.28527900  0.59874499  0.50184699  1
  S  S17  1  0.50184699  0.28527900  0.59874499  1
  S  S18  1  0.59874499  0.50184699  0.28527900  1
  S  S19  1  0.90125499  0.49815299  0.78527899  1
