# generated using pymatgen
data_Ce2Ge5Pd2
_symmetry_space_group_name_H-M   'P 1'
_cell_length_a   4.02877998
_cell_length_b   4.09596586
_cell_length_c   11.19111347
_cell_angle_alpha   90.00000000
_cell_angle_beta   100.36970520
_cell_angle_gamma   90.00000000
_symmetry_Int_Tables_number   1
_chemical_formula_structural   Ce2Ge5Pd2
_chemical_formula_sum   'Ce2 Ge5 Pd2'
_cell_volume   181.65660106
_cell_formula_units_Z   1
loop_
 _symmetry_equiv_pos_site_id
 _symmetry_equiv_pos_as_xyz
  1  'x, y, z'
loop_
 _atom_site_type_symbol
 _atom_site_label
 _atom_site_symmetry_multiplicity
 _atom_site_fract_x
 _atom_site_fract_y
 _atom_site_fract_z
 _atom_site_occupancy
  Ce  Ce0  1  0.33820100  0.00000000  0.67640203  1
  Ce  Ce1  1  0.99812600  0.00000000  0.99625204  1
  Pd  Pd2  1  0.21219400  0.50000002  0.42438802  1
  Ge  Ge3  1  0.09818100  0.50000002  0.19636201  1
  Ge  Ge4  1  0.88993800  0.50000002  0.77987603  1
  Ge  Ge5  1  0.71366500  0.00000000  0.42733002  1
  Pd  Pd6  1  0.59985200  0.00000000  0.19970401  1
  Ge  Ge7  1  0.46232500  0.50000002  0.92465004  1
  Ge  Ge8  1  0.77951800  0.50000002  0.55903602  1
