# generated using pymatgen
data_Li8TeO6
_symmetry_space_group_name_H-M   'P 1'
_cell_length_a   5.72660208
_cell_length_b   5.72660208
_cell_length_c   6.51694489
_cell_angle_alpha   63.93679047
_cell_angle_beta   63.93679047
_cell_angle_gamma   59.99999619
_symmetry_Int_Tables_number   1
_chemical_formula_structural   Li8TeO6
_chemical_formula_sum   'Li8 Te1 O6'
_cell_volume   159.49618567
_cell_formula_units_Z   1
loop_
 _symmetry_equiv_pos_site_id
 _symmetry_equiv_pos_as_xyz
  1  'x, y, z'
loop_
 _atom_site_type_symbol
 _atom_site_label
 _atom_site_symmetry_multiplicity
 _atom_site_fract_x
 _atom_site_fract_y
 _atom_site_fract_z
 _atom_site_occupancy
  Li  Li0  1  0.37125898  0.37125901  0.88622302  1
  Li  Li1  1  0.50052496  0.90471602  0.37301904  1
  Li  Li2  1  0.22173998  0.50052501  0.37301902  1
  Li  Li3  1  0.90471600  0.22174001  0.37301903  1
  Li  Li4  1  0.49947500  0.09528400  0.62698101  1
  Li  Li5  1  0.77825998  0.49947501  0.62698103  1
  Li  Li6  1  0.62874097  0.62874102  0.11377704  1
  Li  Li7  1  0.09528396  0.77826002  0.62698103  1
  Te  Te8  1  0.00000000  0.00000000  0.00000000  1
  O  O9  1  0.24398896  0.88622202  0.26920604  1
  O  O10  1  0.11377798  0.39941701  0.73079401  1
  O  O11  1  0.75601100  0.11377800  0.73079402  1
  O  O12  1  0.60058299  0.24398901  0.26920602  1
  O  O13  1  0.88622197  0.60058302  0.26920604  1
  O  O14  1  0.39941696  0.75601102  0.73079403  1
