# generated using pymatgen
data_Ce(NiPd5)2
_symmetry_space_group_name_H-M   'P 1'
_cell_length_a   5.18307209
_cell_length_b   6.72131586
_cell_length_c   6.72131586
_cell_angle_alpha   81.45048523
_cell_angle_beta   67.32088470
_cell_angle_gamma   67.32088470
_symmetry_Int_Tables_number   1
_chemical_formula_structural   Ce(NiPd5)2
_chemical_formula_sum   'Ce1 Ni2 Pd10'
_cell_volume   199.34109684
_cell_formula_units_Z   1
loop_
 _symmetry_equiv_pos_site_id
 _symmetry_equiv_pos_as_xyz
  1  'x, y, z'
loop_
 _atom_site_type_symbol
 _atom_site_label
 _atom_site_symmetry_multiplicity
 _atom_site_fract_x
 _atom_site_fract_y
 _atom_site_fract_z
 _atom_site_occupancy
  Ce  Ce0  1  0.00000000  0.00000000  0.00000000  1
  Pd  Pd1  1  0.00000000  0.50000000  -0.00000002  1
  Ni  Ni2  1  0.50000000  0.50000000  -0.00000002  1
  Ni  Ni3  1  0.49999999  0.00000000  0.50000000  1
  Pd  Pd4  1  0.00000000  0.00000000  0.50000000  1
  Pd  Pd5  1  0.33333333  0.66666667  0.66666664  1
  Pd  Pd6  1  0.50000000  0.77158300  0.22841697  1
  Pd  Pd7  1  0.66666666  0.33333333  0.33333332  1
  Pd  Pd8  1  0.00000000  0.33333333  0.66666665  1
  Pd  Pd9  1  0.72841700  0.77158300  0.77158297  1
  Pd  Pd10  1  0.49999999  0.22841700  0.77158299  1
  Pd  Pd11  1  0.27158300  0.22841700  0.22841699  1
  Pd  Pd12  1  0.00000001  0.66666667  0.33333331  1
