# generated using pymatgen
data_InSiSe3
_symmetry_space_group_name_H-M   'P 1'
_cell_length_a   4.61202288
_cell_length_b   4.61823034
_cell_length_c   4.63378239
_cell_angle_alpha   88.50175476
_cell_angle_beta   89.46870422
_cell_angle_gamma   89.84842682
_symmetry_Int_Tables_number   1
_chemical_formula_structural   InSiSe3
_chemical_formula_sum   'In1 Si1 Se3'
_cell_volume   98.65844172
_cell_formula_units_Z   1
loop_
 _symmetry_equiv_pos_site_id
 _symmetry_equiv_pos_as_xyz
  1  'x, y, z'
loop_
 _atom_site_type_symbol
 _atom_site_label
 _atom_site_symmetry_multiplicity
 _atom_site_fract_x
 _atom_site_fract_y
 _atom_site_fract_z
 _atom_site_occupancy
  In  In0  1  0.02676694  0.96331696  0.06774797  1
  Si  Si1  1  0.50320398  0.49574798  0.51994901  1
  Se  Se2  1  0.00011897  0.53000998  0.46887699  1
  Se  Se3  1  0.47789301  0.00766300  0.44780603  1
  Se  Se4  1  0.49201598  0.56325898  0.00562200  1
