# generated using pymatgen
data_MnGaS2
_symmetry_space_group_name_H-M   'P 1'
_cell_length_a   3.17890644
_cell_length_b   3.17890644
_cell_length_c   5.51998615
_cell_angle_alpha   73.26501465
_cell_angle_beta   73.26501465
_cell_angle_gamma   59.99999237
_symmetry_Int_Tables_number   1
_chemical_formula_structural   MnGaS2
_chemical_formula_sum   'Mn1 Ga1 S2'
_cell_volume   45.56011883
_cell_formula_units_Z   1
loop_
 _symmetry_equiv_pos_site_id
 _symmetry_equiv_pos_as_xyz
  1  'x, y, z'
loop_
 _atom_site_type_symbol
 _atom_site_label
 _atom_site_symmetry_multiplicity
 _atom_site_fract_x
 _atom_site_fract_y
 _atom_site_fract_z
 _atom_site_occupancy
  Mn  Mn0  1  0.00000000  0.00000000  0.00000000  1
  Ga  Ga1  1  0.49999998  0.49999999  0.50000003  1
  S  S2  1  0.25423099  0.25423099  0.23730702  1
  S  S3  1  0.74576898  0.74576898  0.76269305  1
