# generated using pymatgen
data_Li3WBr4ClO3
_symmetry_space_group_name_H-M   'P 1'
_cell_length_a   6.11639214
_cell_length_b   6.11639214
_cell_length_c   7.66724300
_cell_angle_alpha   96.92005920
_cell_angle_beta   96.92005920
_cell_angle_gamma   96.79401398
_symmetry_Int_Tables_number   1
_chemical_formula_structural   Li3WBr4ClO3
_chemical_formula_sum   'Li3 W1 Br4 Cl1 O3'
_cell_volume   280.09074071
_cell_formula_units_Z   1
loop_
 _symmetry_equiv_pos_site_id
 _symmetry_equiv_pos_as_xyz
  1  'x, y, z'
loop_
 _atom_site_type_symbol
 _atom_site_label
 _atom_site_symmetry_multiplicity
 _atom_site_fract_x
 _atom_site_fract_y
 _atom_site_fract_z
 _atom_site_occupancy
  Cl  Cl0  1  0.33266801  0.64011998  0.56723195  1
  Br  Br1  1  0.64011999  0.33266799  0.06723196  1
  Br  Br2  1  0.85072498  0.15786900  0.49951694  1
  Br  Br3  1  0.15786903  0.85072498  0.99951694  1
  O  O4  1  0.05035201  0.44006899  0.03286598  1
  Li  Li5  1  0.44006899  0.05035200  0.53286597  1
  Li  Li6  1  0.31506700  0.40552799  0.24725196  1
  Li  Li7  1  0.40552800  0.31506699  0.74725195  1
  O  O8  1  0.17554600  0.08518900  0.31849598  1
  O  O9  1  0.08518900  0.17554600  0.81849597  1
  W  W10  1  0.88054099  0.60832798  0.52663692  1
  Br  Br11  1  0.60832801  0.88054098  0.02663694  1
