# generated using pymatgen
data_TmNi2
_symmetry_space_group_name_H-M   'P 1'
_cell_length_a   5.04955721
_cell_length_b   5.04955721
_cell_length_c   5.04955721
_cell_angle_alpha   60.00000000
_cell_angle_beta   60.00000000
_cell_angle_gamma   60.00000000
_symmetry_Int_Tables_number   1
_chemical_formula_structural   TmNi2
_chemical_formula_sum   'Tm2 Ni4'
_cell_volume   91.04265053
_cell_formula_units_Z   2
loop_
 _symmetry_equiv_pos_site_id
 _symmetry_equiv_pos_as_xyz
  1  'x, y, z'
loop_
 _atom_site_type_symbol
 _atom_site_label
 _atom_site_symmetry_multiplicity
 _atom_site_fract_x
 _atom_site_fract_y
 _atom_site_fract_z
 _atom_site_occupancy
  Tm  Tm0  1  0.00000000  0.00000000  0.00000000  1
  Ni  Ni1  1  0.37595598  0.87213396  0.37595498  1
  Ni  Ni2  1  0.37595598  0.37595498  0.37595498  1
  Ni  Ni3  1  0.37595598  0.37595498  0.87213396  1
  Ni  Ni4  1  0.87213496  0.37595498  0.37595498  1
  Tm  Tm5  1  0.74999997  0.74999997  0.74999997  1
