# generated using pymatgen
data_WSe2
_symmetry_space_group_name_H-M   'P 1'
_cell_length_a   3.28625607
_cell_length_b   3.28625584
_cell_length_c   37.34625626
_cell_angle_alpha   90.00000000
_cell_angle_beta   90.00000000
_cell_angle_gamma   120.00000000
_symmetry_Int_Tables_number   1
_chemical_formula_structural   WSe2
_chemical_formula_sum   'W4 Se8'
_cell_volume   349.28543559
_cell_formula_units_Z   4
loop_
 _symmetry_equiv_pos_site_id
 _symmetry_equiv_pos_as_xyz
  1  'x, y, z'
loop_
 _atom_site_type_symbol
 _atom_site_label
 _atom_site_symmetry_multiplicity
 _atom_site_fract_x
 _atom_site_fract_y
 _atom_site_fract_z
 _atom_site_occupancy
  W  W0  1  0.66666664  0.33333333  0.90608997  1
  W  W1  1  0.66666664  0.33333333  0.53034598  1
  W  W2  1  0.33333330  0.66666666  0.71821098  1
  W  W3  1  0.33333330  0.66666666  0.34246399  1
  Se  Se4  1  0.66666664  0.33333333  0.67302998  1
  Se  Se5  1  0.33333330  0.66666666  0.95125497  1
  Se  Se6  1  0.33333330  0.66666666  0.57549998  1
  Se  Se7  1  0.33333330  0.66666666  0.86090197  1
  Se  Se8  1  0.33333330  0.66666666  0.48516498  1
  Se  Se9  1  0.66666664  0.33333333  0.76336097  1
  Se  Se10  1  0.66666664  0.33333333  0.30118299  1
  Se  Se11  1  0.66666664  0.33333333  0.38374799  1
