# generated using pymatgen
data_TmAlGe
_symmetry_space_group_name_H-M   'P 1'
_cell_length_a   4.09481192
_cell_length_b   7.04269218
_cell_length_c   7.89817476
_cell_angle_alpha   90.00000000
_cell_angle_beta   90.00000000
_cell_angle_gamma   90.00000000
_symmetry_Int_Tables_number   1
_chemical_formula_structural   TmAlGe
_chemical_formula_sum   'Tm4 Al4 Ge4'
_cell_volume   227.77151195
_cell_formula_units_Z   4
loop_
 _symmetry_equiv_pos_site_id
 _symmetry_equiv_pos_as_xyz
  1  'x, y, z'
loop_
 _atom_site_type_symbol
 _atom_site_label
 _atom_site_symmetry_multiplicity
 _atom_site_fract_x
 _atom_site_fract_y
 _atom_site_fract_z
 _atom_site_occupancy
  Tm  Tm0  1  0.25000001  0.52283099  0.18321001  1
  Tm  Tm1  1  0.75000002  0.47716899  0.81679002  1
  Tm  Tm2  1  0.25000001  0.02283100  0.31679001  1
  Tm  Tm3  1  0.75000002  0.97716897  0.68321002  1
  Al  Al4  1  0.75000002  0.36678099  0.44396401  1
  Al  Al5  1  0.25000001  0.13321900  0.94396403  1
  Al  Al6  1  0.75000002  0.86678098  0.05603600  1
  Al  Al7  1  0.25000001  0.63321898  0.55603602  1
  Ge  Ge8  1  0.25000001  0.27479399  0.61704102  1
  Ge  Ge9  1  0.75000002  0.22520599  0.11704100  1
  Ge  Ge10  1  0.25000001  0.77479398  0.88295903  1
  Ge  Ge11  1  0.75000002  0.72520598  0.38295901  1
