# generated using pymatgen
data_V2P
_symmetry_space_group_name_H-M   'P 1'
_cell_length_a   3.94039011
_cell_length_b   5.56682396
_cell_length_c   6.81683350
_cell_angle_alpha   114.09899902
_cell_angle_beta   106.79924011
_cell_angle_gamma   90.00000000
_symmetry_Int_Tables_number   1
_chemical_formula_structural   V2P
_chemical_formula_sum   'V6 P3'
_cell_volume   129.47527019
_cell_formula_units_Z   3
loop_
 _symmetry_equiv_pos_site_id
 _symmetry_equiv_pos_as_xyz
  1  'x, y, z'
loop_
 _atom_site_type_symbol
 _atom_site_label
 _atom_site_symmetry_multiplicity
 _atom_site_fract_x
 _atom_site_fract_y
 _atom_site_fract_z
 _atom_site_occupancy
  P  P0  1  0.49999999  0.00000000  0.00000000  1
  P  P1  1  0.16529500  0.66529501  0.33059000  1
  P  P2  1  0.83470498  0.33470500  0.66941000  1
  V  V3  1  0.66491699  0.41205800  0.32983400  1
  V  V4  1  0.00000001  0.75438201  0.00000000  1
  V  V5  1  0.66491699  0.91777601  0.32983401  1
  V  V6  1  0.33508300  0.58794201  0.67016600  1
  V  V7  1  0.00000000  0.24561800  0.00000000  1
  V  V8  1  0.33508299  0.08222400  0.67016600  1
