# generated using pymatgen
data_CsLiBr3
_symmetry_space_group_name_H-M   'P 1'
_cell_length_a   5.57995033
_cell_length_b   5.57983017
_cell_length_c   5.58008003
_cell_angle_alpha   89.99737549
_cell_angle_beta   89.99304962
_cell_angle_gamma   89.98461914
_symmetry_Int_Tables_number   1
_chemical_formula_structural   CsLiBr3
_chemical_formula_sum   'Cs1 Li1 Br3'
_cell_volume   173.73676178
_cell_formula_units_Z   1
loop_
 _symmetry_equiv_pos_site_id
 _symmetry_equiv_pos_as_xyz
  1  'x, y, z'
loop_
 _atom_site_type_symbol
 _atom_site_label
 _atom_site_symmetry_multiplicity
 _atom_site_fract_x
 _atom_site_fract_y
 _atom_site_fract_z
 _atom_site_occupancy
  Cs  Cs0  1  0.99450004  0.99895697  0.99811211  1
  Li  Li1  1  0.48666002  0.49970699  0.49709206  1
  Br  Br2  1  0.48493602  0.99997297  0.49450909  1
  Br  Br3  1  0.98638103  0.50313299  0.50277008  1
  Br  Br4  1  0.48752502  0.49822699  0.99751707  1
