# generated using pymatgen
data_CeSmCo15B
_symmetry_space_group_name_H-M   'P 1'
_cell_length_a   5.35048389
_cell_length_b   5.35048389
_cell_length_c   7.48291588
_cell_angle_alpha   90.00000000
_cell_angle_beta   90.00000000
_cell_angle_gamma   90.00000000
_symmetry_Int_Tables_number   1
_chemical_formula_structural   CeSmCo15B
_chemical_formula_sum   'Ce1 Sm1 Co15 B1'
_cell_volume   214.21850554
_cell_formula_units_Z   1
loop_
 _symmetry_equiv_pos_site_id
 _symmetry_equiv_pos_as_xyz
  1  'x, y, z'
loop_
 _atom_site_type_symbol
 _atom_site_label
 _atom_site_symmetry_multiplicity
 _atom_site_fract_x
 _atom_site_fract_y
 _atom_site_fract_z
 _atom_site_occupancy
  Ce  Ce0  1  0.00000000  0.00000000  0.00000000  1
  Sm  Sm1  1  0.50000001  0.50000001  0.50000001  1
  Co  Co2  1  0.83114102  0.50000001  0.15165400  1
  Co  Co3  1  0.16885900  0.50000001  0.15165400  1
  B  B4  1  0.00000000  0.33114101  0.65165401  1
  Co  Co5  1  0.00000000  0.66885901  0.65165401  1
  Co  Co6  1  0.66885901  0.00000000  0.34834601  1
  Co  Co7  1  0.33114101  0.00000000  0.34834601  1
  Co  Co8  1  0.50000001  0.16885900  0.84834601  1
  Co  Co9  1  0.50000001  0.83114102  0.84834601  1
  Co  Co10  1  0.25120300  0.50000001  0.85610101  1
  Co  Co11  1  0.74879701  0.50000001  0.85610101  1
  Co  Co12  1  0.00000000  0.75120301  0.35610101  1
  Co  Co13  1  0.00000000  0.24879700  0.35610101  1
  Co  Co14  1  0.24879700  0.00000000  0.64389901  1
  Co  Co15  1  0.75120301  0.00000000  0.64389901  1
  Co  Co16  1  0.50000001  0.74879701  0.14389900  1
  Co  Co17  1  0.50000001  0.25120300  0.14389900  1
