# generated using pymatgen
data_Ba4Na3AlIn
_symmetry_space_group_name_H-M   'P 1'
_cell_length_a   7.47189283
_cell_length_b   7.47189283
_cell_length_c   7.47189283
_cell_angle_alpha   60.00000000
_cell_angle_beta   60.00000000
_cell_angle_gamma   60.00000000
_symmetry_Int_Tables_number   1
_chemical_formula_structural   Ba4Na3AlIn
_chemical_formula_sum   'Ba4 Na3 Al1 In1'
_cell_volume   294.96935956
_cell_formula_units_Z   1
loop_
 _symmetry_equiv_pos_site_id
 _symmetry_equiv_pos_as_xyz
  1  'x, y, z'
loop_
 _atom_site_type_symbol
 _atom_site_label
 _atom_site_symmetry_multiplicity
 _atom_site_fract_x
 _atom_site_fract_y
 _atom_site_fract_z
 _atom_site_occupancy
  Ba  Ba0  1  0.25000000  0.25000000  0.25000000  1
  In  In1  1  0.74999999  0.74999999  0.74999999  1
  Al  Al2  1  0.00000000  0.00000000  0.00000000  1
  Ba  Ba3  1  0.77598899  0.77598899  0.22401100  1
  Na  Na4  1  0.77598899  0.22401100  0.22401100  1
  Ba  Ba5  1  0.22401100  0.77598899  0.77598899  1
  Na  Na6  1  0.22401100  0.22401100  0.77598899  1
  Ba  Ba7  1  0.77598899  0.22401100  0.77598899  1
  Na  Na8  1  0.22401100  0.77598899  0.22401100  1
