# generated using pymatgen
data_LiCu4AgO3F5
_symmetry_space_group_name_H-M   'P 1'
_cell_length_a   5.77066612
_cell_length_b   5.89279509
_cell_length_c   5.85149622
_cell_angle_alpha   119.76843262
_cell_angle_beta   90.00000000
_cell_angle_gamma   119.31674957
_symmetry_Int_Tables_number   1
_chemical_formula_structural   LiCu4AgO3F5
_chemical_formula_sum   'Li1 Cu4 Ag1 O3 F5'
_cell_volume   142.62279483
_cell_formula_units_Z   1
loop_
 _symmetry_equiv_pos_site_id
 _symmetry_equiv_pos_as_xyz
  1  'x, y, z'
loop_
 _atom_site_type_symbol
 _atom_site_label
 _atom_site_symmetry_multiplicity
 _atom_site_fract_x
 _atom_site_fract_y
 _atom_site_fract_z
 _atom_site_occupancy
  Li  Li0  1  0.62069197  0.24138399  0.37069198  1
  Cu  Cu1  1  0.37930793  0.75861596  0.62930795  1
  Cu  Cu2  1  0.49999995  0.49999998  -0.00000002  1
  Cu  Cu3  1  0.99999994  0.49999998  0.99999994  1
  Ag  Ag4  1  0.00000000  0.00000000  0.00000000  1
  F  F5  1  0.00000000  0.00000000  0.49999998  1
  F  F6  1  0.75082391  0.95578596  0.22789296  1
  F  F7  1  0.74915794  0.49831598  0.77982995  1
  F  F8  1  0.74915794  0.49831598  0.21848597  1
  F  F9  1  0.20496192  0.95578596  0.22789296  1
  O  O10  1  0.79503798  0.04421400  0.77210697  1
  O  O11  1  0.25084195  0.50168398  0.22016997  1
  O  O12  1  0.25084195  0.50168398  0.78151395  1
  Cu  Cu13  1  0.24917599  0.04421400  0.77210697  1
