# generated using pymatgen
data_DyAl2Si
_symmetry_space_group_name_H-M   'P 1'
_cell_length_a   4.45121813
_cell_length_b   5.56495190
_cell_length_c   6.59264421
_cell_angle_alpha   90.00000000
_cell_angle_beta   90.00000000
_cell_angle_gamma   113.57400513
_symmetry_Int_Tables_number   1
_chemical_formula_structural   DyAl2Si
_chemical_formula_sum   'Dy2 Al4 Si2'
_cell_volume   149.67641692
_cell_formula_units_Z   2
loop_
 _symmetry_equiv_pos_site_id
 _symmetry_equiv_pos_as_xyz
  1  'x, y, z'
loop_
 _atom_site_type_symbol
 _atom_site_label
 _atom_site_symmetry_multiplicity
 _atom_site_fract_x
 _atom_site_fract_y
 _atom_site_fract_z
 _atom_site_occupancy
  Dy  Dy0  1  0.41201605  0.82403203  0.74999998  1
  Dy  Dy1  1  0.58798400  0.17596801  0.24999999  1
  Si  Si2  1  0.12771402  0.25542801  0.55318698  1
  Si  Si3  1  0.87228603  0.74457203  0.44681299  1
  Al  Al4  1  0.12771402  0.25542801  0.94681297  1
  Al  Al5  1  0.87228603  0.74457203  0.05318700  1
  Al  Al6  1  0.69984401  0.39968802  0.74999998  1
  Al  Al7  1  0.30015604  0.60031202  0.24999999  1
