# generated using pymatgen
data_In9S11
_symmetry_space_group_name_H-M   'P 1'
_cell_length_a   3.81662607
_cell_length_b   9.22525501
_cell_length_c   14.17110920
_cell_angle_alpha   90.00000000
_cell_angle_beta   90.00000000
_cell_angle_gamma   90.00000000
_symmetry_Int_Tables_number   1
_chemical_formula_structural   In9S11
_chemical_formula_sum   'In9 S11'
_cell_volume   498.95552670
_cell_formula_units_Z   1
loop_
 _symmetry_equiv_pos_site_id
 _symmetry_equiv_pos_as_xyz
  1  'x, y, z'
loop_
 _atom_site_type_symbol
 _atom_site_label
 _atom_site_symmetry_multiplicity
 _atom_site_fract_x
 _atom_site_fract_y
 _atom_site_fract_z
 _atom_site_occupancy
  S  S0  1  0.25000000  0.16577300  0.95126099  1
  S  S1  1  0.74999999  0.83422700  0.04873900  1
  S  S2  1  0.25000000  0.66577300  0.54873899  1
  S  S3  1  0.74999999  0.33422700  0.45126099  1
  In  In4  1  0.25000000  0.52280300  0.17260700  1
  S  S5  1  0.74999999  0.47719700  0.82739299  1
  In  In6  1  0.25000000  0.02280300  0.32739300  1
  S  S7  1  0.74999999  0.97719700  0.67260699  1
  S  S8  1  0.25000000  0.00944400  0.10469300  1
  S  S9  1  0.74999999  0.99055600  0.89530699  1
  In  In10  1  0.25000000  0.50944400  0.39530699  1
  In  In11  1  0.74999999  0.49055600  0.60469299  1
  In  In12  1  0.25000000  0.16903900  0.50964799  1
  In  In13  1  0.74999999  0.83096100  0.49035199  1
  S  S14  1  0.25000000  0.66903900  0.99035199  1
  S  S15  1  0.74999999  0.33096100  0.00964800  1
  S  S16  1  0.74999999  0.22739500  0.28643100  1
  In  In17  1  0.25000000  0.77260500  0.71356899  1
  In  In18  1  0.74999999  0.72739500  0.21356900  1
  In  In19  1  0.25000000  0.27260500  0.78643099  1
