# generated using pymatgen
data_ScCoCuAsS10
_symmetry_space_group_name_H-M   'P 1'
_cell_length_a   6.66567373
_cell_length_b   6.66567373
_cell_length_c   6.66567373
_cell_angle_alpha   60.00000000
_cell_angle_beta   60.00000000
_cell_angle_gamma   60.00000000
_symmetry_Int_Tables_number   1
_chemical_formula_structural   ScCoCuAsS10
_chemical_formula_sum   'Sc1 Co1 Cu1 As1 S10'
_cell_volume   209.41951959
_cell_formula_units_Z   1
loop_
 _symmetry_equiv_pos_site_id
 _symmetry_equiv_pos_as_xyz
  1  'x, y, z'
loop_
 _atom_site_type_symbol
 _atom_site_label
 _atom_site_symmetry_multiplicity
 _atom_site_fract_x
 _atom_site_fract_y
 _atom_site_fract_z
 _atom_site_occupancy
  S  S0  1  0.87499998  0.37499999  0.87499998  1
  Sc  Sc1  1  0.87499998  0.87499998  0.87499998  1
  S  S2  1  0.87499998  0.87499998  0.37499999  1
  S  S3  1  0.37499999  0.87499998  0.87499998  1
  Cu  Cu4  1  0.24999999  0.24999999  0.24999999  1
  Co  Co5  1  0.49999999  0.49999999  0.49999999  1
  S  S6  1  0.67192599  0.10935800  0.10935800  1
  S  S7  1  0.10935700  0.10935800  0.67192699  1
  S  S8  1  0.64064299  0.07807300  0.64064199  1
  As  As9  1  0.64064299  0.64064199  0.64064199  1
  S  S10  1  0.10935700  0.10935800  0.10935800  1
  S  S11  1  0.10935700  0.67192699  0.10935800  1
  S  S12  1  0.64064299  0.64064199  0.07807300  1
  S  S13  1  0.07807400  0.64064199  0.64064199  1
