# generated using pymatgen
data_YbLu(Ni4B)2
_symmetry_space_group_name_H-M   'P 1'
_cell_length_a   4.99499607
_cell_length_b   4.99499655
_cell_length_c   7.03400612
_cell_angle_alpha   90.00000000
_cell_angle_beta   90.00000000
_cell_angle_gamma   120.00000000
_symmetry_Int_Tables_number   1
_chemical_formula_structural   YbLu(Ni4B)2
_chemical_formula_sum   'Yb1 Lu1 Ni8 B2'
_cell_volume   151.98604602
_cell_formula_units_Z   1
loop_
 _symmetry_equiv_pos_site_id
 _symmetry_equiv_pos_as_xyz
  1  'x, y, z'
loop_
 _atom_site_type_symbol
 _atom_site_label
 _atom_site_symmetry_multiplicity
 _atom_site_fract_x
 _atom_site_fract_y
 _atom_site_fract_z
 _atom_site_occupancy
  Lu  Lu0  1  0.00000000  0.00000000  0.00000000  1
  Yb  Yb1  1  0.00000000  0.00000000  0.49999999  1
  Ni  Ni2  1  0.33333337  0.66666668  -0.00000000  1
  Ni  Ni3  1  0.66666668  0.33333334  -0.00000000  1
  Ni  Ni4  1  0.49999999  0.00000000  0.29162700  1
  Ni  Ni5  1  0.50000003  0.50000001  0.29162700  1
  Ni  Ni6  1  0.00000003  0.50000001  0.29162700  1
  Ni  Ni7  1  0.49999999  0.00000000  0.70837299  1
  Ni  Ni8  1  0.50000003  0.50000001  0.70837299  1
  Ni  Ni9  1  0.00000003  0.50000001  0.70837299  1
  B  B10  1  0.33333337  0.66666668  0.49999999  1
  B  B11  1  0.66666668  0.33333334  0.49999999  1
