# generated using pymatgen
data_LiTi2N3
_symmetry_space_group_name_H-M   'P 1'
_cell_length_a   3.44079781
_cell_length_b   3.44077396
_cell_length_c   6.33959532
_cell_angle_alpha   74.25409698
_cell_angle_beta   74.25399780
_cell_angle_gamma   60.00044250
_symmetry_Int_Tables_number   1
_chemical_formula_structural   LiTi2N3
_chemical_formula_sum   'Li1 Ti2 N3'
_cell_volume   61.72578950
_cell_formula_units_Z   1
loop_
 _symmetry_equiv_pos_site_id
 _symmetry_equiv_pos_as_xyz
  1  'x, y, z'
loop_
 _atom_site_type_symbol
 _atom_site_label
 _atom_site_symmetry_multiplicity
 _atom_site_fract_x
 _atom_site_fract_y
 _atom_site_fract_z
 _atom_site_occupancy
  N  N0  1  0.76053701  0.76053400  0.71839602  1
  Ti  Ti1  1  0.23946200  0.23946600  0.28160301  1
  Ti  Ti2  1  0.87507001  0.87509200  0.37474901  1
  N  N3  1  0.12493100  0.12490800  0.62525102  1
  N  N4  1  0.62662401  0.62666000  0.12005600  1
  Li  Li5  1  0.37337601  0.37334000  0.87994503  1
