# generated using pymatgen
data_Nb3Al2Tl
_symmetry_space_group_name_H-M   'P 1'
_cell_length_a   4.55918598
_cell_length_b   4.55918503
_cell_length_c   7.16315603
_cell_angle_alpha   90.00000000
_cell_angle_beta   90.00000000
_cell_angle_gamma   120.00000763
_symmetry_Int_Tables_number   1
_chemical_formula_structural   Nb3Al2Tl
_chemical_formula_sum   'Nb3 Al2 Tl1'
_cell_volume   128.94649332
_cell_formula_units_Z   1
loop_
 _symmetry_equiv_pos_site_id
 _symmetry_equiv_pos_as_xyz
  1  'x, y, z'
loop_
 _atom_site_type_symbol
 _atom_site_label
 _atom_site_symmetry_multiplicity
 _atom_site_fract_x
 _atom_site_fract_y
 _atom_site_fract_z
 _atom_site_occupancy
  Al  Al0  1  0.66666668  0.33333335  0.34614900  1
  Al  Al1  1  0.33333336  0.66666671  0.65385100  1
  Nb  Nb2  1  0.00000000  0.00000000  0.50000000  1
  Tl  Tl3  1  0.00000000  0.00000000  0.00000000  1
  Nb  Nb4  1  0.66666668  0.33333335  0.75145500  1
  Nb  Nb5  1  0.33333336  0.66666671  0.24854500  1
