# generated using pymatgen
data_V2CdO6
_symmetry_space_group_name_H-M   'P 1'
_cell_length_a   3.73250842
_cell_length_b   5.14044809
_cell_length_c   7.34090233
_cell_angle_alpha   99.43859863
_cell_angle_beta   104.66604614
_cell_angle_gamma   111.23144531
_symmetry_Int_Tables_number   1
_chemical_formula_structural   V2CdO6
_chemical_formula_sum   'V2 Cd1 O6'
_cell_volume   121.79827152
_cell_formula_units_Z   1
loop_
 _symmetry_equiv_pos_site_id
 _symmetry_equiv_pos_as_xyz
  1  'x, y, z'
loop_
 _atom_site_type_symbol
 _atom_site_label
 _atom_site_symmetry_multiplicity
 _atom_site_fract_x
 _atom_site_fract_y
 _atom_site_fract_z
 _atom_site_occupancy
  Cd  Cd0  1  0.01191800  0.00258900  0.01482200  1
  V  V1  1  0.53987394  0.73181697  0.35928097  1
  V  V2  1  0.44322997  0.26788399  0.62757798  1
  O  O3  1  0.52433097  0.19971799  0.85632298  1
  O  O4  1  0.45794894  0.78309796  0.13860598  1
  O  O5  1  0.85945897  0.17276199  0.55532498  1
  O  O6  1  0.12728494  0.83045796  0.43424898  1
  O  O7  1  0.66854694  0.65157797  0.69470197  1
  O  O8  1  0.33969797  0.36357798  0.32041499  1
