# generated using pymatgen
data_Ni
_symmetry_space_group_name_H-M   'P 1'
_cell_length_a   3.61307907
_cell_length_b   3.61307907
_cell_length_c   14.22978783
_cell_angle_alpha   90.00000000
_cell_angle_beta   90.00000000
_cell_angle_gamma   90.00000000
_symmetry_Int_Tables_number   1
_chemical_formula_structural   Ni
_chemical_formula_sum   Ni16
_cell_volume   185.76049373
_cell_formula_units_Z   16
loop_
 _symmetry_equiv_pos_site_id
 _symmetry_equiv_pos_as_xyz
  1  'x, y, z'
loop_
 _atom_site_type_symbol
 _atom_site_label
 _atom_site_symmetry_multiplicity
 _atom_site_fract_x
 _atom_site_fract_y
 _atom_site_fract_z
 _atom_site_occupancy
  Ni  Ni0  1  0.00000000  0.00000000  0.00000000  1
  Ni  Ni1  1  0.00000000  0.00000000  0.25457500  1
  Ni  Ni2  1  0.00000000  0.00000000  0.50000001  1
  Ni  Ni3  1  0.00000000  0.00000000  0.74542501  1
  Ni  Ni4  1  0.49999999  0.49999999  -0.00000000  1
  Ni  Ni5  1  0.49999999  0.49999999  0.25150700  1
  Ni  Ni6  1  0.49999999  0.49999999  0.50000001  1
  Ni  Ni7  1  0.49999999  0.49999999  0.74849301  1
  Ni  Ni8  1  0.49999999  0.00000000  0.12811500  1
  Ni  Ni9  1  0.49999999  0.00000000  0.37491800  1
  Ni  Ni10  1  0.49999999  0.00000000  0.62508201  1
  Ni  Ni11  1  0.49999999  0.00000000  0.87188501  1
  Ni  Ni12  1  0.00000000  0.49999999  0.12811500  1
  Ni  Ni13  1  0.00000000  0.49999999  0.37491800  1
  Ni  Ni14  1  0.00000000  0.49999999  0.62508201  1
  Ni  Ni15  1  0.00000000  0.49999999  0.87188501  1
