# generated using pymatgen
data_AlCrAgBrN3
_symmetry_space_group_name_H-M   'P 1'
_cell_length_a   3.73674202
_cell_length_b   4.78830051
_cell_length_c   5.26442337
_cell_angle_alpha   82.63428497
_cell_angle_beta   88.31563568
_cell_angle_gamma   80.91188049
_symmetry_Int_Tables_number   1
_chemical_formula_structural   AlCrAgBrN3
_chemical_formula_sum   'Al1 Cr1 Ag1 Br1 N3'
_cell_volume   92.24043862
_cell_formula_units_Z   1
loop_
 _symmetry_equiv_pos_site_id
 _symmetry_equiv_pos_as_xyz
  1  'x, y, z'
loop_
 _atom_site_type_symbol
 _atom_site_label
 _atom_site_symmetry_multiplicity
 _atom_site_fract_x
 _atom_site_fract_y
 _atom_site_fract_z
 _atom_site_occupancy
  Al  Al0  1  -0.00000000  0.50000001  0.49999997  1
  Cr  Cr1  1  0.50000000  0.00000000  0.50000002  1
  Ag  Ag2  1  0.00000000  0.00000000  0.00000000  1
  N  N3  1  0.30259700  0.24390800  0.72775699  1
  Br  Br4  1  0.83244599  0.77056301  0.71899100  1
  N  N5  1  0.69740299  0.75609201  0.27224300  1
  N  N6  1  0.16755400  0.22943700  0.28100899  1
