# generated using pymatgen
data_Li2CuTeO6
_symmetry_space_group_name_H-M   'P 1'
_cell_length_a   5.19441128
_cell_length_b   5.19441128
_cell_length_c   5.90404367
_cell_angle_alpha   63.90230560
_cell_angle_beta   63.90230560
_cell_angle_gamma   60.00000763
_symmetry_Int_Tables_number   1
_chemical_formula_structural   Li2CuTeO6
_chemical_formula_sum   'Li2 Cu1 Te1 O6'
_cell_volume   118.83629726
_cell_formula_units_Z   1
loop_
 _symmetry_equiv_pos_site_id
 _symmetry_equiv_pos_as_xyz
  1  'x, y, z'
loop_
 _atom_site_type_symbol
 _atom_site_label
 _atom_site_symmetry_multiplicity
 _atom_site_fract_x
 _atom_site_fract_y
 _atom_site_fract_z
 _atom_site_occupancy
  Li  Li0  1  0.63257206  0.63257202  0.10228396  1
  Li  Li1  1  0.36742803  0.36742801  0.89771596  1
  Cu  Cu2  1  0.84046808  0.84046803  0.47859594  1
  Te  Te3  1  0.15953201  0.15953201  0.52140398  1
  O  O4  1  0.03495304  0.81224503  0.71311396  1
  O  O5  1  0.81224506  0.43968802  0.71311395  1
  O  O6  1  0.43968802  0.03495300  0.71311397  1
  O  O7  1  0.96504706  0.18775501  0.28688596  1
  O  O8  1  0.56031207  0.96504704  0.28688595  1
  O  O9  1  0.18775503  0.56031202  0.28688597  1
