# generated using pymatgen
data_U4Os(Br3O)2
_symmetry_space_group_name_H-M   'P 1'
_cell_length_a   7.50198078
_cell_length_b   7.50198078
_cell_length_c   7.82005739
_cell_angle_alpha   104.78543854
_cell_angle_beta   105.92253113
_cell_angle_gamma   116.61612701
_symmetry_Int_Tables_number   1
_chemical_formula_structural   U4Os(Br3O)2
_chemical_formula_sum   'U4 Os1 Br6 O2'
_cell_volume   339.81755399
_cell_formula_units_Z   1
loop_
 _symmetry_equiv_pos_site_id
 _symmetry_equiv_pos_as_xyz
  1  'x, y, z'
loop_
 _atom_site_type_symbol
 _atom_site_label
 _atom_site_symmetry_multiplicity
 _atom_site_fract_x
 _atom_site_fract_y
 _atom_site_fract_z
 _atom_site_occupancy
  U  U0  1  0.78576200  0.28576201  0.50000002  1
  U  U1  1  0.21423806  0.71423802  0.50000005  1
  Os  Os2  1  0.76802100  0.25777201  0.02579301  1
  U  U3  1  0.23197907  0.74222802  0.97420706  1
  U  U4  1  0.00000000  0.00000000  0.00000000  1
  Br  Br5  1  0.77208103  0.55450202  0.32658303  1
  Br  Br6  1  0.22791904  0.44549801  0.67341703  1
  Br  Br7  1  0.22348304  0.46144901  0.17285503  1
  Br  Br8  1  0.77651703  0.53855102  0.82714504  1
  O  O9  1  0.28859400  0.05062800  0.82714502  1
  O  O10  1  0.71140607  0.94937203  0.17285505  1
  Br  Br11  1  0.30158199  0.03257100  0.33415301  1
  Br  Br12  1  0.69841807  0.96742903  0.66584706  1
