# generated using pymatgen
data_VCo
_symmetry_space_group_name_H-M   'P 1'
_cell_length_a   4.63850784
_cell_length_b   4.63850784
_cell_length_c   4.63850784
_cell_angle_alpha   89.31365967
_cell_angle_beta   89.31365967
_cell_angle_gamma   89.31366730
_symmetry_Int_Tables_number   1
_chemical_formula_structural   VCo
_chemical_formula_sum   'V4 Co4'
_cell_volume   99.77968754
_cell_formula_units_Z   4
loop_
 _symmetry_equiv_pos_site_id
 _symmetry_equiv_pos_as_xyz
  1  'x, y, z'
loop_
 _atom_site_type_symbol
 _atom_site_label
 _atom_site_symmetry_multiplicity
 _atom_site_fract_x
 _atom_site_fract_y
 _atom_site_fract_z
 _atom_site_occupancy
  V  V0  1  0.65881596  0.65881600  0.65881591  1
  Co  Co1  1  0.35853398  0.35853400  0.35853395  1
  V  V2  1  0.63631495  0.86790099  0.13891892  1
  V  V3  1  0.13891897  0.63631500  0.86790094  1
  V  V4  1  0.86790099  0.13891900  0.63631493  1
  Co  Co5  1  0.34344899  0.16023100  0.83583495  1
  Co  Co6  1  0.83583498  0.34344900  0.16023093  1
  Co  Co7  1  0.16023096  0.83583500  0.34344894  1
