# generated using pymatgen
data_Zr4TiTeCN
_symmetry_space_group_name_H-M   'P 1'
_cell_length_a   3.11195612
_cell_length_b   3.11195517
_cell_length_c   13.95662022
_cell_angle_alpha   90.00000000
_cell_angle_beta   90.00000000
_cell_angle_gamma   120.00000763
_symmetry_Int_Tables_number   1
_chemical_formula_structural   Zr4TiTeCN
_chemical_formula_sum   'Zr4 Ti1 Te1 C1 N1'
_cell_volume   117.05168100
_cell_formula_units_Z   1
loop_
 _symmetry_equiv_pos_site_id
 _symmetry_equiv_pos_as_xyz
  1  'x, y, z'
loop_
 _atom_site_type_symbol
 _atom_site_label
 _atom_site_symmetry_multiplicity
 _atom_site_fract_x
 _atom_site_fract_y
 _atom_site_fract_z
 _atom_site_occupancy
  Zr  Zr0  1  0.66666663  0.33333333  0.07767500  1
  Zr  Zr1  1  0.33333331  0.66666666  0.92232499  1
  Ti  Ti2  1  0.33333331  0.66666666  0.57767499  1
  Zr  Zr3  1  0.66666663  0.33333333  0.42232499  1
  Zr  Zr4  1  0.66666663  0.33333333  0.74999999  1
  Te  Te5  1  0.33333331  0.66666666  0.25000000  1
  N  N6  1  0.00000000  0.00000000  0.49999999  1
  C  C7  1  0.00000000  0.00000000  0.00000000  1
