# generated using pymatgen
data_LiCu3F8
_symmetry_space_group_name_H-M   'P 1'
_cell_length_a   4.74968576
_cell_length_b   4.96663189
_cell_length_c   5.84546995
_cell_angle_alpha   90.00000000
_cell_angle_beta   90.00000000
_cell_angle_gamma   90.95785522
_symmetry_Int_Tables_number   1
_chemical_formula_structural   LiCu3F8
_chemical_formula_sum   'Li1 Cu3 F8'
_cell_volume   137.87502093
_cell_formula_units_Z   1
loop_
 _symmetry_equiv_pos_site_id
 _symmetry_equiv_pos_as_xyz
  1  'x, y, z'
loop_
 _atom_site_type_symbol
 _atom_site_label
 _atom_site_symmetry_multiplicity
 _atom_site_fract_x
 _atom_site_fract_y
 _atom_site_fract_z
 _atom_site_occupancy
  Li  Li0  1  0.50000001  0.75000002  0.30968500  1
  Cu  Cu1  1  0.50000002  0.25000001  0.69031501  1
  Cu  Cu2  1  -0.00000000  0.25000001  0.18480300  1
  Cu  Cu3  1  -0.00000001  0.75000002  0.81519701  1
  F  F4  1  0.25673801  0.40555701  0.37408900  1
  F  F5  1  0.74326204  0.09444300  0.37408900  1
  F  F6  1  0.74326203  0.59444302  0.62591101  1
  F  F7  1  0.25673800  0.90555703  0.62591101  1
  F  F8  1  0.78422703  0.56173602  0.10512700  1
  F  F9  1  0.21577300  0.93826403  0.10512700  1
  F  F10  1  0.21577300  0.43826401  0.89487301  1
  F  F11  1  0.78422704  0.06173600  0.89487301  1
