# generated using pymatgen
data_LaPb2
_symmetry_space_group_name_H-M   'P 1'
_cell_length_a   3.17967200
_cell_length_b   6.83477783
_cell_length_c   7.41937113
_cell_angle_alpha   102.15504456
_cell_angle_beta   90.00000000
_cell_angle_gamma   103.45076752
_symmetry_Int_Tables_number   1
_chemical_formula_structural   LaPb2
_chemical_formula_sum   'La2 Pb4'
_cell_volume   153.09841039
_cell_formula_units_Z   2
loop_
 _symmetry_equiv_pos_site_id
 _symmetry_equiv_pos_as_xyz
  1  'x, y, z'
loop_
 _atom_site_type_symbol
 _atom_site_label
 _atom_site_symmetry_multiplicity
 _atom_site_fract_x
 _atom_site_fract_y
 _atom_site_fract_z
 _atom_site_occupancy
  La  La0  1  0.48366700  0.96733402  0.67426701  1
  La  La1  1  0.51633300  0.03266600  0.32573299  1
  Pb  Pb2  1  0.20589600  0.41179201  0.64781499  1
  Pb  Pb3  1  0.85130000  0.70260001  0.96892899  1
  Pb  Pb4  1  0.14870000  0.29740001  0.03107101  1
  Pb  Pb5  1  0.79410400  0.58820801  0.35218501  1
