# generated using pymatgen
data_GdLuZr2F14
_symmetry_space_group_name_H-M   'P 1'
_cell_length_a   6.01591063
_cell_length_b   6.04214811
_cell_length_c   8.10564804
_cell_angle_alpha   90.00000000
_cell_angle_beta   99.71430969
_cell_angle_gamma   90.00000000
_symmetry_Int_Tables_number   1
_chemical_formula_structural   GdLuZr2F14
_chemical_formula_sum   'Gd1 Lu1 Zr2 F14'
_cell_volume   290.40775900
_cell_formula_units_Z   1
loop_
 _symmetry_equiv_pos_site_id
 _symmetry_equiv_pos_as_xyz
  1  'x, y, z'
loop_
 _atom_site_type_symbol
 _atom_site_label
 _atom_site_symmetry_multiplicity
 _atom_site_fract_x
 _atom_site_fract_y
 _atom_site_fract_z
 _atom_site_occupancy
  Lu  Lu0  1  0.31454001  0.29681399  0.29684801  1
  Gd  Gd1  1  0.68546002  0.79681399  0.70315202  1
  Zr  Zr2  1  0.17512600  0.29586699  0.76406900  1
  Zr  Zr3  1  0.82487402  0.79586699  0.23593103  1
  F  F4  1  0.50439301  0.05231100  0.50132701  1
  F  F5  1  0.49560701  0.55231099  0.49867301  1
  F  F6  1  0.06234300  0.57270999  0.22531800  1
  F  F7  1  0.93765702  0.07271000  0.77468203  1
  F  F8  1  0.03614000  0.04350500  0.22333500  1
  F  F9  1  0.96386002  0.54350499  0.77666503  1
  F  F10  1  0.56858901  0.02357900  0.24940202  1
  F  F11  1  0.43141101  0.52357899  0.75059801  1
  F  F12  1  0.27776401  0.29504199  0.01143901  1
  F  F13  1  0.72223602  0.79504199  0.98856102  1
  F  F14  1  0.11781800  0.29602899  0.51509100  1
  F  F15  1  0.88218202  0.79602899  0.48490903  1
  F  F16  1  0.58957301  0.54778299  0.24919302  1
  F  F17  1  0.41042701  0.04778300  0.75080701  1
