# generated using pymatgen
data_LiMnO2
_symmetry_space_group_name_H-M   'P 1'
_cell_length_a   5.05985260
_cell_length_b   5.13109589
_cell_length_c   5.95678997
_cell_angle_alpha   89.99974823
_cell_angle_beta   89.99584961
_cell_angle_gamma   70.73169708
_symmetry_Int_Tables_number   1
_chemical_formula_structural   LiMnO2
_chemical_formula_sum   'Li4 Mn4 O8'
_cell_volume   145.99055394
_cell_formula_units_Z   4
loop_
 _symmetry_equiv_pos_site_id
 _symmetry_equiv_pos_as_xyz
  1  'x, y, z'
loop_
 _atom_site_type_symbol
 _atom_site_label
 _atom_site_symmetry_multiplicity
 _atom_site_fract_x
 _atom_site_fract_y
 _atom_site_fract_z
 _atom_site_occupancy
  Li  Li0  1  0.49998097  0.50000001  0.00278404  1
  Li  Li1  1  0.99999896  0.50000801  0.24705305  1
  Mn  Mn2  1  0.49999597  0.50001301  0.49478604  1
  Li  Li3  1  0.00000898  0.49999801  0.75536402  1
  Mn  Mn4  1  0.99999298  0.00000300  0.49951203  1
  Mn  Mn5  1  0.49993795  0.99999801  0.75013606  1
  Li  Li6  1  0.50004799  0.00002700  0.24312402  1
  Mn  Mn7  1  0.00004200  0.00002900  0.00689300  1
  O  O8  1  0.27078598  0.23399600  0.97803102  1
  O  O9  1  0.76978397  0.23419900  0.27228903  1
  O  O10  1  0.72907995  0.76610401  0.97813306  1
  O  O11  1  0.23020196  0.76575301  0.27218404  1
  O  O12  1  0.24780499  0.22041900  0.51539402  1
  O  O13  1  0.74667698  0.22110400  0.73445004  1
  O  O14  1  0.75231795  0.77946801  0.51547006  1
  O  O15  1  0.25334096  0.77888401  0.73439804  1
