# generated using pymatgen
data_ZrSN
_symmetry_space_group_name_H-M   'P 1'
_cell_length_a   3.57577848
_cell_length_b   3.57577848
_cell_length_c   6.43413305
_cell_angle_alpha   73.86653900
_cell_angle_beta   73.86653900
_cell_angle_gamma   59.99999237
_symmetry_Int_Tables_number   1
_chemical_formula_structural   ZrSN
_chemical_formula_sum   'Zr1 S1 N1'
_cell_volume   67.47911835
_cell_formula_units_Z   1
loop_
 _symmetry_equiv_pos_site_id
 _symmetry_equiv_pos_as_xyz
  1  'x, y, z'
loop_
 _atom_site_type_symbol
 _atom_site_label
 _atom_site_symmetry_multiplicity
 _atom_site_fract_x
 _atom_site_fract_y
 _atom_site_fract_z
 _atom_site_occupancy
  S  S0  1  0.73997201  0.73997199  0.78008405  1
  N  N1  1  0.26002800  0.26002800  0.21991602  1
  Zr  Zr2  1  0.00000000  0.00000000  0.00000000  1
