# generated using pymatgen
data_In4Rh9S
_symmetry_space_group_name_H-M   'P 1'
_cell_length_a   8.00330353
_cell_length_b   8.00330353
_cell_length_c   8.00330353
_cell_angle_alpha   60.00000000
_cell_angle_beta   60.00000000
_cell_angle_gamma   60.00000000
_symmetry_Int_Tables_number   1
_chemical_formula_structural   In4Rh9S
_chemical_formula_sum   'In4 Rh9 S1'
_cell_volume   362.48735901
_cell_formula_units_Z   1
loop_
 _symmetry_equiv_pos_site_id
 _symmetry_equiv_pos_as_xyz
  1  'x, y, z'
loop_
 _atom_site_type_symbol
 _atom_site_label
 _atom_site_symmetry_multiplicity
 _atom_site_fract_x
 _atom_site_fract_y
 _atom_site_fract_z
 _atom_site_occupancy
  S  S0  1  0.74999997  0.74999997  0.74999997  1
  Rh  Rh1  1  0.00000000  0.00000000  0.00000000  1
  Rh  Rh2  1  0.37499999  0.37499999  0.87499997  1
  Rh  Rh3  1  0.37499999  0.37499999  0.37499999  1
  Rh  Rh4  1  0.37499999  0.87499997  0.37499999  1
  Rh  Rh5  1  0.87499997  0.37499999  0.37499999  1
  In  In6  1  0.62041198  0.62041098  0.13876600  1
  In  In7  1  0.62041198  0.62041098  0.62041098  1
  In  In8  1  0.62041198  0.13876600  0.62041098  1
  In  In9  1  0.13876700  0.62041098  0.62041098  1
  Rh  Rh10  1  0.12958800  0.12958900  0.61123398  1
  Rh  Rh11  1  0.12958800  0.12958900  0.12958900  1
  Rh  Rh12  1  0.12958800  0.61123398  0.12958900  1
  Rh  Rh13  1  0.61123298  0.12958900  0.12958900  1
