# generated using pymatgen
data_Na5Ag3O4
_symmetry_space_group_name_H-M   'P 1'
_cell_length_a   4.68964005
_cell_length_b   7.18074465
_cell_length_c   7.18074465
_cell_angle_alpha   83.87890625
_cell_angle_beta   70.94093323
_cell_angle_gamma   70.94093323
_symmetry_Int_Tables_number   1
_chemical_formula_structural   Na5Ag3O4
_chemical_formula_sum   'Na5 Ag3 O4'
_cell_volume   216.02786163
_cell_formula_units_Z   1
loop_
 _symmetry_equiv_pos_site_id
 _symmetry_equiv_pos_as_xyz
  1  'x, y, z'
loop_
 _atom_site_type_symbol
 _atom_site_label
 _atom_site_symmetry_multiplicity
 _atom_site_fract_x
 _atom_site_fract_y
 _atom_site_fract_z
 _atom_site_occupancy
  Na  Na0  1  0.16024600  0.33975399  0.33975400  1
  Na  Na1  1  0.50000000  0.66024598  0.33975401  1
  Na  Na2  1  0.50000000  0.33975399  0.66024600  1
  Na  Na3  1  0.83975400  0.66024598  0.66024601  1
  Ag  Ag4  1  0.15731601  0.68536698  0.00000002  1
  Ag  Ag5  1  0.15731700  0.00000000  0.68536598  1
  Na  Na6  1  0.84268301  0.99999997  0.31463403  1
  Ag  Ag7  1  0.84268399  0.31463299  0.00000002  1
  O  O8  1  0.69109599  0.30890399  0.30890401  1
  O  O9  1  0.00000001  0.69109598  0.30890401  1
  O  O10  1  0.00000001  0.30890399  0.69109599  1
  O  O11  1  0.30890401  0.69109598  0.69109600  1
