# generated using pymatgen
data_Rb3ReO5
_symmetry_space_group_name_H-M   'P 1'
_cell_length_a   6.10974216
_cell_length_b   7.82870388
_cell_length_c   7.82870388
_cell_angle_alpha   90.00000000
_cell_angle_beta   90.00000000
_cell_angle_gamma   90.00000000
_symmetry_Int_Tables_number   1
_chemical_formula_structural   Rb3ReO5
_chemical_formula_sum   'Rb6 Re2 O10'
_cell_volume   374.45757079
_cell_formula_units_Z   2
loop_
 _symmetry_equiv_pos_site_id
 _symmetry_equiv_pos_as_xyz
  1  'x, y, z'
loop_
 _atom_site_type_symbol
 _atom_site_label
 _atom_site_symmetry_multiplicity
 _atom_site_fract_x
 _atom_site_fract_y
 _atom_site_fract_z
 _atom_site_occupancy
  Rb  Rb0  1  0.00000000  0.50000001  0.50000001  1
  Rb  Rb1  1  0.00000000  0.00000000  0.00000000  1
  Rb  Rb2  1  0.49999999  0.18375800  0.68375801  1
  Rb  Rb3  1  0.49999999  0.81624201  0.31624200  1
  Rb  Rb4  1  0.49999999  0.68375801  0.81624201  1
  Rb  Rb5  1  0.49999999  0.31624200  0.18375800  1
  O  O6  1  0.49999999  0.50000001  0.50000001  1
  O  O7  1  0.49999999  0.00000000  -0.00000000  1
  O  O8  1  0.81169998  0.60899901  0.10899900  1
  O  O9  1  0.81169998  0.39100101  0.89100101  1
  O  O10  1  0.81169998  0.10899900  0.39100101  1
  O  O11  1  0.81169998  0.89100101  0.60899901  1
  O  O12  1  0.18829999  0.39100101  0.89100101  1
  O  O13  1  0.18829999  0.60899901  0.10899900  1
  O  O14  1  0.18829999  0.89100101  0.60899901  1
  O  O15  1  0.18829999  0.10899900  0.39100101  1
  Re  Re16  1  0.00000000  0.50000001  -0.00000000  1
  Re  Re17  1  0.00000000  1.00000002  0.50000001  1
