# generated using pymatgen
data_CeSn2
_symmetry_space_group_name_H-M   'P 1'
_cell_length_a   4.66324711
_cell_length_b   7.84497309
_cell_length_c   8.43378544
_cell_angle_alpha   90.00000000
_cell_angle_beta   90.00000000
_cell_angle_gamma   90.00000000
_symmetry_Int_Tables_number   1
_chemical_formula_structural   CeSn2
_chemical_formula_sum   'Ce4 Sn8'
_cell_volume   308.53357807
_cell_formula_units_Z   4
loop_
 _symmetry_equiv_pos_site_id
 _symmetry_equiv_pos_as_xyz
  1  'x, y, z'
loop_
 _atom_site_type_symbol
 _atom_site_label
 _atom_site_symmetry_multiplicity
 _atom_site_fract_x
 _atom_site_fract_y
 _atom_site_fract_z
 _atom_site_occupancy
  Ce  Ce0  1  0.24999999  0.51439899  0.68392296  1
  Ce  Ce1  1  0.74999998  0.48560099  0.31607698  1
  Ce  Ce2  1  0.24999999  0.01439900  0.81607696  1
  Ce  Ce3  1  0.74999998  0.98560099  0.18392299  1
  Sn  Sn4  1  0.74999998  0.35381600  0.92487095  1
  Sn  Sn5  1  0.24999999  0.14618400  0.42487098  1
  Sn  Sn6  1  0.74999998  0.85381599  0.57512897  1
  Sn  Sn7  1  0.24999999  0.64618399  0.07512900  1
  Sn  Sn8  1  0.24999999  0.28067900  0.10498699  1
  Sn  Sn9  1  0.74999998  0.21932100  0.60498697  1
  Sn  Sn10  1  0.24999999  0.78067899  0.39501298  1
  Sn  Sn11  1  0.74999998  0.71932099  0.89501295  1
