# generated using pymatgen
data_ScO
_symmetry_space_group_name_H-M   'P 1'
_cell_length_a   4.49293423
_cell_length_b   4.49293423
_cell_length_c   5.29996681
_cell_angle_alpha   115.07880402
_cell_angle_beta   115.07880402
_cell_angle_gamma   90.00000000
_symmetry_Int_Tables_number   1
_chemical_formula_structural   ScO
_chemical_formula_sum   'Sc4 O4'
_cell_volume   85.63536722
_cell_formula_units_Z   4
loop_
 _symmetry_equiv_pos_site_id
 _symmetry_equiv_pos_as_xyz
  1  'x, y, z'
loop_
 _atom_site_type_symbol
 _atom_site_label
 _atom_site_symmetry_multiplicity
 _atom_site_fract_x
 _atom_site_fract_y
 _atom_site_fract_z
 _atom_site_occupancy
  Sc  Sc0  1  0.25000004  0.74999999  0.50000009  1
  Sc  Sc1  1  0.75000000  0.25000000  0.50000007  1
  Sc  Sc2  1  0.50000002  0.49999999  0.00000007  1
  Sc  Sc3  1  0.00000000  0.00000000  0.00000000  1
  O  O4  1  0.23765501  0.23765500  0.47531005  1
  O  O5  1  0.76234503  0.76234499  0.52469012  1
  O  O6  1  0.00000003  0.49999999  0.00000004  1
  O  O7  1  0.49999999  0.00000000  0.00000003  1
