# generated using pymatgen
data_Ce(MnAl2)4
_symmetry_space_group_name_H-M   'P 1'
_cell_length_a   5.06287289
_cell_length_b   6.77492952
_cell_length_c   6.77492952
_cell_angle_alpha   81.97457123
_cell_angle_beta   68.05924988
_cell_angle_gamma   68.05924225
_symmetry_Int_Tables_number   1
_chemical_formula_structural   Ce(MnAl2)4
_chemical_formula_sum   'Ce1 Mn4 Al8'
_cell_volume   199.94044129
_cell_formula_units_Z   1
loop_
 _symmetry_equiv_pos_site_id
 _symmetry_equiv_pos_as_xyz
  1  'x, y, z'
loop_
 _atom_site_type_symbol
 _atom_site_label
 _atom_site_symmetry_multiplicity
 _atom_site_fract_x
 _atom_site_fract_y
 _atom_site_fract_z
 _atom_site_occupancy
  Ce  Ce0  1  0.00000000  0.00000000  0.00000000  1
  Al  Al1  1  0.33529402  0.66470602  0.66470597  1
  Al  Al2  1  0.66470602  0.33529401  0.33529398  1
  Al  Al3  1  0.00000001  0.66470602  0.33529398  1
  Al  Al4  1  0.00000000  0.33529401  0.66470598  1
  Al  Al5  1  0.27813701  0.22186301  0.22186299  1
  Al  Al6  1  0.72186303  0.77813702  0.77813696  1
  Al  Al7  1  0.50000001  0.22186301  0.77813698  1
  Al  Al8  1  0.50000002  0.77813702  0.22186298  1
  Mn  Mn9  1  0.50000001  0.00000000  0.49999999  1
  Mn  Mn10  1  0.00000000  0.00000000  0.49999999  1
  Mn  Mn11  1  0.50000002  0.50000002  -0.00000001  1
  Mn  Mn12  1  1.00000003  0.50000002  -0.00000001  1
