# generated using pymatgen
data_UNiGeTe5
_symmetry_space_group_name_H-M   'P 1'
_cell_length_a   4.35275078
_cell_length_b   6.92846489
_cell_length_c   7.50310469
_cell_angle_alpha   90.60680389
_cell_angle_beta   90.00000000
_cell_angle_gamma   90.00000000
_symmetry_Int_Tables_number   1
_chemical_formula_structural   UNiGeTe5
_chemical_formula_sum   'U1 Ni1 Ge1 Te5'
_cell_volume   226.26504789
_cell_formula_units_Z   1
loop_
 _symmetry_equiv_pos_site_id
 _symmetry_equiv_pos_as_xyz
  1  'x, y, z'
loop_
 _atom_site_type_symbol
 _atom_site_label
 _atom_site_symmetry_multiplicity
 _atom_site_fract_x
 _atom_site_fract_y
 _atom_site_fract_z
 _atom_site_occupancy
  Te  Te0  1  0.00000000  0.00000000  0.00000000  1
  Te  Te1  1  0.50000003  0.00000000  0.50000001  1
  Ge  Ge2  1  0.50000003  0.35120401  0.83747900  1
  Ni  Ni3  1  0.50000003  0.64879601  0.16252099  1
  Te  Te4  1  0.00000000  0.73353101  0.33856899  1
  Te  Te5  1  0.50000003  0.73875001  0.82509600  1
  U  U6  1  0.50000003  0.26125000  0.17490400  1
  Te  Te7  1  0.00000000  0.26646900  0.66143100  1
