# generated using pymatgen
data_La2Se3
_symmetry_space_group_name_H-M   'P 1'
_cell_length_a   4.41006184
_cell_length_b   7.65932369
_cell_length_c   9.88823509
_cell_angle_alpha   75.16799164
_cell_angle_beta   77.11496735
_cell_angle_gamma   73.26841736
_symmetry_Int_Tables_number   1
_chemical_formula_structural   La2Se3
_chemical_formula_sum   'La4 Se6'
_cell_volume   305.15986333
_cell_formula_units_Z   2
loop_
 _symmetry_equiv_pos_site_id
 _symmetry_equiv_pos_as_xyz
  1  'x, y, z'
loop_
 _atom_site_type_symbol
 _atom_site_label
 _atom_site_symmetry_multiplicity
 _atom_site_fract_x
 _atom_site_fract_y
 _atom_site_fract_z
 _atom_site_occupancy
  La  La0  1  0.60086804  0.19647299  0.60179098  1
  La  La1  1  0.20007504  0.40438198  0.19546801  1
  La  La2  1  0.79992508  0.59561798  0.80453199  1
  La  La3  1  0.39913207  0.80352697  0.39820902  1
  Se  Se4  1  0.00000000  0.00000000  0.00000000  1
  Se  Se5  1  0.00000003  0.49999998  0.50000001  1
  Se  Se6  1  0.59135408  0.72597397  0.09131801  1
  Se  Se7  1  0.19256407  0.90190396  0.71296802  1
  Se  Se8  1  0.80743605  0.09809600  0.28703198  1
  Se  Se9  1  0.40864604  0.27402599  0.90868198  1
