# generated using pymatgen
data_Sc2P3Ru
_symmetry_space_group_name_H-M   'P 1'
_cell_length_a   3.60507393
_cell_length_b   4.93948698
_cell_length_c   4.95402002
_cell_angle_alpha   90.00000000
_cell_angle_beta   90.00000000
_cell_angle_gamma   111.40290070
_symmetry_Int_Tables_number   1
_chemical_formula_structural   Sc2P3Ru
_chemical_formula_sum   'Sc2 P3 Ru1'
_cell_volume   82.13360361
_cell_formula_units_Z   1
loop_
 _symmetry_equiv_pos_site_id
 _symmetry_equiv_pos_as_xyz
  1  'x, y, z'
loop_
 _atom_site_type_symbol
 _atom_site_label
 _atom_site_symmetry_multiplicity
 _atom_site_fract_x
 _atom_site_fract_y
 _atom_site_fract_z
 _atom_site_occupancy
  Sc  Sc0  1  0.71046902  0.42093802  0.25000000  1
  Sc  Sc1  1  0.28953101  0.57906202  0.75000000  1
  Ru  Ru2  1  0.00000000  0.00000000  0.50000000  1
  P  P3  1  0.00000000  0.00000000  0.00000000  1
  P  P4  1  0.58313101  0.16626201  0.75000000  1
  P  P5  1  0.41686901  0.83373803  0.25000000  1
