# generated using pymatgen
data_BaNa9P4
_symmetry_space_group_name_H-M   'P 1'
_cell_length_a   6.48531199
_cell_length_b   7.17022848
_cell_length_c   8.45997620
_cell_angle_alpha   96.29114532
_cell_angle_beta   112.53785706
_cell_angle_gamma   90.00000000
_symmetry_Int_Tables_number   1
_chemical_formula_structural   BaNa9P4
_chemical_formula_sum   'Ba1 Na9 P4'
_cell_volume   360.78720868
_cell_formula_units_Z   1
loop_
 _symmetry_equiv_pos_site_id
 _symmetry_equiv_pos_as_xyz
  1  'x, y, z'
loop_
 _atom_site_type_symbol
 _atom_site_label
 _atom_site_symmetry_multiplicity
 _atom_site_fract_x
 _atom_site_fract_y
 _atom_site_fract_z
 _atom_site_occupancy
  Na  Na0  1  0.78795101  0.08171900  0.81822904  1
  Na  Na1  1  0.96972301  0.41828100  0.18177102  1
  Na  Na2  1  0.21204899  0.91828101  0.18177097  1
  Na  Na3  1  0.03027699  0.58171901  0.81822899  1
  Na  Na4  1  0.21157100  0.18135300  0.55756601  1
  Na  Na5  1  0.65400501  0.31864700  0.44243402  1
  Na  Na6  1  0.78842900  0.81864701  0.44243400  1
  Na  Na7  1  0.34599500  0.68135301  0.55756599  1
  Na  Na8  1  0.42729100  0.25000000  0.00000000  1
  Ba  Ba9  1  0.57270900  0.75000001  -0.00000001  1
  P  P10  1  0.60824601  0.42663800  0.78104201  1
  P  P11  1  0.82720502  0.07336200  0.21895803  1
  P  P12  1  0.39175400  0.57336201  0.21895799  1
  P  P13  1  0.17279499  0.92663801  0.78104198  1
