# generated using pymatgen
data_Na6Ce3O4
_symmetry_space_group_name_H-M   'P 1'
_cell_length_a   7.28172064
_cell_length_b   7.28172064
_cell_length_c   7.28172064
_cell_angle_alpha   60.00000000
_cell_angle_beta   60.00000000
_cell_angle_gamma   60.00000000
_symmetry_Int_Tables_number   1
_chemical_formula_structural   Na6Ce3O4
_chemical_formula_sum   'Na6 Ce3 O4'
_cell_volume   273.01533528
_cell_formula_units_Z   1
loop_
 _symmetry_equiv_pos_site_id
 _symmetry_equiv_pos_as_xyz
  1  'x, y, z'
loop_
 _atom_site_type_symbol
 _atom_site_label
 _atom_site_symmetry_multiplicity
 _atom_site_fract_x
 _atom_site_fract_y
 _atom_site_fract_z
 _atom_site_occupancy
  Na  Na0  1  0.00000000  0.00000000  0.00000000  1
  O  O1  1  0.60004000  0.19988000  0.60004000  1
  O  O2  1  0.60004000  0.60004000  0.60004000  1
  O  O3  1  0.60004000  0.60004000  0.19988000  1
  O  O4  1  0.19988000  0.60004000  0.60004000  1
  Na  Na5  1  0.86272899  0.41181500  0.86272799  1
  Na  Na6  1  0.86272899  0.86272799  0.86272799  1
  Na  Na7  1  0.86272899  0.86272799  0.41181500  1
  Ce  Ce8  1  0.90656899  0.36447700  0.36447700  1
  Ce  Ce9  1  0.36447700  0.36447700  0.90656899  1
  Na  Na10  1  0.36447700  0.36447700  0.36447700  1
  Ce  Ce11  1  0.36447700  0.90656899  0.36447700  1
  Na  Na12  1  0.41181600  0.86272799  0.86272799  1
