# generated using pymatgen
data_Cs2V2O7F
_symmetry_space_group_name_H-M   'P 1'
_cell_length_a   6.06440020
_cell_length_b   6.06440020
_cell_length_c   8.65560818
_cell_angle_alpha   110.50666046
_cell_angle_beta   110.50666046
_cell_angle_gamma   90.00000000
_symmetry_Int_Tables_number   1
_chemical_formula_structural   Cs2V2O7F
_chemical_formula_sum   'Cs2 V2 O7 F1'
_cell_volume   276.51540387
_cell_formula_units_Z   1
loop_
 _symmetry_equiv_pos_site_id
 _symmetry_equiv_pos_as_xyz
  1  'x, y, z'
loop_
 _atom_site_type_symbol
 _atom_site_label
 _atom_site_symmetry_multiplicity
 _atom_site_fract_x
 _atom_site_fract_y
 _atom_site_fract_z
 _atom_site_occupancy
  Cs  Cs0  1  0.74999999  0.25000000  0.50000001  1
  Cs  Cs1  1  0.00000000  0.00000000  0.00000000  1
  V  V2  1  0.50000000  0.49999999  0.00000003  1
  V  V3  1  0.25000001  0.74999999  0.50000001  1
  O  O4  1  0.07906702  0.81673499  0.63347001  1
  O  O5  1  0.56673500  0.32906699  0.13347102  1
  O  O6  1  0.56673501  0.80440299  0.13347003  1
  O  O7  1  0.67093300  0.43326499  0.86653000  1
  F  F8  1  0.19559601  0.43326399  0.86652899  1
  O  O9  1  0.18326502  0.92093298  0.36652902  1
  O  O10  1  0.18326501  0.44559699  0.36653001  1
  O  O11  1  0.55440401  0.81673599  0.63347102  1
