# generated using pymatgen
data_EuSiPt
_symmetry_space_group_name_H-M   'P 1'
_cell_length_a   4.22861385
_cell_length_b   4.22861385
_cell_length_c   6.62255192
_cell_angle_alpha   90.00000000
_cell_angle_beta   90.00000000
_cell_angle_gamma   90.00000000
_symmetry_Int_Tables_number   1
_chemical_formula_structural   EuSiPt
_chemical_formula_sum   'Eu2 Si2 Pt2'
_cell_volume   118.41901060
_cell_formula_units_Z   2
loop_
 _symmetry_equiv_pos_site_id
 _symmetry_equiv_pos_as_xyz
  1  'x, y, z'
loop_
 _atom_site_type_symbol
 _atom_site_label
 _atom_site_symmetry_multiplicity
 _atom_site_fract_x
 _atom_site_fract_y
 _atom_site_fract_z
 _atom_site_occupancy
  Eu  Eu0  1  0.50000002  0.00000000  0.67775301  1
  Eu  Eu1  1  0.00000000  0.50000002  0.32224700  1
  Si  Si2  1  0.50000002  0.00000000  0.18552900  1
  Si  Si3  1  0.00000000  0.50000002  0.81447101  1
  Pt  Pt4  1  0.00000000  0.00000000  0.00000000  1
  Pt  Pt5  1  0.50000002  0.50000002  -0.00000000  1
