# generated using pymatgen
data_MnVO3
_symmetry_space_group_name_H-M   'P 1'
_cell_length_a   5.34520197
_cell_length_b   5.34520197
_cell_length_c   5.61691236
_cell_angle_alpha   61.58769226
_cell_angle_beta   61.58769226
_cell_angle_gamma   60.00000000
_symmetry_Int_Tables_number   1
_chemical_formula_structural   MnVO3
_chemical_formula_sum   'Mn2 V2 O6'
_cell_volume   116.12519862
_cell_formula_units_Z   2
loop_
 _symmetry_equiv_pos_site_id
 _symmetry_equiv_pos_as_xyz
  1  'x, y, z'
loop_
 _atom_site_type_symbol
 _atom_site_label
 _atom_site_symmetry_multiplicity
 _atom_site_fract_x
 _atom_site_fract_y
 _atom_site_fract_z
 _atom_site_occupancy
  Mn  Mn0  1  0.50482397  0.50482400  0.48552804  1
  Mn  Mn1  1  0.99790194  0.99790199  0.00629405  1
  V  V2  1  0.78107595  0.78107599  0.65677206  1
  V  V3  1  0.28038398  0.28038400  0.15884802  1
  O  O4  1  0.42412099  0.05541200  0.86080403  1
  O  O5  1  0.65966297  0.42412100  0.86080405  1
  O  O6  1  0.05541197  0.65966300  0.86080404  1
  O  O7  1  0.56227695  0.92143399  0.36142205  1
  O  O8  1  0.15486697  0.56227700  0.36142203  1
  O  O9  1  0.92143397  0.15486700  0.36142203  1
