# generated using pymatgen
data_Rb2MnCdTe4
_symmetry_space_group_name_H-M   'P 1'
_cell_length_a   7.51693106
_cell_length_b   8.19266415
_cell_length_c   9.59480762
_cell_angle_alpha   90.00000000
_cell_angle_beta   90.00000000
_cell_angle_gamma   103.28768158
_symmetry_Int_Tables_number   1
_chemical_formula_structural   Rb2MnCdTe4
_chemical_formula_sum   'Rb4 Mn2 Cd2 Te8'
_cell_volume   575.06471900
_cell_formula_units_Z   2
loop_
 _symmetry_equiv_pos_site_id
 _symmetry_equiv_pos_as_xyz
  1  'x, y, z'
loop_
 _atom_site_type_symbol
 _atom_site_label
 _atom_site_symmetry_multiplicity
 _atom_site_fract_x
 _atom_site_fract_y
 _atom_site_fract_z
 _atom_site_occupancy
  Rb  Rb0  1  0.21102801  0.86747103  0.56851902  1
  Rb  Rb1  1  0.28897200  0.13252901  0.06851900  1
  Rb  Rb2  1  0.78897200  0.13252901  0.43148102  1
  Rb  Rb3  1  0.71102801  0.86747103  0.93148104  1
  Cd  Cd4  1  0.86274900  0.41114502  0.83356703  1
  Mn  Mn5  1  0.63725100  0.58885502  0.33356701  1
  Cd  Cd6  1  0.13725101  0.58885502  0.16643301  1
  Mn  Mn7  1  0.36274900  0.41114502  0.66643303  1
  Te  Te8  1  0.53976400  0.19273001  0.74563003  1
  Te  Te9  1  0.96023600  0.80727003  0.24563001  1
  Te  Te10  1  0.46023601  0.80727003  0.25437001  1
  Te  Te11  1  0.03976400  0.19273001  0.75437003  1
  Te  Te12  1  0.80620200  0.32963401  0.09128900  1
  Te  Te13  1  0.69379800  0.67036603  0.59128902  1
  Te  Te14  1  0.19379801  0.67036603  0.90871104  1
  Te  Te15  1  0.30620200  0.32963401  0.40871102  1
