# generated using pymatgen
data_LaW5C2ClO
_symmetry_space_group_name_H-M   'P 1'
_cell_length_a   5.61053991
_cell_length_b   5.61053991
_cell_length_c   6.16040897
_cell_angle_alpha   105.29660034
_cell_angle_beta   105.29660034
_cell_angle_gamma   114.87609100
_symmetry_Int_Tables_number   1
_chemical_formula_structural   LaW5C2ClO
_chemical_formula_sum   'La1 W5 C2 Cl1 O1'
_cell_volume   153.34212569
_cell_formula_units_Z   1
loop_
 _symmetry_equiv_pos_site_id
 _symmetry_equiv_pos_as_xyz
  1  'x, y, z'
loop_
 _atom_site_type_symbol
 _atom_site_label
 _atom_site_symmetry_multiplicity
 _atom_site_fract_x
 _atom_site_fract_y
 _atom_site_fract_z
 _atom_site_occupancy
  Cl  Cl0  1  0.50000010  0.50000006  0.00000008  1
  W  W1  1  0.75000007  0.25000003  0.50000005  1
  O  O2  1  0.17740613  0.82259410  0.00000010  1
  C  C3  1  0.07259414  0.92740611  0.50000009  1
  La  La4  1  0.82259406  0.17740602  0.00000006  1
  C  C5  1  0.42740610  0.57259407  0.50000007  1
  W  W6  1  0.87067117  0.87067111  0.74134212  1
  W  W7  1  0.12932903  0.12932902  0.25865801  1
  W  W8  1  0.37932915  0.87932911  0.75865809  1
  W  W9  1  0.12067110  0.62067108  0.24134207  1
