# generated using pymatgen
data_Te4W3S2
_symmetry_space_group_name_H-M   'P 1'
_cell_length_a   3.42162609
_cell_length_b   3.42162681
_cell_length_c   31.71115112
_cell_angle_alpha   90.00000000
_cell_angle_beta   90.00000000
_cell_angle_gamma   119.99999237
_symmetry_Int_Tables_number   1
_chemical_formula_structural   Te4W3S2
_chemical_formula_sum   'Te4 W3 S2'
_cell_volume   321.51990212
_cell_formula_units_Z   1
loop_
 _symmetry_equiv_pos_site_id
 _symmetry_equiv_pos_as_xyz
  1  'x, y, z'
loop_
 _atom_site_type_symbol
 _atom_site_label
 _atom_site_symmetry_multiplicity
 _atom_site_fract_x
 _atom_site_fract_y
 _atom_site_fract_z
 _atom_site_occupancy
  Te  Te0  1  0.00000000  0.00000000  0.59434400  1
  Te  Te1  1  0.66666665  0.33333334  0.48038700  1
  Te  Te2  1  0.66666665  0.33333334  0.36279500  1
  Te  Te3  1  0.00000000  0.00000000  0.71193600  1
  W  W4  1  0.00000000  0.00000000  0.88435000  1
  W  W5  1  0.00000000  0.00000000  0.42155800  1
  W  W6  1  0.66666665  0.33333334  0.65315800  1
  S  S7  1  0.66666665  0.33333334  0.93148000  1
  S  S8  1  0.66666665  0.33333334  0.83715100  1
