# generated using pymatgen
data_Al7Pd
_symmetry_space_group_name_H-M   'P 1'
_cell_length_a   3.96763110
_cell_length_b   5.30869913
_cell_length_c   5.30869913
_cell_angle_alpha   94.37626648
_cell_angle_beta   90.00000000
_cell_angle_gamma   90.00000000
_symmetry_Int_Tables_number   1
_chemical_formula_structural   Al7Pd
_chemical_formula_sum   'Al7 Pd1'
_cell_volume   111.49090801
_cell_formula_units_Z   1
loop_
 _symmetry_equiv_pos_site_id
 _symmetry_equiv_pos_as_xyz
  1  'x, y, z'
loop_
 _atom_site_type_symbol
 _atom_site_label
 _atom_site_symmetry_multiplicity
 _atom_site_fract_x
 _atom_site_fract_y
 _atom_site_fract_z
 _atom_site_occupancy
  Al  Al0  1  0.00000000  0.00000000  0.00000000  1
  Pd  Pd1  1  -0.00000000  0.49999999  0.49999997  1
  Al  Al2  1  0.49999999  0.78230999  0.21768996  1
  Al  Al3  1  0.49999999  0.21769000  0.78230998  1
  Al  Al4  1  0.99999997  0.00000000  0.50000000  1
  Al  Al5  1  -0.00000000  0.49999999  -0.00000002  1
  Al  Al6  1  0.49999999  0.27343600  0.27343599  1
  Al  Al7  1  0.49999999  0.72656399  0.72656396  1
