# generated using pymatgen
data_Sr4BrO5
_symmetry_space_group_name_H-M   'P 1'
_cell_length_a   6.35345221
_cell_length_b   6.97091484
_cell_length_c   9.53949547
_cell_angle_alpha   90.00000000
_cell_angle_beta   90.00000000
_cell_angle_gamma   90.00000000
_symmetry_Int_Tables_number   1
_chemical_formula_structural   Sr4BrO5
_chemical_formula_sum   'Sr8 Br2 O10'
_cell_volume   422.49828514
_cell_formula_units_Z   2
loop_
 _symmetry_equiv_pos_site_id
 _symmetry_equiv_pos_as_xyz
  1  'x, y, z'
loop_
 _atom_site_type_symbol
 _atom_site_label
 _atom_site_symmetry_multiplicity
 _atom_site_fract_x
 _atom_site_fract_y
 _atom_site_fract_z
 _atom_site_occupancy
  Sr  Sr0  1  0.45855799  0.60112601  0.50813798  1
  Sr  Sr1  1  0.54144198  0.39887401  0.00813800  1
  Sr  Sr2  1  0.95855797  0.89887402  0.00813800  1
  Sr  Sr3  1  0.04144200  0.10112600  0.50813798  1
  Sr  Sr4  1  0.99649597  0.50401601  0.26181599  1
  Sr  Sr5  1  0.00350400  0.49598401  0.76181596  1
  Sr  Sr6  1  0.49649598  0.99598402  0.76181596  1
  Sr  Sr7  1  0.50350398  0.00401600  0.26181599  1
  O  O8  1  0.17382699  0.81365502  0.68425997  1
  O  O9  1  0.82617297  0.18634500  0.18425999  1
  O  O10  1  0.67382698  0.68634502  0.18425999  1
  O  O11  1  0.32617299  0.31365501  0.68425997  1
  O  O12  1  0.17687799  0.81896602  0.33038798  1
  Br  Br13  1  0.82312197  0.18103400  0.83038796  1
  O  O14  1  0.67687798  0.68103402  0.83038796  1
  O  O15  1  0.32312199  0.31896601  0.33038798  1
  Br  Br16  1  0.14709900  0.54981201  0.01039800  1
  O  O17  1  0.85290097  0.45018801  0.51039797  1
  O  O18  1  0.64709898  0.95018802  0.51039797  1
  O  O19  1  0.35290099  0.04981200  0.01039800  1
