# generated using pymatgen
data_DyTaO4
_symmetry_space_group_name_H-M   'P 1'
_cell_length_a   3.52678394
_cell_length_b   5.02404499
_cell_length_c   5.02404499
_cell_angle_alpha   92.02894592
_cell_angle_beta   90.00000000
_cell_angle_gamma   90.00000000
_symmetry_Int_Tables_number   1
_chemical_formula_structural   DyTaO4
_chemical_formula_sum   'Dy1 Ta1 O4'
_cell_volume   88.96384324
_cell_formula_units_Z   1
loop_
 _symmetry_equiv_pos_site_id
 _symmetry_equiv_pos_as_xyz
  1  'x, y, z'
loop_
 _atom_site_type_symbol
 _atom_site_label
 _atom_site_symmetry_multiplicity
 _atom_site_fract_x
 _atom_site_fract_y
 _atom_site_fract_z
 _atom_site_occupancy
  Ta  Ta0  1  0.00000000  0.00000000  0.00000000  1
  Dy  Dy1  1  0.50000001  0.50000001  0.50000002  1
  O  O2  1  -0.00000000  0.28291701  0.28291701  1
  O  O3  1  0.50000001  0.82411602  0.17588402  1
  O  O4  1  -0.00000000  0.71708301  0.71708303  1
  O  O5  1  0.50000001  0.17588400  0.82411602  1
