# generated using pymatgen
data_SrCuO3
_symmetry_space_group_name_H-M   'P 1'
_cell_length_a   3.77277994
_cell_length_b   6.55100060
_cell_length_c   6.70894527
_cell_angle_alpha   104.36370087
_cell_angle_beta   90.00000000
_cell_angle_gamma   106.73553467
_symmetry_Int_Tables_number   1
_chemical_formula_structural   SrCuO3
_chemical_formula_sum   'Sr2 Cu2 O6'
_cell_volume   153.37113249
_cell_formula_units_Z   2
loop_
 _symmetry_equiv_pos_site_id
 _symmetry_equiv_pos_as_xyz
  1  'x, y, z'
loop_
 _atom_site_type_symbol
 _atom_site_label
 _atom_site_symmetry_multiplicity
 _atom_site_fract_x
 _atom_site_fract_y
 _atom_site_fract_z
 _atom_site_occupancy
  Sr  Sr0  1  0.38392003  0.76783999  0.67013999  1
  Sr  Sr1  1  0.61608002  0.23216000  0.32986000  1
  Cu  Cu2  1  0.84274003  0.68547999  0.14059998  1
  Cu  Cu3  1  0.15726001  0.31452000  0.85940000  1
  O  O4  1  0.68192002  0.36384000  0.98777000  1
  O  O5  1  0.99320004  0.98639999  0.09143997  1
  O  O6  1  0.00680000  0.01360000  0.90856001  1
  O  O7  1  0.84368003  0.68735999  0.40419999  1
  O  O8  1  0.31808002  0.63615999  0.01222998  1
  O  O9  1  0.15632001  0.31264000  0.59580000  1
