# generated using pymatgen
data_La2(CuTe5)3
_symmetry_space_group_name_H-M   'P 1'
_cell_length_a   3.97188807
_cell_length_b   8.91396141
_cell_length_c   14.46718025
_cell_angle_alpha   90.00000000
_cell_angle_beta   90.00000000
_cell_angle_gamma   90.00000000
_symmetry_Int_Tables_number   1
_chemical_formula_structural   La2(CuTe5)3
_chemical_formula_sum   'La2 Cu3 Te15'
_cell_volume   512.21423404
_cell_formula_units_Z   1
loop_
 _symmetry_equiv_pos_site_id
 _symmetry_equiv_pos_as_xyz
  1  'x, y, z'
loop_
 _atom_site_type_symbol
 _atom_site_label
 _atom_site_symmetry_multiplicity
 _atom_site_fract_x
 _atom_site_fract_y
 _atom_site_fract_z
 _atom_site_occupancy
  La  La0  1  0.25000000  0.43732298  0.32220499  1
  Te  Te1  1  0.25000000  0.93732296  0.17779500  1
  La  La2  1  0.74999999  0.56267697  0.67779499  1
  Te  Te3  1  0.74999999  0.06267700  0.82220499  1
  Cu  Cu4  1  0.25000000  0.17024599  0.55658599  1
  Te  Te5  1  0.25000000  0.67024597  0.94341398  1
  Cu  Cu6  1  0.74999999  0.82975396  0.44341399  1
  Cu  Cu7  1  0.74999999  0.32975398  0.05658600  1
  Te  Te8  1  0.25000000  0.02123800  0.38980599  1
  Te  Te9  1  0.25000000  0.52123798  0.11019400  1
  Te  Te10  1  0.74999999  0.97876195  0.61019399  1
  Te  Te11  1  0.74999999  0.47876198  0.88980598  1
  Te  Te12  1  0.25000000  0.15694499  0.98531098  1
  Te  Te13  1  0.25000000  0.65694497  0.51468899  1
  Te  Te14  1  0.74999999  0.84305496  0.01468900  1
  Te  Te15  1  0.74999999  0.34305498  0.48531099  1
  Te  Te16  1  0.25000000  0.29396499  0.72056699  1
  Te  Te17  1  0.25000000  0.79396496  0.77943299  1
  Te  Te18  1  0.74999999  0.70603497  0.27943300  1
  Te  Te19  1  0.74999999  0.20603499  0.22056700  1
