# generated using pymatgen
data_Rb9Br9Cl2
_symmetry_space_group_name_H-M   'P 1'
_cell_length_a   4.29260015
_cell_length_b   14.38930607
_cell_length_c   14.38930607
_cell_angle_alpha   120.00000000
_cell_angle_beta   90.00000000
_cell_angle_gamma   90.00000000
_symmetry_Int_Tables_number   1
_chemical_formula_structural   Rb9Br9Cl2
_chemical_formula_sum   'Rb9 Br9 Cl2'
_cell_volume   769.71645204
_cell_formula_units_Z   1
loop_
 _symmetry_equiv_pos_site_id
 _symmetry_equiv_pos_as_xyz
  1  'x, y, z'
loop_
 _atom_site_type_symbol
 _atom_site_label
 _atom_site_symmetry_multiplicity
 _atom_site_fract_x
 _atom_site_fract_y
 _atom_site_fract_z
 _atom_site_occupancy
  Rb  Rb0  1  -0.00000000  0.33333333  0.66666669  1
  Rb  Rb1  1  -0.00000000  0.66666667  0.33333335  1
  Rb  Rb2  1  0.99999996  0.28310300  1.00000003  1
  Rb  Rb3  1  0.00000000  0.71689700  0.71689703  1
  Rb  Rb4  1  0.99999996  1.00000000  0.28310303  1
  Rb  Rb5  1  0.49999998  0.67599500  0.00000001  1
  Rb  Rb6  1  0.49999998  0.32400500  0.32400501  1
  Rb  Rb7  1  0.49999998  0.00000000  0.67599502  1
  Br  Br8  1  0.00000000  0.81324500  1.00000004  1
  Br  Br9  1  -0.00000000  0.18675500  0.18675501  1
  Br  Br10  1  0.00000000  1.00000000  0.81324504  1
  Rb  Rb11  1  0.00000000  0.54126600  1.00000003  1
  Br  Br12  1  0.00000000  0.45873400  0.45873402  1
  Br  Br13  1  0.99999996  1.00000000  0.54126603  1
  Br  Br14  1  0.49999998  0.21116300  0.43926901  1
  Br  Br15  1  0.49999998  0.22810600  0.78883702  1
  Cl  Cl16  1  0.49999998  0.78883700  0.22810602  1
  Br  Br17  1  0.49999998  0.56073100  0.77189403  1
  Br  Br18  1  0.49999998  0.77189400  0.56073103  1
  Cl  Cl19  1  0.49999998  0.43926900  0.21116301  1
