# generated using pymatgen
data_LaS
_symmetry_space_group_name_H-M   'P 1'
_cell_length_a   7.90466404
_cell_length_b   8.54373169
_cell_length_c   7.93404198
_cell_angle_alpha   90.00000000
_cell_angle_beta   90.00000000
_cell_angle_gamma   117.55502319
_symmetry_Int_Tables_number   1
_chemical_formula_structural   LaS
_chemical_formula_sum   'La9 S9'
_cell_volume   475.04753477
_cell_formula_units_Z   9
loop_
 _symmetry_equiv_pos_site_id
 _symmetry_equiv_pos_as_xyz
  1  'x, y, z'
loop_
 _atom_site_type_symbol
 _atom_site_label
 _atom_site_symmetry_multiplicity
 _atom_site_fract_x
 _atom_site_fract_y
 _atom_site_fract_z
 _atom_site_occupancy
  La  La0  1  0.96316901  0.25605302  0.66384500  1
  La  La1  1  0.03683105  0.74394705  0.33615500  1
  La  La2  1  0.53683104  0.74394705  0.16384500  1
  La  La3  1  0.20711605  0.74394705  0.83615500  1
  La  La4  1  0.46316901  0.25605302  0.83615500  1
  La  La5  1  0.79288401  0.25605302  0.16384500  1
  La  La6  1  0.29288401  0.25605302  0.33615500  1
  La  La7  1  0.70711604  0.74394705  0.66384500  1
  S  S8  1  0.00000000  0.00000000  0.00000000  1
  La  La9  1  0.50000006  1.00000007  0.50000000  1
  S  S10  1  0.63837200  0.00000000  0.86277900  1
  S  S11  1  0.36162800  0.00000000  0.13722100  1
  S  S12  1  0.86162806  1.00000007  0.36277900  1
  S  S13  1  0.13837200  0.00000000  0.63722100  1
  S  S14  1  0.20493902  0.40987803  -0.00000000  1
  S  S15  1  0.79506103  0.59012204  -0.00000000  1
  S  S16  1  0.29506104  0.59012204  0.50000000  1
  S  S17  1  0.70493902  0.40987803  0.50000000  1
