# generated using pymatgen
data_Sm2Ga9Co8
_symmetry_space_group_name_H-M   'P 1'
_cell_length_a   6.55423832
_cell_length_b   6.55423832
_cell_length_c   6.55423784
_cell_angle_alpha   83.31954193
_cell_angle_beta   83.31954193
_cell_angle_gamma   83.31953430
_symmetry_Int_Tables_number   1
_chemical_formula_structural   Sm2Ga9Co8
_chemical_formula_sum   'Sm2 Ga9 Co8'
_cell_volume   276.23463764
_cell_formula_units_Z   1
loop_
 _symmetry_equiv_pos_site_id
 _symmetry_equiv_pos_as_xyz
  1  'x, y, z'
loop_
 _atom_site_type_symbol
 _atom_site_label
 _atom_site_symmetry_multiplicity
 _atom_site_fract_x
 _atom_site_fract_y
 _atom_site_fract_z
 _atom_site_occupancy
  Sm  Sm0  1  0.34699499  0.34699500  0.34699503  1
  Sm  Sm1  1  0.65300498  0.65300500  0.65300505  1
  Ga  Ga2  1  0.00000000  0.00000000  0.49999999  1
  Co  Co3  1  -0.00000002  0.50000000  0.00000003  1
  Co  Co4  1  0.50000000  0.00000000  0.00000003  1
  Ga  Ga5  1  0.09993700  0.09993700  0.09993701  1
  Ga  Ga6  1  0.90006297  0.90006300  0.90006307  1
  Ga  Ga7  1  0.68814399  0.31185600  0.00000005  1
  Co  Co8  1  0.31185600  0.00000000  0.68814400  1
  Co  Co9  1  -0.00000002  0.68814400  0.31185603  1
  Ga  Ga10  1  0.68814397  1.00000001  0.31185608  1
  Co  Co11  1  -0.00000001  0.31185600  0.68814400  1
  Ga  Ga12  1  0.31185598  0.68814400  0.00000005  1
  Co  Co13  1  0.16438498  0.65234500  0.65234503  1
  Co  Co14  1  0.65234498  0.65234500  0.16438507  1
  Co  Co15  1  0.65234500  0.16438500  0.65234503  1
  Ga  Ga16  1  0.83561499  0.34765500  0.34765505  1
  Ga  Ga17  1  0.34765499  0.34765500  0.83561502  1
  Ga  Ga18  1  0.34765497  0.83561500  0.34765506  1
