# generated using pymatgen
data_NaMn5O6
_symmetry_space_group_name_H-M   'P 1'
_cell_length_a   3.65126991
_cell_length_b   4.13628292
_cell_length_c   10.08905506
_cell_angle_alpha   90.00000000
_cell_angle_beta   90.00000000
_cell_angle_gamma   90.00000000
_symmetry_Int_Tables_number   1
_chemical_formula_structural   NaMn5O6
_chemical_formula_sum   'Na1 Mn5 O6'
_cell_volume   152.37182437
_cell_formula_units_Z   1
loop_
 _symmetry_equiv_pos_site_id
 _symmetry_equiv_pos_as_xyz
  1  'x, y, z'
loop_
 _atom_site_type_symbol
 _atom_site_label
 _atom_site_symmetry_multiplicity
 _atom_site_fract_x
 _atom_site_fract_y
 _atom_site_fract_z
 _atom_site_occupancy
  Na  Na0  1  0.38777801  0.00000000  0.00000000  1
  Mn  Mn1  1  0.61222201  0.50000001  0.50000000  1
  Mn  Mn2  1  0.12527900  0.00000000  0.66370300  1
  Mn  Mn3  1  0.12527900  0.00000000  0.33629700  1
  Mn  Mn4  1  0.87472102  0.50000001  0.83629699  1
  Mn  Mn5  1  0.87472102  0.50000001  0.16370300  1
  O  O6  1  0.63277302  0.50000001  -0.00000000  1
  O  O7  1  0.36722701  0.00000000  0.50000000  1
  O  O8  1  0.91157802  0.00000000  0.16511800  1
  O  O9  1  0.08842200  0.50000001  0.66511800  1
  O  O10  1  0.08842200  0.50000001  0.33488200  1
  O  O11  1  0.91157802  0.00000000  0.83488199  1
