# generated using pymatgen
data_CeMgSi2
_symmetry_space_group_name_H-M   'P 1'
_cell_length_a   4.26068020
_cell_length_b   4.26068020
_cell_length_c   18.65577698
_cell_angle_alpha   96.55702209
_cell_angle_beta   96.55702209
_cell_angle_gamma   90.00000000
_symmetry_Int_Tables_number   1
_chemical_formula_structural   CeMgSi2
_chemical_formula_sum   'Ce4 Mg4 Si8'
_cell_volume   334.22039202
_cell_formula_units_Z   4
loop_
 _symmetry_equiv_pos_site_id
 _symmetry_equiv_pos_as_xyz
  1  'x, y, z'
loop_
 _atom_site_type_symbol
 _atom_site_label
 _atom_site_symmetry_multiplicity
 _atom_site_fract_x
 _atom_site_fract_y
 _atom_site_fract_z
 _atom_site_occupancy
  Ce  Ce0  1  0.82774096  0.32774099  0.65548200  1
  Ce  Ce1  1  0.67225897  0.17225899  0.34451800  1
  Ce  Ce2  1  0.07774100  0.07774100  0.15548200  1
  Ce  Ce3  1  0.92225896  0.92225896  0.84451800  1
  Mg  Mg4  1  0.24999699  0.24999699  0.49999400  1
  Mg  Mg5  1  0.99999696  0.49999698  0.99999400  1
  Mg  Mg6  1  0.50000298  0.00000300  0.00000600  1
  Mg  Mg7  1  0.75000297  0.75000297  0.50000600  1
  Si  Si8  1  0.20210599  0.70210597  0.40421200  1
  Si  Si9  1  0.38916998  0.38916998  0.77834000  1
  Si  Si10  1  0.29789399  0.79789396  0.59578800  1
  Si  Si11  1  0.54789398  0.54789398  0.09578800  1
  Si  Si12  1  0.61082997  0.61082997  0.22166000  1
  Si  Si13  1  0.45210598  0.45210598  0.90421200  1
  Si  Si14  1  0.13916999  0.63916997  0.27834000  1
  Si  Si15  1  0.36082999  0.86082996  0.72166000  1
