# generated using pymatgen
data_InTe5
_symmetry_space_group_name_H-M   'P 1'
_cell_length_a   4.64715195
_cell_length_b   6.60724497
_cell_length_c   8.06604195
_cell_angle_alpha   114.13966370
_cell_angle_beta   106.74237823
_cell_angle_gamma   90.00000000
_symmetry_Int_Tables_number   1
_chemical_formula_structural   InTe5
_chemical_formula_sum   'In1 Te5'
_cell_volume   214.45228492
_cell_formula_units_Z   1
loop_
 _symmetry_equiv_pos_site_id
 _symmetry_equiv_pos_as_xyz
  1  'x, y, z'
loop_
 _atom_site_type_symbol
 _atom_site_label
 _atom_site_symmetry_multiplicity
 _atom_site_fract_x
 _atom_site_fract_y
 _atom_site_fract_z
 _atom_site_occupancy
  Te  Te0  1  0.33584799  0.33561501  0.67169600  1
  In  In1  1  0.66485499  0.65527401  0.32970999  1
  Te  Te2  1  0.99936500  0.00540500  0.99873000  1
  Te  Te3  1  0.50040000  0.24559700  0.00079999  1
  Te  Te4  1  0.83545599  0.59075101  0.67091199  1
  Te  Te5  1  0.16407298  0.91735702  0.32814600  1
