# generated using pymatgen
data_La4YIr2O13
_symmetry_space_group_name_H-M   'P 1'
_cell_length_a   5.63112783
_cell_length_b   6.02085209
_cell_length_c   8.11469460
_cell_angle_alpha   90.00000000
_cell_angle_beta   90.70079803
_cell_angle_gamma   90.00000000
_symmetry_Int_Tables_number   1
_chemical_formula_structural   La4YIr2O13
_chemical_formula_sum   'La4 Y1 Ir2 O13'
_cell_volume   275.10155007
_cell_formula_units_Z   1
loop_
 _symmetry_equiv_pos_site_id
 _symmetry_equiv_pos_as_xyz
  1  'x, y, z'
loop_
 _atom_site_type_symbol
 _atom_site_label
 _atom_site_symmetry_multiplicity
 _atom_site_fract_x
 _atom_site_fract_y
 _atom_site_fract_z
 _atom_site_occupancy
  Y  Y0  1  0.50000001  0.49999999  0.50000003  1
  O  O1  1  0.00000000  0.00000000  0.00000000  1
  La  La2  1  0.48218101  0.93068499  0.25348202  1
  La  La3  1  0.01781900  0.43068499  0.24651801  1
  La  La4  1  0.98218103  0.56931499  0.75348206  1
  La  La5  1  0.51781902  0.06931500  0.74651805  1
  Ir  Ir6  1  0.50000001  0.49999999  1.00000006  1
  Ir  Ir7  1  0.00000000  0.00000000  0.50000002  1
  O  O8  1  0.83633002  0.27915000  0.56466604  1
  O  O9  1  0.66367002  0.77914999  0.93533406  1
  O  O10  1  0.16367000  0.72084999  0.43533402  1
  O  O11  1  0.33633001  0.22085000  0.06466601  1
  O  O12  1  0.11395800  0.95327699  0.73244004  1
  O  O13  1  0.38604201  0.45327699  0.76756004  1
  O  O14  1  0.88604203  0.04672300  0.26756003  1
  O  O15  1  0.61395802  0.54672299  0.23244002  1
  O  O16  1  0.20645001  0.67364299  0.05119701  1
  O  O17  1  0.29355001  0.17364300  0.44880303  1
  O  O18  1  0.79355002  0.32635700  0.94880306  1
  O  O19  1  0.70645002  0.82635699  0.55119704  1
