# generated using pymatgen
data_KIn2Te2Se11
_symmetry_space_group_name_H-M   'P 1'
_cell_length_a   6.78816509
_cell_length_b   8.37319183
_cell_length_c   8.81509209
_cell_angle_alpha   90.00000000
_cell_angle_beta   90.00000000
_cell_angle_gamma   90.00000000
_symmetry_Int_Tables_number   1
_chemical_formula_structural   KIn2Te2Se11
_chemical_formula_sum   'K1 In2 Te2 Se11'
_cell_volume   501.03756816
_cell_formula_units_Z   1
loop_
 _symmetry_equiv_pos_site_id
 _symmetry_equiv_pos_as_xyz
  1  'x, y, z'
loop_
 _atom_site_type_symbol
 _atom_site_label
 _atom_site_symmetry_multiplicity
 _atom_site_fract_x
 _atom_site_fract_y
 _atom_site_fract_z
 _atom_site_occupancy
  Te  Te0  1  0.48825999  0.54481401  0.74999999  1
  In  In1  1  0.51173999  0.45518601  0.25000000  1
  K  K2  1  0.01174000  0.04481400  0.74999999  1
  In  In3  1  0.98825999  0.95518602  0.25000000  1
  Se  Se4  1  0.63325399  0.33699201  0.93952099  1
  Se  Se5  1  0.36674600  0.66300801  0.43952100  1
  Se  Se6  1  0.86674599  0.83699202  0.93952099  1
  Se  Se7  1  0.13325400  0.16300800  0.43952100  1
  Se  Se8  1  0.64963699  0.07056100  0.25000000  1
  Se  Se9  1  0.35036300  0.92943902  0.74999999  1
  Se  Se10  1  0.85036299  0.57056101  0.25000000  1
  Se  Se11  1  0.14963700  0.42943901  0.74999999  1
  Se  Se12  1  0.13325400  0.16300800  0.06047900  1
  Te  Te13  1  0.86674599  0.83699202  0.56047899  1
  Se  Se14  1  0.36674600  0.66300801  0.06047900  1
  Se  Se15  1  0.63325399  0.33699201  0.56047899  1
