# generated using pymatgen
data_La10CS9
_symmetry_space_group_name_H-M   'P 1'
_cell_length_a   9.25000668
_cell_length_b   9.25000668
_cell_length_c   9.25000763
_cell_angle_alpha   106.81585693
_cell_angle_beta   106.81585693
_cell_angle_gamma   106.81585693
_symmetry_Int_Tables_number   1
_chemical_formula_structural   La10CS9
_chemical_formula_sum   'La10 C1 S9'
_cell_volume   662.41430180
_cell_formula_units_Z   1
loop_
 _symmetry_equiv_pos_site_id
 _symmetry_equiv_pos_as_xyz
  1  'x, y, z'
loop_
 _atom_site_type_symbol
 _atom_site_label
 _atom_site_symmetry_multiplicity
 _atom_site_fract_x
 _atom_site_fract_y
 _atom_site_fract_z
 _atom_site_occupancy
  La  La0  1  0.00000000  0.00000000  0.00000000  1
  La  La1  1  0.47904695  0.40279097  0.19657696  1
  La  La2  1  0.19657695  0.47904696  0.40279095  1
  La  La3  1  0.40279097  0.19657699  0.47904696  1
  La  La4  1  0.52095293  0.59720895  0.80342293  1
  La  La5  1  0.80342292  0.52095296  0.59720893  1
  La  La6  1  0.59720890  0.80342294  0.52095293  1
  C  C7  1  0.49999994  0.49999996  0.49999994  1
  S  S8  1  0.82087393  0.43074497  0.27809795  1
  S  S9  1  0.27809792  0.82087394  0.43074493  1
  S  S10  1  0.43074496  0.27809798  0.82087394  1
  S  S11  1  0.17912594  0.56925496  0.72190194  1
  S  S12  1  0.72190196  0.17912599  0.56925495  1
  S  S13  1  0.56925491  0.72190195  0.17912595  1
  S  S14  1  0.11545997  0.33476397  0.03824798  1
  S  S15  1  0.03824799  0.11545999  0.33476398  1
  S  S16  1  0.33476398  0.03824800  0.11545999  1
  La  La17  1  0.88453991  0.66523595  0.96175191  1
  La  La18  1  0.96175188  0.88453993  0.66523591  1
  La  La19  1  0.66523589  0.96175193  0.88453990  1
