# generated using pymatgen
data_Rb2V(PO5)2
_symmetry_space_group_name_H-M   'P 1'
_cell_length_a   5.53334713
_cell_length_b   7.00171900
_cell_length_c   7.14410162
_cell_angle_alpha   101.47412109
_cell_angle_beta   90.00000000
_cell_angle_gamma   113.27484131
_symmetry_Int_Tables_number   1
_chemical_formula_structural   Rb2V(PO5)2
_chemical_formula_sum   'Rb2 V1 P2 O10'
_cell_volume   248.22580343
_cell_formula_units_Z   1
loop_
 _symmetry_equiv_pos_site_id
 _symmetry_equiv_pos_as_xyz
  1  'x, y, z'
loop_
 _atom_site_type_symbol
 _atom_site_label
 _atom_site_symmetry_multiplicity
 _atom_site_fract_x
 _atom_site_fract_y
 _atom_site_fract_z
 _atom_site_occupancy
  Rb  Rb0  1  0.16113602  0.32227200  0.20293699  1
  Rb  Rb1  1  0.83886404  0.67772800  0.79706297  1
  V  V2  1  0.49999999  0.00000000  0.49999999  1
  P  P3  1  0.14370102  0.28740200  0.72263798  1
  P  P4  1  0.85629904  0.71259800  0.27736198  1
  O  O5  1  0.46777607  0.93555200  0.73610796  1
  O  O6  1  0.53222399  0.06444800  0.26389199  1
  O  O7  1  0.91209800  0.27408000  0.58352398  1
  O  O8  1  0.36198301  0.27408000  0.58352398  1
  O  O9  1  0.08790206  0.72592000  0.41647597  1
  O  O10  1  0.63801705  0.72592000  0.41647597  1
  O  O11  1  0.25161504  0.50323100  0.86542397  1
  O  O12  1  0.74838502  0.49676900  0.13457598  1
  O  O13  1  0.05006401  0.10012800  0.82238498  1
  O  O14  1  0.94993605  0.89987200  0.17761497  1
