# generated using pymatgen
data_BaLu(CO3)2
_symmetry_space_group_name_H-M   'P 1'
_cell_length_a   6.35530376
_cell_length_b   6.35530376
_cell_length_c   6.95959330
_cell_angle_alpha   103.84086609
_cell_angle_beta   103.84086609
_cell_angle_gamma   96.13314056
_symmetry_Int_Tables_number   1
_chemical_formula_structural   BaLu(CO3)2
_chemical_formula_sum   'Ba2 Lu2 C4 O12'
_cell_volume   260.96638135
_cell_formula_units_Z   2
loop_
 _symmetry_equiv_pos_site_id
 _symmetry_equiv_pos_as_xyz
  1  'x, y, z'
loop_
 _atom_site_type_symbol
 _atom_site_label
 _atom_site_symmetry_multiplicity
 _atom_site_fract_x
 _atom_site_fract_y
 _atom_site_fract_z
 _atom_site_occupancy
  Ba  Ba0  1  0.37972897  0.62027100  0.74999996  1
  Ba  Ba1  1  0.62027099  0.37972900  0.24999996  1
  Lu  Lu2  1  0.90406801  0.09593200  0.74999997  1
  Lu  Lu3  1  0.09593195  0.90406800  0.24999995  1
  C  C4  1  0.35414500  0.10918500  0.75476099  1
  C  C5  1  0.64585495  0.89081500  0.24523893  1
  C  C6  1  0.89081497  0.64585500  0.74523894  1
  C  C7  1  0.10918498  0.35414500  0.25476098  1
  O  O8  1  0.55893800  0.10467400  0.77791698  1
  O  O9  1  0.44106195  0.89532600  0.22208294  1
  O  O10  1  0.89532599  0.44106200  0.72208295  1
  O  O11  1  0.10467397  0.55893800  0.27791697  1
  O  O12  1  0.28181999  0.24803500  0.88197999  1
  O  O13  1  0.71817996  0.75196500  0.11801994  1
  O  O14  1  0.75196497  0.71818000  0.61801994  1
  O  O15  1  0.24803499  0.28182000  0.38197998  1
  O  O16  1  0.20127494  0.96681100  0.60321895  1
  O  O17  1  0.79872501  0.03318900  0.39678097  1
  O  O18  1  0.03318895  0.79872500  0.89678097  1
  O  O19  1  0.96681100  0.20127500  0.10321896  1
