# generated using pymatgen
data_Li3Mn3O8
_symmetry_space_group_name_H-M   'P 1'
_cell_length_a   5.94847107
_cell_length_b   5.94847107
_cell_length_c   5.94847155
_cell_angle_alpha   60.93848801
_cell_angle_beta   60.93848801
_cell_angle_gamma   60.93849564
_symmetry_Int_Tables_number   1
_chemical_formula_structural   Li3Mn3O8
_chemical_formula_sum   'Li3 Mn3 O8'
_cell_volume   151.98119656
_cell_formula_units_Z   1
loop_
 _symmetry_equiv_pos_site_id
 _symmetry_equiv_pos_as_xyz
  1  'x, y, z'
loop_
 _atom_site_type_symbol
 _atom_site_label
 _atom_site_symmetry_multiplicity
 _atom_site_fract_x
 _atom_site_fract_y
 _atom_site_fract_z
 _atom_site_occupancy
  Li  Li0  1  0.12268201  0.12268200  0.12268199  1
  Li  Li1  1  0.49720202  0.49720202  0.49720198  1
  Mn  Mn2  1  0.01677601  0.49706202  0.49706198  1
  Mn  Mn3  1  0.49706202  0.49706202  0.01677599  1
  Mn  Mn4  1  0.49706202  0.01677600  0.49706198  1
  Li  Li5  1  0.88596104  0.88596103  0.88596096  1
  O  O6  1  0.26199001  0.26199001  0.26198999  1
  O  O7  1  0.24600902  0.71638902  0.24600899  1
  O  O8  1  0.24600901  0.24600901  0.71638897  1
  O  O9  1  0.71638903  0.24600901  0.24600899  1
  O  O10  1  0.28846202  0.73987803  0.73987797  1
  O  O11  1  0.73987803  0.73987803  0.28846198  1
  O  O12  1  0.73987803  0.28846201  0.73987797  1
  O  O13  1  0.74464403  0.74464403  0.74464397  1
