# generated using pymatgen
data_Li5CaBiHO6
_symmetry_space_group_name_H-M   'P 1'
_cell_length_a   3.14221501
_cell_length_b   3.28113389
_cell_length_c   14.54130077
_cell_angle_alpha   96.47797394
_cell_angle_beta   90.00000000
_cell_angle_gamma   90.00000000
_symmetry_Int_Tables_number   1
_chemical_formula_structural   Li5CaBiHO6
_chemical_formula_sum   'Li5 Ca1 Bi1 H1 O6'
_cell_volume   148.96401870
_cell_formula_units_Z   1
loop_
 _symmetry_equiv_pos_site_id
 _symmetry_equiv_pos_as_xyz
  1  'x, y, z'
loop_
 _atom_site_type_symbol
 _atom_site_label
 _atom_site_symmetry_multiplicity
 _atom_site_fract_x
 _atom_site_fract_y
 _atom_site_fract_z
 _atom_site_occupancy
  Li  Li0  1  0.75000000  0.45323702  0.90647400  1
  Ca  Ca1  1  0.25000000  0.54676302  0.09352601  1
  Li  Li2  1  0.75000000  0.78741703  0.57483401  1
  Bi  Bi3  1  0.25000000  0.21258301  0.42516600  1
  Li  Li4  1  0.25000000  0.36211001  0.72422000  1
  Li  Li5  1  0.75000000  0.63789002  0.27578001  1
  O  O6  1  0.75000000  0.01544800  0.03089600  1
  O  O7  1  0.25000000  0.98455204  0.96910401  1
  O  O8  1  0.75000000  0.88788703  0.77577401  1
  O  O9  1  0.25000000  0.11211300  0.22422600  1
  H  H10  1  0.75000000  0.07904000  0.15808000  1
  Li  Li11  1  0.25000000  0.92096004  0.84192001  1
  O  O12  1  0.75000000  0.71221303  0.42442601  1
  O  O13  1  0.25000000  0.28778701  0.57557400  1
