# generated using pymatgen
data_Tb(SiRu)2
_symmetry_space_group_name_H-M   'P 1'
_cell_length_a   4.07569408
_cell_length_b   4.07569408
_cell_length_c   5.67957306
_cell_angle_alpha   111.02669525
_cell_angle_beta   111.02669525
_cell_angle_gamma   90.00000000
_symmetry_Int_Tables_number   1
_chemical_formula_structural   Tb(SiRu)2
_chemical_formula_sum   'Tb1 Si2 Ru2'
_cell_volume   81.29675543
_cell_formula_units_Z   1
loop_
 _symmetry_equiv_pos_site_id
 _symmetry_equiv_pos_as_xyz
  1  'x, y, z'
loop_
 _atom_site_type_symbol
 _atom_site_label
 _atom_site_symmetry_multiplicity
 _atom_site_fract_x
 _atom_site_fract_y
 _atom_site_fract_z
 _atom_site_occupancy
  Tb  Tb0  1  0.00000000  0.00000000  0.00000000  1
  Si  Si1  1  0.37349002  0.37349000  0.74698006  1
  Si  Si2  1  0.62651003  0.62651000  0.25302006  1
  Ru  Ru3  1  0.75000001  0.25000000  0.50000006  1
  Ru  Ru4  1  0.25000003  0.75000000  0.50000006  1
