# generated using pymatgen
data_TmGe2
_symmetry_space_group_name_H-M   'P 1'
_cell_length_a   4.22930622
_cell_length_b   4.22930574
_cell_length_c   15.26670361
_cell_angle_alpha   90.00000000
_cell_angle_beta   90.00000000
_cell_angle_gamma   120.00000000
_symmetry_Int_Tables_number   1
_chemical_formula_structural   TmGe2
_chemical_formula_sum   'Tm4 Ge8'
_cell_volume   236.49072854
_cell_formula_units_Z   4
loop_
 _symmetry_equiv_pos_site_id
 _symmetry_equiv_pos_as_xyz
  1  'x, y, z'
loop_
 _atom_site_type_symbol
 _atom_site_label
 _atom_site_symmetry_multiplicity
 _atom_site_fract_x
 _atom_site_fract_y
 _atom_site_fract_z
 _atom_site_occupancy
  Tm  Tm0  1  0.00000000  0.00000000  0.75000002  1
  Tm  Tm1  1  0.00000000  0.00000000  0.25000001  1
  Tm  Tm2  1  0.00000000  0.00000000  0.00000000  1
  Tm  Tm3  1  0.00000000  0.00000000  0.50000001  1
  Ge  Ge4  1  0.66666661  0.33333331  0.84995402  1
  Ge  Ge5  1  0.33333328  0.66666663  0.15004600  1
  Ge  Ge6  1  0.33333328  0.66666663  0.34995401  1
  Ge  Ge7  1  0.66666661  0.33333331  0.65004602  1
  Ge  Ge8  1  0.66666661  0.33333331  0.38891001  1
  Ge  Ge9  1  0.33333328  0.66666663  0.61109002  1
  Ge  Ge10  1  0.33333328  0.66666663  0.88891002  1
  Ge  Ge11  1  0.66666661  0.33333331  0.11109000  1
