# generated using pymatgen
data_SrFeO3
_symmetry_space_group_name_H-M   'P 1'
_cell_length_a   5.70412445
_cell_length_b   5.70412445
_cell_length_c   9.87996769
_cell_angle_alpha   73.22158813
_cell_angle_beta   73.22158813
_cell_angle_gamma   59.99999619
_symmetry_Int_Tables_number   1
_chemical_formula_structural   SrFeO3
_chemical_formula_sum   'Sr4 Fe4 O12'
_cell_volume   262.47541271
_cell_formula_units_Z   4
loop_
 _symmetry_equiv_pos_site_id
 _symmetry_equiv_pos_as_xyz
  1  'x, y, z'
loop_
 _atom_site_type_symbol
 _atom_site_label
 _atom_site_symmetry_multiplicity
 _atom_site_fract_x
 _atom_site_fract_y
 _atom_site_fract_z
 _atom_site_occupancy
  Sr  Sr0  1  0.37501400  0.37501399  0.87495801  1
  Sr  Sr1  1  0.12501400  0.12501400  0.62495800  1
  Sr  Sr2  1  0.87498600  0.87498599  0.37504205  1
  Sr  Sr3  1  0.62498600  0.62498599  0.12504204  1
  Fe  Fe4  1  0.25018500  0.25018500  0.24944501  1
  Fe  Fe5  1  0.00000000  0.00000000  0.00000000  1
  Fe  Fe6  1  0.74981500  0.74981499  0.75055504  1
  Fe  Fe7  1  0.50000000  0.49999999  0.50000003  1
  O  O8  1  0.62520600  0.12492900  0.12493602  1
  O  O9  1  0.37479401  0.87507099  0.87506403  1
  O  O10  1  0.12334401  0.62555499  0.62554602  1
  O  O11  1  0.87665600  0.37444499  0.37445404  1
  O  O12  1  0.87507100  0.87507099  0.87506405  1
  O  O13  1  0.62555500  0.62555499  0.62554603  1
  O  O14  1  0.37444500  0.37444499  0.37445402  1
  O  O15  1  0.12492900  0.12492900  0.12493601  1
  O  O16  1  0.87507100  0.37479399  0.87506403  1
  O  O17  1  0.62555500  0.12334400  0.62554602  1
  O  O18  1  0.37444501  0.87665599  0.37445404  1
  O  O19  1  0.12492901  0.62520599  0.12493602  1
