# generated using pymatgen
data_TiAl5
_symmetry_space_group_name_H-M   'P 1'
_cell_length_a   3.65954399
_cell_length_b   3.69848609
_cell_length_c   7.49830723
_cell_angle_alpha   75.72232819
_cell_angle_beta   90.00000000
_cell_angle_gamma   90.00000000
_symmetry_Int_Tables_number   1
_chemical_formula_structural   TiAl5
_chemical_formula_sum   'Ti1 Al5'
_cell_volume   98.35311630
_cell_formula_units_Z   1
loop_
 _symmetry_equiv_pos_site_id
 _symmetry_equiv_pos_as_xyz
  1  'x, y, z'
loop_
 _atom_site_type_symbol
 _atom_site_label
 _atom_site_symmetry_multiplicity
 _atom_site_fract_x
 _atom_site_fract_y
 _atom_site_fract_z
 _atom_site_occupancy
  Al  Al0  1  0.25000000  0.89522897  0.20954202  1
  Al  Al1  1  0.75000000  0.10477100  0.79045802  1
  Al  Al2  1  0.25000000  0.55454898  0.89090203  1
  Ti  Ti3  1  0.75000000  0.44545099  0.10909801  1
  Al  Al4  1  0.25000000  0.25031099  0.49937802  1
  Al  Al5  1  0.75000000  0.74968898  0.50062202  1
