# generated using pymatgen
data_La3I7N5
_symmetry_space_group_name_H-M   'P 1'
_cell_length_a   7.76998568
_cell_length_b   7.76998568
_cell_length_c   7.76998520
_cell_angle_alpha   72.06275177
_cell_angle_beta   72.06275177
_cell_angle_gamma   72.06275940
_symmetry_Int_Tables_number   1
_chemical_formula_structural   La3I7N5
_chemical_formula_sum   'La3 I7 N5'
_cell_volume   412.66374852
_cell_formula_units_Z   1
loop_
 _symmetry_equiv_pos_site_id
 _symmetry_equiv_pos_as_xyz
  1  'x, y, z'
loop_
 _atom_site_type_symbol
 _atom_site_label
 _atom_site_symmetry_multiplicity
 _atom_site_fract_x
 _atom_site_fract_y
 _atom_site_fract_z
 _atom_site_occupancy
  La  La0  1  0.00000000  0.00000000  0.00000000  1
  I  I1  1  0.20234400  0.20234400  0.20234398  1
  N  N2  1  0.79765598  0.79765599  0.79765592  1
  I  I3  1  0.39155399  0.66558399  0.16621495  1
  I  I4  1  0.66558399  0.16621500  0.39155396  1
  I  I5  1  0.16621500  0.39155400  0.66558397  1
  I  I6  1  0.60844599  0.33441600  0.83378495  1
  I  I7  1  0.33441599  0.83378499  0.60844594  1
  I  I8  1  0.83378499  0.60844599  0.33441593  1
  N  N9  1  0.04138999  0.84073299  0.40962796  1
  N  N10  1  0.84073299  0.40962800  0.04138995  1
  La  La11  1  0.40962799  0.04139000  0.84073297  1
  La  La12  1  0.95860999  0.15926700  0.59037194  1
  N  N13  1  0.15926699  0.59037199  0.95860995  1
  N  N14  1  0.59037199  0.95860999  0.15926693  1
