# generated using pymatgen
data_SrMgCd4
_symmetry_space_group_name_H-M   'P 1'
_cell_length_a   6.12767696
_cell_length_b   6.12767696
_cell_length_c   6.12767696
_cell_angle_alpha   60.00000000
_cell_angle_beta   60.00000000
_cell_angle_gamma   60.00000000
_symmetry_Int_Tables_number   1
_chemical_formula_structural   SrMgCd4
_chemical_formula_sum   'Sr1 Mg1 Cd4'
_cell_volume   162.69439415
_cell_formula_units_Z   1
loop_
 _symmetry_equiv_pos_site_id
 _symmetry_equiv_pos_as_xyz
  1  'x, y, z'
loop_
 _atom_site_type_symbol
 _atom_site_label
 _atom_site_symmetry_multiplicity
 _atom_site_fract_x
 _atom_site_fract_y
 _atom_site_fract_z
 _atom_site_occupancy
  Sr  Sr0  1  0.75000001  0.75000001  0.75000001  1
  Cd  Cd1  1  0.00000000  0.00000000  0.00000000  1
  Cd  Cd2  1  0.37488301  0.87535301  0.37488201  1
  Mg  Mg3  1  0.37488301  0.37488201  0.37488201  1
  Cd  Cd4  1  0.37488301  0.37488201  0.87535301  1
  Cd  Cd5  1  0.87535401  0.37488201  0.37488201  1
