# generated using pymatgen
data_LaMgSn14
_symmetry_space_group_name_H-M   'P 1'
_cell_length_a   6.12519789
_cell_length_b   9.11267662
_cell_length_c   9.11267662
_cell_angle_alpha   83.51457214
_cell_angle_beta   70.36170197
_cell_angle_gamma   70.36170197
_symmetry_Int_Tables_number   1
_chemical_formula_structural   LaMgSn14
_chemical_formula_sum   'La1 Mg1 Sn14'
_cell_volume   451.19041428
_cell_formula_units_Z   1
loop_
 _symmetry_equiv_pos_site_id
 _symmetry_equiv_pos_as_xyz
  1  'x, y, z'
loop_
 _atom_site_type_symbol
 _atom_site_label
 _atom_site_symmetry_multiplicity
 _atom_site_fract_x
 _atom_site_fract_y
 _atom_site_fract_z
 _atom_site_occupancy
  La  La0  1  0.58087301  0.13781701  0.70043702  1
  Sn  Sn1  1  0.41912694  0.86218306  0.29956304  1
  Sn  Sn2  1  0.08087294  0.70043705  0.13781704  1
  Sn  Sn3  1  0.91912700  0.29956302  0.86218303  1
  Sn  Sn4  1  0.28130998  0.29956302  0.13781701  1
  Sn  Sn5  1  0.71868996  0.70043705  0.86218305  1
  Sn  Sn6  1  0.21868993  0.86218306  0.70043707  1
  Sn  Sn7  1  0.78131001  0.13781701  0.29956300  1
  Sn  Sn8  1  0.74999998  0.50000003  0.50000002  1
  Sn  Sn9  1  0.24999996  0.50000003  0.50000004  1
  Mg  Mg10  1  0.66256598  0.50000003  0.17486801  1
  Sn  Sn11  1  0.33743397  0.50000003  0.82513205  1
  Sn  Sn12  1  0.16256599  0.17486801  0.50000003  1
  Sn  Sn13  1  0.83743395  0.82513205  0.50000004  1
  Sn  Sn14  1  0.75000003  0.00000000  -0.00000002  1
  Sn  Sn15  1  0.25000001  0.00000000  -0.00000001  1
