# generated using pymatgen
data_Pm3Mg
_symmetry_space_group_name_H-M   'P 1'
_cell_length_a   5.62593794
_cell_length_b   7.16205788
_cell_length_c   7.16205788
_cell_angle_alpha   120.00000000
_cell_angle_beta   90.00000000
_cell_angle_gamma   90.00000000
_symmetry_Int_Tables_number   1
_chemical_formula_structural   Pm3Mg
_chemical_formula_sum   'Pm6 Mg2'
_cell_volume   249.92012026
_cell_formula_units_Z   2
loop_
 _symmetry_equiv_pos_site_id
 _symmetry_equiv_pos_as_xyz
  1  'x, y, z'
loop_
 _atom_site_type_symbol
 _atom_site_label
 _atom_site_symmetry_multiplicity
 _atom_site_fract_x
 _atom_site_fract_y
 _atom_site_fract_z
 _atom_site_occupancy
  Pm  Pm0  1  0.25000000  0.66666667  0.33333332  1
  Mg  Mg1  1  0.75000001  0.33333334  0.66666666  1
  Mg  Mg2  1  0.75000001  0.83608301  0.16391699  1
  Pm  Pm3  1  0.75000001  0.32783400  0.16391699  1
  Pm  Pm4  1  0.75000001  0.83608301  0.67216599  1
  Pm  Pm5  1  0.25000000  0.16391700  0.83608299  1
  Pm  Pm6  1  0.25000000  0.67216601  0.83608299  1
  Pm  Pm7  1  0.25000000  0.16391700  0.32783400  1
