# generated using pymatgen
data_CeSc11Si8
_symmetry_space_group_name_H-M   'P 1'
_cell_length_a   8.21893787
_cell_length_b   8.21893787
_cell_length_c   8.21893787
_cell_angle_alpha   109.47122192
_cell_angle_beta   109.47122192
_cell_angle_gamma   109.47122192
_symmetry_Int_Tables_number   1
_chemical_formula_structural   CeSc11Si8
_chemical_formula_sum   'Ce1 Sc11 Si8'
_cell_volume   427.39081201
_cell_formula_units_Z   1
loop_
 _symmetry_equiv_pos_site_id
 _symmetry_equiv_pos_as_xyz
  1  'x, y, z'
loop_
 _atom_site_type_symbol
 _atom_site_label
 _atom_site_symmetry_multiplicity
 _atom_site_fract_x
 _atom_site_fract_y
 _atom_site_fract_z
 _atom_site_occupancy
  Ce  Ce0  1  0.75000001  0.12500001  0.37500003  1
  Sc  Sc1  1  0.25000003  0.37500002  0.12500003  1
  Sc  Sc2  1  0.37500004  0.62500003  0.75000004  1
  Sc  Sc3  1  0.12500006  0.87500004  0.25000005  1
  Sc  Sc4  1  0.62500002  0.25000001  0.87500003  1
  Sc  Sc5  1  0.87500006  0.75000003  0.62500006  1
  Si  Si6  1  0.81510301  0.00000000  0.00000002  1
  Sc  Sc7  1  0.00000003  0.50000002  0.31510303  1
  Sc  Sc8  1  0.50000006  0.81510303  0.50000006  1
  Sc  Sc9  1  0.31510300  0.00000000  0.00000001  1
  Sc  Sc10  1  0.68489705  0.68489703  0.18489705  1
  Si  Si11  1  0.00000003  0.50000002  0.81510303  1
  Sc  Sc12  1  0.18489701  0.18489701  0.68489702  1
  Sc  Sc13  1  0.50000002  0.31510301  0.50000003  1
  Si  Si14  1  0.75000005  0.62500003  0.87500005  1
  Si  Si15  1  0.25000006  0.87500004  0.62500006  1
  Si  Si16  1  0.87500002  0.12500001  0.75000003  1
  Si  Si17  1  0.62500003  0.37500002  0.25000004  1
  Si  Si18  1  0.12500002  0.25000001  0.37500002  1
  Si  Si19  1  0.37500005  0.75000003  0.12500005  1
