# generated using pymatgen
data_SrCaIn6O12
_symmetry_space_group_name_H-M   'P 1'
_cell_length_a   5.63649178
_cell_length_b   5.83766079
_cell_length_c   8.06700325
_cell_angle_alpha   90.00000000
_cell_angle_beta   90.00000000
_cell_angle_gamma   90.00000000
_symmetry_Int_Tables_number   1
_chemical_formula_structural   SrCaIn6O12
_chemical_formula_sum   'Sr1 Ca1 In6 O12'
_cell_volume   265.43608628
_cell_formula_units_Z   1
loop_
 _symmetry_equiv_pos_site_id
 _symmetry_equiv_pos_as_xyz
  1  'x, y, z'
loop_
 _atom_site_type_symbol
 _atom_site_label
 _atom_site_symmetry_multiplicity
 _atom_site_fract_x
 _atom_site_fract_y
 _atom_site_fract_z
 _atom_site_occupancy
  Sr  Sr0  1  0.98522004  0.05804500  0.24999999  1
  In  In1  1  0.48522002  0.44195502  0.74999998  1
  Ca  Ca2  1  0.51478002  0.55804502  0.24999999  1
  In  In3  1  0.01478000  0.94195503  0.74999998  1
  In  In4  1  0.50000002  0.00000000  -0.00000000  1
  In  In5  1  0.50000002  0.00000000  0.49999998  1
  In  In6  1  0.00000000  0.50000002  -0.00000000  1
  In  In7  1  0.00000000  0.50000002  0.49999998  1
  O  O8  1  0.61445902  0.04289000  0.74999998  1
  O  O9  1  0.19530001  0.19671601  0.94049497  1
  O  O10  1  0.19530001  0.19671601  0.55950498  1
  O  O11  1  0.69530003  0.30328401  0.05950500  1
  O  O12  1  0.69530003  0.30328401  0.44049499  1
  O  O13  1  0.11445900  0.45711002  0.24999999  1
  O  O14  1  0.88554104  0.54289002  0.74999998  1
  O  O15  1  0.30470001  0.69671603  0.55950498  1
  O  O16  1  0.30470001  0.69671603  0.94049497  1
  O  O17  1  0.80470003  0.80328403  0.44049499  1
  O  O18  1  0.80470003  0.80328403  0.05950500  1
  O  O19  1  0.38554102  0.95711003  0.24999999  1
