# generated using pymatgen
data_NaTiO3
_symmetry_space_group_name_H-M   'P 1'
_cell_length_a   2.97837400
_cell_length_b   5.33759642
_cell_length_c   7.46558285
_cell_angle_alpha   90.00000000
_cell_angle_beta   90.00000000
_cell_angle_gamma   106.20050049
_symmetry_Int_Tables_number   1
_chemical_formula_structural   NaTiO3
_chemical_formula_sum   'Na2 Ti2 O6'
_cell_volume   113.97029071
_cell_formula_units_Z   2
loop_
 _symmetry_equiv_pos_site_id
 _symmetry_equiv_pos_as_xyz
  1  'x, y, z'
loop_
 _atom_site_type_symbol
 _atom_site_label
 _atom_site_symmetry_multiplicity
 _atom_site_fract_x
 _atom_site_fract_y
 _atom_site_fract_z
 _atom_site_occupancy
  O  O0  1  0.37701091  0.75402198  0.55191201  1
  O  O1  1  0.62298897  0.24597799  0.44808801  1
  O  O2  1  0.37701091  0.75402198  0.94808802  1
  O  O3  1  0.62298897  0.24597799  0.05191200  1
  O  O4  1  0.03900499  0.07801000  0.75000002  1
  O  O5  1  0.96099490  0.92198998  0.25000001  1
  Na  Na6  1  0.73767995  0.47535999  0.75000002  1
  Na  Na7  1  0.26231994  0.52463999  0.25000001  1
  Ti  Ti8  1  0.00000000  0.00000000  0.50000001  1
  Ti  Ti9  1  0.00000000  0.00000000  0.00000000  1
