# generated using pymatgen
data_NaNb4O5
_symmetry_space_group_name_H-M   'P 1'
_cell_length_a   7.28592634
_cell_length_b   7.28592634
_cell_length_c   7.28592634
_cell_angle_alpha   60.00000000
_cell_angle_beta   60.00000000
_cell_angle_gamma   60.00000000
_symmetry_Int_Tables_number   1
_chemical_formula_structural   NaNb4O5
_chemical_formula_sum   'Na2 Nb8 O10'
_cell_volume   273.48866500
_cell_formula_units_Z   2
loop_
 _symmetry_equiv_pos_site_id
 _symmetry_equiv_pos_as_xyz
  1  'x, y, z'
loop_
 _atom_site_type_symbol
 _atom_site_label
 _atom_site_symmetry_multiplicity
 _atom_site_fract_x
 _atom_site_fract_y
 _atom_site_fract_z
 _atom_site_occupancy
  Na  Na0  1  0.37500001  0.87500001  0.87500001  1
  Na  Na1  1  0.87500001  0.87500001  0.37500001  1
  Nb  Nb2  1  0.87500001  0.87500001  0.87500001  1
  Nb  Nb3  1  0.87500001  0.37500001  0.87500001  1
  Nb  Nb4  1  0.37500001  0.87500001  0.37500001  1
  Nb  Nb5  1  0.87500001  0.37500001  0.37500001  1
  Nb  Nb6  1  0.37500001  0.37500001  0.37500001  1
  Nb  Nb7  1  0.37500001  0.37500001  0.87500001  1
  Nb  Nb8  1  0.03371300  0.46628701  0.03371300  1
  O  O9  1  0.71628701  0.71628701  0.28371300  1
  O  O10  1  0.28371300  0.71628701  0.28371300  1
  O  O11  1  0.46628701  0.03371300  0.03371300  1
  O  O12  1  0.03371300  0.46628701  0.46628701  1
  O  O13  1  0.46628701  0.46628701  0.03371300  1
  O  O14  1  0.71628701  0.28371300  0.28371300  1
  O  O15  1  0.28371300  0.71628701  0.71628701  1
  O  O16  1  0.28371300  0.28371300  0.71628701  1
  O  O17  1  0.46628701  0.03371300  0.46628701  1
  Nb  Nb18  1  0.03371300  0.03371300  0.46628701  1
  O  O19  1  0.71628701  0.28371300  0.71628701  1
