# generated using pymatgen
data_Ba3Cu2GeTe9
_symmetry_space_group_name_H-M   'P 1'
_cell_length_a   5.26267385
_cell_length_b   5.26267385
_cell_length_c   19.33609390
_cell_angle_alpha   97.82131958
_cell_angle_beta   97.82131958
_cell_angle_gamma   90.00000000
_symmetry_Int_Tables_number   1
_chemical_formula_structural   Ba3Cu2GeTe9
_chemical_formula_sum   'Ba3 Cu2 Ge1 Te9'
_cell_volume   525.51639827
_cell_formula_units_Z   1
loop_
 _symmetry_equiv_pos_site_id
 _symmetry_equiv_pos_as_xyz
  1  'x, y, z'
loop_
 _atom_site_type_symbol
 _atom_site_label
 _atom_site_symmetry_multiplicity
 _atom_site_fract_x
 _atom_site_fract_y
 _atom_site_fract_z
 _atom_site_occupancy
  Te  Te0  1  0.50000001  0.00000000  0.00000000  1
  Te  Te1  1  0.00000000  0.50000001  0.00000000  1
  Te  Te2  1  0.91493303  0.91493303  0.82986596  1
  Te  Te3  1  0.08506700  0.08506700  0.17013399  1
  Te  Te4  1  0.25000001  0.75000002  0.49999998  1
  Te  Te5  1  0.75000002  0.25000001  0.49999998  1
  Te  Te6  1  0.65931602  0.65931602  0.31863199  1
  Te  Te7  1  0.34068401  0.34068401  0.68136797  1
  Ba  Ba8  1  0.56707802  0.56707802  0.13415599  1
  Te  Te9  1  0.43292201  0.43292201  0.86584396  1
  Ba  Ba10  1  0.81985202  0.81985202  0.63970397  1
  Ba  Ba11  1  0.18014801  0.18014801  0.36029598  1
  Cu  Cu12  1  0.72855002  0.72855002  0.45709998  1
  Cu  Cu13  1  0.27145001  0.27145001  0.54289997  1
  Ge  Ge14  1  0.00000000  0.00000000  0.00000000  1
