# generated using pymatgen
data_TmB4
_symmetry_space_group_name_H-M   'P 1'
_cell_length_a   4.07463121
_cell_length_b   7.17377377
_cell_length_c   7.17377377
_cell_angle_alpha   90.00000000
_cell_angle_beta   90.00000000
_cell_angle_gamma   90.00000000
_symmetry_Int_Tables_number   1
_chemical_formula_structural   TmB4
_chemical_formula_sum   'Tm4 B16'
_cell_volume   209.69286857
_cell_formula_units_Z   4
loop_
 _symmetry_equiv_pos_site_id
 _symmetry_equiv_pos_as_xyz
  1  'x, y, z'
loop_
 _atom_site_type_symbol
 _atom_site_label
 _atom_site_symmetry_multiplicity
 _atom_site_fract_x
 _atom_site_fract_y
 _atom_site_fract_z
 _atom_site_occupancy
  Tm  Tm0  1  0.99999995  0.18687401  0.68687402  1
  Tm  Tm1  1  0.99999995  0.68687402  0.81312603  1
  Tm  Tm2  1  0.00000000  0.31312601  0.18687401  1
  Tm  Tm3  1  0.00000000  0.81312603  0.31312601  1
  B  B4  1  0.49999997  0.32386101  0.46138602  1
  B  B5  1  0.49999997  0.67613902  0.53861402  1
  B  B6  1  0.49999997  0.53861402  0.32386101  1
  B  B7  1  0.49999997  0.46138602  0.67613902  1
  B  B8  1  0.20193299  0.00000000  0.00000000  1
  B  B9  1  0.79806696  0.50000002  0.50000002  1
  B  B10  1  0.79806696  0.00000000  -0.00000000  1
  B  B11  1  0.20193299  0.50000002  0.50000002  1
  B  B12  1  0.49999997  0.58800502  0.08800500  1
  B  B13  1  0.49999997  0.08800500  0.41199501  1
  B  B14  1  0.49999997  0.91199503  0.58800502  1
  B  B15  1  0.49999997  0.41199501  0.91199503  1
  B  B16  1  0.49999997  0.03861400  0.17613901  1
  B  B17  1  0.49999997  0.17613901  0.96138603  1
  B  B18  1  0.49999997  0.82386103  0.03861400  1
  B  B19  1  0.49999997  0.96138603  0.82386103  1
