# generated using pymatgen
data_Lu(Co2B)6
_symmetry_space_group_name_H-M   'P 1'
_cell_length_a   5.95156670
_cell_length_b   5.95156670
_cell_length_c   5.95156717
_cell_angle_alpha   103.98873138
_cell_angle_beta   103.98873138
_cell_angle_gamma   103.98872375
_symmetry_Int_Tables_number   1
_chemical_formula_structural   Lu(Co2B)6
_chemical_formula_sum   'Lu1 Co12 B6'
_cell_volume   188.13630215
_cell_formula_units_Z   1
loop_
 _symmetry_equiv_pos_site_id
 _symmetry_equiv_pos_as_xyz
  1  'x, y, z'
loop_
 _atom_site_type_symbol
 _atom_site_label
 _atom_site_symmetry_multiplicity
 _atom_site_fract_x
 _atom_site_fract_y
 _atom_site_fract_z
 _atom_site_occupancy
  Lu  Lu0  1  0.00000000  0.00000000  0.00000000  1
  Co  Co1  1  0.13254905  0.86745103  0.50000000  1
  Co  Co2  1  0.86745105  0.50000002  0.13254901  1
  Co  Co3  1  0.50000002  0.13254901  0.86745097  1
  Co  Co4  1  0.13254903  0.50000002  0.86745098  1
  Co  Co5  1  0.50000006  0.86745103  0.13254901  1
  Co  Co6  1  0.86745103  0.13254901  0.49999999  1
  Co  Co7  1  0.18616603  0.45624602  0.45624599  1
  Co  Co8  1  0.45624603  0.45624602  0.18616600  1
  Co  Co9  1  0.45624602  0.18616601  0.45624599  1
  Co  Co10  1  0.81383405  0.54375402  0.54375400  1
  Co  Co11  1  0.54375404  0.54375402  0.81383398  1
  Co  Co12  1  0.54375405  0.81383403  0.54375400  1
  B  B13  1  0.67621103  0.23221401  0.23221400  1
  B  B14  1  0.23221402  0.23221401  0.67621098  1
  B  B15  1  0.23221404  0.67621103  0.23221401  1
  B  B16  1  0.32378905  0.76778603  0.76778599  1
  B  B17  1  0.76778606  0.76778603  0.32378901  1
  B  B18  1  0.76778603  0.32378901  0.76778598  1
