# generated using pymatgen
data_BaSi3PdI
_symmetry_space_group_name_H-M   'P 1'
_cell_length_a   3.94743299
_cell_length_b   3.94743299
_cell_length_c   7.84878206
_cell_angle_alpha   90.00000000
_cell_angle_beta   90.00000000
_cell_angle_gamma   90.00000000
_symmetry_Int_Tables_number   1
_chemical_formula_structural   BaSi3PdI
_chemical_formula_sum   'Ba1 Si3 Pd1 I1'
_cell_volume   122.30150572
_cell_formula_units_Z   1
loop_
 _symmetry_equiv_pos_site_id
 _symmetry_equiv_pos_as_xyz
  1  'x, y, z'
loop_
 _atom_site_type_symbol
 _atom_site_label
 _atom_site_symmetry_multiplicity
 _atom_site_fract_x
 _atom_site_fract_y
 _atom_site_fract_z
 _atom_site_occupancy
  Si  Si0  1  0.50000000  0.50000000  0.84251299  1
  Pd  Pd1  1  0.00000000  0.00000000  0.16698800  1
  Ba  Ba2  1  0.00000000  0.00000000  0.64218999  1
  I  I3  1  0.50000000  0.50000000  0.33964300  1
  Si  Si4  1  0.00000000  0.50000000  0.00433300  1
  Si  Si5  1  0.50000000  0.00000000  0.00433300  1
