# generated using pymatgen
data_TmAl2
_symmetry_space_group_name_H-M   'P 1'
_cell_length_a   5.37526608
_cell_length_b   5.37526608
_cell_length_c   5.37526608
_cell_angle_alpha   87.69748688
_cell_angle_beta   61.88322449
_cell_angle_gamma   119.24559784
_symmetry_Int_Tables_number   1
_chemical_formula_structural   TmAl2
_chemical_formula_sum   'Tm2 Al4'
_cell_volume   111.89933691
_cell_formula_units_Z   2
loop_
 _symmetry_equiv_pos_site_id
 _symmetry_equiv_pos_as_xyz
  1  'x, y, z'
loop_
 _atom_site_type_symbol
 _atom_site_label
 _atom_site_symmetry_multiplicity
 _atom_site_fract_x
 _atom_site_fract_y
 _atom_site_fract_z
 _atom_site_occupancy
  Tm  Tm0  1  0.75000000  0.13083600  0.11916400  1
  Tm  Tm1  1  0.24999993  0.86916398  0.88083605  1
  Al  Al2  1  0.00000000  0.00000000  0.50000001  1
  Al  Al3  1  0.49999997  0.49999999  0.50000003  1
  Al  Al4  1  -0.00000004  0.49999999  0.50000003  1
  Al  Al5  1  0.49999997  0.49999999  0.00000002  1
