# generated using pymatgen
data_BaTl
_symmetry_space_group_name_H-M   'P 1'
_cell_length_a   3.67280412
_cell_length_b   3.67280340
_cell_length_c   6.02925587
_cell_angle_alpha   90.00000000
_cell_angle_beta   90.00000000
_cell_angle_gamma   120.00000763
_symmetry_Int_Tables_number   1
_chemical_formula_structural   BaTl
_chemical_formula_sum   'Ba1 Tl1'
_cell_volume   70.43520154
_cell_formula_units_Z   1
loop_
 _symmetry_equiv_pos_site_id
 _symmetry_equiv_pos_as_xyz
  1  'x, y, z'
loop_
 _atom_site_type_symbol
 _atom_site_label
 _atom_site_symmetry_multiplicity
 _atom_site_fract_x
 _atom_site_fract_y
 _atom_site_fract_z
 _atom_site_occupancy
  Tl  Tl0  1  0.33333337  0.66666671  -0.00000000  1
  Ba  Ba1  1  0.00000000  0.00000000  0.50000001  1
