# generated using pymatgen
data_K5BaCl10F
_symmetry_space_group_name_H-M   'P 1'
_cell_length_a   8.07291603
_cell_length_b   10.03746891
_cell_length_c   10.17505169
_cell_angle_alpha   107.72325897
_cell_angle_beta   97.41781616
_cell_angle_gamma   105.16657257
_symmetry_Int_Tables_number   1
_chemical_formula_structural   K5BaCl10F
_chemical_formula_sum   'K5 Ba1 Cl10 F1'
_cell_volume   738.21535375
_cell_formula_units_Z   1
loop_
 _symmetry_equiv_pos_site_id
 _symmetry_equiv_pos_as_xyz
  1  'x, y, z'
loop_
 _atom_site_type_symbol
 _atom_site_label
 _atom_site_symmetry_multiplicity
 _atom_site_fract_x
 _atom_site_fract_y
 _atom_site_fract_z
 _atom_site_occupancy
  Ba  Ba0  1  0.52964100  0.22501500  0.41899900  1
  K  K1  1  0.47035903  0.77498499  0.58100099  1
  K  K2  1  0.13875902  0.36712700  0.32672499  1
  K  K3  1  0.86124102  0.63287299  0.67327500  1
  K  K4  1  0.61652002  0.54204099  0.25217400  1
  K  K5  1  0.38348002  0.45795900  0.74782599  1
  F  F6  1  0.50000002  0.49999999  0.50000000  1
  Cl  Cl7  1  0.14645600  0.04352200  0.22560700  1
  Cl  Cl8  1  0.85354404  0.95647799  0.77439299  1
  Cl  Cl9  1  0.23592602  0.40979200  0.03867400  1
  Cl  Cl10  1  0.76407402  0.59020799  0.96132599  1
  Cl  Cl11  1  0.70743100  0.23750800  0.15144901  1
  Cl  Cl12  1  0.29256904  0.76249199  0.84855098  1
  Cl  Cl13  1  0.04928603  0.68386999  0.41057699  1
  Cl  Cl14  1  0.95071400  0.31613000  0.58942300  1
  Cl  Cl15  1  0.41353400  0.13122700  0.67830899  1
  Cl  Cl16  1  0.58646604  0.86877299  0.32169100  1
