# generated using pymatgen
data_Ce2Sn2GePd
_symmetry_space_group_name_H-M   'P 1'
_cell_length_a   4.59625578
_cell_length_b   4.59625626
_cell_length_c   16.51576042
_cell_angle_alpha   90.00000000
_cell_angle_beta   90.00000000
_cell_angle_gamma   120.00000000
_symmetry_Int_Tables_number   1
_chemical_formula_structural   Ce2Sn2GePd
_chemical_formula_sum   'Ce4 Sn4 Ge2 Pd2'
_cell_volume   302.16045724
_cell_formula_units_Z   2
loop_
 _symmetry_equiv_pos_site_id
 _symmetry_equiv_pos_as_xyz
  1  'x, y, z'
loop_
 _atom_site_type_symbol
 _atom_site_label
 _atom_site_symmetry_multiplicity
 _atom_site_fract_x
 _atom_site_fract_y
 _atom_site_fract_z
 _atom_site_occupancy
  Ce  Ce0  1  0.00000000  0.00000000  0.25000001  1
  Ce  Ce1  1  0.00000000  0.00000000  0.75000003  1
  Ce  Ce2  1  0.00000000  0.00000000  0.50000002  1
  Ce  Ce3  1  0.00000000  0.00000000  0.00000000  1
  Ge  Ge4  1  0.33333339  0.66666672  0.15538301  1
  Ge  Ge5  1  0.33333339  0.66666672  0.34461701  1
  Pd  Pd6  1  0.66666672  0.33333336  0.84461703  1
  Pd  Pd7  1  0.66666672  0.33333336  0.65538302  1
  Sn  Sn8  1  0.33333339  0.66666672  0.88346303  1
  Sn  Sn9  1  0.33333339  0.66666672  0.61653702  1
  Sn  Sn10  1  0.66666672  0.33333336  0.11653700  1
  Sn  Sn11  1  0.66666672  0.33333336  0.38346301  1
