# generated using pymatgen
data_Rb2MnTlAgBr7
_symmetry_space_group_name_H-M   'P 1'
_cell_length_a   5.45204020
_cell_length_b   5.45204020
_cell_length_c   14.71298504
_cell_angle_alpha   100.67745209
_cell_angle_beta   100.67745209
_cell_angle_gamma   90.00000000
_symmetry_Int_Tables_number   1
_chemical_formula_structural   Rb2MnTlAgBr7
_chemical_formula_sum   'Rb2 Mn1 Tl1 Ag1 Br7'
_cell_volume   422.05947216
_cell_formula_units_Z   1
loop_
 _symmetry_equiv_pos_site_id
 _symmetry_equiv_pos_as_xyz
  1  'x, y, z'
loop_
 _atom_site_type_symbol
 _atom_site_label
 _atom_site_symmetry_multiplicity
 _atom_site_fract_x
 _atom_site_fract_y
 _atom_site_fract_z
 _atom_site_occupancy
  Rb  Rb0  1  0.31618099  0.31618099  0.63236201  1
  Rb  Rb1  1  0.68381899  0.68381898  0.36763802  1
  Tl  Tl2  1  0.49999999  0.49999999  1.00000001  1
  Ag  Ag3  1  0.09699900  0.09699900  0.19399800  1
  Mn  Mn4  1  0.90300099  0.90300097  0.80600202  1
  Br  Br5  1  0.59581198  0.09581200  0.19162401  1
  Br  Br6  1  0.40418800  0.90418797  0.80837601  1
  Br  Br7  1  0.09581201  0.59581198  0.19162401  1
  Br  Br8  1  0.90418798  0.40418799  0.80837601  1
  Br  Br9  1  0.19244300  0.19244299  0.38488600  1
  Br  Br10  1  0.80755699  0.80755698  0.61511402  1
  Br  Br11  1  0.00000000  0.00000000  0.00000000  1
