# generated using pymatgen
data_Ce2Sb7
_symmetry_space_group_name_H-M   'P 1'
_cell_length_a   4.31956816
_cell_length_b   7.90234423
_cell_length_c   7.90234327
_cell_angle_alpha   120.00000000
_cell_angle_beta   90.00000000
_cell_angle_gamma   90.00000000
_symmetry_Int_Tables_number   1
_chemical_formula_structural   Ce2Sb7
_chemical_formula_sum   'Ce2 Sb7'
_cell_volume   233.60535694
_cell_formula_units_Z   1
loop_
 _symmetry_equiv_pos_site_id
 _symmetry_equiv_pos_as_xyz
  1  'x, y, z'
loop_
 _atom_site_type_symbol
 _atom_site_label
 _atom_site_symmetry_multiplicity
 _atom_site_fract_x
 _atom_site_fract_y
 _atom_site_fract_z
 _atom_site_occupancy
  Ce  Ce0  1  0.49999998  0.41413598  0.41413599  1
  Sb  Sb1  1  0.49999998  0.58586397  -0.00000003  1
  Ce  Ce2  1  0.49999998  0.00000000  0.58586401  1
  Sb  Sb3  1  0.99999996  0.00000000  0.24799000  1
  Sb  Sb4  1  -0.00000000  0.24798999  1.00000001  1
  Sb  Sb5  1  0.00000000  0.75200996  0.75200998  1
  Sb  Sb6  1  -0.00000000  0.33333332  0.66666666  1
  Sb  Sb7  1  0.99999996  0.66666663  0.33333331  1
  Sb  Sb8  1  0.49999998  0.00000000  -0.00000000  1
