# generated using pymatgen
data_LiMnO2
_symmetry_space_group_name_H-M   'P 1'
_cell_length_a   2.78777361
_cell_length_b   5.16899776
_cell_length_c   10.16580200
_cell_angle_alpha   75.27559662
_cell_angle_beta   82.12639618
_cell_angle_gamma   89.99700928
_symmetry_Int_Tables_number   1
_chemical_formula_structural   LiMnO2
_chemical_formula_sum   'Li4 Mn4 O8'
_cell_volume   140.25031206
_cell_formula_units_Z   4
loop_
 _symmetry_equiv_pos_site_id
 _symmetry_equiv_pos_as_xyz
  1  'x, y, z'
loop_
 _atom_site_type_symbol
 _atom_site_label
 _atom_site_symmetry_multiplicity
 _atom_site_fract_x
 _atom_site_fract_y
 _atom_site_fract_z
 _atom_site_occupancy
  Li  Li0  1  0.62048794  0.96360203  0.75720603  1
  Li  Li1  1  0.12049697  0.46366502  0.75719003  1
  Li  Li2  1  0.37241101  0.02868100  0.25760801  1
  Li  Li3  1  0.87240899  0.52870402  0.25761201  1
  Mn  Mn4  1  0.00017995  0.66494802  0.99911104  1
  Mn  Mn5  1  0.25067096  0.58627602  0.49901302  1
  Mn  Mn6  1  0.50016200  0.16493601  0.99909803  1
  Mn  Mn7  1  0.75058302  0.08595500  0.49913801  1
  O  O8  1  0.55602297  0.58078802  0.88680703  1
  O  O9  1  0.05602700  0.08067100  0.88687503  1
  O  O10  1  0.30644199  0.28245901  0.38668701  1
  O  O11  1  0.80641696  0.78256503  0.38662502  1
  O  O12  1  0.19503494  0.88822303  0.61095103  1
  O  O13  1  0.69524499  0.38832701  0.61097202  1
  O  O14  1  0.94458501  0.25135401  0.11045000  1
  O  O15  1  0.44461095  0.75109802  0.11061501  1
