# generated using pymatgen
data_NaSr4HO5
_symmetry_space_group_name_H-M   'P 1'
_cell_length_a   5.86936998
_cell_length_b   6.53707981
_cell_length_c   6.53707981
_cell_angle_alpha   78.37313080
_cell_angle_beta   63.32500839
_cell_angle_gamma   63.32500839
_symmetry_Int_Tables_number   1
_chemical_formula_structural   NaSr4HO5
_chemical_formula_sum   'Na1 Sr4 H1 O5'
_cell_volume   200.26899306
_cell_formula_units_Z   1
loop_
 _symmetry_equiv_pos_site_id
 _symmetry_equiv_pos_as_xyz
  1  'x, y, z'
loop_
 _atom_site_type_symbol
 _atom_site_label
 _atom_site_symmetry_multiplicity
 _atom_site_fract_x
 _atom_site_fract_y
 _atom_site_fract_z
 _atom_site_occupancy
  Sr  Sr0  1  0.25000002  0.49999999  0.50000001  1
  Na  Na1  1  0.75000001  0.49999999  0.50000002  1
  Sr  Sr2  1  0.56727700  0.13105800  0.93451702  1
  Sr  Sr3  1  0.63285203  0.86894198  0.06548302  1
  O  O4  1  0.30166500  0.06548300  0.13105801  1
  Sr  Sr5  1  0.49820603  0.93451698  0.86894201  1
  O  O6  1  0.35012202  0.57896099  0.81038101  1
  O  O7  1  0.73946401  0.42103899  0.18961902  1
  O  O8  1  0.07091701  0.18961900  0.57896100  1
  O  O9  1  0.83949702  0.81038098  0.42103903  1
  H  H10  1  0.49999999  0.00000000  0.00000002  1
