# generated using pymatgen
data_Ca4Mn5O11
_symmetry_space_group_name_H-M   'P 1'
_cell_length_a   5.38883400
_cell_length_b   5.78638411
_cell_length_c   7.76061821
_cell_angle_alpha   90.00000000
_cell_angle_beta   89.64807129
_cell_angle_gamma   90.00000000
_symmetry_Int_Tables_number   1
_chemical_formula_structural   Ca4Mn5O11
_chemical_formula_sum   'Ca4 Mn5 O11'
_cell_volume   241.98597205
_cell_formula_units_Z   1
loop_
 _symmetry_equiv_pos_site_id
 _symmetry_equiv_pos_as_xyz
  1  'x, y, z'
loop_
 _atom_site_type_symbol
 _atom_site_label
 _atom_site_symmetry_multiplicity
 _atom_site_fract_x
 _atom_site_fract_y
 _atom_site_fract_z
 _atom_site_occupancy
  Ca  Ca0  1  0.97802100  0.42864899  0.25083102  1
  Ca  Ca1  1  0.02197900  0.57135099  0.74916902  1
  Ca  Ca2  1  0.52197900  0.92864898  0.24916901  1
  Ca  Ca3  1  0.47802100  0.07135100  0.75083102  1
  Mn  Mn4  1  0.00000000  0.00000000  0.50000001  1
  Mn  Mn5  1  0.50000000  0.49999999  0.00000001  1
  Mn  Mn6  1  0.00000000  0.00000000  0.00000000  1
  Mn  Mn7  1  0.50000000  0.49999999  0.50000002  1
  O  O8  1  0.10915300  0.03654100  0.24619901  1
  Mn  Mn9  1  0.89084700  0.96345898  0.75380103  1
  O  O10  1  0.39084700  0.53654099  0.25380101  1
  O  O11  1  0.60915300  0.46345899  0.74619903  1
  O  O12  1  0.81129800  0.70203099  0.05771101  1
  O  O13  1  0.18870200  0.29796899  0.94228903  1
  O  O14  1  0.68870200  0.20203100  0.44228902  1
  O  O15  1  0.31129800  0.79796899  0.55771102  1
  O  O16  1  0.69582300  0.19371800  0.05179001  1
  O  O17  1  0.30417700  0.80628199  0.94821003  1
  O  O18  1  0.80417700  0.69371799  0.44821002  1
  O  O19  1  0.19582300  0.30628199  0.55179002  1
