# generated using pymatgen
data_Mg3OF2
_symmetry_space_group_name_H-M   'P 1'
_cell_length_a   3.06200409
_cell_length_b   3.96438694
_cell_length_c   7.87082577
_cell_angle_alpha   90.00000000
_cell_angle_beta   90.00000000
_cell_angle_gamma   90.00000000
_symmetry_Int_Tables_number   1
_chemical_formula_structural   Mg3OF2
_chemical_formula_sum   'Mg3 O1 F2'
_cell_volume   95.54371017
_cell_formula_units_Z   1
loop_
 _symmetry_equiv_pos_site_id
 _symmetry_equiv_pos_as_xyz
  1  'x, y, z'
loop_
 _atom_site_type_symbol
 _atom_site_label
 _atom_site_symmetry_multiplicity
 _atom_site_fract_x
 _atom_site_fract_y
 _atom_site_fract_z
 _atom_site_occupancy
  Mg  Mg0  1  0.49999999  0.00000000  0.89591403  1
  O  O1  1  0.00000000  0.50000001  0.10408600  1
  F  F2  1  0.49999999  0.50000001  0.93931603  1
  Mg  Mg3  1  0.00000000  0.00000000  0.06068400  1
  F  F4  1  0.00000000  0.00000000  0.72462402  1
  Mg  Mg5  1  0.49999999  0.50000001  0.27537601  1
