# generated using pymatgen
data_BaCaLa3Mg
_symmetry_space_group_name_H-M   'P 1'
_cell_length_a   6.21659327
_cell_length_b   6.21659327
_cell_length_c   6.90060949
_cell_angle_alpha   63.22821808
_cell_angle_beta   63.22821808
_cell_angle_gamma   60.00000763
_symmetry_Int_Tables_number   1
_chemical_formula_structural   BaCaLa3Mg
_chemical_formula_sum   'Ba1 Ca1 La3 Mg1'
_cell_volume   197.25499466
_cell_formula_units_Z   1
loop_
 _symmetry_equiv_pos_site_id
 _symmetry_equiv_pos_as_xyz
  1  'x, y, z'
loop_
 _atom_site_type_symbol
 _atom_site_label
 _atom_site_symmetry_multiplicity
 _atom_site_fract_x
 _atom_site_fract_y
 _atom_site_fract_z
 _atom_site_occupancy
  La  La0  1  0.67798399  0.00000000  -0.00000000  1
  La  La1  1  0.32201598  0.67798400  0.00000000  1
  Mg  Mg2  1  0.49999998  0.50000000  0.50000002  1
  La  La3  1  -0.00000001  0.32201600  0.00000000  1
  Ba  Ba4  1  0.83263297  0.83263300  0.50210102  1
  Ca  Ca5  1  0.16736699  0.16736700  0.49789902  1
