# generated using pymatgen
data_MnCu(SiS3)2
_symmetry_space_group_name_H-M   'P 1'
_cell_length_a   5.57074690
_cell_length_b   5.57074690
_cell_length_c   6.08188868
_cell_angle_alpha   62.74326706
_cell_angle_beta   62.74326706
_cell_angle_gamma   59.99998856
_symmetry_Int_Tables_number   1
_chemical_formula_structural   MnCu(SiS3)2
_chemical_formula_sum   'Mn1 Cu1 Si2 S6'
_cell_volume   138.72827945
_cell_formula_units_Z   1
loop_
 _symmetry_equiv_pos_site_id
 _symmetry_equiv_pos_as_xyz
  1  'x, y, z'
loop_
 _atom_site_type_symbol
 _atom_site_label
 _atom_site_symmetry_multiplicity
 _atom_site_fract_x
 _atom_site_fract_y
 _atom_site_fract_z
 _atom_site_occupancy
  Mn  Mn0  1  0.36273298  0.36273300  0.91180098  1
  Cu  Cu1  1  0.63726696  0.63726700  0.08819901  1
  Si  Si2  1  0.15425799  0.15425800  0.53722599  1
  Si  Si3  1  0.84574194  0.84574200  0.46277400  1
  S  S4  1  0.79155296  0.44370100  0.72893499  1
  S  S5  1  0.44370099  0.03581100  0.72893498  1
  S  S6  1  0.03581096  0.79155300  0.72893499  1
  S  S7  1  0.20844697  0.55629900  0.27106500  1
  S  S8  1  0.96418897  0.20844700  0.27106500  1
  S  S9  1  0.55629894  0.96418900  0.27106501  1
