# generated using pymatgen
data_Te2Ir
_symmetry_space_group_name_H-M   'P 1'
_cell_length_a   6.43156481
_cell_length_b   6.43156481
_cell_length_c   6.43156481
_cell_angle_alpha   90.00000000
_cell_angle_beta   90.00000000
_cell_angle_gamma   90.00000000
_symmetry_Int_Tables_number   1
_chemical_formula_structural   Te2Ir
_chemical_formula_sum   'Te8 Ir4'
_cell_volume   266.04184472
_cell_formula_units_Z   4
loop_
 _symmetry_equiv_pos_site_id
 _symmetry_equiv_pos_as_xyz
  1  'x, y, z'
loop_
 _atom_site_type_symbol
 _atom_site_label
 _atom_site_symmetry_multiplicity
 _atom_site_fract_x
 _atom_site_fract_y
 _atom_site_fract_z
 _atom_site_occupancy
  Te  Te0  1  0.88025803  0.38025801  0.11974200  1
  Te  Te1  1  0.38025801  0.11974200  0.88025803  1
  Te  Te2  1  0.11974200  0.88025803  0.38025801  1
  Te  Te3  1  0.61974202  0.61974202  0.61974202  1
  Ir  Ir4  1  0.49812301  0.99812303  0.50187701  1
  Ir  Ir5  1  0.99812303  0.50187701  0.49812301  1
  Ir  Ir6  1  0.50187701  0.49812301  0.99812303  1
  Te  Te7  1  0.00187700  0.00187700  0.00187700  1
  Te  Te8  1  0.12261000  0.62261002  0.87739003  1
  Te  Te9  1  0.62261002  0.87739003  0.12261000  1
  Te  Te10  1  0.87739003  0.12261000  0.62261002  1
  Ir  Ir11  1  0.37739001  0.37739001  0.37739001  1
