# generated using pymatgen
data_LiAlTc6
_symmetry_space_group_name_H-M   'P 1'
_cell_length_a   5.00238180
_cell_length_b   5.00238180
_cell_length_c   5.00238180
_cell_angle_alpha   90.00000000
_cell_angle_beta   90.00000000
_cell_angle_gamma   90.00000000
_symmetry_Int_Tables_number   1
_chemical_formula_structural   LiAlTc6
_chemical_formula_sum   'Li1 Al1 Tc6'
_cell_volume   125.17872023
_cell_formula_units_Z   1
loop_
 _symmetry_equiv_pos_site_id
 _symmetry_equiv_pos_as_xyz
  1  'x, y, z'
loop_
 _atom_site_type_symbol
 _atom_site_label
 _atom_site_symmetry_multiplicity
 _atom_site_fract_x
 _atom_site_fract_y
 _atom_site_fract_z
 _atom_site_occupancy
  Al  Al0  1  0.50000002  0.74989603  -0.00000000  1
  Li  Li1  1  0.25010401  0.00000000  0.50000002  1
  Tc  Tc2  1  0.00000000  0.50000002  0.74989603  1
  Tc  Tc3  1  0.50000002  0.25010401  -0.00000000  1
  Tc  Tc4  1  0.74989603  0.00000000  0.50000002  1
  Tc  Tc5  1  0.00000000  0.50000002  0.25010401  1
  Tc  Tc6  1  0.50000002  0.50000002  0.50000002  1
  Tc  Tc7  1  0.00000000  0.00000000  0.00000000  1
