# generated using pymatgen
data_AlTlTe2
_symmetry_space_group_name_H-M   'P 1'
_cell_length_a   3.85090995
_cell_length_b   6.67312622
_cell_length_c   7.36772394
_cell_angle_alpha   98.65686798
_cell_angle_beta   105.14937592
_cell_angle_gamma   90.00000000
_symmetry_Int_Tables_number   1
_chemical_formula_structural   AlTlTe2
_chemical_formula_sum   'Al2 Tl2 Te4'
_cell_volume   180.51756138
_cell_formula_units_Z   2
loop_
 _symmetry_equiv_pos_site_id
 _symmetry_equiv_pos_as_xyz
  1  'x, y, z'
loop_
 _atom_site_type_symbol
 _atom_site_label
 _atom_site_symmetry_multiplicity
 _atom_site_fract_x
 _atom_site_fract_y
 _atom_site_fract_z
 _atom_site_occupancy
  Te  Te0  1  0.15043899  0.38146699  0.30087799  1
  Te  Te1  1  0.84323399  0.61516598  0.68646797  1
  Te  Te2  1  0.34580800  0.11464200  0.69161598  1
  Te  Te3  1  0.66172099  0.89006197  0.32344198  1
  Al  Al4  1  0.24604599  0.75488998  0.49209199  1
  Al  Al5  1  0.74785500  0.24256799  0.49570997  1
  Tl  Tl6  1  0.50044299  0.50789299  0.00088598  1
  Tl  Tl7  1  0.00445298  0.99331197  0.00890599  1
