# generated using pymatgen
data_Lu4Si11Ni5
_symmetry_space_group_name_H-M   'P 1'
_cell_length_a   5.55144405
_cell_length_b   7.92304325
_cell_length_c   7.92304325
_cell_angle_alpha   74.55220795
_cell_angle_beta   69.49217224
_cell_angle_gamma   69.49217224
_symmetry_Int_Tables_number   1
_chemical_formula_structural   Lu4Si11Ni5
_chemical_formula_sum   'Lu4 Si11 Ni5'
_cell_volume   301.59285015
_cell_formula_units_Z   1
loop_
 _symmetry_equiv_pos_site_id
 _symmetry_equiv_pos_as_xyz
  1  'x, y, z'
loop_
 _atom_site_type_symbol
 _atom_site_label
 _atom_site_symmetry_multiplicity
 _atom_site_fract_x
 _atom_site_fract_y
 _atom_site_fract_z
 _atom_site_occupancy
  Lu  Lu0  1  0.13395298  0.59969198  0.13240204  1
  Lu  Lu1  1  0.86604698  0.40030799  0.86759800  1
  Lu  Lu2  1  0.63395199  0.13240200  0.59969299  1
  Lu  Lu3  1  0.36604797  0.86759797  0.40030705  1
  Ni  Ni4  1  0.74999996  0.99999996  0.00000006  1
  Ni  Ni5  1  0.24999997  0.99999996  0.00000006  1
  Si  Si6  1  0.36171398  0.53040998  0.74616201  1
  Ni  Ni7  1  0.63828598  0.46958998  0.25383802  1
  Ni  Ni8  1  0.86171397  0.74616197  0.53041003  1
  Ni  Ni9  1  0.13828599  0.25383799  0.46959000  1
  Si  Si10  1  0.74999998  0.49999998  0.50000002  1
  Si  Si11  1  0.24999998  0.49999998  0.50000002  1
  Si  Si12  1  0.97701397  0.77298597  0.77298603  1
  Si  Si13  1  0.52298599  0.22701399  0.22701401  1
  Si  Si14  1  0.02298599  0.22701399  0.22701401  1
  Si  Si15  1  0.47701397  0.77298597  0.77298603  1
  Si  Si16  1  0.39928199  0.25824899  0.94318699  1
  Si  Si17  1  0.60071797  0.74175097  0.05681305  1
  Si  Si18  1  0.89928096  0.94318697  0.25825005  1
  Si  Si19  1  0.10071900  0.05681300  0.74174998  1
