# generated using pymatgen
data_LiV5O9
_symmetry_space_group_name_H-M   'P 1'
_cell_length_a   5.58295393
_cell_length_b   5.69707346
_cell_length_c   6.23165989
_cell_angle_alpha   63.06348801
_cell_angle_beta   64.20059967
_cell_angle_gamma   89.91930389
_symmetry_Int_Tables_number   1
_chemical_formula_structural   LiV5O9
_chemical_formula_sum   'Li1 V5 O9'
_cell_volume   154.28674567
_cell_formula_units_Z   1
loop_
 _symmetry_equiv_pos_site_id
 _symmetry_equiv_pos_as_xyz
  1  'x, y, z'
loop_
 _atom_site_type_symbol
 _atom_site_label
 _atom_site_symmetry_multiplicity
 _atom_site_fract_x
 _atom_site_fract_y
 _atom_site_fract_z
 _atom_site_occupancy
  Li  Li0  1  0.00000000  0.00000000  0.49999998  1
  V  V1  1  0.50000006  0.50000002  0.99999992  1
  V  V2  1  0.00000004  0.50000002  0.49999997  1
  V  V3  1  0.50000006  0.50000002  0.49999994  1
  V  V4  1  0.50000002  0.00000000  0.49999995  1
  O  O5  1  0.00000000  0.00000000  0.00000000  1
  V  V6  1  0.50000002  0.00000000  -0.00000003  1
  O  O7  1  0.71368009  0.71756203  0.54815492  1
  O  O8  1  0.73918905  0.26546601  0.49149993  1
  O  O9  1  0.27822807  0.81369504  0.94378293  1
  O  O10  1  0.27186003  0.23700901  0.95534495  1
  O  O11  1  0.72814009  0.76299103  0.04465493  1
  O  O12  1  0.72177205  0.18630501  0.05621695  1
  O  O13  1  0.26081107  0.73453403  0.50849995  1
  O  O14  1  0.28632003  0.28243801  0.45184496  1
