# generated using pymatgen
data_AlSi3
_symmetry_space_group_name_H-M   'P 1'
_cell_length_a   3.37109399
_cell_length_b   3.37109494
_cell_length_c   13.33129978
_cell_angle_alpha   90.00000000
_cell_angle_beta   90.00000000
_cell_angle_gamma   119.99999237
_symmetry_Int_Tables_number   1
_chemical_formula_structural   AlSi3
_chemical_formula_sum   'Al2 Si6'
_cell_volume   131.20337440
_cell_formula_units_Z   2
loop_
 _symmetry_equiv_pos_site_id
 _symmetry_equiv_pos_as_xyz
  1  'x, y, z'
loop_
 _atom_site_type_symbol
 _atom_site_label
 _atom_site_symmetry_multiplicity
 _atom_site_fract_x
 _atom_site_fract_y
 _atom_site_fract_z
 _atom_site_occupancy
  Al  Al0  1  0.66666667  0.33333332  0.75398401  1
  Al  Al1  1  0.33333334  0.66666665  0.25398400  1
  Si  Si2  1  0.66666667  0.33333332  0.53617701  1
  Si  Si3  1  0.33333334  0.66666665  0.03617700  1
  Si  Si4  1  0.66666667  0.33333332  0.13362700  1
  Si  Si5  1  0.33333334  0.66666665  0.87021201  1
  Si  Si6  1  0.33333334  0.66666665  0.63362701  1
  Si  Si7  1  0.66666667  0.33333332  0.37021201  1
