# generated using pymatgen
data_NaZr4B5S2
_symmetry_space_group_name_H-M   'P 1'
_cell_length_a   5.10858822
_cell_length_b   5.10858822
_cell_length_c   6.35415936
_cell_angle_alpha   113.70249939
_cell_angle_beta   113.70249939
_cell_angle_gamma   90.00000000
_symmetry_Int_Tables_number   1
_chemical_formula_structural   NaZr4B5S2
_chemical_formula_sum   'Na1 Zr4 B5 S2'
_cell_volume   136.42496181
_cell_formula_units_Z   1
loop_
 _symmetry_equiv_pos_site_id
 _symmetry_equiv_pos_as_xyz
  1  'x, y, z'
loop_
 _atom_site_type_symbol
 _atom_site_label
 _atom_site_symmetry_multiplicity
 _atom_site_fract_x
 _atom_site_fract_y
 _atom_site_fract_z
 _atom_site_occupancy
  Na  Na0  1  0.00000000  0.00000000  0.00000000  1
  B  B1  1  0.74999997  0.24999999  0.50000000  1
  B  B2  1  0.49999998  0.49999998  0.00000001  1
  B  B3  1  0.24999999  0.74999997  0.50000001  1
  Zr  Zr4  1  0.64874198  0.66161997  0.79830901  1
  S  S5  1  0.60043298  0.11331100  0.70169100  1
  Zr  Zr6  1  0.86331097  0.35125799  0.20169101  1
  B  B7  1  0.41161999  0.39956698  0.29830900  1
  Zr  Zr8  1  0.33837999  0.85043297  0.20169101  1
  B  B9  1  0.88668897  0.89874196  0.29830901  1
  S  S10  1  0.10125800  0.58837998  0.70169100  1
  Zr  Zr11  1  0.14956699  0.13668899  0.79830900  1
