# generated using pymatgen
data_AgS
_symmetry_space_group_name_H-M   'P 1'
_cell_length_a   4.35268641
_cell_length_b   6.07306194
_cell_length_c   8.73272800
_cell_angle_alpha   90.00000000
_cell_angle_beta   90.00000000
_cell_angle_gamma   90.00000000
_symmetry_Int_Tables_number   1
_chemical_formula_structural   AgS
_chemical_formula_sum   'Ag4 S4'
_cell_volume   230.84210363
_cell_formula_units_Z   4
loop_
 _symmetry_equiv_pos_site_id
 _symmetry_equiv_pos_as_xyz
  1  'x, y, z'
loop_
 _atom_site_type_symbol
 _atom_site_label
 _atom_site_symmetry_multiplicity
 _atom_site_fract_x
 _atom_site_fract_y
 _atom_site_fract_z
 _atom_site_occupancy
  Ag  Ag0  1  0.00000000  0.00461600  0.99440197  1
  Ag  Ag1  1  0.49999999  0.50172700  0.24999999  1
  Ag  Ag2  1  0.00000000  0.00461600  0.50559798  1
  Ag  Ag3  1  0.49999999  0.49086800  0.74999998  1
  S  S4  1  0.49999999  0.74963901  0.99819097  1
  S  S5  1  0.00000000  0.24893300  0.24999999  1
  S  S6  1  0.49999999  0.74963901  0.50180898  1
  S  S7  1  0.00000000  0.24996300  0.74999998  1
