# generated using pymatgen
data_Ba5Pb3
_symmetry_space_group_name_H-M   'P 1'
_cell_length_a   6.43046999
_cell_length_b   6.43046951
_cell_length_c   11.38389301
_cell_angle_alpha   90.00000000
_cell_angle_beta   90.00000000
_cell_angle_gamma   120.00000000
_symmetry_Int_Tables_number   1
_chemical_formula_structural   Ba5Pb3
_chemical_formula_sum   'Ba5 Pb3'
_cell_volume   407.66820074
_cell_formula_units_Z   1
loop_
 _symmetry_equiv_pos_site_id
 _symmetry_equiv_pos_as_xyz
  1  'x, y, z'
loop_
 _atom_site_type_symbol
 _atom_site_label
 _atom_site_symmetry_multiplicity
 _atom_site_fract_x
 _atom_site_fract_y
 _atom_site_fract_z
 _atom_site_occupancy
  Ba  Ba0  1  0.00000000  0.00000000  0.75000000  1
  Ba  Ba1  1  0.00000000  0.00000000  0.25000000  1
  Ba  Ba2  1  0.66666666  0.33333334  0.41923900  1
  Pb  Pb3  1  0.33333331  0.66666667  0.91923900  1
  Ba  Ba4  1  0.33333331  0.66666667  0.58076100  1
  Ba  Ba5  1  0.66666666  0.33333334  0.08076100  1
  Pb  Pb6  1  0.66666666  0.33333334  0.75000000  1
  Pb  Pb7  1  0.33333331  0.66666667  0.25000000  1
