# generated using pymatgen
data_NaCuPO4F
_symmetry_space_group_name_H-M   'P 1'
_cell_length_a   5.27894020
_cell_length_b   5.27894020
_cell_length_c   6.99412680
_cell_angle_alpha   105.50601959
_cell_angle_beta   105.50601959
_cell_angle_gamma   103.87802887
_symmetry_Int_Tables_number   1
_chemical_formula_structural   NaCuPO4F
_chemical_formula_sum   'Na2 Cu2 P2 O8 F2'
_cell_volume   170.50090300
_cell_formula_units_Z   2
loop_
 _symmetry_equiv_pos_site_id
 _symmetry_equiv_pos_as_xyz
  1  'x, y, z'
loop_
 _atom_site_type_symbol
 _atom_site_label
 _atom_site_symmetry_multiplicity
 _atom_site_fract_x
 _atom_site_fract_y
 _atom_site_fract_z
 _atom_site_occupancy
  Na  Na0  1  0.66803600  0.33196400  0.25000001  1
  Na  Na1  1  0.33196399  0.66803600  0.75000002  1
  Cu  Cu2  1  0.00000000  0.00000000  0.00000000  1
  Cu  Cu3  1  0.00000000  0.00000000  0.50000001  1
  P  P4  1  0.31697999  0.68302000  0.25000001  1
  P  P5  1  0.68302000  0.31698000  0.75000002  1
  O  O6  1  0.88269300  0.30172700  0.62108802  1
  O  O7  1  0.69827300  0.11730700  0.87891202  1
  O  O8  1  0.37818000  0.23812500  0.60043401  1
  O  O9  1  0.76187500  0.62182000  0.89956602  1
  O  O10  1  0.62181999  0.76187500  0.39956601  1
  O  O11  1  0.23812500  0.37818000  0.10043400  1
  O  O12  1  0.11730699  0.69827300  0.37891201  1
  O  O13  1  0.30172699  0.88269300  0.12108801  1
  F  F14  1  0.06953199  0.93046800  0.75000002  1
  F  F15  1  0.93046801  0.06953200  0.25000001  1
