# generated using pymatgen
data_LiV2(OF)2
_symmetry_space_group_name_H-M   'P 1'
_cell_length_a   5.88826609
_cell_length_b   5.95032358
_cell_length_c   5.89691544
_cell_angle_alpha   119.57238007
_cell_angle_beta   90.00000000
_cell_angle_gamma   119.65559387
_symmetry_Int_Tables_number   1
_chemical_formula_structural   LiV2(OF)2
_chemical_formula_sum   'Li2 V4 O4 F4'
_cell_volume   147.78416192
_cell_formula_units_Z   2
loop_
 _symmetry_equiv_pos_site_id
 _symmetry_equiv_pos_as_xyz
  1  'x, y, z'
loop_
 _atom_site_type_symbol
 _atom_site_label
 _atom_site_symmetry_multiplicity
 _atom_site_fract_x
 _atom_site_fract_y
 _atom_site_fract_z
 _atom_site_occupancy
  Li  Li0  1  0.12329498  0.24658999  0.87629601  1
  V  V1  1  0.87670493  0.75340998  0.12370397  1
  Li  Li2  1  -0.00000004  0.49999999  0.49999999  1
  V  V3  1  0.49999996  0.49999999  0.49999999  1
  V  V4  1  0.49999999  0.00000000  0.00000000  1
  V  V5  1  0.49999999  0.00000000  0.50000001  1
  O  O6  1  0.73636899  0.02306300  0.25794001  1
  O  O7  1  0.73671896  0.47343799  0.71588000  1
  O  O8  1  0.74501195  0.49002399  0.26945198  1
  F  F9  1  0.71330592  0.97693698  0.74205997  1
  F  F10  1  0.25498796  0.50997599  0.73054799  1
  F  F11  1  0.26328096  0.52656199  0.28411998  1
  O  O12  1  0.28669399  0.02306300  0.25794001  1
  F  F13  1  0.26363093  0.97693698  0.74205997  1
