# generated using pymatgen
data_BeGa4Te3
_symmetry_space_group_name_H-M   'P 1'
_cell_length_a   5.87872791
_cell_length_b   5.87872791
_cell_length_c   7.21839094
_cell_angle_alpha   114.02937317
_cell_angle_beta   114.02937317
_cell_angle_gamma   90.00000000
_symmetry_Int_Tables_number   1
_chemical_formula_structural   BeGa4Te3
_chemical_formula_sum   'Be1 Ga4 Te3'
_cell_volume   203.94592861
_cell_formula_units_Z   1
loop_
 _symmetry_equiv_pos_site_id
 _symmetry_equiv_pos_as_xyz
  1  'x, y, z'
loop_
 _atom_site_type_symbol
 _atom_site_label
 _atom_site_symmetry_multiplicity
 _atom_site_fract_x
 _atom_site_fract_y
 _atom_site_fract_z
 _atom_site_occupancy
  Te  Te0  1  0.50000005  0.50000003  0.00000007  1
  Ga  Ga1  1  0.25000006  0.75000004  0.50000008  1
  Ga  Ga2  1  0.00000000  0.00000000  0.00000000  1
  Be  Be3  1  0.75000005  0.25000001  0.50000007  1
  Ga  Ga4  1  0.37500008  0.90564505  0.25000010  1
  Ga  Ga5  1  0.87500006  0.34435502  0.25000008  1
  Te  Te6  1  0.65564507  0.62500003  0.75000010  1
  Te  Te7  1  0.09435501  0.12500001  0.75000003  1
