# generated using pymatgen
data_RbSrTbNb3O10F
_symmetry_space_group_name_H-M   'P 1'
_cell_length_a   3.88509607
_cell_length_b   3.96166611
_cell_length_c   17.00996017
_cell_angle_alpha   96.68734741
_cell_angle_beta   96.55751801
_cell_angle_gamma   90.00000000
_symmetry_Int_Tables_number   1
_chemical_formula_structural   RbSrTbNb3O10F
_chemical_formula_sum   'Rb1 Sr1 Tb1 Nb3 O10 F1'
_cell_volume   258.30213581
_cell_formula_units_Z   1
loop_
 _symmetry_equiv_pos_site_id
 _symmetry_equiv_pos_as_xyz
  1  'x, y, z'
loop_
 _atom_site_type_symbol
 _atom_site_label
 _atom_site_symmetry_multiplicity
 _atom_site_fract_x
 _atom_site_fract_y
 _atom_site_fract_z
 _atom_site_occupancy
  Nb  Nb0  1  0.38037799  0.38037799  0.76075597  1
  Nb  Nb1  1  0.61583899  0.61583899  0.23167799  1
  Nb  Nb2  1  0.49562299  0.49562299  0.99124597  1
  Tb  Tb3  1  0.20990200  0.20990200  0.41980399  1
  Sr  Sr4  1  0.80488198  0.80488198  0.60976398  1
  O  O5  1  0.43570699  0.43570699  0.87141397  1
  O  O6  1  0.56305399  0.56305399  0.12610800  1
  O  O7  1  0.50261799  0.00261800  0.00523599  1
  Rb  Rb8  1  0.00374600  0.50374599  0.00749201  1
  O  O9  1  0.12621800  0.62621799  0.25243600  1
  O  O10  1  0.36857599  0.86857598  0.73715198  1
  O  O11  1  0.86777198  0.36777199  0.73554397  1
  F  F12  1  0.31204399  0.31204399  0.62408798  1
  O  O13  1  0.68315698  0.68315699  0.36631399  1
  O  O14  1  0.75134198  0.25134199  0.50268398  1
  O  O15  1  0.25126699  0.75126698  0.50253399  1
  O  O16  1  0.62787599  0.12787600  0.25575199  1
