# generated using pymatgen
data_Li3VF8
_symmetry_space_group_name_H-M   'P 1'
_cell_length_a   5.64934683
_cell_length_b   5.64933825
_cell_length_c   5.65096951
_cell_angle_alpha   71.63199615
_cell_angle_beta   66.78604126
_cell_angle_gamma   106.88857269
_symmetry_Int_Tables_number   1
_chemical_formula_structural   Li3VF8
_chemical_formula_sum   'Li3 V1 F8'
_cell_volume   138.38559931
_cell_formula_units_Z   1
loop_
 _symmetry_equiv_pos_site_id
 _symmetry_equiv_pos_as_xyz
  1  'x, y, z'
loop_
 _atom_site_type_symbol
 _atom_site_label
 _atom_site_symmetry_multiplicity
 _atom_site_fract_x
 _atom_site_fract_y
 _atom_site_fract_z
 _atom_site_occupancy
  Li  Li0  1  0.00001792  0.99998892  0.99999308  1
  V  V1  1  0.49998199  0.00001100  0.50000699  1
  Li  Li2  1  0.74999994  0.49999996  0.75000004  1
  Li  Li3  1  0.25000095  0.49999896  0.25000005  1
  F  F4  1  0.55728792  0.80728794  0.25000009  1
  F  F5  1  0.05729793  0.80729794  0.75000006  1
  F  F6  1  0.94271196  0.19271198  0.25000003  1
  F  F7  1  0.44270197  0.19270198  0.75000000  1
  F  F8  1  0.99996495  0.29799098  0.70204403  1
  F  F9  1  0.49994896  0.29797598  0.20207504  1
  F  F10  1  0.00004994  0.70202295  0.29792607  1
  F  F11  1  0.50003493  0.70200895  0.79795606  1
