# generated using pymatgen
data_Lu5(CoB3)2
_symmetry_space_group_name_H-M   'P 1'
_cell_length_a   5.35748291
_cell_length_b   5.35748243
_cell_length_c   8.06470203
_cell_angle_alpha   70.60029602
_cell_angle_beta   70.60029602
_cell_angle_gamma   60.00000381
_symmetry_Int_Tables_number   1
_chemical_formula_structural   Lu5(CoB3)2
_chemical_formula_sum   'Lu5 Co2 B6'
_cell_volume   185.13504527
_cell_formula_units_Z   1
loop_
 _symmetry_equiv_pos_site_id
 _symmetry_equiv_pos_as_xyz
  1  'x, y, z'
loop_
 _atom_site_type_symbol
 _atom_site_label
 _atom_site_symmetry_multiplicity
 _atom_site_fract_x
 _atom_site_fract_y
 _atom_site_fract_z
 _atom_site_occupancy
  Lu  Lu0  1  0.25677002  0.25677000  0.22968899  1
  Lu  Lu1  1  0.74323006  0.74322999  0.77031098  1
  Lu  Lu2  1  0.41118903  0.41118900  0.76643300  1
  Lu  Lu3  1  0.58881105  0.58881099  0.23356697  1
  Lu  Lu4  1  0.00000000  0.00000000  0.00000000  1
  Co  Co5  1  0.11500001  0.11500000  0.65499901  1
  Co  Co6  1  0.88500007  0.88499999  0.34500096  1
  B  B7  1  0.83293105  0.50000000  0.49999997  1
  B  B8  1  0.50000002  0.16706900  0.50000000  1
  B  B9  1  0.16706804  0.83293099  0.49999999  1
  B  B10  1  0.50000005  0.83293099  0.49999997  1
  B  B11  1  0.83293103  0.16706900  0.49999998  1
  B  B12  1  0.16706903  0.50000000  0.50000000  1
