# generated using pymatgen
data_LuAg
_symmetry_space_group_name_H-M   'P 1'
_cell_length_a   4.33467197
_cell_length_b   4.33467197
_cell_length_c   7.47643995
_cell_angle_alpha   73.14871979
_cell_angle_beta   73.14871979
_cell_angle_gamma   60.00000381
_symmetry_Int_Tables_number   1
_chemical_formula_structural   LuAg
_chemical_formula_sum   'Lu2 Ag2'
_cell_volume   114.63914381
_cell_formula_units_Z   2
loop_
 _symmetry_equiv_pos_site_id
 _symmetry_equiv_pos_as_xyz
  1  'x, y, z'
loop_
 _atom_site_type_symbol
 _atom_site_label
 _atom_site_symmetry_multiplicity
 _atom_site_fract_x
 _atom_site_fract_y
 _atom_site_fract_z
 _atom_site_occupancy
  Ag  Ag0  1  0.25366799  0.25366799  0.23899602  1
  Ag  Ag1  1  0.74633196  0.74633196  0.76100404  1
  Lu  Lu2  1  0.00000000  0.00000000  0.00000000  1
  Lu  Lu3  1  0.49999998  0.49999997  0.50000003  1
