# generated using pymatgen
data_Ba6CuGeS10
_symmetry_space_group_name_H-M   'P 1'
_cell_length_a   7.92672396
_cell_length_b   8.78495312
_cell_length_c   7.92672396
_cell_angle_alpha   63.18228531
_cell_angle_beta   90.00000000
_cell_angle_gamma   116.81771088
_symmetry_Int_Tables_number   1
_chemical_formula_structural   Ba6CuGeS10
_chemical_formula_sum   'Ba6 Cu1 Ge1 S10'
_cell_volume   425.03566615
_cell_formula_units_Z   1
loop_
 _symmetry_equiv_pos_site_id
 _symmetry_equiv_pos_as_xyz
  1  'x, y, z'
loop_
 _atom_site_type_symbol
 _atom_site_label
 _atom_site_symmetry_multiplicity
 _atom_site_fract_x
 _atom_site_fract_y
 _atom_site_fract_z
 _atom_site_occupancy
  Ba  Ba0  1  0.24999997  0.49999997  0.75000000  1
  Ba  Ba1  1  0.74999997  0.49999997  0.25000000  1
  Ba  Ba2  1  0.33678394  0.99999995  0.16321600  1
  Ba  Ba3  1  0.16321594  0.99999995  0.66321600  1
  S  S4  1  0.83678400  0.00000000  0.33678400  1
  S  S5  1  0.66321600  0.00000000  0.83678400  1
  Cu  Cu6  1  0.74999997  0.49999997  0.75000000  1
  Ge  Ge7  1  0.24999997  0.49999997  0.25000000  1
  S  S8  1  0.49092799  0.27258899  0.71833900  1
  S  S9  1  0.21833796  0.72740896  0.99092900  1
  S  S10  1  0.50907196  0.72741096  0.28166100  1
  S  S11  1  0.00907196  0.72740996  0.49092800  1
  S  S12  1  0.71833796  0.72740996  0.78166200  1
  S  S13  1  0.99092799  0.27258999  0.50907200  1
  S  S14  1  0.28166199  0.27258999  0.21833800  1
  S  S15  1  0.78166199  0.27259099  0.00907100  1
  Ba  Ba16  1  0.50000000  0.00000000  0.50000000  1
  Ba  Ba17  1  0.00000000  0.00000000  0.00000000  1
