# generated using pymatgen
data_Li3V3F10
_symmetry_space_group_name_H-M   'P 1'
_cell_length_a   5.17821407
_cell_length_b   5.71534872
_cell_length_c   7.10864210
_cell_angle_alpha   109.46761322
_cell_angle_beta   90.01063538
_cell_angle_gamma   116.92961121
_symmetry_Int_Tables_number   1
_chemical_formula_structural   Li3V3F10
_chemical_formula_sum   'Li3 V3 F10'
_cell_volume   173.96448676
_cell_formula_units_Z   1
loop_
 _symmetry_equiv_pos_site_id
 _symmetry_equiv_pos_as_xyz
  1  'x, y, z'
loop_
 _atom_site_type_symbol
 _atom_site_label
 _atom_site_symmetry_multiplicity
 _atom_site_fract_x
 _atom_site_fract_y
 _atom_site_fract_z
 _atom_site_occupancy
  Li  Li0  1  0.99944297  0.49838799  0.49924998  1
  V  V1  1  0.37077099  0.24108999  0.77747698  1
  Li  Li2  1  0.36867599  0.23922199  0.28156599  1
  V  V3  1  0.00108698  0.50157699  0.00075302  1
  Li  Li4  1  0.62953996  0.76073498  0.21844701  1
  V  V5  1  0.62971396  0.75891698  0.72249000  1
  F  F6  1  0.20224397  0.49998399  0.74998900  1
  F  F7  1  0.80080597  0.50004199  0.25000499  1
  F  F8  1  0.03568296  0.88987198  0.66920102  1
  F  F9  1  0.33471496  0.86953398  0.15750102  1
  F  F10  1  0.96511099  0.13041200  0.34250497  1
  F  F11  1  0.64589499  0.11022800  0.83081797  1
  F  F12  1  0.73566096  0.66235899  0.93391998  1
  F  F13  1  0.43513197  0.66302099  0.45390100  1
  F  F14  1  0.27222598  0.33701099  0.04615300  1
  F  F15  1  0.57329698  0.33760899  0.56602498  1
