# generated using pymatgen
data_Zr3Ni2
_symmetry_space_group_name_H-M   'P 1'
_cell_length_a   3.71716499
_cell_length_b   7.28382301
_cell_length_c   7.28382301
_cell_angle_alpha   90.00000000
_cell_angle_beta   90.00000000
_cell_angle_gamma   90.00000000
_symmetry_Int_Tables_number   1
_chemical_formula_structural   Zr3Ni2
_chemical_formula_sum   'Zr6 Ni4'
_cell_volume   197.21076034
_cell_formula_units_Z   2
loop_
 _symmetry_equiv_pos_site_id
 _symmetry_equiv_pos_as_xyz
  1  'x, y, z'
loop_
 _atom_site_type_symbol
 _atom_site_label
 _atom_site_symmetry_multiplicity
 _atom_site_fract_x
 _atom_site_fract_y
 _atom_site_fract_z
 _atom_site_occupancy
  Zr  Zr0  1  0.50000000  0.67581100  0.17581100  1
  Zr  Zr1  1  0.50000000  0.32418900  0.82418900  1
  Zr  Zr2  1  0.50000000  0.17581100  0.32418900  1
  Zr  Zr3  1  0.50000000  0.82418900  0.67581100  1
  Ni  Ni4  1  0.00000000  0.87942500  0.37942500  1
  Ni  Ni5  1  0.00000000  0.12057500  0.62057500  1
  Ni  Ni6  1  0.00000000  0.37942500  0.12057500  1
  Ni  Ni7  1  0.00000000  0.62057500  0.87942500  1
  Zr  Zr8  1  0.00000000  0.50000000  0.50000000  1
  Zr  Zr9  1  0.00000000  0.00000000  0.00000000  1
