# generated using pymatgen
data_LaGd(Cr3S4)2
_symmetry_space_group_name_H-M   'P 1'
_cell_length_a   6.76878119
_cell_length_b   6.76878119
_cell_length_c   6.76878119
_cell_angle_alpha   90.00000000
_cell_angle_beta   90.00000000
_cell_angle_gamma   90.00000000
_symmetry_Int_Tables_number   1
_chemical_formula_structural   LaGd(Cr3S4)2
_chemical_formula_sum   'La1 Gd1 Cr6 S8'
_cell_volume   310.12117771
_cell_formula_units_Z   1
loop_
 _symmetry_equiv_pos_site_id
 _symmetry_equiv_pos_as_xyz
  1  'x, y, z'
loop_
 _atom_site_type_symbol
 _atom_site_label
 _atom_site_symmetry_multiplicity
 _atom_site_fract_x
 _atom_site_fract_y
 _atom_site_fract_z
 _atom_site_occupancy
  La  La0  1  0.49999999  0.49999999  0.49999999  1
  Gd  Gd1  1  0.00000000  0.00000000  0.00000000  1
  Cr  Cr2  1  0.74999998  0.00000000  0.49999999  1
  Cr  Cr3  1  0.49999999  0.74999998  -0.00000000  1
  Cr  Cr4  1  0.00000000  0.49999999  0.74999998  1
  Cr  Cr5  1  0.00000000  0.49999999  0.24999999  1
  Cr  Cr6  1  0.24999999  0.00000000  0.49999999  1
  Cr  Cr7  1  0.49999999  0.24999999  -0.00000000  1
  S  S8  1  0.74999998  0.24999999  0.24999999  1
  S  S9  1  0.24999999  0.24999999  0.74999998  1
  S  S10  1  0.24999999  0.74999998  0.24999999  1
  S  S11  1  0.74999998  0.74999998  0.74999998  1
  S  S12  1  0.24999999  0.74999998  0.74999998  1
  S  S13  1  0.74999998  0.74999998  0.24999999  1
  S  S14  1  0.24999999  0.24999999  0.24999999  1
  S  S15  1  0.74999998  0.24999999  0.74999998  1
