# generated using pymatgen
data_Li5Mn(CuO4)2
_symmetry_space_group_name_H-M   'P 1'
_cell_length_a   5.14642906
_cell_length_b   5.65907097
_cell_length_c   6.54996490
_cell_angle_alpha   90.00000000
_cell_angle_beta   90.00000000
_cell_angle_gamma   90.00000000
_symmetry_Int_Tables_number   1
_chemical_formula_structural   Li5Mn(CuO4)2
_chemical_formula_sum   'Li5 Mn1 Cu2 O8'
_cell_volume   190.76122568
_cell_formula_units_Z   1
loop_
 _symmetry_equiv_pos_site_id
 _symmetry_equiv_pos_as_xyz
  1  'x, y, z'
loop_
 _atom_site_type_symbol
 _atom_site_label
 _atom_site_symmetry_multiplicity
 _atom_site_fract_x
 _atom_site_fract_y
 _atom_site_fract_z
 _atom_site_occupancy
  Li  Li0  1  0.99559999  0.59219400  0.87853601  1
  Li  Li1  1  0.49559999  0.40780600  0.12146400  1
  Li  Li2  1  0.49559999  0.90780601  0.37853601  1
  Li  Li3  1  0.99559999  0.09219400  0.62146401  1
  Li  Li4  1  0.00338000  0.57429500  0.37187301  1
  Mn  Mn5  1  0.50337999  0.42570500  0.62812701  1
  Cu  Cu6  1  0.50337999  0.92570501  0.87187301  1
  Cu  Cu7  1  0.00338000  0.07429500  0.12812700  1
  O  O8  1  0.36242400  0.55974500  0.39454101  1
  O  O9  1  0.86242399  0.44025500  0.60545901  1
  O  O10  1  0.86242399  0.94025501  0.89454101  1
  O  O11  1  0.36242400  0.05974500  0.10545900  1
  O  O12  1  0.40859500  0.60580300  0.85587501  1
  O  O13  1  0.90859499  0.39419700  0.14412500  1
  O  O14  1  0.90859499  0.89419700  0.35587501  1
  O  O15  1  0.40859500  0.10580300  0.64412501  1
