# generated using pymatgen
data_LiMn2O4
_symmetry_space_group_name_H-M   'P 1'
_cell_length_a   5.80716610
_cell_length_b   5.80716562
_cell_length_c   5.89887953
_cell_angle_alpha   60.51299286
_cell_angle_beta   60.51299667
_cell_angle_gamma   59.99999237
_symmetry_Int_Tables_number   1
_chemical_formula_structural   LiMn2O4
_chemical_formula_sum   'Li2 Mn4 O8'
_cell_volume   141.74484795
_cell_formula_units_Z   2
loop_
 _symmetry_equiv_pos_site_id
 _symmetry_equiv_pos_as_xyz
  1  'x, y, z'
loop_
 _atom_site_type_symbol
 _atom_site_label
 _atom_site_symmetry_multiplicity
 _atom_site_fract_x
 _atom_site_fract_y
 _atom_site_fract_z
 _atom_site_occupancy
  Li  Li0  1  0.00398200  0.00398200  0.98805404  1
  Mn  Mn1  1  0.24601800  0.24601801  0.26194599  1
  Li  Li2  1  0.62499999  0.62500003  0.12499996  1
  Mn  Mn3  1  0.62500000  0.12500001  0.62500000  1
  Mn  Mn4  1  0.12499999  0.62500003  0.62500000  1
  Mn  Mn5  1  0.62499999  0.62500003  0.62499998  1
  O  O6  1  0.38690400  0.38690402  0.83928801  1
  O  O7  1  0.37568800  0.37568802  0.41448599  1
  O  O8  1  0.83413800  0.37568802  0.41448598  1
  O  O9  1  0.37568799  0.83413804  0.41448598  1
  O  O10  1  0.87431200  0.41586202  0.83551399  1
  O  O11  1  0.87431199  0.87431204  0.83551398  1
  O  O12  1  0.41586199  0.87431204  0.83551399  1
  O  O13  1  0.86309599  0.86309604  0.41071196  1
