# generated using pymatgen
data_Hf2CO
_symmetry_space_group_name_H-M   'P 1'
_cell_length_a   3.55976200
_cell_length_b   3.56753707
_cell_length_c   6.48421955
_cell_angle_alpha   101.86420441
_cell_angle_beta   90.00000000
_cell_angle_gamma   119.92793274
_symmetry_Int_Tables_number   1
_chemical_formula_structural   Hf2CO
_chemical_formula_sum   'Hf2 C1 O1'
_cell_volume   69.32903889
_cell_formula_units_Z   1
loop_
 _symmetry_equiv_pos_site_id
 _symmetry_equiv_pos_as_xyz
  1  'x, y, z'
loop_
 _atom_site_type_symbol
 _atom_site_label
 _atom_site_symmetry_multiplicity
 _atom_site_fract_x
 _atom_site_fract_y
 _atom_site_fract_z
 _atom_site_occupancy
  C  C0  1  0.00000000  0.00000000  0.00000000  1
  O  O1  1  0.50000000  0.00000000  0.50000000  1
  Hf  Hf2  1  0.62129400  0.24258800  0.81761399  1
  Hf  Hf3  1  0.37870601  0.75741201  0.18238599  1
