# generated using pymatgen
data_CeMg7Sb4
_symmetry_space_group_name_H-M   'P 1'
_cell_length_a   4.43808222
_cell_length_b   7.55458593
_cell_length_c   8.83313179
_cell_angle_alpha   90.00000000
_cell_angle_beta   90.00000000
_cell_angle_gamma   90.00000000
_symmetry_Int_Tables_number   1
_chemical_formula_structural   CeMg7Sb4
_chemical_formula_sum   'Ce1 Mg7 Sb4'
_cell_volume   296.15612525
_cell_formula_units_Z   1
loop_
 _symmetry_equiv_pos_site_id
 _symmetry_equiv_pos_as_xyz
  1  'x, y, z'
loop_
 _atom_site_type_symbol
 _atom_site_label
 _atom_site_symmetry_multiplicity
 _atom_site_fract_x
 _atom_site_fract_y
 _atom_site_fract_z
 _atom_site_occupancy
  Ce  Ce0  1  0.24999999  0.53398400  0.17614100  1
  Mg  Mg1  1  0.74999996  0.46601600  0.82385902  1
  Mg  Mg2  1  0.74999996  0.96601601  0.67614102  1
  Mg  Mg3  1  0.24999999  0.03398400  0.32385901  1
  Mg  Mg4  1  0.24999999  0.63844901  0.56026901  1
  Mg  Mg5  1  0.74999996  0.36155100  0.43973101  1
  Mg  Mg6  1  0.74999996  0.86155101  0.06026900  1
  Mg  Mg7  1  0.24999999  0.13844900  0.93973102  1
  Sb  Sb8  1  0.24999999  0.76477701  0.87104802  1
  Sb  Sb9  1  0.74999996  0.23522300  0.12895200  1
  Sb  Sb10  1  0.74999996  0.73522301  0.37104801  1
  Sb  Sb11  1  0.24999999  0.26477700  0.62895201  1
