# generated using pymatgen
data_LuNi4B
_symmetry_space_group_name_H-M   'P 1'
_cell_length_a   5.00552797
_cell_length_b   5.00552845
_cell_length_c   6.96987915
_cell_angle_alpha   90.00000000
_cell_angle_beta   90.00000000
_cell_angle_gamma   120.00000000
_symmetry_Int_Tables_number   1
_chemical_formula_structural   LuNi4B
_chemical_formula_sum   'Lu2 Ni8 B2'
_cell_volume   151.23618257
_cell_formula_units_Z   2
loop_
 _symmetry_equiv_pos_site_id
 _symmetry_equiv_pos_as_xyz
  1  'x, y, z'
loop_
 _atom_site_type_symbol
 _atom_site_label
 _atom_site_symmetry_multiplicity
 _atom_site_fract_x
 _atom_site_fract_y
 _atom_site_fract_z
 _atom_site_occupancy
  Lu  Lu0  1  0.00000000  0.00000000  0.00000000  1
  Lu  Lu1  1  0.00000000  0.00000000  0.49999999  1
  Ni  Ni2  1  0.33333338  0.66666670  0.99999998  1
  Ni  Ni3  1  0.66666669  0.33333335  -0.00000000  1
  Ni  Ni4  1  0.50000000  0.00000000  0.29267299  1
  Ni  Ni5  1  0.50000004  0.50000002  0.29267299  1
  Ni  Ni6  1  0.00000003  0.50000002  0.29267299  1
  Ni  Ni7  1  0.50000000  0.00000000  0.70732698  1
  Ni  Ni8  1  0.50000004  0.50000002  0.70732698  1
  Ni  Ni9  1  0.00000003  0.50000002  0.70732698  1
  B  B10  1  0.33333338  0.66666670  0.49999999  1
  B  B11  1  0.66666669  0.33333335  0.49999999  1
