# generated using pymatgen
data_Al3Tc
_symmetry_space_group_name_H-M   'P 1'
_cell_length_a   4.35894489
_cell_length_b   5.42372608
_cell_length_c   5.42372656
_cell_angle_alpha   60.00000381
_cell_angle_beta   90.00000000
_cell_angle_gamma   90.00000000
_symmetry_Int_Tables_number   1
_chemical_formula_structural   Al3Tc
_chemical_formula_sum   'Al6 Tc2'
_cell_volume   111.04718684
_cell_formula_units_Z   2
loop_
 _symmetry_equiv_pos_site_id
 _symmetry_equiv_pos_as_xyz
  1  'x, y, z'
loop_
 _atom_site_type_symbol
 _atom_site_label
 _atom_site_symmetry_multiplicity
 _atom_site_fract_x
 _atom_site_fract_y
 _atom_site_fract_z
 _atom_site_occupancy
  Al  Al0  1  0.25000001  0.33333332  0.33333333  1
  Al  Al1  1  0.75000002  0.66666665  0.66666667  1
  Al  Al2  1  0.75000002  0.66728498  0.16635801  1
  Al  Al3  1  0.75000002  0.16635700  0.16635800  1
  Al  Al4  1  0.75000002  0.16635700  0.66728599  1
  Tc  Tc5  1  0.25000001  0.33271499  0.83364199  1
  Al  Al6  1  0.25000001  0.83364298  0.83364200  1
  Tc  Tc7  1  0.25000001  0.83364298  0.33271401  1
