# generated using pymatgen
data_In5GaPtBr7
_symmetry_space_group_name_H-M   'P 1'
_cell_length_a   8.18582630
_cell_length_b   8.18582630
_cell_length_c   8.18582630
_cell_angle_alpha   60.00000000
_cell_angle_beta   60.00000000
_cell_angle_gamma   60.00000000
_symmetry_Int_Tables_number   1
_chemical_formula_structural   In5GaPtBr7
_chemical_formula_sum   'In5 Ga1 Pt1 Br7'
_cell_volume   387.85784219
_cell_formula_units_Z   1
loop_
 _symmetry_equiv_pos_site_id
 _symmetry_equiv_pos_as_xyz
  1  'x, y, z'
loop_
 _atom_site_type_symbol
 _atom_site_label
 _atom_site_symmetry_multiplicity
 _atom_site_fract_x
 _atom_site_fract_y
 _atom_site_fract_z
 _atom_site_occupancy
  In  In0  1  0.49999998  0.49999998  0.49999998  1
  Ga  Ga1  1  0.24999999  0.24999999  0.24999999  1
  In  In2  1  0.87499996  0.87499996  0.37499998  1
  In  In3  1  0.37499998  0.87499996  0.87499996  1
  In  In4  1  0.87499996  0.87499996  0.87499996  1
  In  In5  1  0.87499996  0.37499998  0.87499996  1
  Br  Br6  1  0.09644000  0.63451997  0.63451997  1
  Br  Br7  1  0.11548099  0.11547999  0.65355897  1
  Br  Br8  1  0.11548099  0.65355897  0.11547999  1
  Br  Br9  1  0.11548099  0.11547999  0.11547999  1
  Br  Br10  1  0.63451897  0.09644100  0.63451997  1
  Pt  Pt11  1  0.63451897  0.63451997  0.63451997  1
  Br  Br12  1  0.65355997  0.11547999  0.11547999  1
  Br  Br13  1  0.63451897  0.63451997  0.09644100  1
