# generated using pymatgen
data_Mg5Cd
_symmetry_space_group_name_H-M   'P 1'
_cell_length_a   3.18529201
_cell_length_b   6.19112635
_cell_length_c   7.30349350
_cell_angle_alpha   105.87754059
_cell_angle_beta   90.00000000
_cell_angle_gamma   104.90674591
_symmetry_Int_Tables_number   1
_chemical_formula_structural   Mg5Cd
_chemical_formula_sum   'Mg5 Cd1'
_cell_volume   133.48741660
_cell_formula_units_Z   1
loop_
 _symmetry_equiv_pos_site_id
 _symmetry_equiv_pos_as_xyz
  1  'x, y, z'
loop_
 _atom_site_type_symbol
 _atom_site_label
 _atom_site_symmetry_multiplicity
 _atom_site_fract_x
 _atom_site_fract_y
 _atom_site_fract_z
 _atom_site_occupancy
  Mg  Mg0  1  0.36151301  0.72302602  0.46982504  1
  Cd  Cd1  1  0.63848701  0.27697401  0.53017502  1
  Mg  Mg2  1  0.69616001  0.39232001  0.14597502  1
  Mg  Mg3  1  0.97250302  0.94500603  0.19876705  1
  Mg  Mg4  1  0.02749700  0.05499400  0.80123301  1
  Mg  Mg5  1  0.30384001  0.60768002  0.85402504  1
