# generated using pymatgen
data_Zr2Si
_symmetry_space_group_name_H-M   'P 1'
_cell_length_a   4.38377619
_cell_length_b   7.00020313
_cell_length_c   9.73039341
_cell_angle_alpha   110.33827209
_cell_angle_beta   90.00000000
_cell_angle_gamma   108.24722290
_symmetry_Int_Tables_number   1
_chemical_formula_structural   Zr2Si
_chemical_formula_sum   'Zr8 Si4'
_cell_volume   263.91180855
_cell_formula_units_Z   4
loop_
 _symmetry_equiv_pos_site_id
 _symmetry_equiv_pos_as_xyz
  1  'x, y, z'
loop_
 _atom_site_type_symbol
 _atom_site_label
 _atom_site_symmetry_multiplicity
 _atom_site_fract_x
 _atom_site_fract_y
 _atom_site_fract_z
 _atom_site_occupancy
  Zr  Zr0  1  0.74700997  0.50667000  0.38060500  1
  Zr  Zr1  1  0.24033999  0.49333000  0.61939499  1
  Zr  Zr2  1  0.77349197  0.54483600  0.88327699  1
  Zr  Zr3  1  0.22865599  0.45516400  0.11672300  1
  Zr  Zr4  1  0.51220698  0.01485500  0.82542099  1
  Zr  Zr5  1  0.49735198  0.98514499  0.17457900  1
  Zr  Zr6  1  0.17548299  0.00000000  0.50000000  1
  Si  Si7  1  0.87255496  0.74071499  0.19698700  1
  Si  Si8  1  0.13184000  0.25928500  0.80301299  1
  Si  Si9  1  0.87977896  0.76779499  0.68015599  1
  Si  Si10  1  0.11198400  0.23220500  0.31984400  1
  Zr  Zr11  1  0.00910200  0.00000000  0.99999999  1
