# generated using pymatgen
data_KCr2F6
_symmetry_space_group_name_H-M   'P 1'
_cell_length_a   5.10784817
_cell_length_b   5.10784864
_cell_length_c   6.19551182
_cell_angle_alpha   90.00000000
_cell_angle_beta   90.00000000
_cell_angle_gamma   119.99999237
_symmetry_Int_Tables_number   1
_chemical_formula_structural   KCr2F6
_chemical_formula_sum   'K1 Cr2 F6'
_cell_volume   139.98575817
_cell_formula_units_Z   1
loop_
 _symmetry_equiv_pos_site_id
 _symmetry_equiv_pos_as_xyz
  1  'x, y, z'
loop_
 _atom_site_type_symbol
 _atom_site_label
 _atom_site_symmetry_multiplicity
 _atom_site_fract_x
 _atom_site_fract_y
 _atom_site_fract_z
 _atom_site_occupancy
  K  K0  1  0.00000000  0.00000000  0.00000000  1
  Cr  Cr1  1  0.66666663  0.33333333  0.50000001  1
  Cr  Cr2  1  0.33333329  0.66666666  0.50000001  1
  F  F3  1  0.62438895  0.62032500  0.32378501  1
  F  F4  1  0.99593595  0.37561100  0.32378501  1
  F  F5  1  0.37967499  0.00406400  0.32378501  1
  F  F6  1  0.99593593  0.62032500  0.67621502  1
  F  F7  1  0.37967497  0.37561100  0.67621502  1
  F  F8  1  0.62438898  0.00406400  0.67621502  1
