# generated using pymatgen
data_LuNbC3
_symmetry_space_group_name_H-M   'P 1'
_cell_length_a   3.35728598
_cell_length_b   3.35728598
_cell_length_c   8.88551998
_cell_angle_alpha   90.00000000
_cell_angle_beta   90.00000000
_cell_angle_gamma   120.00000000
_symmetry_Int_Tables_number   1
_chemical_formula_structural   LuNbC3
_chemical_formula_sum   'Lu1 Nb1 C3'
_cell_volume   86.73415511
_cell_formula_units_Z   1
loop_
 _symmetry_equiv_pos_site_id
 _symmetry_equiv_pos_as_xyz
  1  'x, y, z'
loop_
 _atom_site_type_symbol
 _atom_site_label
 _atom_site_symmetry_multiplicity
 _atom_site_fract_x
 _atom_site_fract_y
 _atom_site_fract_z
 _atom_site_occupancy
  C  C0  1  0.33333334  0.66666668  0.70673200  1
  C  C1  1  0.66666667  0.33333334  0.29326800  1
  C  C2  1  0.00000000  0.00000000  0.00000000  1
  Nb  Nb3  1  0.33333334  0.66666668  0.13137400  1
  Lu  Lu4  1  0.66666667  0.33333334  0.86862600  1
