# generated using pymatgen
data_Ce5Mg3ZnFe
_symmetry_space_group_name_H-M   'P 1'
_cell_length_a   5.97083187
_cell_length_b   5.97083187
_cell_length_c   6.52618980
_cell_angle_alpha   90.00000000
_cell_angle_beta   90.00000000
_cell_angle_gamma   90.00000000
_symmetry_Int_Tables_number   1
_chemical_formula_structural   Ce5Mg3ZnFe
_chemical_formula_sum   'Ce5 Mg3 Zn1 Fe1'
_cell_volume   232.66410435
_cell_formula_units_Z   1
loop_
 _symmetry_equiv_pos_site_id
 _symmetry_equiv_pos_as_xyz
  1  'x, y, z'
loop_
 _atom_site_type_symbol
 _atom_site_label
 _atom_site_symmetry_multiplicity
 _atom_site_fract_x
 _atom_site_fract_y
 _atom_site_fract_z
 _atom_site_occupancy
  Fe  Fe0  1  0.00000000  0.00000000  0.75000002  1
  Zn  Zn1  1  0.00000000  0.00000000  0.25000001  1
  Mg  Mg2  1  0.33402401  0.13625100  0.50000002  1
  Ce  Ce3  1  0.66597601  0.86374902  0.50000002  1
  Ce  Ce4  1  0.33402401  0.86374902  -0.00000000  1
  Ce  Ce5  1  0.66597601  0.13625100  -0.00000000  1
  Ce  Ce6  1  0.13625100  0.66597601  0.50000002  1
  Ce  Ce7  1  0.86374902  0.33402401  0.50000002  1
  Mg  Mg8  1  0.86374902  0.66597601  -0.00000000  1
  Mg  Mg9  1  0.13625100  0.33402401  -0.00000000  1
