# generated using pymatgen
data_LiTi3Te4
_symmetry_space_group_name_H-M   'P 1'
_cell_length_a   3.80333090
_cell_length_b   5.32811785
_cell_length_c   7.03014612
_cell_angle_alpha   90.00000000
_cell_angle_beta   90.00000000
_cell_angle_gamma   90.00000000
_symmetry_Int_Tables_number   1
_chemical_formula_structural   LiTi3Te4
_chemical_formula_sum   'Li1 Ti3 Te4'
_cell_volume   142.46306563
_cell_formula_units_Z   1
loop_
 _symmetry_equiv_pos_site_id
 _symmetry_equiv_pos_as_xyz
  1  'x, y, z'
loop_
 _atom_site_type_symbol
 _atom_site_label
 _atom_site_symmetry_multiplicity
 _atom_site_fract_x
 _atom_site_fract_y
 _atom_site_fract_z
 _atom_site_occupancy
  Li  Li0  1  0.25000001  0.12469500  0.17558300  1
  Ti  Ti1  1  0.75000002  0.87530503  0.82441699  1
  Ti  Ti2  1  0.75000002  0.62469502  0.32441699  1
  Ti  Ti3  1  0.25000001  0.37530501  0.67558299  1
  Te  Te4  1  0.25000001  0.63821402  0.04334900  1
  Te  Te5  1  0.75000002  0.36178601  0.95665098  1
  Te  Te6  1  0.75000002  0.13821400  0.45665099  1
  Te  Te7  1  0.25000001  0.86178602  0.54334899  1
