# generated using pymatgen
data_KMnCl3
_symmetry_space_group_name_H-M   'P 1'
_cell_length_a   5.32192993
_cell_length_b   5.32810354
_cell_length_c   5.32810354
_cell_angle_alpha   89.16191101
_cell_angle_beta   89.22621155
_cell_angle_gamma   89.22621155
_symmetry_Int_Tables_number   1
_chemical_formula_structural   KMnCl3
_chemical_formula_sum   'K1 Mn1 Cl3'
_cell_volume   151.03928587
_cell_formula_units_Z   1
loop_
 _symmetry_equiv_pos_site_id
 _symmetry_equiv_pos_as_xyz
  1  'x, y, z'
loop_
 _atom_site_type_symbol
 _atom_site_label
 _atom_site_symmetry_multiplicity
 _atom_site_fract_x
 _atom_site_fract_y
 _atom_site_fract_z
 _atom_site_occupancy
  K  K0  1  0.99098296  0.01091100  0.01091099  1
  Mn  Mn1  1  0.53254097  0.51949902  0.51949903  1
  Cl  Cl2  1  0.52310997  0.97998103  0.50304805  1
  Cl  Cl3  1  0.99438695  0.49686602  0.49686603  1
  Cl  Cl4  1  0.52310997  0.50304802  0.97998105  1
