# generated using pymatgen
data_K2ZrF6
_symmetry_space_group_name_H-M   'P 1'
_cell_length_a   6.64694214
_cell_length_b   6.71594524
_cell_length_c   6.96574211
_cell_angle_alpha   89.94474030
_cell_angle_beta   89.88834381
_cell_angle_gamma   60.33930206
_symmetry_Int_Tables_number   1
_chemical_formula_structural   K2ZrF6
_chemical_formula_sum   'K4 Zr2 F12'
_cell_volume   270.20972788
_cell_formula_units_Z   2
loop_
 _symmetry_equiv_pos_site_id
 _symmetry_equiv_pos_as_xyz
  1  'x, y, z'
loop_
 _atom_site_type_symbol
 _atom_site_label
 _atom_site_symmetry_multiplicity
 _atom_site_fract_x
 _atom_site_fract_y
 _atom_site_fract_z
 _atom_site_occupancy
  K  K0  1  0.64124099  0.68503102  0.00254599  1
  K  K1  1  0.67372799  0.68503102  0.49745400  1
  K  K2  1  0.32627199  0.31496901  0.50254601  1
  K  K3  1  0.35875899  0.31496901  0.99745402  1
  Zr  Zr4  1  0.95199698  0.09600600  0.25000005  1
  Zr  Zr5  1  0.04800300  0.90399403  0.74999996  1
  F  F6  1  0.12621300  0.80554503  0.04439796  1
  F  F7  1  0.06824200  0.80554503  0.45560196  1
  F  F8  1  0.87378698  0.19445501  0.95560205  1
  F  F9  1  0.93175798  0.19445501  0.54439805  1
  F  F10  1  0.00268900  0.61748502  0.77181498  1
  F  F11  1  0.37982599  0.61748502  0.72818499  1
  F  F12  1  0.72564198  0.97412803  0.22172798  1
  F  F13  1  0.30022999  0.97412803  0.27827196  1
  F  F14  1  0.27435799  0.02587200  0.77827203  1
  F  F15  1  0.69976999  0.02587200  0.72172805  1
  F  F16  1  0.62017399  0.38251501  0.27181501  1
  F  F17  1  0.99731098  0.38251501  0.22818503  1
