# generated using pymatgen
data_Zr2Fe5Sn6
_symmetry_space_group_name_H-M   'P 1'
_cell_length_a   5.41199589
_cell_length_b   5.41199589
_cell_length_c   8.91623592
_cell_angle_alpha   90.00000000
_cell_angle_beta   90.00000000
_cell_angle_gamma   120.00000000
_symmetry_Int_Tables_number   1
_chemical_formula_structural   Zr2Fe5Sn6
_chemical_formula_sum   'Zr2 Fe5 Sn6'
_cell_volume   226.16588639
_cell_formula_units_Z   1
loop_
 _symmetry_equiv_pos_site_id
 _symmetry_equiv_pos_as_xyz
  1  'x, y, z'
loop_
 _atom_site_type_symbol
 _atom_site_label
 _atom_site_symmetry_multiplicity
 _atom_site_fract_x
 _atom_site_fract_y
 _atom_site_fract_z
 _atom_site_occupancy
  Zr  Zr0  1  0.00000000  0.00000000  0.00000000  1
  Fe  Fe1  1  0.50000001  0.00000000  0.24562100  1
  Fe  Fe2  1  0.50000001  0.50000001  0.24562100  1
  Fe  Fe3  1  1.00000002  0.50000001  0.24562100  1
  Fe  Fe4  1  0.50000001  0.00000000  0.75437901  1
  Fe  Fe5  1  0.50000001  0.50000001  0.75437901  1
  Sn  Sn6  1  1.00000002  0.50000001  0.75437901  1
  Sn  Sn7  1  0.33333334  0.66666668  -0.00000000  1
  Sn  Sn8  1  0.66666668  0.33333334  -0.00000000  1
  Sn  Sn9  1  0.33333334  0.66666668  0.50000000  1
  Sn  Sn10  1  0.66666668  0.33333334  0.50000000  1
  Sn  Sn11  1  0.00000000  0.00000000  0.33655900  1
  Zr  Zr12  1  0.00000000  0.00000000  0.66344101  1
