# generated using pymatgen
data_CuSe
_symmetry_space_group_name_H-M   'P 1'
_cell_length_a   3.13691998
_cell_length_b   3.24488997
_cell_length_c   4.62751055
_cell_angle_alpha   110.52454376
_cell_angle_beta   90.00000000
_cell_angle_gamma   90.00000000
_symmetry_Int_Tables_number   1
_chemical_formula_structural   CuSe
_chemical_formula_sum   'Cu2 Se2'
_cell_volume   44.11322978
_cell_formula_units_Z   2
loop_
 _symmetry_equiv_pos_site_id
 _symmetry_equiv_pos_as_xyz
  1  'x, y, z'
loop_
 _atom_site_type_symbol
 _atom_site_label
 _atom_site_symmetry_multiplicity
 _atom_site_fract_x
 _atom_site_fract_y
 _atom_site_fract_z
 _atom_site_occupancy
  Cu  Cu0  1  0.50000000  0.85321701  0.70643403  1
  Se  Se1  1  0.50000000  0.56004901  0.12009801  1
  Se  Se2  1  0.00000000  0.44357800  0.88715604  1
  Cu  Cu3  1  0.00000000  0.14315600  0.28631201  1
