# generated using pymatgen
data_Ba2CaTl11Ag5
_symmetry_space_group_name_H-M   'P 1'
_cell_length_a   8.04690838
_cell_length_b   8.04690838
_cell_length_c   8.04690933
_cell_angle_alpha   83.01232910
_cell_angle_beta   83.01232910
_cell_angle_gamma   83.01232147
_symmetry_Int_Tables_number   1
_chemical_formula_structural   Ba2CaTl11Ag5
_chemical_formula_sum   'Ba2 Ca1 Tl11 Ag5'
_cell_volume   510.31925005
_cell_formula_units_Z   1
loop_
 _symmetry_equiv_pos_site_id
 _symmetry_equiv_pos_as_xyz
  1  'x, y, z'
loop_
 _atom_site_type_symbol
 _atom_site_label
 _atom_site_symmetry_multiplicity
 _atom_site_fract_x
 _atom_site_fract_y
 _atom_site_fract_z
 _atom_site_occupancy
  Ba  Ba0  1  0.66212003  0.66212003  0.66212000  1
  Ba  Ba1  1  0.33788002  0.33788001  0.33788000  1
  Tl  Tl2  1  0.29766202  0.70233803  0.00000002  1
  Tl  Tl3  1  0.65896703  0.15996401  0.65896699  1
  Tl  Tl4  1  0.84003604  0.34103301  0.34103301  1
  Tl  Tl5  1  0.89938005  0.89938003  0.89938000  1
  Tl  Tl6  1  0.00000001  0.70233803  0.29766200  1
  Tl  Tl7  1  0.70233803  0.29766201  0.00000002  1
  Ag  Ag8  1  0.65896703  0.65896703  0.15996402  1
  Ca  Ca9  1  0.10062001  0.10062000  0.10062000  1
  Tl  Tl10  1  0.29766201  0.00000000  0.70233798  1
  Ag  Ag11  1  0.00000000  0.00000000  0.49999998  1
  Ag  Ag12  1  0.00000000  0.29766201  0.70233798  1
  Tl  Tl13  1  0.15996401  0.65896703  0.65896699  1
  Tl  Tl14  1  0.34103302  0.84003603  0.34103301  1
  Tl  Tl15  1  0.34103302  0.34103301  0.84003598  1
  Ag  Ag16  1  0.00000001  0.50000002  0.00000001  1
  Tl  Tl17  1  0.70233804  1.00000004  0.29766202  1
  Ag  Ag18  1  0.50000002  0.00000000  0.00000001  1
