# generated using pymatgen
data_Rb3MgNb2O6
_symmetry_space_group_name_H-M   'P 1'
_cell_length_a   5.91432190
_cell_length_b   5.91432190
_cell_length_c   6.89389181
_cell_angle_alpha   90.00000000
_cell_angle_beta   90.00000000
_cell_angle_gamma   120.00000000
_symmetry_Int_Tables_number   1
_chemical_formula_structural   Rb3MgNb2O6
_chemical_formula_sum   'Rb3 Mg1 Nb2 O6'
_cell_volume   208.83582952
_cell_formula_units_Z   1
loop_
 _symmetry_equiv_pos_site_id
 _symmetry_equiv_pos_as_xyz
  1  'x, y, z'
loop_
 _atom_site_type_symbol
 _atom_site_label
 _atom_site_symmetry_multiplicity
 _atom_site_fract_x
 _atom_site_fract_y
 _atom_site_fract_z
 _atom_site_occupancy
  Rb  Rb0  1  0.34670700  0.34670700  0.16666700  1
  Rb  Rb1  1  -0.00000001  0.65329300  0.83333302  1
  Rb  Rb2  1  0.65329301  0.00000000  0.50000001  1
  Nb  Nb3  1  0.59875501  0.00000000  -0.00000000  1
  Mg  Mg4  1  -0.00000001  0.59875500  0.33333334  1
  Nb  Nb5  1  0.40124500  0.40124500  0.66666668  1
  O  O6  1  0.87195301  0.30273300  0.12911800  1
  O  O7  1  0.43078001  0.12804800  0.79578502  1
  O  O8  1  0.69726801  0.56922100  0.46245201  1
  O  O9  1  0.30273200  0.87195200  0.20421501  1
  O  O10  1  0.56922000  0.69726700  0.87088202  1
  O  O11  1  0.12804700  0.43077900  0.53754801  1
