# generated using pymatgen
data_InS
_symmetry_space_group_name_H-M   'P 1'
_cell_length_a   3.82943797
_cell_length_b   6.62177515
_cell_length_c   14.32374573
_cell_angle_alpha   87.37705231
_cell_angle_beta   82.31802368
_cell_angle_gamma   73.19262695
_symmetry_Int_Tables_number   1
_chemical_formula_structural   InS
_chemical_formula_sum   'In7 S7'
_cell_volume   344.57093524
_cell_formula_units_Z   7
loop_
 _symmetry_equiv_pos_site_id
 _symmetry_equiv_pos_as_xyz
  1  'x, y, z'
loop_
 _atom_site_type_symbol
 _atom_site_label
 _atom_site_symmetry_multiplicity
 _atom_site_fract_x
 _atom_site_fract_y
 _atom_site_fract_z
 _atom_site_occupancy
  In  In0  1  -0.00000004  0.49999999  0.50000003  1
  S  S1  1  0.00000000  0.00000000  0.00000000  1
  S  S2  1  0.35402997  0.41857499  0.87336504  1
  S  S3  1  0.64596996  0.58142499  0.12663502  1
  In  In4  1  0.23155793  0.91269398  0.62419004  1
  In  In5  1  0.76844200  0.08730600  0.37581002  1
  S  S6  1  0.38654694  0.76635699  0.46054903  1
  S  S7  1  0.61345298  0.23364300  0.53945102  1
  In  In8  1  0.00580799  0.15167700  0.83670703  1
  In  In9  1  0.99419193  0.84832298  0.16329303  1
  In  In10  1  0.34526598  0.27212399  0.03734401  1
  In  In11  1  0.65473394  0.72787599  0.96265605  1
  S  S12  1  0.15819697  0.35027266  0.33333335  1
  S  S13  1  0.84180295  0.64972732  0.66666670  1
