# generated using pymatgen
data_Li3Mn3O8
_symmetry_space_group_name_H-M   'P 1'
_cell_length_a   5.97351170
_cell_length_b   5.97351170
_cell_length_c   5.97351170
_cell_angle_alpha   60.07297134
_cell_angle_beta   60.07297134
_cell_angle_gamma   60.07295990
_symmetry_Int_Tables_number   1
_chemical_formula_structural   Li3Mn3O8
_chemical_formula_sum   'Li3 Mn3 O8'
_cell_volume   150.97036697
_cell_formula_units_Z   1
loop_
 _symmetry_equiv_pos_site_id
 _symmetry_equiv_pos_as_xyz
  1  'x, y, z'
loop_
 _atom_site_type_symbol
 _atom_site_label
 _atom_site_symmetry_multiplicity
 _atom_site_fract_x
 _atom_site_fract_y
 _atom_site_fract_z
 _atom_site_occupancy
  Li  Li0  1  0.37406899  0.37406900  0.37406898  1
  Li  Li1  1  0.75454998  0.75455000  0.75454996  1
  Li  Li2  1  0.99342097  0.99342099  0.99342095  1
  Mn  Mn3  1  0.86948198  0.37641900  0.37641897  1
  Mn  Mn4  1  0.37641898  0.86948199  0.37641897  1
  Mn  Mn5  1  0.37641899  0.37641900  0.86948198  1
  O  O6  1  0.13265000  0.13265000  0.13264999  1
  O  O7  1  0.58700799  0.12755200  0.12755198  1
  O  O8  1  0.12755199  0.58700800  0.12755198  1
  O  O9  1  0.12755200  0.12755200  0.58700799  1
  O  O10  1  0.61576498  0.61576500  0.61576497  1
  O  O11  1  0.16687299  0.62412000  0.62411998  1
  O  O12  1  0.62411999  0.16687300  0.62411998  1
  O  O13  1  0.62411998  0.62412000  0.16687297  1
