# generated using pymatgen
data_La4Ge8Ir
_symmetry_space_group_name_H-M   'P 1'
_cell_length_a   4.41005898
_cell_length_b   4.43114901
_cell_length_c   16.47685242
_cell_angle_alpha   90.00000000
_cell_angle_beta   90.00000000
_cell_angle_gamma   90.00000000
_symmetry_Int_Tables_number   1
_chemical_formula_structural   La4Ge8Ir
_chemical_formula_sum   'La4 Ge8 Ir1'
_cell_volume   321.98452786
_cell_formula_units_Z   1
loop_
 _symmetry_equiv_pos_site_id
 _symmetry_equiv_pos_as_xyz
  1  'x, y, z'
loop_
 _atom_site_type_symbol
 _atom_site_label
 _atom_site_symmetry_multiplicity
 _atom_site_fract_x
 _atom_site_fract_y
 _atom_site_fract_z
 _atom_site_occupancy
  La  La0  1  0.25000000  0.00000000  0.09517100  1
  Ge  Ge1  1  0.25000000  0.50000000  0.60151502  1
  La  La2  1  0.75000000  0.50000000  0.39561601  1
  Ge  Ge3  1  0.75000000  0.00000000  0.89901803  1
  Ir  Ir4  1  0.25000000  0.00000000  0.30399901  1
  Ge  Ge5  1  0.25000000  0.50000000  0.23490001  1
  Ge  Ge6  1  0.25000000  0.00000000  0.74797603  1
  Ge  Ge7  1  0.75000000  0.00000000  0.23525301  1
  La  La8  1  0.75000000  0.50000000  0.75218503  1
  Ge  Ge9  1  0.25000000  0.00000000  0.45193602  1
  Ge  Ge10  1  0.25000000  0.50000000  0.93415303  1
  Ge  Ge11  1  0.75000000  0.50000000  0.06250500  1
  La  La12  1  0.75000000  0.00000000  0.57177302  1
