# generated using pymatgen
data_CaWO3
_symmetry_space_group_name_H-M   'P 1'
_cell_length_a   5.48624611
_cell_length_b   5.71975708
_cell_length_c   7.80831480
_cell_angle_alpha   90.00000000
_cell_angle_beta   90.00000000
_cell_angle_gamma   90.00000000
_symmetry_Int_Tables_number   1
_chemical_formula_structural   CaWO3
_chemical_formula_sum   'Ca4 W4 O12'
_cell_volume   245.02487959
_cell_formula_units_Z   4
loop_
 _symmetry_equiv_pos_site_id
 _symmetry_equiv_pos_as_xyz
  1  'x, y, z'
loop_
 _atom_site_type_symbol
 _atom_site_label
 _atom_site_symmetry_multiplicity
 _atom_site_fract_x
 _atom_site_fract_y
 _atom_site_fract_z
 _atom_site_occupancy
  Ca  Ca0  1  0.48527199  0.05927400  0.25000001  1
  Ca  Ca1  1  0.98527198  0.44072599  0.75000002  1
  Ca  Ca2  1  0.01472800  0.55927399  0.25000001  1
  Ca  Ca3  1  0.51472799  0.94072599  0.75000002  1
  W  W4  1  0.00000000  0.00000000  0.00000000  1
  W  W5  1  0.00000000  0.00000000  0.50000001  1
  W  W6  1  0.49999999  0.49999999  -0.00000000  1
  W  W7  1  0.49999999  0.49999999  0.50000001  1
  O  O8  1  0.09788800  0.02907000  0.75000002  1
  O  O9  1  0.69887099  0.20087900  0.55077701  1
  O  O10  1  0.69887099  0.20087900  0.94922302  1
  O  O11  1  0.19887100  0.29912100  0.44922301  1
  O  O12  1  0.19887100  0.29912100  0.05077700  1
  O  O13  1  0.59788799  0.47092999  0.25000001  1
  O  O14  1  0.40211199  0.52906999  0.75000002  1
  O  O15  1  0.80112898  0.70087899  0.94922302  1
  O  O16  1  0.80112898  0.70087899  0.55077701  1
  O  O17  1  0.30112899  0.79912099  0.05077700  1
  O  O18  1  0.30112899  0.79912099  0.44922301  1
  O  O19  1  0.90211198  0.97092999  0.25000001  1
