# generated using pymatgen
data_Sm2ScFe16
_symmetry_space_group_name_H-M   'P 1'
_cell_length_a   6.38763714
_cell_length_b   6.38763666
_cell_length_c   6.38763666
_cell_angle_alpha   83.14701080
_cell_angle_beta   83.14700317
_cell_angle_gamma   83.14700317
_symmetry_Int_Tables_number   1
_chemical_formula_structural   Sm2ScFe16
_chemical_formula_sum   'Sm2 Sc1 Fe16'
_cell_volume   255.45299462
_cell_formula_units_Z   1
loop_
 _symmetry_equiv_pos_site_id
 _symmetry_equiv_pos_as_xyz
  1  'x, y, z'
loop_
 _atom_site_type_symbol
 _atom_site_label
 _atom_site_symmetry_multiplicity
 _atom_site_fract_x
 _atom_site_fract_y
 _atom_site_fract_z
 _atom_site_occupancy
  Sm  Sm0  1  0.34535899  0.34535900  0.34535902  1
  Sm  Sm1  1  0.64865298  0.64865300  0.64865303  1
  Sc  Sc2  1  0.90699497  0.90699499  0.90699505  1
  Fe  Fe3  1  0.00179700  0.28822100  0.71258602  1
  Fe  Fe4  1  0.71258599  0.00179700  0.28822099  1
  Fe  Fe5  1  0.28822098  0.71258599  0.00179704  1
  Fe  Fe6  1  0.28822099  0.00179700  0.71258600  1
  Fe  Fe7  1  0.71258598  0.28822100  0.00179701  1
  Fe  Fe8  1  0.00179699  0.71258599  0.28822104  1
  Fe  Fe9  1  0.49483599  0.00179100  0.00179100  1
  Fe  Fe10  1  0.00179099  0.49483600  0.00179103  1
  Fe  Fe11  1  0.00179100  0.00179100  0.49483600  1
  Fe  Fe12  1  0.65668498  0.65668500  0.14761103  1
  Fe  Fe13  1  0.14761099  0.65668500  0.65668504  1
  Fe  Fe14  1  0.65668499  0.14761100  0.65668500  1
  Fe  Fe15  1  0.34114799  0.34114800  0.85414902  1
  Fe  Fe16  1  0.85414898  0.34114800  0.34114801  1
  Fe  Fe17  1  0.34114798  0.85414899  0.34114805  1
  Fe  Fe18  1  0.09794100  0.09794100  0.09794100  1
