# generated using pymatgen
data_SrCa4Bi(SbO6)2
_symmetry_space_group_name_H-M   'P 1'
_cell_length_a   5.69356680
_cell_length_b   5.90127182
_cell_length_c   8.21716213
_cell_angle_alpha   90.00194550
_cell_angle_beta   89.23546600
_cell_angle_gamma   89.99764252
_symmetry_Int_Tables_number   1
_chemical_formula_structural   SrCa4Bi(SbO6)2
_chemical_formula_sum   'Sr1 Ca4 Bi1 Sb2 O12'
_cell_volume   276.06619553
_cell_formula_units_Z   1
loop_
 _symmetry_equiv_pos_site_id
 _symmetry_equiv_pos_as_xyz
  1  'x, y, z'
loop_
 _atom_site_type_symbol
 _atom_site_label
 _atom_site_symmetry_multiplicity
 _atom_site_fract_x
 _atom_site_fract_y
 _atom_site_fract_z
 _atom_site_occupancy
  Ca  Ca0  1  0.47989399  0.44436501  0.74880905  1
  Ca  Ca1  1  0.97988601  0.05563900  0.24881902  1
  Sr  Sr2  1  0.01692896  0.94570503  0.75107107  1
  Ca  Ca3  1  0.51692498  0.55429102  0.25108204  1
  Sb  Sb4  1  0.00143998  0.49807302  0.99952605  1
  Sb  Sb5  1  0.50143401  0.00195700  0.49951902  1
  Bi  Bi6  1  0.00006298  0.49698902  0.50139504  1
  Ca  Ca7  1  0.50006001  0.00300400  0.00139300  1
  O  O8  1  0.38359397  0.95667903  0.26397405  1
  O  O9  1  0.81495298  0.78641202  0.06152604  1
  O  O10  1  0.78641398  0.80921202  0.44100706  1
  O  O11  1  0.28643098  0.69076502  0.94100606  1
  O  O12  1  0.31493597  0.71358702  0.56152305  1
  O  O13  1  0.88357899  0.54331402  0.76397105  1
  O  O14  1  0.11224998  0.45190301  0.23626303  1
  O  O15  1  0.68787200  0.28351201  0.43637903  1
  O  O16  1  0.71661800  0.30819801  0.06004402  1
  O  O17  1  0.21664199  0.19180301  0.56005203  1
  O  O18  1  0.18784299  0.21648801  0.93637904  1
  O  O19  1  0.61223901  0.04810500  0.73626203  1
