# generated using pymatgen
data_MgZnTeS
_symmetry_space_group_name_H-M   'P 1'
_cell_length_a   4.10271597
_cell_length_b   4.10271549
_cell_length_c   6.43992615
_cell_angle_alpha   90.00000000
_cell_angle_beta   90.00000000
_cell_angle_gamma   120.00000763
_symmetry_Int_Tables_number   1
_chemical_formula_structural   MgZnTeS
_chemical_formula_sum   'Mg1 Zn1 Te1 S1'
_cell_volume   93.87594858
_cell_formula_units_Z   1
loop_
 _symmetry_equiv_pos_site_id
 _symmetry_equiv_pos_as_xyz
  1  'x, y, z'
loop_
 _atom_site_type_symbol
 _atom_site_label
 _atom_site_symmetry_multiplicity
 _atom_site_fract_x
 _atom_site_fract_y
 _atom_site_fract_z
 _atom_site_occupancy
  Te  Te0  1  0.00000000  0.00000000  0.19731100  1
  S  S1  1  0.33333331  0.66666662  0.81384398  1
  Zn  Zn2  1  0.66666663  0.33333331  0.92681598  1
  Mg  Mg3  1  0.33333331  0.66666662  0.43602799  1
