# generated using pymatgen
data_K4Ag3S5
_symmetry_space_group_name_H-M   'P 1'
_cell_length_a   6.69206285
_cell_length_b   6.69206285
_cell_length_c   6.69206285
_cell_angle_alpha   90.00000000
_cell_angle_beta   90.00000000
_cell_angle_gamma   90.00000000
_symmetry_Int_Tables_number   1
_chemical_formula_structural   K4Ag3S5
_chemical_formula_sum   'K4 Ag3 S5'
_cell_volume   299.69537042
_cell_formula_units_Z   1
loop_
 _symmetry_equiv_pos_site_id
 _symmetry_equiv_pos_as_xyz
  1  'x, y, z'
loop_
 _atom_site_type_symbol
 _atom_site_label
 _atom_site_symmetry_multiplicity
 _atom_site_fract_x
 _atom_site_fract_y
 _atom_site_fract_z
 _atom_site_occupancy
  K  K0  1  0.13584100  0.13584100  0.13584100  1
  K  K1  1  0.36415901  0.86415902  0.63584101  1
  K  K2  1  0.63584101  0.36415901  0.86415902  1
  K  K3  1  0.86415902  0.63584101  0.36415901  1
  Ag  Ag4  1  0.16547800  0.33452201  0.66547801  1
  Ag  Ag5  1  0.33452201  0.66547801  0.16547800  1
  Ag  Ag6  1  0.66547801  0.16547800  0.33452201  1
  S  S7  1  0.83452202  0.83452202  0.83452202  1
  S  S8  1  0.58260501  0.91739502  0.08260500  1
  S  S9  1  0.91739502  0.08260500  0.58260501  1
  S  S10  1  0.08260500  0.58260501  0.91739502  1
  S  S11  1  0.41739501  0.41739501  0.41739501  1
