# generated using pymatgen
data_KLi3Mn(TeO4)3
_symmetry_space_group_name_H-M   'P 1'
_cell_length_a   6.54404020
_cell_length_b   6.54404020
_cell_length_c   6.81702328
_cell_angle_alpha   117.39585114
_cell_angle_beta   117.39585114
_cell_angle_gamma   92.36929321
_symmetry_Int_Tables_number   1
_chemical_formula_structural   KLi3Mn(TeO4)3
_chemical_formula_sum   'K1 Li3 Mn1 Te3 O12'
_cell_volume   217.94419581
_cell_formula_units_Z   1
loop_
 _symmetry_equiv_pos_site_id
 _symmetry_equiv_pos_as_xyz
  1  'x, y, z'
loop_
 _atom_site_type_symbol
 _atom_site_label
 _atom_site_symmetry_multiplicity
 _atom_site_fract_x
 _atom_site_fract_y
 _atom_site_fract_z
 _atom_site_occupancy
  Li  Li0  1  0.49836003  0.99836001  0.99672009  1
  Li  Li1  1  0.49946203  0.99260201  0.49206410  1
  Li  Li2  1  0.99260201  0.49946200  0.49206410  1
  Te  Te3  1  0.12081300  0.12081300  0.24162601  1
  K  K4  1  0.99874303  0.99874301  0.49742014  1
  Mn  Mn5  1  0.49867701  0.49867700  0.49742006  1
  Te  Te6  1  0.99836001  0.49836000  0.99672008  1
  Te  Te7  1  0.88489002  0.88489001  0.76978011  1
  O  O8  1  0.50460301  0.50460300  0.00920608  1
  O  O9  1  0.43323200  0.14628500  0.28499103  1
  O  O10  1  0.84950901  0.56693600  0.71158709  1
  O  O11  1  0.85175900  0.13870600  0.28499106  1
  O  O12  1  0.86207800  0.14465100  0.71158705  1
  O  O13  1  0.32730901  0.56109300  0.88840205  1
  O  O14  1  0.56109301  0.32730900  0.88840204  1
  O  O15  1  0.62955202  0.62955201  0.25910409  1
  O  O16  1  0.13870602  0.85175901  0.28499107  1
  O  O17  1  0.14465102  0.86207801  0.71158706  1
  O  O18  1  0.14628501  0.43323200  0.28499104  1
  O  O19  1  0.56693602  0.84950901  0.71158709  1
