# generated using pymatgen
data_ZrSc2(TiSi2)5
_symmetry_space_group_name_H-M   'P 1'
_cell_length_a   5.55729485
_cell_length_b   7.82946587
_cell_length_c   7.82946634
_cell_angle_alpha   120.00000000
_cell_angle_beta   90.00000000
_cell_angle_gamma   90.00000000
_symmetry_Int_Tables_number   1
_chemical_formula_structural   ZrSc2(TiSi2)5
_chemical_formula_sum   'Zr1 Sc2 Ti5 Si10'
_cell_volume   295.02469322
_cell_formula_units_Z   1
loop_
 _symmetry_equiv_pos_site_id
 _symmetry_equiv_pos_as_xyz
  1  'x, y, z'
loop_
 _atom_site_type_symbol
 _atom_site_label
 _atom_site_symmetry_multiplicity
 _atom_site_fract_x
 _atom_site_fract_y
 _atom_site_fract_z
 _atom_site_occupancy
  Zr  Zr0  1  0.75000002  0.76496103  0.76496104  1
  Si  Si1  1  0.25000001  0.23503901  0.23503901  1
  Si  Si2  1  0.75000002  0.00000000  0.23503900  1
  Sc  Sc3  1  0.25000001  0.00000000  0.76496101  1
  Ti  Ti4  1  0.75000002  0.23503901  0.00000001  1
  Sc  Sc5  1  0.25000001  0.76496103  0.00000003  1
  Ti  Ti6  1  1.00000003  0.66666669  0.33333337  1
  Ti  Ti7  1  1.00000003  0.33333335  0.66666669  1
  Ti  Ti8  1  0.50000001  0.33333335  0.66666669  1
  Ti  Ti9  1  0.50000001  0.66666669  0.33333337  1
  Si  Si10  1  0.75000002  0.40394101  0.40394102  1
  Si  Si11  1  0.25000001  0.59605902  0.59605903  1
  Si  Si12  1  0.75000002  0.00000000  0.59605901  1
  Si  Si13  1  0.25000001  0.00000000  0.40394101  1
  Si  Si14  1  0.75000002  0.59605902  0.00000002  1
  Si  Si15  1  0.25000001  0.40394101  1.00000003  1
  Si  Si16  1  0.00000000  0.00000000  0.00000000  1
  Si  Si17  1  0.50000001  0.00000000  -0.00000000  1
