# generated using pymatgen
data_KNO2
_symmetry_space_group_name_H-M   'P 1'
_cell_length_a   5.63786125
_cell_length_b   5.63786125
_cell_length_c   5.63786125
_cell_angle_alpha   78.80411530
_cell_angle_beta   66.05683136
_cell_angle_gamma   113.57853699
_symmetry_Int_Tables_number   1
_chemical_formula_structural   KNO2
_chemical_formula_sum   'K2 N2 O4'
_cell_volume   135.83456910
_cell_formula_units_Z   2
loop_
 _symmetry_equiv_pos_site_id
 _symmetry_equiv_pos_as_xyz
  1  'x, y, z'
loop_
 _atom_site_type_symbol
 _atom_site_label
 _atom_site_symmetry_multiplicity
 _atom_site_fract_x
 _atom_site_fract_y
 _atom_site_fract_z
 _atom_site_occupancy
  K  K0  1  0.25262198  0.25262199  1.00000004  1
  K  K1  1  0.25262194  0.75262198  0.50000007  1
  N  N2  1  0.74562693  0.99853297  0.75290610  1
  N  N3  1  0.75143997  0.49853398  0.24709304  1
  O  O4  1  0.47083694  0.85991197  0.88907609  1
  O  O5  1  0.74898798  0.35991299  0.11092503  1
  O  O6  1  0.02844099  0.13893300  0.61049202  1
  O  O7  1  0.74942496  0.63893298  0.38950806  1
