# generated using pymatgen
data_K2YBi3S8
_symmetry_space_group_name_H-M   'P 1'
_cell_length_a   4.62909985
_cell_length_b   9.03863716
_cell_length_c   10.71431160
_cell_angle_alpha   81.64421844
_cell_angle_beta   77.52438354
_cell_angle_gamma   75.16283417
_symmetry_Int_Tables_number   1
_chemical_formula_structural   K2YBi3S8
_chemical_formula_sum   'K2 Y1 Bi3 S8'
_cell_volume   421.18730497
_cell_formula_units_Z   1
loop_
 _symmetry_equiv_pos_site_id
 _symmetry_equiv_pos_as_xyz
  1  'x, y, z'
loop_
 _atom_site_type_symbol
 _atom_site_label
 _atom_site_symmetry_multiplicity
 _atom_site_fract_x
 _atom_site_fract_y
 _atom_site_fract_z
 _atom_site_occupancy
  K  K0  1  0.26865502  0.13043000  0.33226001  1
  K  K1  1  0.73134509  0.86956997  0.66774005  1
  S  S2  1  0.39257403  0.26297799  0.95187401  1
  S  S3  1  0.60742607  0.73702197  0.04812604  1
  Bi  Bi4  1  0.04083702  0.23338599  0.68494001  1
  Y  Y5  1  0.95916308  0.76661397  0.31506005  1
  Bi  Bi6  1  0.41059005  0.52709098  0.65172903  1
  Bi  Bi7  1  0.58941005  0.47290898  0.34827103  1
  S  S8  1  0.07158708  0.97340096  0.88342504  1
  S  S9  1  0.92841302  0.02659900  0.11657502  1
  S  S10  1  0.15227304  0.49547898  0.19997502  1
  S  S11  1  0.84772706  0.50452098  0.80002503  1
  S  S12  1  0.38414307  0.77022297  0.46149104  1
  S  S13  1  0.61585703  0.22977699  0.53850902  1
