# generated using pymatgen
data_GdFeC2
_symmetry_space_group_name_H-M   'P 1'
_cell_length_a   3.75039887
_cell_length_b   3.75039887
_cell_length_c   3.81707811
_cell_angle_alpha   90.00000000
_cell_angle_beta   90.00000000
_cell_angle_gamma   105.05515289
_symmetry_Int_Tables_number   1
_chemical_formula_structural   GdFeC2
_chemical_formula_sum   'Gd1 Fe1 C2'
_cell_volume   51.84626945
_cell_formula_units_Z   1
loop_
 _symmetry_equiv_pos_site_id
 _symmetry_equiv_pos_as_xyz
  1  'x, y, z'
loop_
 _atom_site_type_symbol
 _atom_site_label
 _atom_site_symmetry_multiplicity
 _atom_site_fract_x
 _atom_site_fract_y
 _atom_site_fract_z
 _atom_site_occupancy
  Gd  Gd0  1  0.99473203  0.00526800  -0.00000000  1
  Fe  Fe1  1  0.38685104  0.61314902  0.49999999  1
  C  C2  1  0.85559305  0.45217602  0.49999999  1
  C  C3  1  0.54782402  0.14440701  0.49999999  1
