# generated using pymatgen
data_Ho3Si2B2Ir7
_symmetry_space_group_name_H-M   'P 1'
_cell_length_a   4.13810205
_cell_length_b   4.13810205
_cell_length_c   13.88967514
_cell_angle_alpha   98.56684875
_cell_angle_beta   98.56684875
_cell_angle_gamma   90.00000000
_symmetry_Int_Tables_number   1
_chemical_formula_structural   Ho3Si2B2Ir7
_chemical_formula_sum   'Ho3 Si2 B2 Ir7'
_cell_volume   232.50755992
_cell_formula_units_Z   1
loop_
 _symmetry_equiv_pos_site_id
 _symmetry_equiv_pos_as_xyz
  1  'x, y, z'
loop_
 _atom_site_type_symbol
 _atom_site_label
 _atom_site_symmetry_multiplicity
 _atom_site_fract_x
 _atom_site_fract_y
 _atom_site_fract_z
 _atom_site_occupancy
  Ho  Ho0  1  0.67341999  0.67341999  0.34684000  1
  Ho  Ho1  1  0.32657999  0.32658000  0.65316000  1
  Ho  Ho2  1  0.00000000  0.00000000  0.00000000  1
  Si  Si3  1  0.24999999  0.74999999  0.50000000  1
  Si  Si4  1  0.74999999  0.25000000  0.50000000  1
  B  B5  1  0.88231098  0.88231099  0.76462200  1
  B  B6  1  0.11768900  0.11768900  0.23537800  1
  Ir  Ir7  1  0.08076200  0.58076199  0.16152400  1
  Ir  Ir8  1  0.79676198  0.79676199  0.59352400  1
  Ir  Ir9  1  0.20323800  0.20323800  0.40647600  1
  Ir  Ir10  1  0.49999999  0.49999999  -0.00000000  1
  Ir  Ir11  1  0.41923799  0.91923799  0.83847600  1
  Ir  Ir12  1  0.91923798  0.41923799  0.83847600  1
  Ir  Ir13  1  0.58076199  0.08076200  0.16152400  1
