# generated using pymatgen
data_Mg5Cd
_symmetry_space_group_name_H-M   'P 1'
_cell_length_a   3.23720598
_cell_length_b   6.17855263
_cell_length_c   7.59898424
_cell_angle_alpha   104.67329407
_cell_angle_beta   90.00000000
_cell_angle_gamma   105.18705750
_symmetry_Int_Tables_number   1
_chemical_formula_structural   Mg5Cd
_chemical_formula_sum   'Mg5 Cd1'
_cell_volume   141.53828292
_cell_formula_units_Z   1
loop_
 _symmetry_equiv_pos_site_id
 _symmetry_equiv_pos_as_xyz
  1  'x, y, z'
loop_
 _atom_site_type_symbol
 _atom_site_label
 _atom_site_symmetry_multiplicity
 _atom_site_fract_x
 _atom_site_fract_y
 _atom_site_fract_z
 _atom_site_occupancy
  Mg  Mg0  1  0.97200994  0.94402001  0.69356499  1
  Cd  Cd1  1  0.69394698  0.38789400  0.63921698  1
  Mg  Mg2  1  0.30605296  0.61210600  0.36078299  1
  Mg  Mg3  1  0.02799000  0.05598000  0.30643499  1
  Mg  Mg4  1  0.63880798  0.27761600  0.02745100  1
  Mg  Mg5  1  0.36119195  0.72238401  0.97254898  1
