# generated using pymatgen
data_K5AgF7
_symmetry_space_group_name_H-M   'P 1'
_cell_length_a   7.10434818
_cell_length_b   7.11881638
_cell_length_c   7.11881638
_cell_angle_alpha   65.94017792
_cell_angle_beta   81.00162506
_cell_angle_gamma   98.99837494
_symmetry_Int_Tables_number   1
_chemical_formula_structural   K5AgF7
_chemical_formula_sum   'K5 Ag1 F7'
_cell_volume   314.88118594
_cell_formula_units_Z   1
loop_
 _symmetry_equiv_pos_site_id
 _symmetry_equiv_pos_as_xyz
  1  'x, y, z'
loop_
 _atom_site_type_symbol
 _atom_site_label
 _atom_site_symmetry_multiplicity
 _atom_site_fract_x
 _atom_site_fract_y
 _atom_site_fract_z
 _atom_site_occupancy
  K  K0  1  0.49999994  0.51187799  0.51187803  1
  K  K1  1  0.99999993  0.35831899  0.35831905  1
  K  K2  1  0.99999991  0.68235499  0.68235506  1
  K  K3  1  0.99999996  0.04638700  0.04638705  1
  K  K4  1  0.49999991  0.87223799  0.87223803  1
  F  F5  1  0.44566698  0.03953800  0.35479702  1
  Ag  Ag6  1  0.55433295  0.35479699  0.03953803  1
  F  F7  1  0.26938693  0.80245899  0.26069802  1
  F  F8  1  0.73061295  0.26069800  0.80245904  1
  F  F9  1  0.71500090  0.94169399  0.47177004  1
  F  F10  1  0.28499895  0.47176999  0.94169402  1
  F  F11  1  0.25466198  0.08147100  0.61955501  1
  F  F12  1  0.74533792  0.61955499  0.08147104  1
