# generated using pymatgen
data_Al11Mo
_symmetry_space_group_name_H-M   'P 1'
_cell_length_a   4.22718811
_cell_length_b   5.40772009
_cell_length_c   7.83820915
_cell_angle_alpha   90.00000000
_cell_angle_beta   90.00000000
_cell_angle_gamma   90.00000000
_symmetry_Int_Tables_number   1
_chemical_formula_structural   Al11Mo
_chemical_formula_sum   'Al11 Mo1'
_cell_volume   179.17715071
_cell_formula_units_Z   1
loop_
 _symmetry_equiv_pos_site_id
 _symmetry_equiv_pos_as_xyz
  1  'x, y, z'
loop_
 _atom_site_type_symbol
 _atom_site_label
 _atom_site_symmetry_multiplicity
 _atom_site_fract_x
 _atom_site_fract_y
 _atom_site_fract_z
 _atom_site_occupancy
  Al  Al0  1  0.24999999  0.30928799  0.90069098  1
  Al  Al1  1  0.24999999  0.80928799  0.59930899  1
  Mo  Mo2  1  0.74999998  0.69071199  0.09930900  1
  Al  Al3  1  0.74999998  0.19071200  0.40069099  1
  Al  Al4  1  0.24999999  0.82053699  0.93097498  1
  Al  Al5  1  0.24999999  0.32053699  0.56902499  1
  Al  Al6  1  0.74999998  0.17946300  0.06902500  1
  Al  Al7  1  0.74999998  0.67946299  0.43097499  1
  Al  Al8  1  0.24999999  0.96439098  0.27413699  1
  Al  Al9  1  0.24999999  0.46439099  0.22586300  1
  Al  Al10  1  0.74999998  0.03560900  0.72586299  1
  Al  Al11  1  0.74999998  0.53560899  0.77413698  1
