# generated using pymatgen
data_RbNa(CuO2)4
_symmetry_space_group_name_H-M   'P 1'
_cell_length_a   5.56407785
_cell_length_b   5.56407785
_cell_length_c   8.20573425
_cell_angle_alpha   90.00000000
_cell_angle_beta   90.00000000
_cell_angle_gamma   120.00000000
_symmetry_Int_Tables_number   1
_chemical_formula_structural   RbNa(CuO2)4
_chemical_formula_sum   'Rb1 Na1 Cu4 O8'
_cell_volume   220.00597513
_cell_formula_units_Z   1
loop_
 _symmetry_equiv_pos_site_id
 _symmetry_equiv_pos_as_xyz
  1  'x, y, z'
loop_
 _atom_site_type_symbol
 _atom_site_label
 _atom_site_symmetry_multiplicity
 _atom_site_fract_x
 _atom_site_fract_y
 _atom_site_fract_z
 _atom_site_occupancy
  Rb  Rb0  1  0.00000000  0.00000000  0.00000000  1
  Na  Na1  1  0.00000000  0.00000000  0.49999998  1
  Cu  Cu2  1  0.33333335  0.66666670  0.77057398  1
  Cu  Cu3  1  0.33333335  0.66666670  0.22942599  1
  Cu  Cu4  1  0.66666669  0.33333335  0.22942599  1
  Cu  Cu5  1  0.66666669  0.33333335  0.77057398  1
  O  O6  1  0.66216903  1.00000005  0.29227399  1
  O  O7  1  0.33783101  0.33783102  0.29227399  1
  O  O8  1  0.00000001  0.66216903  0.29227399  1
  O  O9  1  0.33783102  1.00000005  0.70772598  1
  O  O10  1  0.00000000  0.33783102  0.70772598  1
  O  O11  1  0.66216902  0.66216903  0.70772598  1
  O  O12  1  0.66666669  0.33333335  -0.00000000  1
  O  O13  1  0.33333335  0.66666670  -0.00000000  1
