# generated using pymatgen
data_Ba2SmRuO6
_symmetry_space_group_name_H-M   'P 1'
_cell_length_a   6.08855820
_cell_length_b   6.08855820
_cell_length_c   8.65586472
_cell_angle_alpha   90.00000000
_cell_angle_beta   90.00000000
_cell_angle_gamma   90.00000000
_symmetry_Int_Tables_number   1
_chemical_formula_structural   Ba2SmRuO6
_chemical_formula_sum   'Ba4 Sm2 Ru2 O12'
_cell_volume   320.87758712
_cell_formula_units_Z   2
loop_
 _symmetry_equiv_pos_site_id
 _symmetry_equiv_pos_as_xyz
  1  'x, y, z'
loop_
 _atom_site_type_symbol
 _atom_site_label
 _atom_site_symmetry_multiplicity
 _atom_site_fract_x
 _atom_site_fract_y
 _atom_site_fract_z
 _atom_site_occupancy
  Ba  Ba0  1  0.49999998  0.00000000  0.25000001  1
  Ba  Ba1  1  0.49999998  0.00000000  0.75000002  1
  Ba  Ba2  1  0.00000000  0.49999998  0.75000002  1
  Ba  Ba3  1  0.00000000  0.49999998  0.25000001  1
  Sm  Sm4  1  0.49999998  0.49999998  -0.00000000  1
  Sm  Sm5  1  0.00000000  0.00000000  0.50000002  1
  Ru  Ru6  1  0.49999998  0.49999998  0.50000002  1
  Ru  Ru7  1  0.00000000  0.00000000  0.00000000  1
  O  O8  1  0.79131097  0.25059799  0.00000000  1
  O  O9  1  0.49999998  0.49999998  0.26982901  1
  O  O10  1  0.00000000  0.00000000  0.76982903  1
  O  O11  1  0.20868899  0.74940198  -0.00000000  1
  O  O12  1  0.70868898  0.75059798  0.50000002  1
  O  O13  1  0.29131099  0.24940199  0.50000002  1
  O  O14  1  0.00000000  0.00000000  0.23017101  1
  O  O15  1  0.49999998  0.49999998  0.73017102  1
  O  O16  1  0.24940199  0.70868898  0.50000002  1
  O  O17  1  0.75059798  0.29131099  0.50000002  1
  O  O18  1  0.74940198  0.79131097  0.00000000  1
  O  O19  1  0.25059799  0.20868899  -0.00000000  1
