# generated using pymatgen
data_ZrBC
_symmetry_space_group_name_H-M   'P 1'
_cell_length_a   3.05314398
_cell_length_b   3.05314374
_cell_length_c   6.45059204
_cell_angle_alpha   90.00000000
_cell_angle_beta   90.00000000
_cell_angle_gamma   120.00000000
_symmetry_Int_Tables_number   1
_chemical_formula_structural   ZrBC
_chemical_formula_sum   'Zr2 B2 C2'
_cell_volume   52.07445628
_cell_formula_units_Z   2
loop_
 _symmetry_equiv_pos_site_id
 _symmetry_equiv_pos_as_xyz
  1  'x, y, z'
loop_
 _atom_site_type_symbol
 _atom_site_label
 _atom_site_symmetry_multiplicity
 _atom_site_fract_x
 _atom_site_fract_y
 _atom_site_fract_z
 _atom_site_occupancy
  Zr  Zr0  1  0.00000000  0.00000000  0.50000000  1
  B  B1  1  0.33333330  0.66666666  0.25619800  1
  B  B2  1  0.33333330  0.66666666  0.74380200  1
  C  C3  1  0.66666665  0.33333333  0.25619800  1
  C  C4  1  0.66666665  0.33333333  0.74380200  1
  Zr  Zr5  1  0.00000000  0.00000000  0.00000000  1
