# generated using pymatgen
data_Ce2ZrS5
_symmetry_space_group_name_H-M   'P 1'
_cell_length_a   4.01199389
_cell_length_b   7.68603611
_cell_length_c   11.19914436
_cell_angle_alpha   90.00000000
_cell_angle_beta   90.00000000
_cell_angle_gamma   90.00000000
_symmetry_Int_Tables_number   1
_chemical_formula_structural   Ce2ZrS5
_chemical_formula_sum   'Ce4 Zr2 S10'
_cell_volume   345.34050989
_cell_formula_units_Z   2
loop_
 _symmetry_equiv_pos_site_id
 _symmetry_equiv_pos_as_xyz
  1  'x, y, z'
loop_
 _atom_site_type_symbol
 _atom_site_label
 _atom_site_symmetry_multiplicity
 _atom_site_fract_x
 _atom_site_fract_y
 _atom_site_fract_z
 _atom_site_occupancy
  Ce  Ce0  1  0.50000001  0.56925299  0.16820799  1
  Ce  Ce1  1  0.50000001  0.43074699  0.83179197  1
  Ce  Ce2  1  0.50000001  0.93074699  0.66820798  1
  Ce  Ce3  1  0.50000001  0.06925300  0.33179199  1
  Zr  Zr4  1  0.00000000  0.49999999  0.49999998  1
  Zr  Zr5  1  0.00000000  0.00000000  0.00000000  1
  S  S6  1  0.00000000  0.00000000  0.49999998  1
  S  S7  1  0.00000000  0.49999999  -0.00000000  1
  S  S8  1  0.00000000  0.84893399  0.20690899  1
  S  S9  1  0.00000000  0.15106600  0.79309097  1
  S  S10  1  0.00000000  0.65106599  0.70690898  1
  S  S11  1  0.00000000  0.34893400  0.29309099  1
  S  S12  1  0.50000001  0.69206899  0.42450699  1
  S  S13  1  0.50000001  0.30793100  0.57549298  1
  S  S14  1  0.50000001  0.80793099  0.92450697  1
  S  S15  1  0.50000001  0.19206900  0.07549300  1
