# generated using pymatgen
data_NaLiBeF5
_symmetry_space_group_name_H-M   'P 1'
_cell_length_a   5.66529322
_cell_length_b   5.66529322
_cell_length_c   7.20614338
_cell_angle_alpha   103.89424133
_cell_angle_beta   103.89424133
_cell_angle_gamma   106.15042877
_symmetry_Int_Tables_number   1
_chemical_formula_structural   NaLiBeF5
_chemical_formula_sum   'Na2 Li2 Be2 F10'
_cell_volume   203.63898831
_cell_formula_units_Z   2
loop_
 _symmetry_equiv_pos_site_id
 _symmetry_equiv_pos_as_xyz
  1  'x, y, z'
loop_
 _atom_site_type_symbol
 _atom_site_label
 _atom_site_symmetry_multiplicity
 _atom_site_fract_x
 _atom_site_fract_y
 _atom_site_fract_z
 _atom_site_occupancy
  Na  Na0  1  0.33173796  0.66826196  0.24999996  1
  Na  Na1  1  0.66826196  0.33173798  0.74999996  1
  Li  Li2  1  0.00000000  0.00000000  0.00000000  1
  Li  Li3  1  0.00000000  0.00000000  0.49999999  1
  Be  Be4  1  0.67819496  0.32180498  0.24999997  1
  Be  Be5  1  0.32180496  0.67819496  0.74999996  1
  F  F6  1  0.38054397  0.26087199  0.07828398  1
  F  F7  1  0.73912795  0.61945596  0.42171595  1
  F  F8  1  0.10204097  0.67192396  0.88034796  1
  F  F9  1  0.32807596  0.89795895  0.61965195  1
  F  F10  1  0.89795895  0.32807598  0.11965196  1
  F  F11  1  0.67192397  0.10204099  0.38034797  1
  F  F12  1  0.61945595  0.73912796  0.92171594  1
  F  F13  1  0.26087198  0.38054398  0.57828397  1
  F  F14  1  0.08171097  0.91828895  0.24999996  1
  F  F15  1  0.91828895  0.08171100  0.74999996  1
