# generated using pymatgen
data_KEuGeS4
_symmetry_space_group_name_H-M   'P 1'
_cell_length_a   6.57123423
_cell_length_b   6.73531294
_cell_length_c   8.71935654
_cell_angle_alpha   90.00000000
_cell_angle_beta   73.01470184
_cell_angle_gamma   90.00000000
_symmetry_Int_Tables_number   1
_chemical_formula_structural   KEuGeS4
_chemical_formula_sum   'K2 Eu2 Ge2 S8'
_cell_volume   369.07916798
_cell_formula_units_Z   2
loop_
 _symmetry_equiv_pos_site_id
 _symmetry_equiv_pos_as_xyz
  1  'x, y, z'
loop_
 _atom_site_type_symbol
 _atom_site_label
 _atom_site_symmetry_multiplicity
 _atom_site_fract_x
 _atom_site_fract_y
 _atom_site_fract_z
 _atom_site_occupancy
  K  K0  1  0.73171199  0.50963500  0.06637497  1
  K  K1  1  0.26828799  0.00963500  0.93362498  1
  Eu  Eu2  1  0.77103299  0.49329000  0.55094396  1
  Eu  Eu3  1  0.22896700  0.99329001  0.44905598  1
  Ge  Ge4  1  0.77525899  0.02603900  0.32188996  1
  Ge  Ge5  1  0.22474100  0.52603900  0.67810998  1
  S  S6  1  0.42819399  0.58702501  0.42901898  1
  S  S7  1  0.57180599  0.08702500  0.57098097  1
  S  S8  1  0.56783899  0.02823900  0.16384797  1
  S  S9  1  0.43216099  0.52823900  0.83615197  1
  S  S10  1  0.98288298  0.75731001  0.29501596  1
  S  S11  1  0.01711700  0.25731000  0.70498399  1
  S  S12  1  0.97840898  0.76546101  0.72019395  1
  S  S13  1  0.02159100  0.26546100  0.27980600  1
