# generated using pymatgen
data_Lu4In2Ni3
_symmetry_space_group_name_H-M   'P 1'
_cell_length_a   4.36407900
_cell_length_b   7.08899784
_cell_length_c   7.08899879
_cell_angle_alpha   120.00000000
_cell_angle_beta   90.00000000
_cell_angle_gamma   90.00000000
_symmetry_Int_Tables_number   1
_chemical_formula_structural   Lu4In2Ni3
_chemical_formula_sum   'Lu4 In2 Ni3'
_cell_volume   189.92974356
_cell_formula_units_Z   1
loop_
 _symmetry_equiv_pos_site_id
 _symmetry_equiv_pos_as_xyz
  1  'x, y, z'
loop_
 _atom_site_type_symbol
 _atom_site_label
 _atom_site_symmetry_multiplicity
 _atom_site_fract_x
 _atom_site_fract_y
 _atom_site_fract_z
 _atom_site_occupancy
  Lu  Lu0  1  0.92056400  0.73344904  0.65961202  1
  In  In1  1  0.42710100  0.32632702  0.39681100  1
  In  In2  1  0.42710100  0.60318903  0.92951600  1
  Lu  Lu3  1  0.92056400  0.92616305  0.26655104  1
  Lu  Lu4  1  0.42710100  0.07048400  0.67367298  1
  Lu  Lu5  1  0.92056400  0.34038802  0.07383702  1
  Ni  Ni6  1  0.51126500  0.00000000  -0.00000000  1
  Ni  Ni7  1  0.92557500  0.33333335  0.66666666  1
  Ni  Ni8  1  0.41479500  0.66666670  0.33333336  1
