# generated using pymatgen
data_Ce(GePd)2
_symmetry_space_group_name_H-M   'P 1'
_cell_length_a   4.12280989
_cell_length_b   4.12280989
_cell_length_c   6.13612604
_cell_angle_alpha   109.63005066
_cell_angle_beta   109.63005066
_cell_angle_gamma   90.00000000
_symmetry_Int_Tables_number   1
_chemical_formula_structural   Ce(GePd)2
_chemical_formula_sum   'Ce1 Ge2 Pd2'
_cell_volume   91.77623019
_cell_formula_units_Z   1
loop_
 _symmetry_equiv_pos_site_id
 _symmetry_equiv_pos_as_xyz
  1  'x, y, z'
loop_
 _atom_site_type_symbol
 _atom_site_label
 _atom_site_symmetry_multiplicity
 _atom_site_fract_x
 _atom_site_fract_y
 _atom_site_fract_z
 _atom_site_occupancy
  Ce  Ce0  1  0.00000000  0.00000000  0.00000000  1
  Ge  Ge1  1  0.61424397  0.61424400  0.22848793  1
  Ge  Ge2  1  0.38575598  0.38575600  0.77151195  1
  Pd  Pd3  1  0.74999999  0.25000000  0.49999995  1
  Pd  Pd4  1  0.24999996  0.75000000  0.49999994  1
