# generated using pymatgen
data_Mg3Sb2
_symmetry_space_group_name_H-M   'P 1'
_cell_length_a   3.63510704
_cell_length_b   7.96701622
_cell_length_c   7.96701622
_cell_angle_alpha   90.00000000
_cell_angle_beta   90.00000000
_cell_angle_gamma   90.00000000
_symmetry_Int_Tables_number   1
_chemical_formula_structural   Mg3Sb2
_chemical_formula_sum   'Mg6 Sb4'
_cell_volume   230.73241220
_cell_formula_units_Z   2
loop_
 _symmetry_equiv_pos_site_id
 _symmetry_equiv_pos_as_xyz
  1  'x, y, z'
loop_
 _atom_site_type_symbol
 _atom_site_label
 _atom_site_symmetry_multiplicity
 _atom_site_fract_x
 _atom_site_fract_y
 _atom_site_fract_z
 _atom_site_occupancy
  Mg  Mg0  1  0.00000000  0.16935600  0.33064399  1
  Mg  Mg1  1  0.00000000  0.83064398  0.66935598  1
  Mg  Mg2  1  0.00000000  0.66935598  0.16935600  1
  Mg  Mg3  1  0.00000000  0.33064399  0.83064398  1
  Mg  Mg4  1  0.49999999  0.00000000  0.00000000  1
  Mg  Mg5  1  0.49999999  0.49999999  0.49999999  1
  Sb  Sb6  1  0.49999999  0.37092999  0.12907000  1
  Sb  Sb7  1  0.49999999  0.62906998  0.87092998  1
  Sb  Sb8  1  0.49999999  0.87092998  0.37092999  1
  Sb  Sb9  1  0.49999999  0.12907000  0.62906998  1
