# generated using pymatgen
data_Rb2Al3Cl13
_symmetry_space_group_name_H-M   'P 1'
_cell_length_a   7.58064413
_cell_length_b   7.79825449
_cell_length_c   7.79825449
_cell_angle_alpha   62.18727875
_cell_angle_beta   60.91887665
_cell_angle_gamma   60.91887665
_symmetry_Int_Tables_number   1
_chemical_formula_structural   Rb2Al3Cl13
_chemical_formula_sum   'Rb2 Al3 Cl13'
_cell_volume   335.69825903
_cell_formula_units_Z   1
loop_
 _symmetry_equiv_pos_site_id
 _symmetry_equiv_pos_as_xyz
  1  'x, y, z'
loop_
 _atom_site_type_symbol
 _atom_site_label
 _atom_site_symmetry_multiplicity
 _atom_site_fract_x
 _atom_site_fract_y
 _atom_site_fract_z
 _atom_site_occupancy
  Rb  Rb0  1  0.61128999  0.13871000  0.63871000  1
  Rb  Rb1  1  0.38871000  0.86128999  0.36128999  1
  Cl  Cl2  1  0.00000000  0.00000000  0.00000000  1
  Al  Al3  1  0.99999998  0.49999999  0.50000001  1
  Al  Al4  1  0.49999999  0.49999999  0.00000000  1
  Cl  Cl5  1  0.00000001  0.49999999  -0.00000000  1
  Cl  Cl6  1  0.09597800  0.15402200  0.65402199  1
  Cl  Cl7  1  0.70402399  0.54597599  0.04597601  1
  Cl  Cl8  1  0.09373801  0.55666899  0.68802199  1
  Cl  Cl9  1  0.66157099  0.18802200  0.05666901  1
  Cl  Cl10  1  0.66157199  0.55666799  0.68802200  1
  Al  Al11  1  0.09373700  0.18802300  0.05666900  1
  Cl  Cl12  1  0.90402199  0.84597799  0.34597800  1
  Cl  Cl13  1  0.29597600  0.45402399  0.95402399  1
  Cl  Cl14  1  0.90626198  0.44333099  0.31197801  1
  Cl  Cl15  1  0.33842900  0.81197799  0.94333099  1
  Cl  Cl16  1  0.33842800  0.44333199  0.31197800  1
  Cl  Cl17  1  0.90626299  0.81197699  0.94333100  1
