# generated using pymatgen
data_LaGa4
_symmetry_space_group_name_H-M   'P 1'
_cell_length_a   4.35064411
_cell_length_b   4.35064411
_cell_length_c   6.15059042
_cell_angle_alpha   110.71237946
_cell_angle_beta   110.71237946
_cell_angle_gamma   90.00000000
_symmetry_Int_Tables_number   1
_chemical_formula_structural   LaGa4
_chemical_formula_sum   'La1 Ga4'
_cell_volume   100.81007784
_cell_formula_units_Z   1
loop_
 _symmetry_equiv_pos_site_id
 _symmetry_equiv_pos_as_xyz
  1  'x, y, z'
loop_
 _atom_site_type_symbol
 _atom_site_label
 _atom_site_symmetry_multiplicity
 _atom_site_fract_x
 _atom_site_fract_y
 _atom_site_fract_z
 _atom_site_occupancy
  La  La0  1  0.00000000  0.00000000  0.00000000  1
  Ga  Ga1  1  0.61887199  0.61887199  0.23774402  1
  Ga  Ga2  1  0.38112800  0.38112799  0.76225601  1
  Ga  Ga3  1  0.74999999  0.25000000  0.50000001  1
  Ga  Ga4  1  0.25000000  0.74999999  0.50000002  1
