# generated using pymatgen
data_SmIn2Rh
_symmetry_space_group_name_H-M   'P 1'
_cell_length_a   4.05263996
_cell_length_b   4.05263996
_cell_length_c   7.76756191
_cell_angle_alpha   74.87833405
_cell_angle_beta   74.87833405
_cell_angle_gamma   59.99999619
_symmetry_Int_Tables_number   1
_chemical_formula_structural   SmIn2Rh
_chemical_formula_sum   'Sm1 In2 Rh1'
_cell_volume   105.35037474
_cell_formula_units_Z   1
loop_
 _symmetry_equiv_pos_site_id
 _symmetry_equiv_pos_as_xyz
  1  'x, y, z'
loop_
 _atom_site_type_symbol
 _atom_site_label
 _atom_site_symmetry_multiplicity
 _atom_site_fract_x
 _atom_site_fract_y
 _atom_site_fract_z
 _atom_site_occupancy
  Sm  Sm0  1  0.50000003  0.50000003  0.49999999  1
  Rh  Rh1  1  0.00000000  0.00000000  0.00000000  1
  In  In2  1  0.73382904  0.73382905  0.79851299  1
  In  In3  1  0.26617101  0.26617102  0.20148699  1
