# generated using pymatgen
data_CuO
_symmetry_space_group_name_H-M   'P 1'
_cell_length_a   3.53666186
_cell_length_b   3.53666186
_cell_length_c   6.25176048
_cell_angle_alpha   73.56941986
_cell_angle_beta   73.56941986
_cell_angle_gamma   60.00000381
_symmetry_Int_Tables_number   1
_chemical_formula_structural   CuO
_chemical_formula_sum   'Cu2 O2'
_cell_volume   64.00661536
_cell_formula_units_Z   2
loop_
 _symmetry_equiv_pos_site_id
 _symmetry_equiv_pos_as_xyz
  1  'x, y, z'
loop_
 _atom_site_type_symbol
 _atom_site_label
 _atom_site_symmetry_multiplicity
 _atom_site_fract_x
 _atom_site_fract_y
 _atom_site_fract_z
 _atom_site_occupancy
  O  O0  1  0.00000000  0.00000000  0.00000000  1
  O  O1  1  0.50000001  0.49999999  0.49999999  1
  Cu  Cu2  1  0.39703601  0.39703600  0.80889199  1
  Cu  Cu3  1  0.60296401  0.60296399  0.19110799  1
