# generated using pymatgen
data_Lu5(CoB3)2
_symmetry_space_group_name_H-M   'P 1'
_cell_length_a   5.32674980
_cell_length_b   5.32674980
_cell_length_c   7.90712023
_cell_angle_alpha   70.31599426
_cell_angle_beta   70.31599426
_cell_angle_gamma   59.99998093
_symmetry_Int_Tables_number   1
_chemical_formula_structural   Lu5(CoB3)2
_chemical_formula_sum   'Lu5 Co2 B6'
_cell_volume   179.00165561
_cell_formula_units_Z   1
loop_
 _symmetry_equiv_pos_site_id
 _symmetry_equiv_pos_as_xyz
  1  'x, y, z'
loop_
 _atom_site_type_symbol
 _atom_site_label
 _atom_site_symmetry_multiplicity
 _atom_site_fract_x
 _atom_site_fract_y
 _atom_site_fract_z
 _atom_site_occupancy
  Lu  Lu0  1  0.74402698  0.74402697  0.76791804  1
  Lu  Lu1  1  0.25597299  0.25597299  0.23208201  1
  Lu  Lu2  1  0.58834198  0.58834197  0.23497403  1
  Lu  Lu3  1  0.41165799  0.41165798  0.76502602  1
  Lu  Lu4  1  0.00000000  0.00000000  0.00000000  1
  Co  Co5  1  0.88710198  0.88710196  0.33869305  1
  Co  Co6  1  0.11289800  0.11289799  0.66130700  1
  B  B7  1  0.16760200  0.83239796  0.50000002  1
  B  B8  1  0.49999998  0.16760199  0.50000002  1
  B  B9  1  0.83239797  0.49999998  0.50000003  1
  B  B10  1  0.49999999  0.83239796  0.50000003  1
  B  B11  1  0.16760200  0.49999998  0.50000002  1
  B  B12  1  0.83239797  0.16760199  0.50000002  1
