# generated using pymatgen
data_Cr3C
_symmetry_space_group_name_H-M   'P 1'
_cell_length_a   3.49240708
_cell_length_b   3.49240708
_cell_length_c   9.51462173
_cell_angle_alpha   90.00000000
_cell_angle_beta   90.00000000
_cell_angle_gamma   90.00000000
_symmetry_Int_Tables_number   1
_chemical_formula_structural   Cr3C
_chemical_formula_sum   'Cr6 C2'
_cell_volume   116.04895869
_cell_formula_units_Z   2
loop_
 _symmetry_equiv_pos_site_id
 _symmetry_equiv_pos_as_xyz
  1  'x, y, z'
loop_
 _atom_site_type_symbol
 _atom_site_label
 _atom_site_symmetry_multiplicity
 _atom_site_fract_x
 _atom_site_fract_y
 _atom_site_fract_z
 _atom_site_occupancy
  Cr  Cr0  1  0.49999999  0.49999999  0.50000001  1
  Cr  Cr1  1  0.00000000  0.00000000  0.50000001  1
  Cr  Cr2  1  0.49999999  0.00000000  0.81464602  1
  Cr  Cr3  1  0.00000000  0.49999999  0.18535401  1
  C  C4  1  0.49999999  0.00000000  0.59685202  1
  C  C5  1  0.00000000  0.49999999  0.40314801  1
  Cr  Cr6  1  0.00000000  0.49999999  0.82832702  1
  Cr  Cr7  1  0.49999999  0.00000000  0.17167300  1
