# generated using pymatgen
data_AlReI
_symmetry_space_group_name_H-M   'P 1'
_cell_length_a   3.49903202
_cell_length_b   3.49903154
_cell_length_c   6.82159996
_cell_angle_alpha   90.00000000
_cell_angle_beta   90.00000000
_cell_angle_gamma   120.00000763
_symmetry_Int_Tables_number   1
_chemical_formula_structural   AlReI
_chemical_formula_sum   'Al1 Re1 I1'
_cell_volume   72.32902657
_cell_formula_units_Z   1
loop_
 _symmetry_equiv_pos_site_id
 _symmetry_equiv_pos_as_xyz
  1  'x, y, z'
loop_
 _atom_site_type_symbol
 _atom_site_label
 _atom_site_symmetry_multiplicity
 _atom_site_fract_x
 _atom_site_fract_y
 _atom_site_fract_z
 _atom_site_occupancy
  Re  Re0  1  0.00000000  0.00000000  0.00000000  1
  Al  Al1  1  0.33333337  0.66666667  0.24321300  1
  I  I2  1  0.66666668  0.33333334  0.75678700  1
