# generated using pymatgen
data_NaLaTi2O6
_symmetry_space_group_name_H-M   'P 1'
_cell_length_a   3.11614394
_cell_length_b   5.34599972
_cell_length_c   7.55141592
_cell_angle_alpha   90.00000000
_cell_angle_beta   90.00000000
_cell_angle_gamma   106.94456482
_symmetry_Int_Tables_number   1
_chemical_formula_structural   NaLaTi2O6
_chemical_formula_sum   'Na1 La1 Ti2 O6'
_cell_volume   120.33705866
_cell_formula_units_Z   1
loop_
 _symmetry_equiv_pos_site_id
 _symmetry_equiv_pos_as_xyz
  1  'x, y, z'
loop_
 _atom_site_type_symbol
 _atom_site_label
 _atom_site_symmetry_multiplicity
 _atom_site_fract_x
 _atom_site_fract_y
 _atom_site_fract_z
 _atom_site_occupancy
  O  O0  1  0.04348000  0.08696000  0.75000001  1
  O  O1  1  0.95652001  0.91304003  0.25000000  1
  O  O2  1  0.37559900  0.75119803  0.54825601  1
  O  O3  1  0.62440101  0.24880201  0.45174400  1
  O  O4  1  0.37559900  0.75119803  0.95174401  1
  O  O5  1  0.62440101  0.24880201  0.04825600  1
  Na  Na6  1  0.74224801  0.48449602  0.75000001  1
  La  La7  1  0.25775200  0.51550402  0.25000000  1
  Ti  Ti8  1  0.00000000  0.00000000  0.50000001  1
  Ti  Ti9  1  0.00000000  0.00000000  0.00000000  1
