# generated using pymatgen
data_Gd(CoB)2
_symmetry_space_group_name_H-M   'P 1'
_cell_length_a   4.97715998
_cell_length_b   4.97715998
_cell_length_c   6.09296131
_cell_angle_alpha   102.79380035
_cell_angle_beta   103.85705566
_cell_angle_gamma   115.83113861
_symmetry_Int_Tables_number   1
_chemical_formula_structural   Gd(CoB)2
_chemical_formula_sum   'Gd2 Co4 B4'
_cell_volume   122.39124875
_cell_formula_units_Z   2
loop_
 _symmetry_equiv_pos_site_id
 _symmetry_equiv_pos_as_xyz
  1  'x, y, z'
loop_
 _atom_site_type_symbol
 _atom_site_label
 _atom_site_symmetry_multiplicity
 _atom_site_fract_x
 _atom_site_fract_y
 _atom_site_fract_z
 _atom_site_occupancy
  Gd  Gd0  1  0.13237799  0.88237801  0.24999995  1
  Gd  Gd1  1  0.86762203  0.11762200  0.75000000  1
  Co  Co2  1  0.47921301  0.53347600  0.20133198  1
  Co  Co3  1  0.83214403  0.27788100  0.29866800  1
  Co  Co4  1  0.52078701  0.46652400  0.79866796  1
  Co  Co5  1  0.16785599  0.72211900  0.70133194  1
  B  B6  1  0.52751200  0.84469401  0.02357997  1
  B  B7  1  0.32111400  0.50393200  0.47641997  1
  B  B8  1  0.47248802  0.15530600  0.97641997  1
  B  B9  1  0.67888602  0.49606800  0.52357998  1
