# generated using pymatgen
data_AlFe
_symmetry_space_group_name_H-M   'P 1'
_cell_length_a   4.05103302
_cell_length_b   5.17394781
_cell_length_c   5.17394781
_cell_angle_alpha   120.00000000
_cell_angle_beta   90.00000000
_cell_angle_gamma   90.00000000
_symmetry_Int_Tables_number   1
_chemical_formula_structural   AlFe
_chemical_formula_sum   'Al4 Fe4'
_cell_volume   93.91619790
_cell_formula_units_Z   4
loop_
 _symmetry_equiv_pos_site_id
 _symmetry_equiv_pos_as_xyz
  1  'x, y, z'
loop_
 _atom_site_type_symbol
 _atom_site_label
 _atom_site_symmetry_multiplicity
 _atom_site_fract_x
 _atom_site_fract_y
 _atom_site_fract_z
 _atom_site_occupancy
  Al  Al0  1  0.75000000  0.84339101  0.15660896  1
  Al  Al1  1  0.75000000  0.31321800  0.15660898  1
  Al  Al2  1  0.75000000  0.84339101  0.68678194  1
  Al  Al3  1  0.25000000  0.15660900  0.84339097  1
  Fe  Fe4  1  0.25000000  0.68678201  0.84339094  1
  Fe  Fe5  1  0.25000000  0.15660900  0.31321798  1
  Fe  Fe6  1  0.75000000  0.33333334  0.66666663  1
  Fe  Fe7  1  0.25000000  0.66666668  0.33333329  1
