# generated using pymatgen
data_CeTe3
_symmetry_space_group_name_H-M   'P 1'
_cell_length_a   4.36463022
_cell_length_b   4.44745779
_cell_length_c   12.69902515
_cell_angle_alpha   90.00000000
_cell_angle_beta   99.89533997
_cell_angle_gamma   90.00000000
_symmetry_Int_Tables_number   1
_chemical_formula_structural   CeTe3
_chemical_formula_sum   'Ce2 Te6'
_cell_volume   242.84002443
_cell_formula_units_Z   2
loop_
 _symmetry_equiv_pos_site_id
 _symmetry_equiv_pos_as_xyz
  1  'x, y, z'
loop_
 _atom_site_type_symbol
 _atom_site_label
 _atom_site_symmetry_multiplicity
 _atom_site_fract_x
 _atom_site_fract_y
 _atom_site_fract_z
 _atom_site_occupancy
  Ce  Ce0  1  0.83393795  0.75000004  0.66787601  1
  Ce  Ce1  1  0.16606199  0.25000001  0.33212401  1
  Te  Te2  1  0.29604298  0.25000001  0.59208602  1
  Te  Te3  1  0.92675895  0.25000001  0.85351802  1
  Te  Te4  1  0.70395696  0.75000004  0.40791401  1
  Te  Te5  1  0.07324100  0.75000004  0.14648200  1
  Te  Te6  1  0.57323497  0.25000001  0.14647000  1
  Te  Te7  1  0.42676498  0.75000004  0.85353002  1
