# generated using pymatgen
data_YbNi8B8F
_symmetry_space_group_name_H-M   'P 1'
_cell_length_a   3.80708289
_cell_length_b   7.09354019
_cell_length_c   7.09354019
_cell_angle_alpha   90.00000000
_cell_angle_beta   90.00000000
_cell_angle_gamma   90.00000000
_symmetry_Int_Tables_number   1
_chemical_formula_structural   YbNi8B8F
_chemical_formula_sum   'Yb1 Ni8 B8 F1'
_cell_volume   191.56598646
_cell_formula_units_Z   1
loop_
 _symmetry_equiv_pos_site_id
 _symmetry_equiv_pos_as_xyz
  1  'x, y, z'
loop_
 _atom_site_type_symbol
 _atom_site_label
 _atom_site_symmetry_multiplicity
 _atom_site_fract_x
 _atom_site_fract_y
 _atom_site_fract_z
 _atom_site_occupancy
  F  F0  1  0.00000000  0.00000000  0.00000000  1
  Yb  Yb1  1  0.50000001  0.49999999  0.49999999  1
  Ni  Ni2  1  0.89383703  0.13288100  0.38858199  1
  Ni  Ni3  1  0.89383703  0.86711898  0.61141798  1
  Ni  Ni4  1  0.39383701  0.88858198  0.36711899  1
  Ni  Ni5  1  0.39383701  0.11141800  0.63288098  1
  Ni  Ni6  1  0.60616302  0.36711899  0.11141800  1
  Ni  Ni7  1  0.60616302  0.63288098  0.88858198  1
  Ni  Ni8  1  0.10616300  0.61141798  0.13288100  1
  Ni  Ni9  1  0.10616300  0.38858199  0.86711898  1
  B  B10  1  0.10518300  0.66500598  0.79658898  1
  B  B11  1  0.10518300  0.33499399  0.20341099  1
  B  B12  1  0.60518302  0.29658899  0.83499398  1
  B  B13  1  0.60518302  0.70341098  0.16500600  1
  B  B14  1  0.39481701  0.83499398  0.70341098  1
  B  B15  1  0.39481701  0.16500600  0.29658899  1
  B  B16  1  0.89481703  0.20341099  0.66500598  1
  B  B17  1  0.89481703  0.79658898  0.33499399  1
