# generated using pymatgen
data_CeAu2
_symmetry_space_group_name_H-M   'P 1'
_cell_length_a   4.12950277
_cell_length_b   4.33686590
_cell_length_c   8.52723598
_cell_angle_alpha   104.73181152
_cell_angle_beta   90.00000000
_cell_angle_gamma   90.00000000
_symmetry_Int_Tables_number   1
_chemical_formula_structural   CeAu2
_chemical_formula_sum   'Ce2 Au4'
_cell_volume   147.69487208
_cell_formula_units_Z   2
loop_
 _symmetry_equiv_pos_site_id
 _symmetry_equiv_pos_as_xyz
  1  'x, y, z'
loop_
 _atom_site_type_symbol
 _atom_site_label
 _atom_site_symmetry_multiplicity
 _atom_site_fract_x
 _atom_site_fract_y
 _atom_site_fract_z
 _atom_site_occupancy
  Ce  Ce0  1  0.75000004  0.59499602  0.18999201  1
  Ce  Ce1  1  0.25000001  0.40500401  0.81000803  1
  Au  Au2  1  0.75000004  0.24391001  0.48782002  1
  Au  Au3  1  0.25000001  0.75609002  0.51218002  1
  Au  Au4  1  0.75000004  0.94786802  0.89573603  1
  Au  Au5  1  0.25000001  0.05213200  0.10426400  1
