# generated using pymatgen
data_Ce2GaAu3
_symmetry_space_group_name_H-M   'P 1'
_cell_length_a   4.47970009
_cell_length_b   5.71118116
_cell_length_c   5.85113859
_cell_angle_alpha   72.29226685
_cell_angle_beta   67.49240875
_cell_angle_gamma   66.90936279
_symmetry_Int_Tables_number   1
_chemical_formula_structural   Ce2GaAu3
_chemical_formula_sum   'Ce2 Ga1 Au3'
_cell_volume   125.10857132
_cell_formula_units_Z   1
loop_
 _symmetry_equiv_pos_site_id
 _symmetry_equiv_pos_as_xyz
  1  'x, y, z'
loop_
 _atom_site_type_symbol
 _atom_site_label
 _atom_site_symmetry_multiplicity
 _atom_site_fract_x
 _atom_site_fract_y
 _atom_site_fract_z
 _atom_site_occupancy
  Ce  Ce0  1  0.45444900  0.29364198  0.79745999  1
  Ce  Ce1  1  0.54555102  0.70635796  0.20254002  1
  Au  Au2  1  0.15890903  0.86999495  0.81218701  1
  Au  Au3  1  0.84109099  0.13000499  0.18781301  1
  Ga  Ga4  1  0.83406301  0.72799596  0.60387802  1
  Au  Au5  1  0.16593701  0.27200398  0.39612200  1
