# generated using pymatgen
data_Ce(SiRu)2
_symmetry_space_group_name_H-M   'P 1'
_cell_length_a   4.11595821
_cell_length_b   4.11595821
_cell_length_c   5.83010006
_cell_angle_alpha   110.67043304
_cell_angle_beta   110.67043304
_cell_angle_gamma   90.00000000
_symmetry_Int_Tables_number   1
_chemical_formula_structural   Ce(SiRu)2
_chemical_formula_sum   'Ce1 Si2 Ru2'
_cell_volume   85.58114391
_cell_formula_units_Z   1
loop_
 _symmetry_equiv_pos_site_id
 _symmetry_equiv_pos_as_xyz
  1  'x, y, z'
loop_
 _atom_site_type_symbol
 _atom_site_label
 _atom_site_symmetry_multiplicity
 _atom_site_fract_x
 _atom_site_fract_y
 _atom_site_fract_z
 _atom_site_occupancy
  Ce  Ce0  1  0.00000000  0.00000000  0.00000000  1
  Ru  Ru1  1  0.25000000  0.74999997  0.50000001  1
  Ru  Ru2  1  0.74999997  0.24999999  0.50000001  1
  Si  Si3  1  0.36700499  0.36700498  0.73401001  1
  Si  Si4  1  0.63299498  0.63299497  0.26599001  1
