# generated using pymatgen
data_Mg2Ge
_symmetry_space_group_name_H-M   'P 1'
_cell_length_a   4.52113199
_cell_length_b   4.52113199
_cell_length_c   7.82408762
_cell_angle_alpha   73.20645142
_cell_angle_beta   73.20645142
_cell_angle_gamma   60.00000000
_symmetry_Int_Tables_number   1
_chemical_formula_structural   Mg2Ge
_chemical_formula_sum   'Mg4 Ge2'
_cell_volume   130.56766041
_cell_formula_units_Z   2
loop_
 _symmetry_equiv_pos_site_id
 _symmetry_equiv_pos_as_xyz
  1  'x, y, z'
loop_
 _atom_site_type_symbol
 _atom_site_label
 _atom_site_symmetry_multiplicity
 _atom_site_fract_x
 _atom_site_fract_y
 _atom_site_fract_z
 _atom_site_occupancy
  Mg  Mg0  1  0.62527402  0.62527400  0.12417796  1
  Mg  Mg1  1  0.12471300  0.12471300  0.62586097  1
  Mg  Mg2  1  0.87528703  0.87528701  0.37413894  1
  Mg  Mg3  1  0.37472601  0.37472600  0.87582195  1
  Ge  Ge4  1  0.00000000  0.00000000  0.00000000  1
  Ge  Ge5  1  0.50000002  0.50000000  0.49999996  1
