# generated using pymatgen
data_Ba2Sb
_symmetry_space_group_name_H-M   'P 1'
_cell_length_a   3.35177946
_cell_length_b   3.35177946
_cell_length_c   7.59147644
_cell_angle_alpha   77.24636078
_cell_angle_beta   77.24636078
_cell_angle_gamma   60.00001144
_symmetry_Int_Tables_number   1
_chemical_formula_structural   Ba2Sb
_chemical_formula_sum   'Ba2 Sb1'
_cell_volume   71.41975246
_cell_formula_units_Z   1
loop_
 _symmetry_equiv_pos_site_id
 _symmetry_equiv_pos_as_xyz
  1  'x, y, z'
loop_
 _atom_site_type_symbol
 _atom_site_label
 _atom_site_symmetry_multiplicity
 _atom_site_fract_x
 _atom_site_fract_y
 _atom_site_fract_z
 _atom_site_occupancy
  Sb  Sb0  1  0.00000000  0.00000000  0.00000000  1
  Ba  Ba1  1  0.39330298  0.39330299  0.82009100  1
  Ba  Ba2  1  0.60669698  0.60669699  0.17990898  1
