# generated using pymatgen
data_MgCd2O5
_symmetry_space_group_name_H-M   'P 1'
_cell_length_a   3.57167602
_cell_length_b   6.47803020
_cell_length_c   6.84445620
_cell_angle_alpha   110.56893921
_cell_angle_beta   90.00000000
_cell_angle_gamma   90.00000000
_symmetry_Int_Tables_number   1
_chemical_formula_structural   MgCd2O5
_chemical_formula_sum   'Mg1 Cd2 O5'
_cell_volume   148.26746707
_cell_formula_units_Z   1
loop_
 _symmetry_equiv_pos_site_id
 _symmetry_equiv_pos_as_xyz
  1  'x, y, z'
loop_
 _atom_site_type_symbol
 _atom_site_label
 _atom_site_symmetry_multiplicity
 _atom_site_fract_x
 _atom_site_fract_y
 _atom_site_fract_z
 _atom_site_occupancy
  O  O0  1  0.50000000  0.00000000  0.49999999  1
  O  O1  1  -0.00000000  0.49999999  0.50000000  1
  O  O2  1  0.50000000  0.49999999  1.00000000  1
  O  O3  1  0.00000000  0.00000000  0.00000000  1
  Cd  Cd4  1  -0.00000000  0.41916299  0.17545401  1
  Cd  Cd5  1  -0.00000000  0.58083699  0.82454600  1
  O  O6  1  0.50000000  0.85526198  0.17519802  1
  Mg  Mg7  1  0.50000000  0.14473800  0.82480199  1
