# generated using pymatgen
data_Ce5Sn11
_symmetry_space_group_name_H-M   'P 1'
_cell_length_a   6.69872904
_cell_length_b   6.69872904
_cell_length_c   10.70740986
_cell_angle_alpha   90.00000000
_cell_angle_beta   90.00000000
_cell_angle_gamma   101.02399445
_symmetry_Int_Tables_number   1
_chemical_formula_structural   Ce5Sn11
_chemical_formula_sum   'Ce5 Sn11'
_cell_volume   471.60720684
_cell_formula_units_Z   1
loop_
 _symmetry_equiv_pos_site_id
 _symmetry_equiv_pos_as_xyz
  1  'x, y, z'
loop_
 _atom_site_type_symbol
 _atom_site_label
 _atom_site_symmetry_multiplicity
 _atom_site_fract_x
 _atom_site_fract_y
 _atom_site_fract_z
 _atom_site_occupancy
  Ce  Ce0  1  0.20262296  0.79737697  -0.00000000  1
  Sn  Sn1  1  0.79737697  0.20262299  -0.00000000  1
  Ce  Ce2  1  0.79737697  0.20262299  0.50000001  1
  Ce  Ce3  1  0.20262296  0.79737697  0.50000001  1
  Ce  Ce4  1  0.62776396  0.62776398  0.75000001  1
  Ce  Ce5  1  0.37223597  0.37223599  0.25000000  1
  Sn  Sn6  1  0.49627498  0.07461000  0.75000001  1
  Sn  Sn7  1  0.50372495  0.92539096  0.25000000  1
  Sn  Sn8  1  0.07460898  0.49627498  0.75000001  1
  Sn  Sn9  1  0.92539095  0.50372498  0.25000000  1
  Sn  Sn10  1  0.02749800  0.02749800  0.75000001  1
  Sn  Sn11  1  0.97250193  0.97250196  0.25000000  1
  Sn  Sn12  1  0.30884498  0.30884499  0.94966901  1
  Sn  Sn13  1  0.69115495  0.69115497  0.05033100  1
  Sn  Sn14  1  0.69115495  0.69115497  0.44966901  1
  Sn  Sn15  1  0.30884498  0.30884499  0.55033101  1
