# generated using pymatgen
data_H6SO2F7
_symmetry_space_group_name_H-M   'P 1'
_cell_length_a   4.76156950
_cell_length_b   4.76156950
_cell_length_c   6.37013817
_cell_angle_alpha   90.00000000
_cell_angle_beta   90.00000000
_cell_angle_gamma   100.88860321
_symmetry_Int_Tables_number   1
_chemical_formula_structural   H6SO2F7
_chemical_formula_sum   'H6 S1 O2 F7'
_cell_volume   141.82701483
_cell_formula_units_Z   1
loop_
 _symmetry_equiv_pos_site_id
 _symmetry_equiv_pos_as_xyz
  1  'x, y, z'
loop_
 _atom_site_type_symbol
 _atom_site_label
 _atom_site_symmetry_multiplicity
 _atom_site_fract_x
 _atom_site_fract_y
 _atom_site_fract_z
 _atom_site_occupancy
  H  H0  1  0.83335501  0.16664500  0.30865299  1
  S  S1  1  0.16664503  0.83335501  0.80865298  1
  H  H2  1  0.82869202  0.44496100  0.03070700  1
  H  H3  1  0.55503901  0.17130800  0.03070700  1
  H  H4  1  0.17130802  0.55503900  0.53070699  1
  H  H5  1  0.44496103  0.82869201  0.53070699  1
  F  F6  1  0.87785700  0.12214300  0.96971797  1
  H  H7  1  0.12214303  0.87785701  0.46971799  1
  F  F8  1  0.70098801  0.29901200  0.42422199  1
  F  F9  1  0.29901203  0.70098800  0.92422198  1
  F  F10  1  0.09236301  0.23762800  0.33487699  1
  F  F11  1  0.76237203  0.90763701  0.33487699  1
  F  F12  1  0.90763703  0.76237201  0.83487698  1
  F  F13  1  0.23762800  0.09236300  0.83487698  1
  O  O14  1  0.76733901  0.23266100  0.07023900  1
  O  O15  1  0.23266103  0.76733901  0.57023898  1
