# generated using pymatgen
data_Lu2OF3
_symmetry_space_group_name_H-M   'P 1'
_cell_length_a   5.55593920
_cell_length_b   5.55593920
_cell_length_c   6.10096073
_cell_angle_alpha   106.41131592
_cell_angle_beta   106.41131592
_cell_angle_gamma   112.30316925
_symmetry_Int_Tables_number   1
_chemical_formula_structural   Lu2OF3
_chemical_formula_sum   'Lu4 O2 F6'
_cell_volume   150.15947891
_cell_formula_units_Z   2
loop_
 _symmetry_equiv_pos_site_id
 _symmetry_equiv_pos_as_xyz
  1  'x, y, z'
loop_
 _atom_site_type_symbol
 _atom_site_label
 _atom_site_symmetry_multiplicity
 _atom_site_fract_x
 _atom_site_fract_y
 _atom_site_fract_z
 _atom_site_occupancy
  F  F0  1  0.12500002  0.37500003  0.74999999  1
  F  F1  1  0.62500005  0.37500003  0.25000001  1
  F  F2  1  0.62500007  0.87500006  0.25000003  1
  F  F3  1  0.62500005  0.37500003  0.75000000  1
  Lu  Lu4  1  0.42631704  0.57368304  0.50000001  1
  Lu  Lu5  1  0.17631704  0.82368306  0.00000003  1
  Lu  Lu6  1  0.07368304  0.92631706  0.50000002  1
  Lu  Lu7  1  0.82368305  0.17631701  0.00000002  1
  O  O8  1  0.38310806  0.88310806  0.76621601  1
  F  F9  1  0.86689208  0.86689206  0.73378402  1
  F  F10  1  0.13310801  0.13310801  0.26621600  1
  O  O11  1  0.11689203  0.61689204  0.23378401  1
