# generated using pymatgen
data_TiMnBe13B
_symmetry_space_group_name_H-M   'P 1'
_cell_length_a   4.24553394
_cell_length_b   6.42865372
_cell_length_c   6.42865372
_cell_angle_alpha   83.74032593
_cell_angle_beta   70.71884155
_cell_angle_gamma   70.71884155
_symmetry_Int_Tables_number   1
_chemical_formula_structural   TiMnBe13B
_chemical_formula_sum   'Ti1 Mn1 Be13 B1'
_cell_volume   156.32670695
_cell_formula_units_Z   1
loop_
 _symmetry_equiv_pos_site_id
 _symmetry_equiv_pos_as_xyz
  1  'x, y, z'
loop_
 _atom_site_type_symbol
 _atom_site_label
 _atom_site_symmetry_multiplicity
 _atom_site_fract_x
 _atom_site_fract_y
 _atom_site_fract_z
 _atom_site_occupancy
  Ti  Ti0  1  0.35905198  0.80891101  0.97586795  1
  Be  Be1  1  0.14383100  0.19108900  0.02413199  1
  Be  Be2  1  0.83203702  0.02413200  0.80891098  1
  Be  Be3  1  0.66507998  0.97586801  0.19108894  1
  Be  Be4  1  0.01318998  0.60935301  0.33321597  1
  Mn  Mn5  1  0.95575901  0.39064700  0.66678396  1
  Be  Be6  1  0.37745698  0.66678401  0.60935296  1
  Be  Be7  1  0.65359400  0.33321600  0.39064697  1
  Be  Be8  1  0.96166100  0.60744301  0.95668895  1
  Be  Be9  1  0.52579200  0.39255700  0.04331197  1
  Be  Be10  1  0.43089601  0.04331100  0.60744399  1
  Be  Be11  1  0.08164997  0.95668901  0.39255696  1
  Be  Be12  1  0.52960499  0.66262601  0.25038096  1
  Be  Be13  1  0.44261100  0.33737400  0.74961897  1
  B  B14  1  0.80776899  0.74961901  0.66262695  1
  Be  Be15  1  0.22001500  0.25038100  0.33737298  1
