# generated using pymatgen
data_La5Tm3NiSb7
_symmetry_space_group_name_H-M   'P 1'
_cell_length_a   6.21382523
_cell_length_b   8.99217415
_cell_length_c   8.99217510
_cell_angle_alpha   120.00000000
_cell_angle_beta   90.00000000
_cell_angle_gamma   90.00000000
_symmetry_Int_Tables_number   1
_chemical_formula_structural   La5Tm3NiSb7
_chemical_formula_sum   'La5 Tm3 Ni1 Sb7'
_cell_volume   435.13010337
_cell_formula_units_Z   1
loop_
 _symmetry_equiv_pos_site_id
 _symmetry_equiv_pos_as_xyz
  1  'x, y, z'
loop_
 _atom_site_type_symbol
 _atom_site_label
 _atom_site_symmetry_multiplicity
 _atom_site_fract_x
 _atom_site_fract_y
 _atom_site_fract_z
 _atom_site_occupancy
  La  La0  1  0.74999997  0.24761200  0.99999998  1
  La  La1  1  0.74999997  0.00000000  0.24761199  1
  La  La2  1  0.24999999  0.24761200  0.24761200  1
  Tm  Tm3  1  0.49999998  0.66666667  0.33333336  1
  La  La4  1  0.74999997  0.75238801  0.75238801  1
  Tm  Tm5  1  0.49999998  0.33333334  0.66666666  1
  La  La6  1  0.24999999  0.00000000  0.75238797  1
  Sb  Sb7  1  0.00000000  0.66666667  0.33333336  1
  Tm  Tm8  1  0.24999999  0.75238801  1.00000000  1
  Sb  Sb9  1  0.00000000  0.33333334  0.66666666  1
  Sb  Sb10  1  0.24999999  0.38964300  0.00000002  1
  Sb  Sb11  1  0.24999999  0.61035701  0.61035701  1
  Sb  Sb12  1  0.74999997  0.38964300  0.38964301  1
  Sb  Sb13  1  0.24999999  0.00000000  0.38964299  1
  Sb  Sb14  1  0.74999997  0.61035701  0.00000003  1
  Ni  Ni15  1  0.74999997  1.00000001  0.61035703  1
