# generated using pymatgen
data_NaLi3NbF13
_symmetry_space_group_name_H-M   'P 1'
_cell_length_a   4.00770807
_cell_length_b   7.62822819
_cell_length_c   7.62822819
_cell_angle_alpha   90.00000000
_cell_angle_beta   90.00000000
_cell_angle_gamma   90.00000000
_symmetry_Int_Tables_number   1
_chemical_formula_structural   NaLi3NbF13
_chemical_formula_sum   'Na1 Li3 Nb1 F13'
_cell_volume   233.20799284
_cell_formula_units_Z   1
loop_
 _symmetry_equiv_pos_site_id
 _symmetry_equiv_pos_as_xyz
  1  'x, y, z'
loop_
 _atom_site_type_symbol
 _atom_site_label
 _atom_site_symmetry_multiplicity
 _atom_site_fract_x
 _atom_site_fract_y
 _atom_site_fract_z
 _atom_site_occupancy
  Na  Na0  1  0.00000000  0.49999999  0.49999999  1
  F  F1  1  0.49999999  0.00000000  0.00000000  1
  Nb  Nb2  1  0.61101599  0.66429398  0.78058998  1
  F  F3  1  0.88898398  0.16429400  0.28058999  1
  F  F4  1  0.11101600  0.28058999  0.83570598  1
  F  F5  1  0.11101600  0.71940998  0.16429400  1
  Li  Li6  1  0.61101599  0.33570599  0.21940999  1
  F  F7  1  0.88898398  0.83570598  0.71940998  1
  Li  Li8  1  0.38898399  0.21940999  0.66429398  1
  Li  Li9  1  0.38898399  0.78058998  0.33570599  1
  F  F10  1  0.11225500  0.35387499  0.10661600  1
  F  F11  1  0.11225500  0.64612498  0.89338398  1
  F  F12  1  0.61225499  0.60661599  0.14612500  1
  F  F13  1  0.88774498  0.10661600  0.64612498  1
  F  F14  1  0.38774499  0.14612500  0.39338399  1
  F  F15  1  0.38774499  0.85387498  0.60661599  1
  F  F16  1  0.88774498  0.89338398  0.35387499  1
  F  F17  1  0.61225499  0.39338399  0.85387498  1
