# generated using pymatgen
data_Sr3CaCuBi(SbO5)2
_symmetry_space_group_name_H-M   'P 1'
_cell_length_a   5.85798216
_cell_length_b   6.92003679
_cell_length_c   7.49914074
_cell_angle_alpha   104.24652863
_cell_angle_beta   90.00000000
_cell_angle_gamma   115.04072571
_symmetry_Int_Tables_number   1
_chemical_formula_structural   Sr3CaCuBi(SbO5)2
_chemical_formula_sum   'Sr3 Ca1 Cu1 Bi1 Sb2 O10'
_cell_volume   265.06755669
_cell_formula_units_Z   1
loop_
 _symmetry_equiv_pos_site_id
 _symmetry_equiv_pos_as_xyz
  1  'x, y, z'
loop_
 _atom_site_type_symbol
 _atom_site_label
 _atom_site_symmetry_multiplicity
 _atom_site_fract_x
 _atom_site_fract_y
 _atom_site_fract_z
 _atom_site_occupancy
  Sr  Sr0  1  0.00000000  0.00000000  0.00000000  1
  Sr  Sr1  1  0.84596299  0.69192602  0.45493702  1
  Sr  Sr2  1  0.15403700  0.30807401  0.54506301  1
  Bi  Bi3  1  0.68923899  0.37847801  0.87440901  1
  Ca  Ca4  1  0.31076101  0.62152201  0.12559102  1
  Cu  Cu5  1  0.58890099  0.17780200  0.19728100  1
  Sb  Sb6  1  0.41109901  0.82219802  0.80271902  1
  Sb  Sb7  1  0.49999999  0.00000000  0.50000000  1
  O  O8  1  0.66842499  0.33685001  0.55552701  1
  O  O9  1  0.33157501  0.66315002  0.44447302  1
  O  O10  1  0.08767301  0.63198202  0.87706902  1
  O  O11  1  0.45569100  0.36801801  0.12293101  1
  O  O12  1  0.91232698  0.36801801  0.12293101  1
  O  O13  1  0.54430900  0.63198202  0.87706902  1
  O  O14  1  0.26235802  0.96392702  0.28037602  1
  O  O15  1  0.29843099  0.03607300  0.71962400  1
  O  O16  1  0.70156901  0.96392702  0.28037602  1
  O  O17  1  0.73764198  0.03607300  0.71962400  1
