# generated using pymatgen
data_CaHo(PRh2)4
_symmetry_space_group_name_H-M   'P 1'
_cell_length_a   3.76934600
_cell_length_b   7.24707890
_cell_length_c   7.24707890
_cell_angle_alpha   90.00000000
_cell_angle_beta   90.00000000
_cell_angle_gamma   90.00000000
_symmetry_Int_Tables_number   1
_chemical_formula_structural   CaHo(PRh2)4
_chemical_formula_sum   'Ca1 Ho1 P4 Rh8'
_cell_volume   197.96662675
_cell_formula_units_Z   1
loop_
 _symmetry_equiv_pos_site_id
 _symmetry_equiv_pos_as_xyz
  1  'x, y, z'
loop_
 _atom_site_type_symbol
 _atom_site_label
 _atom_site_symmetry_multiplicity
 _atom_site_fract_x
 _atom_site_fract_y
 _atom_site_fract_z
 _atom_site_occupancy
  Ho  Ho0  1  0.00000000  0.50000001  0.50000001  1
  Ca  Ca1  1  0.50000000  0.00000000  -0.00000000  1
  Rh  Rh2  1  0.50000000  0.84608401  0.41177401  1
  Rh  Rh3  1  0.00000000  0.91177401  0.65391601  1
  Rh  Rh4  1  1.00000000  0.34608400  0.08822600  1
  Rh  Rh5  1  0.50000000  0.58822601  0.15391600  1
  Rh  Rh6  1  0.50000000  0.41177401  0.84608401  1
  Rh  Rh7  1  1.00000000  0.08822600  0.34608400  1
  Rh  Rh8  1  0.50000000  0.15391600  0.58822601  1
  Rh  Rh9  1  0.00000000  0.65391601  0.91177401  1
  P  P10  1  0.50000000  0.71791601  0.71791601  1
  P  P11  1  0.50000000  0.28208400  0.28208400  1
  P  P12  1  1.00000000  0.78208401  0.21791600  1
  P  P13  1  1.00000000  0.21791600  0.78208401  1
