# generated using pymatgen
data_La(NiSn)2
_symmetry_space_group_name_H-M   'P 1'
_cell_length_a   4.31693220
_cell_length_b   8.82187462
_cell_length_c   8.82187462
_cell_angle_alpha   80.15120697
_cell_angle_beta   75.83754730
_cell_angle_gamma   75.83754730
_symmetry_Int_Tables_number   1
_chemical_formula_structural   La(NiSn)2
_chemical_formula_sum   'La3 Ni6 Sn6'
_cell_volume   313.63819419
_cell_formula_units_Z   3
loop_
 _symmetry_equiv_pos_site_id
 _symmetry_equiv_pos_as_xyz
  1  'x, y, z'
loop_
 _atom_site_type_symbol
 _atom_site_label
 _atom_site_symmetry_multiplicity
 _atom_site_fract_x
 _atom_site_fract_y
 _atom_site_fract_z
 _atom_site_occupancy
  La  La0  1  0.99999999  0.99603696  0.00396295  1
  La  La1  1  0.33344301  0.66755498  0.66555894  1
  La  La2  1  0.66655698  0.33444099  0.33244497  1
  Ni  Ni3  1  0.00000002  0.39001199  0.60998795  1
  Ni  Ni4  1  0.00000003  0.61405798  0.38594195  1
  Sn  Sn5  1  0.50000001  0.74999297  0.25000695  1
  Sn  Sn6  1  0.49999999  0.25234299  0.74765696  1
  Sn  Sn7  1  0.83630698  0.41096198  0.91642395  1
  Sn  Sn8  1  0.16369400  0.08357600  0.58903697  1
  Ni  Ni9  1  0.66879000  0.71712697  0.94529293  1
  Ni  Ni10  1  0.33120999  0.05470700  0.28287299  1
  Ni  Ni11  1  0.66448301  0.94554697  0.72548692  1
  Ni  Ni12  1  0.33551700  0.27451299  0.05445299  1
  Sn  Sn13  1  0.83038900  0.91917497  0.42004694  1
  Sn  Sn14  1  0.16961102  0.57995298  0.08082497  1
