# generated using pymatgen
data_MgSn8O11
_symmetry_space_group_name_H-M   'P 1'
_cell_length_a   5.79571295
_cell_length_b   5.79571295
_cell_length_c   10.14954185
_cell_angle_alpha   73.78835297
_cell_angle_beta   73.78835297
_cell_angle_gamma   61.12742996
_symmetry_Int_Tables_number   1
_chemical_formula_structural   MgSn8O11
_chemical_formula_sum   'Mg1 Sn8 O11'
_cell_volume   282.41903968
_cell_formula_units_Z   1
loop_
 _symmetry_equiv_pos_site_id
 _symmetry_equiv_pos_as_xyz
  1  'x, y, z'
loop_
 _atom_site_type_symbol
 _atom_site_label
 _atom_site_symmetry_multiplicity
 _atom_site_fract_x
 _atom_site_fract_y
 _atom_site_fract_z
 _atom_site_occupancy
  Mg  Mg0  1  0.50472100  0.01403000  0.50098597  1
  Sn  Sn1  1  0.25655502  0.75946299  0.25063296  1
  Sn  Sn2  1  0.01403001  0.50472099  0.00098598  1
  Sn  Sn3  1  0.75946300  0.25655500  0.75063294  1
  Sn  Sn4  1  0.95944300  0.32063199  0.36673695  1
  Sn  Sn5  1  0.32063202  0.95944298  0.86673693  1
  Sn  Sn6  1  0.05438302  0.68676599  0.63281295  1
  Sn  Sn7  1  0.68676600  0.05438300  0.13281297  1
  O  O8  1  0.30703701  0.38807999  0.37017297  1
  O  O9  1  0.18159700  0.14358500  0.66442096  1
  O  O10  1  0.74382700  0.11538700  0.58187595  1
  O  O11  1  0.27443202  0.90228898  0.42115095  1
  Sn  Sn12  1  0.90533402  0.82823198  0.83510492  1
  O  O13  1  0.64108402  0.69032399  0.13810496  1
  O  O14  1  0.14358500  0.18159700  0.16442098  1
  O  O15  1  0.69032401  0.64108399  0.63810494  1
  O  O16  1  0.90228900  0.27443199  0.92115093  1
  O  O17  1  0.38808001  0.30703699  0.87017295  1
  O  O18  1  0.82823202  0.90533398  0.33510494  1
  O  O19  1  0.11538702  0.74382699  0.08187597  1
