# generated using pymatgen
data_Al2Te
_symmetry_space_group_name_H-M   'P 1'
_cell_length_a   3.38415599
_cell_length_b   3.38415599
_cell_length_c   14.59042740
_cell_angle_alpha   90.00000000
_cell_angle_beta   90.00000000
_cell_angle_gamma   120.00000000
_symmetry_Int_Tables_number   1
_chemical_formula_structural   Al2Te
_chemical_formula_sum   'Al4 Te2'
_cell_volume   144.71028267
_cell_formula_units_Z   2
loop_
 _symmetry_equiv_pos_site_id
 _symmetry_equiv_pos_as_xyz
  1  'x, y, z'
loop_
 _atom_site_type_symbol
 _atom_site_label
 _atom_site_symmetry_multiplicity
 _atom_site_fract_x
 _atom_site_fract_y
 _atom_site_fract_z
 _atom_site_occupancy
  Te  Te0  1  0.00000000  0.00000000  0.87274598  1
  Al  Al1  1  0.00000000  0.00000000  0.25126699  1
  Al  Al2  1  0.33333333  0.66666665  0.74288598  1
  Al  Al3  1  0.33333333  0.66666665  0.13790100  1
  Al  Al4  1  0.33333333  0.66666665  0.36483399  1
  Te  Te5  1  0.00000000  0.00000000  0.63036598  1
