# generated using pymatgen
data_LuB4Os3
_symmetry_space_group_name_H-M   'P 1'
_cell_length_a   3.53695393
_cell_length_b   7.64301395
_cell_length_c   7.64301443
_cell_angle_alpha   120.00000000
_cell_angle_beta   90.00000000
_cell_angle_gamma   90.00000000
_symmetry_Int_Tables_number   1
_chemical_formula_structural   LuB4Os3
_chemical_formula_sum   'Lu2 B8 Os6'
_cell_volume   178.93255624
_cell_formula_units_Z   2
loop_
 _symmetry_equiv_pos_site_id
 _symmetry_equiv_pos_as_xyz
  1  'x, y, z'
loop_
 _atom_site_type_symbol
 _atom_site_label
 _atom_site_symmetry_multiplicity
 _atom_site_fract_x
 _atom_site_fract_y
 _atom_site_fract_z
 _atom_site_occupancy
  Lu  Lu0  1  0.75000002  0.66666669  0.33333338  1
  Lu  Lu1  1  0.25000001  0.33333334  0.66666670  1
  B  B2  1  0.25000001  0.60362502  0.55228305  1
  B  B3  1  0.25000001  0.94865803  0.39637506  1
  B  B4  1  0.25000001  0.44771701  0.05134203  1
  B  B5  1  0.75000002  0.39637501  0.44771703  1
  B  B6  1  0.75000002  0.05134200  0.60362502  1
  B  B7  1  0.75000002  0.55228302  0.94865805  1
  B  B8  1  0.50000001  0.00000000  -0.00000000  1
  B  B9  1  0.00000000  0.00000000  0.00000000  1
  Os  Os10  1  0.25000001  0.92722003  0.67002707  1
  Os  Os11  1  0.25000001  0.74280702  0.07278004  1
  Os  Os12  1  0.25000001  0.32997301  0.25719302  1
  Os  Os13  1  0.75000002  0.07278000  0.32997301  1
  Os  Os14  1  0.75000002  0.25719301  0.92722004  1
  Os  Os15  1  0.75000002  0.67002702  0.74280705  1
