# generated using pymatgen
data_Al7FeC
_symmetry_space_group_name_H-M   'P 1'
_cell_length_a   5.31003904
_cell_length_b   7.67326784
_cell_length_c   7.67326880
_cell_angle_alpha   120.00000000
_cell_angle_beta   90.00000000
_cell_angle_gamma   90.00000000
_symmetry_Int_Tables_number   1
_chemical_formula_structural   Al7FeC
_chemical_formula_sum   'Al14 Fe2 C2'
_cell_volume   270.76287430
_cell_formula_units_Z   2
loop_
 _symmetry_equiv_pos_site_id
 _symmetry_equiv_pos_as_xyz
  1  'x, y, z'
loop_
 _atom_site_type_symbol
 _atom_site_label
 _atom_site_symmetry_multiplicity
 _atom_site_fract_x
 _atom_site_fract_y
 _atom_site_fract_z
 _atom_site_occupancy
  Al  Al0  1  0.50000000  0.33333335  0.66666670  1
  Al  Al1  1  0.50000000  0.66666671  0.33333338  1
  Fe  Fe2  1  0.99999999  0.66666671  0.33333338  1
  Fe  Fe3  1  0.99999999  0.33333335  0.66666670  1
  Al  Al4  1  0.74999999  0.24710501  0.00000002  1
  Al  Al5  1  0.74999999  0.75289504  0.75289506  1
  Al  Al6  1  0.74999999  0.00000000  0.24710500  1
  Al  Al7  1  0.25000000  0.75289504  0.00000006  1
  Al  Al8  1  0.25000000  0.24710501  0.24710502  1
  Al  Al9  1  0.25000000  1.00000006  0.75289508  1
  Al  Al10  1  0.74999999  0.59871703  0.00000004  1
  Al  Al11  1  0.74999999  0.40128302  0.40128303  1
  Al  Al12  1  0.74999999  0.00000000  0.59871700  1
  Al  Al13  1  0.25000000  0.40128302  0.00000003  1
  Al  Al14  1  0.25000000  0.59871703  0.59871705  1
  Al  Al15  1  0.25000000  0.00000000  0.40128300  1
  C  C16  1  0.50000000  0.00000000  -0.00000000  1
  C  C17  1  0.00000000  0.00000000  0.00000000  1
