# generated using pymatgen
data_Zr2Bi
_symmetry_space_group_name_H-M   'P 1'
_cell_length_a   5.99734688
_cell_length_b   8.88253021
_cell_length_c   8.88253021
_cell_angle_alpha   120.00000000
_cell_angle_beta   90.00000000
_cell_angle_gamma   90.00000000
_symmetry_Int_Tables_number   1
_chemical_formula_structural   Zr2Bi
_chemical_formula_sum   'Zr12 Bi6'
_cell_volume   409.79172741
_cell_formula_units_Z   6
loop_
 _symmetry_equiv_pos_site_id
 _symmetry_equiv_pos_as_xyz
  1  'x, y, z'
loop_
 _atom_site_type_symbol
 _atom_site_label
 _atom_site_symmetry_multiplicity
 _atom_site_fract_x
 _atom_site_fract_y
 _atom_site_fract_z
 _atom_site_occupancy
  Zr  Zr0  1  1.00000002  0.33333333  0.66666668  1
  Zr  Zr1  1  1.00000002  0.66666666  0.33333335  1
  Zr  Zr2  1  0.50000001  0.66666666  0.33333335  1
  Zr  Zr3  1  0.50000001  0.33333333  0.66666668  1
  Bi  Bi4  1  0.25000001  0.27951800  0.00000001  1
  Bi  Bi5  1  0.25000001  0.72048199  0.72048203  1
  Bi  Bi6  1  0.25000001  0.00000000  0.27951800  1
  Bi  Bi7  1  0.75000002  0.72048199  0.00000002  1
  Bi  Bi8  1  0.75000002  0.27951800  0.27951801  1
  Bi  Bi9  1  0.75000002  0.99999999  0.72048203  1
  Zr  Zr10  1  0.00000000  0.00000000  0.00000000  1
  Zr  Zr11  1  0.50000001  0.00000000  -0.00000000  1
  Zr  Zr12  1  0.25000001  0.62261699  0.00000001  1
  Zr  Zr13  1  0.25000001  0.37738300  0.37738301  1
  Zr  Zr14  1  0.25000001  0.00000000  0.62261701  1
  Zr  Zr15  1  0.75000002  0.37738300  0.00000001  1
  Zr  Zr16  1  0.75000002  0.62261699  0.62261702  1
  Zr  Zr17  1  0.75000002  0.99999999  0.37738303  1
