# generated using pymatgen
data_Sr3Ta2O7
_symmetry_space_group_name_H-M   'P 1'
_cell_length_a   3.96588087
_cell_length_b   3.99846482
_cell_length_c   11.06796265
_cell_angle_alpha   100.33803558
_cell_angle_beta   100.05561829
_cell_angle_gamma   90.09126282
_symmetry_Int_Tables_number   1
_chemical_formula_structural   Sr3Ta2O7
_chemical_formula_sum   'Sr3 Ta2 O7'
_cell_volume   169.90977149
_cell_formula_units_Z   1
loop_
 _symmetry_equiv_pos_site_id
 _symmetry_equiv_pos_as_xyz
  1  'x, y, z'
loop_
 _atom_site_type_symbol
 _atom_site_label
 _atom_site_symmetry_multiplicity
 _atom_site_fract_x
 _atom_site_fract_y
 _atom_site_fract_z
 _atom_site_occupancy
  Sr  Sr0  1  0.31092501  0.30911799  0.61787097  1
  Sr  Sr1  1  0.67884303  0.68180498  0.36439697  1
  Sr  Sr2  1  0.51393802  0.51994998  0.04112698  1
  Ta  Ta3  1  0.90060703  0.90148897  0.80366895  1
  Ta  Ta4  1  0.09339700  0.10617700  0.21742799  1
  O  O5  1  0.60028801  0.09807300  0.19392298  1
  O  O6  1  0.09637902  0.59792298  0.19389298  1
  O  O7  1  0.39570003  0.89547297  0.79114596  1
  O  O8  1  0.89555102  0.39589699  0.79210096  1
  O  O9  1  0.99104204  0.99067896  0.98217294  1
  O  O10  1  0.21610801  0.20021799  0.39640098  1
  O  O11  1  0.80722203  0.80319997  0.60587096  1
