# generated using pymatgen
data_Lu2HC2O7
_symmetry_space_group_name_H-M   'P 1'
_cell_length_a   4.18000412
_cell_length_b   4.18000364
_cell_length_c   6.70992184
_cell_angle_alpha   90.00000000
_cell_angle_beta   90.00000000
_cell_angle_gamma   120.00000763
_symmetry_Int_Tables_number   1
_chemical_formula_structural   Lu2HC2O7
_chemical_formula_sum   'Lu2 H1 C2 O7'
_cell_volume   101.53164662
_cell_formula_units_Z   1
loop_
 _symmetry_equiv_pos_site_id
 _symmetry_equiv_pos_as_xyz
  1  'x, y, z'
loop_
 _atom_site_type_symbol
 _atom_site_label
 _atom_site_symmetry_multiplicity
 _atom_site_fract_x
 _atom_site_fract_y
 _atom_site_fract_z
 _atom_site_occupancy
  Lu  Lu0  1  0.33333337  0.66666666  0.49411801  1
  Lu  Lu1  1  0.66666667  0.33333333  0.99411802  1
  C  C2  1  0.33333337  0.66666666  0.94220702  1
  C  C3  1  0.66666667  0.33333333  0.44220701  1
  O  O4  1  0.33333337  0.66666666  0.12368900  1
  O  O5  1  0.66666667  0.33333333  0.62368902  1
  O  O6  1  0.17467702  0.34935399  0.88167002  1
  O  O7  1  0.17467705  0.82532299  0.88167002  1
  O  O8  1  0.65064603  0.82532299  0.88167002  1
  O  O9  1  0.82532302  0.65064599  0.38167001  1
  H  H10  1  0.82532299  0.17467700  0.38167001  1
  O  O11  1  0.34935400  0.17467700  0.38167001  1
