# generated using pymatgen
data_BaH6Pt
_symmetry_space_group_name_H-M   'P 1'
_cell_length_a   5.98892736
_cell_length_b   5.98892736
_cell_length_c   5.98892736
_cell_angle_alpha   60.00000000
_cell_angle_beta   60.00000000
_cell_angle_gamma   60.00000000
_symmetry_Int_Tables_number   1
_chemical_formula_structural   BaH6Pt
_chemical_formula_sum   'Ba1 H6 Pt1'
_cell_volume   151.89103440
_cell_formula_units_Z   1
loop_
 _symmetry_equiv_pos_site_id
 _symmetry_equiv_pos_as_xyz
  1  'x, y, z'
loop_
 _atom_site_type_symbol
 _atom_site_label
 _atom_site_symmetry_multiplicity
 _atom_site_fract_x
 _atom_site_fract_y
 _atom_site_fract_z
 _atom_site_occupancy
  Ba  Ba0  1  0.49999998  0.49999998  0.49999998  1
  Pt  Pt1  1  0.00000000  0.00000000  0.00000000  1
  H  H2  1  0.77365297  0.77365297  0.22634699  1
  H  H3  1  0.77365297  0.22634699  0.22634699  1
  H  H4  1  0.22634699  0.22634699  0.77365297  1
  H  H5  1  0.77365297  0.22634699  0.77365297  1
  H  H6  1  0.22634699  0.77365297  0.22634699  1
  H  H7  1  0.22634699  0.77365297  0.77365297  1
