# generated using pymatgen
data_V6O5F7
_symmetry_space_group_name_H-M   'P 1'
_cell_length_a   5.60578394
_cell_length_b   5.61880016
_cell_length_c   7.37012100
_cell_angle_alpha   71.87203979
_cell_angle_beta   71.90181732
_cell_angle_gamma   71.59610748
_symmetry_Int_Tables_number   1
_chemical_formula_structural   V6O5F7
_chemical_formula_sum   'V6 O5 F7'
_cell_volume   203.44553051
_cell_formula_units_Z   1
loop_
 _symmetry_equiv_pos_site_id
 _symmetry_equiv_pos_as_xyz
  1  'x, y, z'
loop_
 _atom_site_type_symbol
 _atom_site_label
 _atom_site_symmetry_multiplicity
 _atom_site_fract_x
 _atom_site_fract_y
 _atom_site_fract_z
 _atom_site_occupancy
  V  V0  1  0.50000000  0.49999999  0.50000000  1
  V  V1  1  0.50000000  0.49999999  -0.00000001  1
  V  V2  1  0.18067400  0.15075900  0.33247601  1
  V  V3  1  0.17460200  0.16879500  0.82872302  1
  V  V4  1  0.82539800  0.83120499  0.17127698  1
  V  V5  1  0.81932600  0.84924099  0.66752399  1
  O  O6  1  0.47371600  0.85526999  0.33487298  1
  O  O7  1  0.52628400  0.14473000  0.66512702  1
  O  O8  1  0.19271700  0.80437899  0.00368296  1
  F  F9  1  0.87303200  0.45897899  0.33304201  1
  O  O10  1  0.06664600  0.06726100  0.63096801  1
  F  F11  1  0.40114500  0.39528699  0.29714400  1
  F  F12  1  0.73051400  0.73315699  0.96544401  1
  F  F13  1  0.59885500  0.60471299  0.70285600  1
  O  O14  1  0.26948600  0.26684300  0.03455599  1
  F  F15  1  0.93335400  0.93273899  0.36903199  1
  F  F16  1  0.12696800  0.54102099  0.66695799  1
  F  F17  1  0.80728300  0.19562100  0.99631704  1
