# generated using pymatgen
data_K2AgClF4
_symmetry_space_group_name_H-M   'P 1'
_cell_length_a   6.58008194
_cell_length_b   6.89982367
_cell_length_c   10.27382088
_cell_angle_alpha   77.47980499
_cell_angle_beta   71.32283783
_cell_angle_gamma   61.52145004
_symmetry_Int_Tables_number   1
_chemical_formula_structural   K2AgClF4
_chemical_formula_sum   'K4 Ag2 Cl2 F8'
_cell_volume   387.26031596
_cell_formula_units_Z   2
loop_
 _symmetry_equiv_pos_site_id
 _symmetry_equiv_pos_as_xyz
  1  'x, y, z'
loop_
 _atom_site_type_symbol
 _atom_site_label
 _atom_site_symmetry_multiplicity
 _atom_site_fract_x
 _atom_site_fract_y
 _atom_site_fract_z
 _atom_site_occupancy
  K  K0  1  0.27501504  0.80979297  0.45203998  1
  F  F1  1  0.53684804  0.69020697  0.04795996  1
  K  K2  1  0.72498502  0.19020699  0.54796000  1
  K  K3  1  0.46315202  0.30979299  0.95204002  1
  F  F4  1  0.01215501  0.15612499  0.14183400  1
  Cl  Cl5  1  0.31011402  0.34387499  0.35816599  1
  F  F6  1  0.98784506  0.84387497  0.85816598  1
  Cl  Cl7  1  0.68988604  0.65612498  0.64183398  1
  K  K8  1  0.06013903  0.66159298  0.14228598  1
  Ag  Ag9  1  0.86401805  0.83840697  0.35771396  1
  F  F10  1  0.93986104  0.33840699  0.85771400  1
  Ag  Ag11  1  0.13598201  0.16159299  0.64228602  1
  F  F12  1  0.76897104  0.56404098  0.31283697  1
  F  F13  1  0.64584905  0.93595897  0.18716296  1
  F  F14  1  0.23102902  0.43595898  0.68716301  1
  F  F15  1  0.35415101  0.06404100  0.81283702  1
