# generated using pymatgen
data_Rb2NaV3AgO9
_symmetry_space_group_name_H-M   'P 1'
_cell_length_a   5.86544895
_cell_length_b   5.86544895
_cell_length_c   7.99248075
_cell_angle_alpha   93.38131714
_cell_angle_beta   108.89308167
_cell_angle_gamma   118.58122253
_symmetry_Int_Tables_number   1
_chemical_formula_structural   Rb2NaV3AgO9
_chemical_formula_sum   'Rb2 Na1 V3 Ag1 O9'
_cell_volume   220.75235314
_cell_formula_units_Z   1
loop_
 _symmetry_equiv_pos_site_id
 _symmetry_equiv_pos_as_xyz
  1  'x, y, z'
loop_
 _atom_site_type_symbol
 _atom_site_label
 _atom_site_symmetry_multiplicity
 _atom_site_fract_x
 _atom_site_fract_y
 _atom_site_fract_z
 _atom_site_occupancy
  Rb  Rb0  1  0.50000002  0.00000000  0.50000002  1
  Ag  Ag1  1  0.00000000  0.00000000  0.00000000  1
  V  V2  1  0.50000002  0.00000000  0.00000000  1
  Na  Na3  1  0.00000001  0.50000002  -0.00000001  1
  V  V4  1  0.30542402  0.43303402  0.73845801  1
  V  V5  1  0.69457604  0.56696603  0.26154200  1
  O  O6  1  0.49888003  0.28584101  0.78472102  1
  O  O7  1  0.50112003  0.71415903  0.21527899  1
  O  O8  1  0.13199801  0.37770002  0.50969801  1
  O  O9  1  0.86800205  0.62230003  0.49030200  1
  O  O10  1  0.05372001  0.29736201  0.83878702  1
  O  O11  1  0.54142504  0.78506704  0.83878701  1
  O  O12  1  0.94628005  0.70263803  0.16121299  1
  O  O13  1  0.45857502  0.21493301  0.16121300  1
  Rb  Rb14  1  0.11047502  0.79060604  0.90108101  1
  O  O15  1  0.88952504  0.20939401  0.09891900  1
