# generated using pymatgen
data_LiEuB2H5N
_symmetry_space_group_name_H-M   'P 1'
_cell_length_a   4.01024294
_cell_length_b   5.33098888
_cell_length_c   5.33098888
_cell_angle_alpha   90.00000000
_cell_angle_beta   90.00000000
_cell_angle_gamma   90.00000000
_symmetry_Int_Tables_number   1
_chemical_formula_structural   LiEuB2H5N
_chemical_formula_sum   'Li1 Eu1 B2 H5 N1'
_cell_volume   113.96886854
_cell_formula_units_Z   1
loop_
 _symmetry_equiv_pos_site_id
 _symmetry_equiv_pos_as_xyz
  1  'x, y, z'
loop_
 _atom_site_type_symbol
 _atom_site_label
 _atom_site_symmetry_multiplicity
 _atom_site_fract_x
 _atom_site_fract_y
 _atom_site_fract_z
 _atom_site_occupancy
  Eu  Eu0  1  0.92230301  0.20841800  0.70841802  1
  H  H1  1  0.92230301  0.79158202  0.29158201  1
  H  H2  1  0.50000001  0.50000001  0.50000001  1
  H  H3  1  0.07769700  0.29158201  0.20841800  1
  B  B4  1  0.07769700  0.70841802  0.79158202  1
  Li  Li5  1  0.50000001  0.00000000  -0.00000000  1
  H  H6  1  0.44554501  0.00000000  0.50000001  1
  H  H7  1  0.55445501  0.50000001  -0.00000000  1
  N  N8  1  0.00000000  0.00000000  0.00000000  1
  B  B9  1  0.00000000  0.50000001  0.50000001  1
