# generated using pymatgen
data_Ce5Sn3Pt
_symmetry_space_group_name_H-M   'P 1'
_cell_length_a   6.78232288
_cell_length_b   9.27788162
_cell_length_c   9.27788162
_cell_angle_alpha   120.00000000
_cell_angle_beta   90.00000000
_cell_angle_gamma   90.00000000
_symmetry_Int_Tables_number   1
_chemical_formula_structural   Ce5Sn3Pt
_chemical_formula_sum   'Ce10 Sn6 Pt2'
_cell_volume   505.59962939
_cell_formula_units_Z   2
loop_
 _symmetry_equiv_pos_site_id
 _symmetry_equiv_pos_as_xyz
  1  'x, y, z'
loop_
 _atom_site_type_symbol
 _atom_site_label
 _atom_site_symmetry_multiplicity
 _atom_site_fract_x
 _atom_site_fract_y
 _atom_site_fract_z
 _atom_site_occupancy
  Ce  Ce0  1  0.75000001  0.72974002  0.72973997  1
  Ce  Ce1  1  0.25000000  0.27026001  0.27025999  1
  Ce  Ce2  1  0.75000001  0.00000000  0.27026000  1
  Ce  Ce3  1  0.25000000  1.00000002  0.72973996  1
  Ce  Ce4  1  0.75000001  0.27026001  -0.00000001  1
  Ce  Ce5  1  0.25000000  0.72974002  -0.00000002  1
  Ce  Ce6  1  0.00000000  0.66666668  0.33333331  1
  Ce  Ce7  1  1.00000002  0.33333334  0.66666665  1
  Ce  Ce8  1  0.50000001  0.33333334  0.66666665  1
  Ce  Ce9  1  0.50000001  0.66666668  0.33333331  1
  Pt  Pt10  1  0.00000000  0.00000000  0.00000000  1
  Pt  Pt11  1  0.50000001  0.00000000  -0.00000000  1
  Sn  Sn12  1  0.75000001  0.38085501  0.38085499  1
  Sn  Sn13  1  0.25000000  0.61914502  0.61914498  1
  Sn  Sn14  1  0.75000001  1.00000002  0.61914496  1
  Sn  Sn15  1  0.25000000  1.00000002  0.38085497  1
  Sn  Sn16  1  0.75000001  0.61914502  0.99999997  1
  Sn  Sn17  1  0.25000000  0.38085501  -0.00000001  1
