# generated using pymatgen
data_NaB(RhC)2
_symmetry_space_group_name_H-M   'P 1'
_cell_length_a   3.51228809
_cell_length_b   3.51228809
_cell_length_c   5.77805090
_cell_angle_alpha   107.69402313
_cell_angle_beta   107.69402313
_cell_angle_gamma   90.00000000
_symmetry_Int_Tables_number   1
_chemical_formula_structural   NaB(RhC)2
_chemical_formula_sum   'Na1 B1 Rh2 C2'
_cell_volume   64.35861156
_cell_formula_units_Z   1
loop_
 _symmetry_equiv_pos_site_id
 _symmetry_equiv_pos_as_xyz
  1  'x, y, z'
loop_
 _atom_site_type_symbol
 _atom_site_label
 _atom_site_symmetry_multiplicity
 _atom_site_fract_x
 _atom_site_fract_y
 _atom_site_fract_z
 _atom_site_occupancy
  Na  Na0  1  0.00000000  0.00000000  0.00000000  1
  Rh  Rh1  1  0.75000000  0.25000000  0.50000003  1
  Rh  Rh2  1  0.25000002  0.74999999  0.50000003  1
  C  C3  1  0.35723601  0.35723600  0.71447202  1
  B  B4  1  0.64276402  0.64276400  0.28552804  1
  C  C5  1  0.50000001  0.50000000  0.00000003  1
