# generated using pymatgen
data_MgPt
_symmetry_space_group_name_H-M   'P 1'
_cell_length_a   3.14947891
_cell_length_b   4.28998995
_cell_length_c   7.61207008
_cell_angle_alpha   90.00000000
_cell_angle_beta   90.00000000
_cell_angle_gamma   90.00000000
_symmetry_Int_Tables_number   1
_chemical_formula_structural   MgPt
_chemical_formula_sum   'Mg2 Pt2'
_cell_volume   102.84845157
_cell_formula_units_Z   2
loop_
 _symmetry_equiv_pos_site_id
 _symmetry_equiv_pos_as_xyz
  1  'x, y, z'
loop_
 _atom_site_type_symbol
 _atom_site_label
 _atom_site_symmetry_multiplicity
 _atom_site_fract_x
 _atom_site_fract_y
 _atom_site_fract_z
 _atom_site_occupancy
  Pt  Pt0  1  0.50000001  0.00000000  0.56405999  1
  Pt  Pt1  1  0.00000000  0.50000001  0.44518300  1
  Mg  Mg2  1  0.00000000  0.00000000  0.21787000  1
  Mg  Mg3  1  0.50000001  0.50000001  0.77288699  1
