# generated using pymatgen
data_K2(ZnAs)5
_symmetry_space_group_name_H-M   'P 1'
_cell_length_a   5.33743477
_cell_length_b   6.91794920
_cell_length_c   6.91794920
_cell_angle_alpha   104.30313110
_cell_angle_beta   90.00000000
_cell_angle_gamma   90.00000000
_symmetry_Int_Tables_number   1
_chemical_formula_structural   K2(ZnAs)5
_chemical_formula_sum   'K2 Zn5 As5'
_cell_volume   247.52102502
_cell_formula_units_Z   1
loop_
 _symmetry_equiv_pos_site_id
 _symmetry_equiv_pos_as_xyz
  1  'x, y, z'
loop_
 _atom_site_type_symbol
 _atom_site_label
 _atom_site_symmetry_multiplicity
 _atom_site_fract_x
 _atom_site_fract_y
 _atom_site_fract_z
 _atom_site_occupancy
  K  K0  1  0.75000003  0.66837798  0.66837796  1
  K  K1  1  0.25000001  0.33162199  0.33162198  1
  Zn  Zn2  1  0.50000002  0.20503499  0.79496498  1
  Zn  Zn3  1  -0.00000000  0.79496498  0.20503496  1
  Zn  Zn4  1  0.25000001  0.92161997  0.92161994  1
  As  As5  1  0.75000003  0.07838000  0.07838000  1
  As  As6  1  0.25000001  0.91946597  0.53584395  1
  As  As7  1  0.75000003  0.08053400  0.46415599  1
  As  As8  1  0.25000001  0.53584399  0.91946596  1
  As  As9  1  0.75000003  0.46415599  0.08053398  1
  Zn  Zn10  1  -0.00000000  0.20503499  0.79496498  1
  Zn  Zn11  1  0.50000002  0.79496498  0.20503496  1
