# generated using pymatgen
data_Ba5Yb3
_symmetry_space_group_name_H-M   'P 1'
_cell_length_a   6.65840197
_cell_length_b   8.24872780
_cell_length_c   8.24872684
_cell_angle_alpha   120.00000000
_cell_angle_beta   90.00000000
_cell_angle_gamma   90.00000000
_symmetry_Int_Tables_number   1
_chemical_formula_structural   Ba5Yb3
_chemical_formula_sum   'Ba5 Yb3'
_cell_volume   392.35079440
_cell_formula_units_Z   1
loop_
 _symmetry_equiv_pos_site_id
 _symmetry_equiv_pos_as_xyz
  1  'x, y, z'
loop_
 _atom_site_type_symbol
 _atom_site_label
 _atom_site_symmetry_multiplicity
 _atom_site_fract_x
 _atom_site_fract_y
 _atom_site_fract_z
 _atom_site_occupancy
  Ba  Ba0  1  0.25000000  0.66666666  0.33333330  1
  Ba  Ba1  1  0.75000000  0.33333333  0.66666667  1
  Ba  Ba2  1  0.75000000  0.83572299  0.16427795  1
  Ba  Ba3  1  0.75000000  0.32855500  0.16427798  1
  Yb  Yb4  1  0.75000000  0.83572299  0.67144597  1
  Yb  Yb5  1  0.25000000  0.16427700  0.83572202  1
  Ba  Ba6  1  0.25000000  0.67144499  0.83572198  1
  Yb  Yb7  1  0.25000000  0.16427700  0.32855400  1
