# generated using pymatgen
data_Lu6CuGe7
_symmetry_space_group_name_H-M   'P 1'
_cell_length_a   4.16472578
_cell_length_b   5.54018831
_cell_length_c   12.76628780
_cell_angle_alpha   84.74297333
_cell_angle_beta   80.61229706
_cell_angle_gamma   67.92221069
_symmetry_Int_Tables_number   1
_chemical_formula_structural   Lu6CuGe7
_chemical_formula_sum   'Lu6 Cu1 Ge7'
_cell_volume   269.15852818
_cell_formula_units_Z   1
loop_
 _symmetry_equiv_pos_site_id
 _symmetry_equiv_pos_as_xyz
  1  'x, y, z'
loop_
 _atom_site_type_symbol
 _atom_site_label
 _atom_site_symmetry_multiplicity
 _atom_site_fract_x
 _atom_site_fract_y
 _atom_site_fract_z
 _atom_site_occupancy
  Lu  Lu0  1  0.46972396  0.68027004  0.38028202  1
  Lu  Lu1  1  0.60206696  0.71727004  0.07859601  1
  Lu  Lu2  1  0.74697897  0.73365804  0.77238403  1
  Lu  Lu3  1  0.53027600  0.31973002  0.61971802  1
  Lu  Lu4  1  0.39793299  0.28273002  0.92140403  1
  Lu  Lu5  1  0.25302099  0.26634201  0.22761601  1
  Ge  Ge6  1  0.86380298  0.72911104  0.54328302  1
  Ge  Ge7  1  0.95437297  0.85522605  0.23602802  1
  Ge  Ge8  1  0.88603103  0.15187001  0.07606800  1
  Ge  Ge9  1  0.11396893  0.84813005  0.92393204  1
  Ge  Ge10  1  0.13619698  0.27088902  0.45671702  1
  Ge  Ge11  1  0.04562699  0.14477401  0.76397202  1
  Ge  Ge12  1  0.75245903  0.09256701  0.40251501  1
  Cu  Cu13  1  0.24754093  0.90743305  0.59748503  1
