# generated using pymatgen
data_Eu5Mg
_symmetry_space_group_name_H-M   'P 1'
_cell_length_a   5.94541883
_cell_length_b   6.31161213
_cell_length_c   6.33622789
_cell_angle_alpha   60.12842941
_cell_angle_beta   90.00000000
_cell_angle_gamma   90.00000000
_symmetry_Int_Tables_number   1
_chemical_formula_structural   Eu5Mg
_chemical_formula_sum   'Eu5 Mg1'
_cell_volume   206.17915805
_cell_formula_units_Z   1
loop_
 _symmetry_equiv_pos_site_id
 _symmetry_equiv_pos_as_xyz
  1  'x, y, z'
loop_
 _atom_site_type_symbol
 _atom_site_label
 _atom_site_symmetry_multiplicity
 _atom_site_fract_x
 _atom_site_fract_y
 _atom_site_fract_z
 _atom_site_occupancy
  Eu  Eu0  1  0.25000001  0.52093399  0.31916499  1
  Eu  Eu1  1  0.25000001  0.84009899  0.68083499  1
  Mg  Mg2  1  0.75000002  0.15990100  0.31916500  1
  Eu  Eu3  1  0.75000002  0.47906599  0.68083500  1
  Eu  Eu4  1  0.25000001  0.16553500  -0.00000000  1
  Eu  Eu5  1  0.75000002  0.83446499  -0.00000001  1
