# generated using pymatgen
data_Rb(HgO)3
_symmetry_space_group_name_H-M   'P 1'
_cell_length_a   6.23971367
_cell_length_b   6.23971367
_cell_length_c   6.26062965
_cell_angle_alpha   60.11045456
_cell_angle_beta   60.11045456
_cell_angle_gamma   60.00000000
_symmetry_Int_Tables_number   1
_chemical_formula_structural   Rb(HgO)3
_chemical_formula_sum   'Rb1 Hg3 O3'
_cell_volume   172.64554954
_cell_formula_units_Z   1
loop_
 _symmetry_equiv_pos_site_id
 _symmetry_equiv_pos_as_xyz
  1  'x, y, z'
loop_
 _atom_site_type_symbol
 _atom_site_label
 _atom_site_symmetry_multiplicity
 _atom_site_fract_x
 _atom_site_fract_y
 _atom_site_fract_z
 _atom_site_occupancy
  Rb  Rb0  1  0.50000000  0.50000002  0.50000002  1
  Hg  Hg1  1  0.00000000  0.00000000  0.00000000  1
  Hg  Hg2  1  0.23474200  0.23474201  0.29577401  1
  Hg  Hg3  1  0.76525801  0.76525803  0.70422603  1
  O  O4  1  -0.00000001  0.50000002  0.50000002  1
  O  O5  1  0.00000000  0.00000000  0.50000001  1
  O  O6  1  0.49999999  1.00000004  0.50000002  1
