# generated using pymatgen
data_Ce(Mn2Sb)2
_symmetry_space_group_name_H-M   'P 1'
_cell_length_a   4.59343481
_cell_length_b   7.77201986
_cell_length_c   9.18512344
_cell_angle_alpha   90.00000000
_cell_angle_beta   90.00000000
_cell_angle_gamma   90.00000000
_symmetry_Int_Tables_number   1
_chemical_formula_structural   Ce(Mn2Sb)2
_chemical_formula_sum   'Ce2 Mn8 Sb4'
_cell_volume   327.91135558
_cell_formula_units_Z   2
loop_
 _symmetry_equiv_pos_site_id
 _symmetry_equiv_pos_as_xyz
  1  'x, y, z'
loop_
 _atom_site_type_symbol
 _atom_site_label
 _atom_site_symmetry_multiplicity
 _atom_site_fract_x
 _atom_site_fract_y
 _atom_site_fract_z
 _atom_site_occupancy
  Ce  Ce0  1  0.00000000  0.50000001  0.27001599  1
  Ce  Ce1  1  0.50000002  0.00000000  0.72998396  1
  Mn  Mn2  1  0.50000002  0.50000001  0.63372097  1
  Mn  Mn3  1  0.00000000  0.30138801  0.88379696  1
  Mn  Mn4  1  0.00000000  0.69861201  0.88379696  1
  Mn  Mn5  1  0.50000002  0.80138801  0.11620299  1
  Mn  Mn6  1  0.00000000  0.00000000  0.36627898  1
  Mn  Mn7  1  0.50000002  0.19861200  0.11620299  1
  Sb  Sb8  1  0.00000000  0.72878701  0.58789097  1
  Mn  Mn9  1  0.50000002  0.50000001  0.95237695  1
  Sb  Sb10  1  0.00000000  0.27121300  0.58789097  1
  Sb  Sb11  1  0.50000002  0.77121301  0.41210898  1
  Mn  Mn12  1  0.00000000  0.00000000  0.04762300  1
  Sb  Sb13  1  0.50000002  0.22878700  0.41210898  1
