# generated using pymatgen
data_SrIn2
_symmetry_space_group_name_H-M   'P 1'
_cell_length_a   5.21492004
_cell_length_b   5.21492052
_cell_length_c   8.43526554
_cell_angle_alpha   90.00000000
_cell_angle_beta   90.00000000
_cell_angle_gamma   119.99999237
_symmetry_Int_Tables_number   1
_chemical_formula_structural   SrIn2
_chemical_formula_sum   'Sr2 In4'
_cell_volume   198.66655995
_cell_formula_units_Z   2
loop_
 _symmetry_equiv_pos_site_id
 _symmetry_equiv_pos_as_xyz
  1  'x, y, z'
loop_
 _atom_site_type_symbol
 _atom_site_label
 _atom_site_symmetry_multiplicity
 _atom_site_fract_x
 _atom_site_fract_y
 _atom_site_fract_z
 _atom_site_occupancy
  Sr  Sr0  1  0.00000000  0.00000000  0.75000004  1
  Sr  Sr1  1  0.00000000  0.00000000  0.25000001  1
  In  In2  1  0.66666664  0.33333333  0.54885303  1
  In  In3  1  0.33333329  0.66666667  0.04885300  1
  In  In4  1  0.33333329  0.66666667  0.45114702  1
  In  In5  1  0.66666664  0.33333333  0.95114705  1
