# generated using pymatgen
data_Ce3Pr(InCu)4
_symmetry_space_group_name_H-M   'P 1'
_cell_length_a   4.46605396
_cell_length_b   7.24943686
_cell_length_c   7.83019114
_cell_angle_alpha   90.00000000
_cell_angle_beta   90.00000000
_cell_angle_gamma   90.00000000
_symmetry_Int_Tables_number   1
_chemical_formula_structural   Ce3Pr(InCu)4
_chemical_formula_sum   'Ce3 Pr1 In4 Cu4'
_cell_volume   253.51321388
_cell_formula_units_Z   1
loop_
 _symmetry_equiv_pos_site_id
 _symmetry_equiv_pos_as_xyz
  1  'x, y, z'
loop_
 _atom_site_type_symbol
 _atom_site_label
 _atom_site_symmetry_multiplicity
 _atom_site_fract_x
 _atom_site_fract_y
 _atom_site_fract_z
 _atom_site_occupancy
  Ce  Ce0  1  0.25000000  0.00957100  0.30771799  1
  Ce  Ce1  1  0.25000000  0.50957101  0.19228200  1
  Pr  Pr2  1  0.75000001  0.99042902  0.69228199  1
  Ce  Ce3  1  0.75000001  0.49042901  0.80771799  1
  In  In4  1  0.25000000  0.16600700  0.92485298  1
  In  In5  1  0.25000000  0.66600701  0.57514699  1
  In  In6  1  0.75000001  0.83399302  0.07514700  1
  In  In7  1  0.75000001  0.33399301  0.42485299  1
  Cu  Cu8  1  0.25000000  0.28675801  0.60005299  1
  Cu  Cu9  1  0.25000000  0.78675802  0.89994698  1
  Cu  Cu10  1  0.75000001  0.71324201  0.39994699  1
  Cu  Cu11  1  0.75000001  0.21324200  0.10005300  1
