# generated using pymatgen
data_TbZr(SbPd)2
_symmetry_space_group_name_H-M   'P 1'
_cell_length_a   5.34544611
_cell_length_b   5.34570313
_cell_length_c   5.34570312
_cell_angle_alpha   91.73399353
_cell_angle_beta   119.99840546
_cell_angle_gamma   60.00159073
_symmetry_Int_Tables_number   1
_chemical_formula_structural   TbZr(SbPd)2
_chemical_formula_sum   'Tb1 Zr1 Sb2 Pd2'
_cell_volume   109.54316828
_cell_formula_units_Z   1
loop_
 _symmetry_equiv_pos_site_id
 _symmetry_equiv_pos_as_xyz
  1  'x, y, z'
loop_
 _atom_site_type_symbol
 _atom_site_label
 _atom_site_symmetry_multiplicity
 _atom_site_fract_x
 _atom_site_fract_y
 _atom_site_fract_z
 _atom_site_occupancy
  Tb  Tb0  1  0.74999997  0.36468800  0.86468799  1
  Zr  Zr1  1  0.25000000  0.63531201  0.13531202  1
  Sb  Sb2  1  0.00000001  0.50000001  0.50000003  1
  Pd  Pd3  1  0.50000000  1.00000001  0.00000002  1
  Sb  Sb4  1  0.50000000  1.00000001  0.50000003  1
  Pd  Pd5  1  0.00000000  0.00000000  0.50000001  1
