# generated using pymatgen
data_Te
_symmetry_space_group_name_H-M   'P 1'
_cell_length_a   6.98297071
_cell_length_b   6.98297071
_cell_length_c   6.98297071
_cell_angle_alpha   109.47122192
_cell_angle_beta   109.47122192
_cell_angle_gamma   109.47122192
_symmetry_Int_Tables_number   1
_chemical_formula_structural   Te
_chemical_formula_sum   Te8
_cell_volume   262.11914977
_cell_formula_units_Z   8
loop_
 _symmetry_equiv_pos_site_id
 _symmetry_equiv_pos_as_xyz
  1  'x, y, z'
loop_
 _atom_site_type_symbol
 _atom_site_label
 _atom_site_symmetry_multiplicity
 _atom_site_fract_x
 _atom_site_fract_y
 _atom_site_fract_z
 _atom_site_occupancy
  Te  Te0  1  0.00000000  0.00000000  0.00000000  1
  Te  Te1  1  0.50000000  0.00000000  0.50000001  1
  Te  Te2  1  0.50000003  0.50000002  1.00000003  1
  Te  Te3  1  0.00000003  0.50000002  0.50000003  1
  Te  Te4  1  1.00000007  1.00000003  0.34645708  1
  Te  Te5  1  0.00000002  0.34645701  1.00000001  1
  Te  Te6  1  0.65354304  0.65354302  0.65354305  1
  Te  Te7  1  0.34645706  1.00000003  1.00000006  1
