# generated using pymatgen
data_Ce3HoAl8
_symmetry_space_group_name_H-M   'P 1'
_cell_length_a   5.43598795
_cell_length_b   5.43598747
_cell_length_c   8.84378147
_cell_angle_alpha   90.00000000
_cell_angle_beta   90.00000000
_cell_angle_gamma   120.00000000
_symmetry_Int_Tables_number   1
_chemical_formula_structural   Ce3HoAl8
_chemical_formula_sum   'Ce3 Ho1 Al8'
_cell_volume   226.32137182
_cell_formula_units_Z   1
loop_
 _symmetry_equiv_pos_site_id
 _symmetry_equiv_pos_as_xyz
  1  'x, y, z'
loop_
 _atom_site_type_symbol
 _atom_site_label
 _atom_site_symmetry_multiplicity
 _atom_site_fract_x
 _atom_site_fract_y
 _atom_site_fract_z
 _atom_site_occupancy
  Ce  Ce0  1  0.66666665  0.33333332  0.56274297  1
  Ce  Ce1  1  0.33333329  0.66666663  0.43725698  1
  Ce  Ce2  1  0.33333329  0.66666663  0.06274300  1
  Ho  Ho3  1  0.66666665  0.33333332  0.93725695  1
  Al  Al4  1  0.00000000  0.00000000  0.49999997  1
  Al  Al5  1  0.00000000  0.00000000  0.00000000  1
  Al  Al6  1  0.17154398  0.34308798  0.74999996  1
  Al  Al7  1  0.17154394  0.82845596  0.74999996  1
  Al  Al8  1  0.65691194  0.82845596  0.74999996  1
  Al  Al9  1  0.82845596  0.65691197  0.24999999  1
  Al  Al10  1  0.82845599  0.17154399  0.24999999  1
  Al  Al11  1  0.34308799  0.17154399  0.24999999  1
