# generated using pymatgen
data_Ce2NiGe3
_symmetry_space_group_name_H-M   'P 1'
_cell_length_a   4.09912014
_cell_length_b   4.15712118
_cell_length_c   8.00995350
_cell_angle_alpha   105.04022980
_cell_angle_beta   104.82553864
_cell_angle_gamma   90.00000000
_symmetry_Int_Tables_number   1
_chemical_formula_structural   Ce2NiGe3
_chemical_formula_sum   'Ce2 Ni1 Ge3'
_cell_volume   127.10716689
_cell_formula_units_Z   1
loop_
 _symmetry_equiv_pos_site_id
 _symmetry_equiv_pos_as_xyz
  1  'x, y, z'
loop_
 _atom_site_type_symbol
 _atom_site_label
 _atom_site_symmetry_multiplicity
 _atom_site_fract_x
 _atom_site_fract_y
 _atom_site_fract_z
 _atom_site_occupancy
  Ce  Ce0  1  0.74474299  0.24474299  0.48948603  1
  Ce  Ce1  1  0.00525700  0.00525700  0.01051400  1
  Ni  Ni2  1  0.16351102  0.66351198  0.32702303  1
  Ge  Ge3  1  0.58648900  0.58648799  0.17297703  1
  Ge  Ge4  1  0.32818402  0.82818298  0.65636704  1
  Ge  Ge5  1  0.42181600  0.42181699  0.84363303  1
