# generated using pymatgen
data_VFe11Se6
_symmetry_space_group_name_H-M   'P 1'
_cell_length_a   3.65278697
_cell_length_b   5.94335222
_cell_length_c   12.45142460
_cell_angle_alpha   100.03414917
_cell_angle_beta   90.00000000
_cell_angle_gamma   90.00000000
_symmetry_Int_Tables_number   1
_chemical_formula_structural   VFe11Se6
_chemical_formula_sum   'V1 Fe11 Se6'
_cell_volume   266.18317107
_cell_formula_units_Z   1
loop_
 _symmetry_equiv_pos_site_id
 _symmetry_equiv_pos_as_xyz
  1  'x, y, z'
loop_
 _atom_site_type_symbol
 _atom_site_label
 _atom_site_symmetry_multiplicity
 _atom_site_fract_x
 _atom_site_fract_y
 _atom_site_fract_z
 _atom_site_occupancy
  V  V0  1  0.25000000  0.64283802  0.63708003  1
  Fe  Fe1  1  0.75000001  0.35716201  0.36292002  1
  Fe  Fe2  1  0.25000000  0.89046203  0.42415303  1
  Fe  Fe3  1  0.75000001  0.10953800  0.57584701  1
  Se  Se4  1  0.25000000  0.47220202  0.22462202  1
  Fe  Fe5  1  0.75000001  0.52779802  0.77537803  1
  Se  Se6  1  0.75000001  0.97829703  0.14099003  1
  Fe  Fe7  1  0.25000000  0.02170300  0.85901002  1
  Fe  Fe8  1  0.25000000  0.49130702  0.92161303  1
  Fe  Fe9  1  0.75000001  0.50869302  0.07838702  1
  Fe  Fe10  1  0.25000000  0.21876601  0.04926801  1
  Fe  Fe11  1  0.75000001  0.78123403  0.95073204  1
  Fe  Fe12  1  0.25000000  0.10746000  0.27365701  1
  Se  Se13  1  0.75000001  0.89254003  0.72634304  1
  Se  Se14  1  0.25000000  0.30017901  0.50153802  1
  Se  Se15  1  0.75000001  0.69982102  0.49846203  1
  Se  Se16  1  0.25000000  0.28983501  0.73121302  1
  Fe  Fe17  1  0.75000001  0.71016502  0.26878703  1
