# generated using pymatgen
data_Te
_symmetry_space_group_name_H-M   'P 1'
_cell_length_a   4.50940800
_cell_length_b   4.50940800
_cell_length_c   34.35303879
_cell_angle_alpha   86.23678589
_cell_angle_beta   86.23678589
_cell_angle_gamma   60.00000000
_symmetry_Int_Tables_number   1
_chemical_formula_structural   Te
_chemical_formula_sum   Te17
_cell_volume   603.23154347
_cell_formula_units_Z   17
loop_
 _symmetry_equiv_pos_site_id
 _symmetry_equiv_pos_as_xyz
  1  'x, y, z'
loop_
 _atom_site_type_symbol
 _atom_site_label
 _atom_site_symmetry_multiplicity
 _atom_site_fract_x
 _atom_site_fract_y
 _atom_site_fract_z
 _atom_site_occupancy
  Te  Te0  1  0.70537203  0.70537200  0.88388401  1
  Te  Te1  1  0.29462801  0.29462800  0.11611600  1
  Te  Te2  1  0.76458103  0.76458101  0.70625701  1
  Te  Te3  1  0.23541901  0.23541900  0.29374300  1
  Te  Te4  1  0.52975002  0.52975000  0.41074901  1
  Te  Te5  1  0.47025002  0.47025000  0.58925101  1
  Te  Te6  1  0.64751203  0.64751200  0.05746501  1
  Te  Te7  1  0.35248802  0.35248800  0.94253501  1
  Te  Te8  1  0.94539104  0.94539101  0.16382702  1
  Te  Te9  1  0.05460900  0.05460900  0.83617300  1
  Te  Te10  1  0.58503403  0.58503400  0.24489801  1
  Te  Te11  1  0.41496602  0.41496600  0.75510201  1
  Te  Te12  1  0.88261804  0.88261801  0.35214701  1
  Te  Te13  1  0.11738201  0.11738200  0.64785300  1
  Te  Te14  1  0.81993404  0.81993401  0.54019701  1
  Te  Te15  1  0.18006601  0.18006600  0.45980300  1
  Te  Te16  1  0.00000000  0.00000000  0.00000000  1
