# generated using pymatgen
data_Ho2Ni7B3
_symmetry_space_group_name_H-M   'P 1'
_cell_length_a   5.12162399
_cell_length_b   5.12162447
_cell_length_c   6.83648109
_cell_angle_alpha   90.00000000
_cell_angle_beta   90.00000000
_cell_angle_gamma   120.00000000
_symmetry_Int_Tables_number   1
_chemical_formula_structural   Ho2Ni7B3
_chemical_formula_sum   'Ho2 Ni7 B3'
_cell_volume   155.30258046
_cell_formula_units_Z   1
loop_
 _symmetry_equiv_pos_site_id
 _symmetry_equiv_pos_as_xyz
  1  'x, y, z'
loop_
 _atom_site_type_symbol
 _atom_site_label
 _atom_site_symmetry_multiplicity
 _atom_site_fract_x
 _atom_site_fract_y
 _atom_site_fract_z
 _atom_site_occupancy
  Ho  Ho0  1  0.00000000  0.00000000  0.49999999  1
  Ho  Ho1  1  0.00000000  0.00000000  0.00000000  1
  Ni  Ni2  1  0.50000003  0.50000001  0.71020499  1
  Ni  Ni3  1  0.50000000  0.00000000  0.71020499  1
  Ni  Ni4  1  1.00000003  0.50000001  0.71020499  1
  Ni  Ni5  1  0.50000003  0.50000001  0.28979500  1
  Ni  Ni6  1  0.50000000  0.00000000  0.28979500  1
  Ni  Ni7  1  1.00000003  0.50000001  0.28979500  1
  Ni  Ni8  1  0.66666669  0.33333334  -0.00000000  1
  B  B9  1  0.33333337  0.66666668  0.99999999  1
  B  B10  1  0.33333337  0.66666668  0.49999999  1
  B  B11  1  0.66666669  0.33333334  0.49999999  1
