# generated using pymatgen
data_TmMg7Ge4
_symmetry_space_group_name_H-M   'P 1'
_cell_length_a   4.57654476
_cell_length_b   7.10785818
_cell_length_c   7.93066120
_cell_angle_alpha   90.00000000
_cell_angle_beta   90.00000000
_cell_angle_gamma   90.00000000
_symmetry_Int_Tables_number   1
_chemical_formula_structural   TmMg7Ge4
_chemical_formula_sum   'Tm1 Mg7 Ge4'
_cell_volume   257.97989733
_cell_formula_units_Z   1
loop_
 _symmetry_equiv_pos_site_id
 _symmetry_equiv_pos_as_xyz
  1  'x, y, z'
loop_
 _atom_site_type_symbol
 _atom_site_label
 _atom_site_symmetry_multiplicity
 _atom_site_fract_x
 _atom_site_fract_y
 _atom_site_fract_z
 _atom_site_occupancy
  Tm  Tm0  1  0.25000001  0.03106700  0.69017298  1
  Mg  Mg1  1  0.25000001  0.53106699  0.80982698  1
  Mg  Mg2  1  0.75000004  0.96893298  0.30982699  1
  Mg  Mg3  1  0.75000004  0.46893299  0.19017300  1
  Mg  Mg4  1  0.25000001  0.15897000  0.06866700  1
  Mg  Mg5  1  0.25000001  0.65896998  0.43133299  1
  Mg  Mg6  1  0.75000004  0.84102998  0.93133298  1
  Mg  Mg7  1  0.75000004  0.34102999  0.56866699  1
  Ge  Ge8  1  0.25000001  0.28201099  0.39064199  1
  Ge  Ge9  1  0.25000001  0.78201098  0.10935800  1
  Ge  Ge10  1  0.75000004  0.71798898  0.60935798  1
  Ge  Ge11  1  0.75000004  0.21798899  0.89064198  1
