# generated using pymatgen
data_FeNi5B2
_symmetry_space_group_name_H-M   'P 1'
_cell_length_a   4.45722342
_cell_length_b   5.01680231
_cell_length_c   6.74363041
_cell_angle_alpha   89.99237823
_cell_angle_beta   88.99906921
_cell_angle_gamma   89.95430756
_symmetry_Int_Tables_number   1
_chemical_formula_structural   FeNi5B2
_chemical_formula_sum   'Fe2 Ni10 B4'
_cell_volume   150.77131996
_cell_formula_units_Z   2
loop_
 _symmetry_equiv_pos_site_id
 _symmetry_equiv_pos_as_xyz
  1  'x, y, z'
loop_
 _atom_site_type_symbol
 _atom_site_label
 _atom_site_symmetry_multiplicity
 _atom_site_fract_x
 _atom_site_fract_y
 _atom_site_fract_z
 _atom_site_occupancy
  Fe  Fe0  1  0.66987905  0.67787701  0.93498806  1
  Ni  Ni1  1  0.83663602  0.18166100  0.56300903  1
  Ni  Ni2  1  0.33717302  0.32177401  0.43066403  1
  Fe  Fe3  1  0.16858005  0.82443802  0.07211704  1
  Ni  Ni4  1  0.32444902  0.31935801  0.06555302  1
  Ni  Ni5  1  0.16937205  0.82085802  0.43774105  1
  Ni  Ni6  1  0.67006405  0.67811301  0.56823005  1
  Ni  Ni7  1  0.82732002  0.17602900  0.92861704  1
  Ni  Ni8  1  0.16387903  0.53694501  0.74797305  1
  Ni  Ni9  1  0.33574601  0.03904000  0.74991702  1
  Ni  Ni10  1  0.83456704  0.45963201  0.24847403  1
  Ni  Ni11  1  0.66126906  0.96380402  0.25107905  1
  B  B12  1  0.93372206  0.87933502  0.74936806  1
  B  B13  1  0.56803203  0.38099701  0.75053404  1
  B  B14  1  0.06500701  0.12087100  0.25688101  1
  B  B15  1  0.43430604  0.61926901  0.24485504  1
