# generated using pymatgen
data_Lu2Al9Si2Ni7
_symmetry_space_group_name_H-M   'P 1'
_cell_length_a   3.39401889
_cell_length_b   9.28296089
_cell_length_c   9.28296089
_cell_angle_alpha   90.00000000
_cell_angle_beta   90.00000000
_cell_angle_gamma   90.00000000
_symmetry_Int_Tables_number   1
_chemical_formula_structural   Lu2Al9Si2Ni7
_chemical_formula_sum   'Lu2 Al9 Si2 Ni7'
_cell_volume   292.47402142
_cell_formula_units_Z   1
loop_
 _symmetry_equiv_pos_site_id
 _symmetry_equiv_pos_as_xyz
  1  'x, y, z'
loop_
 _atom_site_type_symbol
 _atom_site_label
 _atom_site_symmetry_multiplicity
 _atom_site_fract_x
 _atom_site_fract_y
 _atom_site_fract_z
 _atom_site_occupancy
  Lu  Lu0  1  0.00000000  0.17587900  0.67587901  1
  Lu  Lu1  1  0.00000000  0.32412100  0.17587900  1
  Al  Al2  1  1.00000003  0.82412101  0.32412100  1
  Al  Al3  1  0.00000000  0.50000001  0.50000001  1
  Al  Al4  1  0.00000000  0.67587901  0.82412101  1
  Al  Al5  1  0.00000000  0.00000000  0.00000000  1
  Ni  Ni6  1  1.00000003  0.38072700  0.88072701  1
  Ni  Ni7  1  1.00000003  0.11927300  0.38072700  1
  Si  Si8  1  0.00000000  0.88072701  0.61927301  1
  Ni  Ni9  1  1.00000003  0.61927301  0.11927300  1
  Si  Si10  1  0.50000002  0.22003200  0.92737001  1
  Ni  Ni11  1  0.50000002  0.92737001  0.77996801  1
  Al  Al12  1  0.50000002  0.42737000  0.72003201  1
  Al  Al13  1  0.50000002  0.57263001  0.27996800  1
  Al  Al14  1  0.50000002  0.72003201  0.57263001  1
  Al  Al15  1  0.50000002  0.27996800  0.42737000  1
  Ni  Ni16  1  0.50000002  0.07263000  0.22003200  1
  Ni  Ni17  1  0.50000002  0.00000000  0.50000001  1
  Ni  Ni18  1  0.50000002  0.50000001  -0.00000000  1
  Al  Al19  1  0.50000002  0.77996801  0.07263000  1
