# generated using pymatgen
data_Ce(SiPd)2
_symmetry_space_group_name_H-M   'P 1'
_cell_length_a   3.93951011
_cell_length_b   3.93951011
_cell_length_c   6.10424614
_cell_angle_alpha   108.82543945
_cell_angle_beta   108.82543945
_cell_angle_gamma   90.00000000
_symmetry_Int_Tables_number   1
_chemical_formula_structural   Ce(SiPd)2
_chemical_formula_sum   'Ce1 Si2 Pd2'
_cell_volume   84.29655588
_cell_formula_units_Z   1
loop_
 _symmetry_equiv_pos_site_id
 _symmetry_equiv_pos_as_xyz
  1  'x, y, z'
loop_
 _atom_site_type_symbol
 _atom_site_label
 _atom_site_symmetry_multiplicity
 _atom_site_fract_x
 _atom_site_fract_y
 _atom_site_fract_z
 _atom_site_occupancy
  Ce  Ce0  1  0.00000000  0.00000000  0.00000000  1
  Pd  Pd1  1  0.74999995  0.24999999  0.49999997  1
  Pd  Pd2  1  0.24999995  0.74999996  0.49999996  1
  Si  Si3  1  0.61921094  0.61921097  0.23842195  1
  Si  Si4  1  0.38078897  0.38078898  0.76157798  1
