# generated using pymatgen
data_Eu6Ni2Ge3N
_symmetry_space_group_name_H-M   'P 1'
_cell_length_a   4.10789394
_cell_length_b   4.10789394
_cell_length_c   15.34292698
_cell_angle_alpha   90.00000000
_cell_angle_beta   90.00000000
_cell_angle_gamma   90.00000000
_symmetry_Int_Tables_number   1
_chemical_formula_structural   Eu6Ni2Ge3N
_chemical_formula_sum   'Eu6 Ni2 Ge3 N1'
_cell_volume   258.90871147
_cell_formula_units_Z   1
loop_
 _symmetry_equiv_pos_site_id
 _symmetry_equiv_pos_as_xyz
  1  'x, y, z'
loop_
 _atom_site_type_symbol
 _atom_site_label
 _atom_site_symmetry_multiplicity
 _atom_site_fract_x
 _atom_site_fract_y
 _atom_site_fract_z
 _atom_site_occupancy
  Ge  Ge0  1  0.50000001  0.50000001  0.57918600  1
  Ge  Ge1  1  0.00000000  0.00000000  0.41979600  1
  Ge  Ge2  1  0.00000000  0.00000000  0.92282800  1
  N  N3  1  0.50000001  0.50000001  0.07412700  1
  Eu  Eu4  1  0.50000001  0.50000001  0.31902500  1
  Eu  Eu5  1  0.50000001  0.50000001  0.82158100  1
  Eu  Eu6  1  0.00000000  0.00000000  0.17696900  1
  Eu  Eu7  1  0.00000000  0.00000000  0.68127200  1
  Eu  Eu8  1  0.50000001  0.00000000  0.00257800  1
  Ni  Ni9  1  0.50000001  0.00000000  0.50003000  1
  Eu  Eu10  1  0.00000000  0.50000001  0.00257800  1
  Ni  Ni11  1  0.00000000  0.50000001  0.50003000  1
