# generated using pymatgen
data_TaTe2
_symmetry_space_group_name_H-M   'P 1'
_cell_length_a   4.38195992
_cell_length_b   6.43319893
_cell_length_c   6.63174391
_cell_angle_alpha   90.00000000
_cell_angle_beta   90.00000000
_cell_angle_gamma   90.00000000
_symmetry_Int_Tables_number   1
_chemical_formula_structural   TaTe2
_chemical_formula_sum   'Ta2 Te4'
_cell_volume   186.94899229
_cell_formula_units_Z   2
loop_
 _symmetry_equiv_pos_site_id
 _symmetry_equiv_pos_as_xyz
  1  'x, y, z'
loop_
 _atom_site_type_symbol
 _atom_site_label
 _atom_site_symmetry_multiplicity
 _atom_site_fract_x
 _atom_site_fract_y
 _atom_site_fract_z
 _atom_site_occupancy
  Te  Te0  1  0.00000000  0.64708201  0.72394701  1
  Te  Te1  1  0.00000000  0.35291800  0.27605300  1
  Te  Te2  1  0.50000001  0.85291801  0.22394700  1
  Te  Te3  1  0.50000001  0.14708200  0.77605301  1
  Ta  Ta4  1  0.00000000  0.00000000  0.00000000  1
  Ta  Ta5  1  0.50000001  0.50000001  0.50000001  1
