# generated using pymatgen
data_Li4Mn3OF11
_symmetry_space_group_name_H-M   'P 1'
_cell_length_a   5.78016901
_cell_length_b   6.11854649
_cell_length_c   6.16221666
_cell_angle_alpha   98.59381104
_cell_angle_beta   98.49451447
_cell_angle_gamma   97.57975769
_symmetry_Int_Tables_number   1
_chemical_formula_structural   Li4Mn3OF11
_chemical_formula_sum   'Li4 Mn3 O1 F11'
_cell_volume   210.46518172
_cell_formula_units_Z   1
loop_
 _symmetry_equiv_pos_site_id
 _symmetry_equiv_pos_as_xyz
  1  'x, y, z'
loop_
 _atom_site_type_symbol
 _atom_site_label
 _atom_site_symmetry_multiplicity
 _atom_site_fract_x
 _atom_site_fract_y
 _atom_site_fract_z
 _atom_site_occupancy
  Li  Li0  1  0.99026103  0.99696402  0.02199800  1
  Li  Li1  1  0.12204302  0.60223601  0.32637500  1
  Mn  Mn2  1  0.29323800  0.09400500  0.60725302  1
  Li  Li3  1  0.41832002  0.72792101  0.86296702  1
  Mn  Mn4  1  0.59575901  0.36316101  0.15117801  1
  Mn  Mn5  1  0.71294103  0.86537001  0.40569700  1
  Li  Li6  1  0.89677901  0.41805201  0.68287103  1
  F  F7  1  0.77577102  0.57160801  0.40649101  1
  O  O8  1  0.90337501  0.29707200  0.11177902  1
  F  F9  1  0.68810903  0.84511801  0.07689099  1
  F  F10  1  0.35229002  0.54267701  0.14711100  1
  F  F11  1  0.89942300  0.10224200  0.71233904  1
  F  F12  1  0.59356401  0.15192900  0.39692402  1
  F  F13  1  0.46024503  0.81729401  0.57985801  1
  F  F14  1  0.06476403  0.92515902  0.35210599  1
  F  F15  1  0.62510001  0.44933801  0.80433103  1
  F  F16  1  0.17099601  0.39121901  0.56233001  1
  F  F17  1  0.37484800  0.12890200  0.95262303  1
  F  F18  1  0.06217202  0.70973201  0.83887701  1
