# generated using pymatgen
data_La7Cl9
_symmetry_space_group_name_H-M   'P 1'
_cell_length_a   7.75819016
_cell_length_b   8.85340691
_cell_length_c   7.75819016
_cell_angle_alpha   64.01428223
_cell_angle_beta   90.00000000
_cell_angle_gamma   115.98571777
_symmetry_Int_Tables_number   1
_chemical_formula_structural   La7Cl9
_chemical_formula_sum   'La7 Cl9'
_cell_volume   418.25461965
_cell_formula_units_Z   1
loop_
 _symmetry_equiv_pos_site_id
 _symmetry_equiv_pos_as_xyz
  1  'x, y, z'
loop_
 _atom_site_type_symbol
 _atom_site_label
 _atom_site_symmetry_multiplicity
 _atom_site_fract_x
 _atom_site_fract_y
 _atom_site_fract_z
 _atom_site_occupancy
  La  La0  1  0.00000000  0.00000000  0.00000000  1
  Cl  Cl1  1  0.49999999  0.00000000  0.49999999  1
  Cl  Cl2  1  0.79268896  0.27081798  0.02187103  1
  Cl  Cl3  1  0.20731092  0.72918195  0.97812906  1
  Cl  Cl4  1  0.47812996  0.27081998  0.70731001  1
  Cl  Cl5  1  0.29268897  0.27081898  0.20731102  1
  Cl  Cl6  1  0.02186992  0.72918095  0.47813007  1
  Cl  Cl7  1  0.52186991  0.72917995  0.29269007  1
  Cl  Cl8  1  0.70731091  0.72918095  0.79268906  1
  Cl  Cl9  1  0.97812995  0.27081898  0.52187002  1
  La  La10  1  0.24999994  0.49999996  0.75000004  1
  La  La11  1  0.74999993  0.49999996  0.25000005  1
  La  La12  1  0.13756389  0.99999993  0.63756409  1
  La  La13  1  0.86243588  0.99999993  0.36243610  1
  La  La14  1  0.63756388  0.99999993  0.86243609  1
  La  La15  1  0.36243589  0.99999993  0.13756410  1
