# generated using pymatgen
data_SrLi2SN
_symmetry_space_group_name_H-M   'P 1'
_cell_length_a   3.95928597
_cell_length_b   5.80737638
_cell_length_c   7.31729078
_cell_angle_alpha   90.00000000
_cell_angle_beta   90.00000000
_cell_angle_gamma   109.93075562
_symmetry_Int_Tables_number   1
_chemical_formula_structural   SrLi2SN
_chemical_formula_sum   'Sr2 Li4 S2 N2'
_cell_volume   158.16983135
_cell_formula_units_Z   2
loop_
 _symmetry_equiv_pos_site_id
 _symmetry_equiv_pos_as_xyz
  1  'x, y, z'
loop_
 _atom_site_type_symbol
 _atom_site_label
 _atom_site_symmetry_multiplicity
 _atom_site_fract_x
 _atom_site_fract_y
 _atom_site_fract_z
 _atom_site_occupancy
  Sr  Sr0  1  0.45642200  0.91284397  0.75000002  1
  Sr  Sr1  1  0.54357800  0.08715600  0.25000001  1
  Li  Li2  1  0.17381500  0.34762999  0.93918303  1
  Li  Li3  1  0.82618500  0.65236998  0.06081700  1
  Li  Li4  1  0.82618500  0.65236998  0.43918301  1
  Li  Li5  1  0.17381500  0.34762999  0.56081702  1
  S  S6  1  0.73434200  0.46868398  0.75000002  1
  S  S7  1  0.26565800  0.53131598  0.25000001  1
  N  N8  1  0.00000000  0.00000000  0.00000000  1
  N  N9  1  0.00000000  0.00000000  0.50000001  1
