# generated using pymatgen
data_NaV7O12
_symmetry_space_group_name_H-M   'P 1'
_cell_length_a   6.46060848
_cell_length_b   6.46060848
_cell_length_c   6.46060848
_cell_angle_alpha   109.47122192
_cell_angle_beta   109.47122192
_cell_angle_gamma   109.47122192
_symmetry_Int_Tables_number   1
_chemical_formula_structural   NaV7O12
_chemical_formula_sum   'Na1 V7 O12'
_cell_volume   207.58614236
_cell_formula_units_Z   1
loop_
 _symmetry_equiv_pos_site_id
 _symmetry_equiv_pos_as_xyz
  1  'x, y, z'
loop_
 _atom_site_type_symbol
 _atom_site_label
 _atom_site_symmetry_multiplicity
 _atom_site_fract_x
 _atom_site_fract_y
 _atom_site_fract_z
 _atom_site_occupancy
  Na  Na0  1  0.00000000  0.00000000  0.00000000  1
  V  V1  1  0.50000006  1.00000003  0.00000007  1
  V  V2  1  1.00000003  0.50000001  0.00000005  1
  V  V3  1  0.50000003  0.50000001  0.50000003  1
  V  V4  1  1.00000006  1.00000003  0.50000007  1
  V  V5  1  0.50000003  0.50000001  1.00000003  1
  V  V6  1  1.00000003  0.50000001  0.50000005  1
  V  V7  1  0.50000006  1.00000003  0.50000006  1
  O  O8  1  0.30269803  0.47988101  0.17718303  1
  O  O9  1  0.52011905  0.82281702  0.69730205  1
  O  O10  1  0.69730203  0.52011901  0.82281704  1
  O  O11  1  0.87448501  0.17718300  0.69730202  1
  O  O12  1  0.69730205  0.87448502  0.17718306  1
  O  O13  1  0.17718302  0.30269801  0.47988101  1
  O  O14  1  0.17718304  0.69730202  0.87448503  1
  O  O15  1  0.12551505  0.82281702  0.30269804  1
  O  O16  1  0.30269801  0.12551500  0.82281700  1
  O  O17  1  0.82281702  0.30269801  0.12551503  1
  O  O18  1  0.82281704  0.69730202  0.52011905  1
  O  O19  1  0.47988101  0.17718300  0.30269802  1
