# generated using pymatgen
data_NdIn3
_symmetry_space_group_name_H-M   'P 1'
_cell_length_a   5.66851711
_cell_length_b   7.06091022
_cell_length_c   7.06091070
_cell_angle_alpha   60.00000381
_cell_angle_beta   90.00000000
_cell_angle_gamma   90.00000000
_symmetry_Int_Tables_number   1
_chemical_formula_structural   NdIn3
_chemical_formula_sum   'Nd2 In6'
_cell_volume   244.74933433
_cell_formula_units_Z   2
loop_
 _symmetry_equiv_pos_site_id
 _symmetry_equiv_pos_as_xyz
  1  'x, y, z'
loop_
 _atom_site_type_symbol
 _atom_site_label
 _atom_site_symmetry_multiplicity
 _atom_site_fract_x
 _atom_site_fract_y
 _atom_site_fract_z
 _atom_site_occupancy
  In  In0  1  0.74999999  0.65742597  0.17128701  1
  In  In1  1  0.74999999  0.17128699  0.17128700  1
  In  In2  1  0.74999999  0.17128699  0.65742599  1
  In  In3  1  0.25000000  0.34257398  0.82871299  1
  In  In4  1  0.25000000  0.82871296  0.82871300  1
  In  In5  1  0.25000000  0.82871296  0.34257402  1
  Nd  Nd6  1  0.25000000  0.33333332  0.33333333  1
  Nd  Nd7  1  0.74999999  0.66666664  0.66666667  1
