# generated using pymatgen
data_HoTi2(Cr3Ge2)2
_symmetry_space_group_name_H-M   'P 1'
_cell_length_a   5.05287600
_cell_length_b   5.05287600
_cell_length_c   8.30472565
_cell_angle_alpha   90.00000000
_cell_angle_beta   90.00000000
_cell_angle_gamma   120.00000000
_symmetry_Int_Tables_number   1
_chemical_formula_structural   HoTi2(Cr3Ge2)2
_chemical_formula_sum   'Ho1 Ti2 Cr6 Ge4'
_cell_volume   183.62558901
_cell_formula_units_Z   1
loop_
 _symmetry_equiv_pos_site_id
 _symmetry_equiv_pos_as_xyz
  1  'x, y, z'
loop_
 _atom_site_type_symbol
 _atom_site_label
 _atom_site_symmetry_multiplicity
 _atom_site_fract_x
 _atom_site_fract_y
 _atom_site_fract_z
 _atom_site_occupancy
  Ho  Ho0  1  0.00000000  0.00000000  0.00000000  1
  Ge  Ge1  1  0.50000000  1.00000000  0.24856401  1
  Cr  Cr2  1  0.50000000  0.50000000  0.24856401  1
  Cr  Cr3  1  -0.00000000  0.50000000  0.24856401  1
  Cr  Cr4  1  0.50000000  1.00000000  0.75143603  1
  Cr  Cr5  1  0.50000000  0.50000000  0.75143603  1
  Cr  Cr6  1  -0.00000000  0.50000000  0.75143603  1
  Ge  Ge7  1  0.33333333  0.66666667  -0.00000000  1
  Ge  Ge8  1  0.66666667  0.33333333  -0.00000000  1
  Cr  Cr9  1  0.33333333  0.66666667  0.50000002  1
  Ti  Ti10  1  0.66666667  0.33333333  0.50000002  1
  Ge  Ge11  1  0.00000000  0.00000000  0.34266901  1
  Ti  Ti12  1  0.00000000  0.00000000  0.65733103  1
