# generated using pymatgen
data_Li3CrO4
_symmetry_space_group_name_H-M   'P 1'
_cell_length_a   2.93164802
_cell_length_b   2.93164802
_cell_length_c   7.76109266
_cell_angle_alpha   100.88674164
_cell_angle_beta   100.88674164
_cell_angle_gamma   90.00000000
_symmetry_Int_Tables_number   1
_chemical_formula_structural   Li3CrO4
_chemical_formula_sum   'Li3 Cr1 O4'
_cell_volume   64.27977223
_cell_formula_units_Z   1
loop_
 _symmetry_equiv_pos_site_id
 _symmetry_equiv_pos_as_xyz
  1  'x, y, z'
loop_
 _atom_site_type_symbol
 _atom_site_label
 _atom_site_symmetry_multiplicity
 _atom_site_fract_x
 _atom_site_fract_y
 _atom_site_fract_z
 _atom_site_occupancy
  Li  Li0  1  0.30401399  0.30401400  0.60802800  1
  Li  Li1  1  0.05401399  0.55401399  0.10802799  1
  Cr  Cr2  1  0.44598598  0.94598599  0.89197199  1
  Li  Li3  1  0.69598598  0.69598599  0.39197198  1
  O  O4  1  0.84009698  0.84009699  0.68019298  1
  O  O5  1  0.59009699  0.09009700  0.18019299  1
  O  O6  1  0.90990398  0.40990399  0.81980699  1
  O  O7  1  0.15990300  0.15990300  0.31980600  1
