# generated using pymatgen
data_Sc3Ga2
_symmetry_space_group_name_H-M   'P 1'
_cell_length_a   6.87561798
_cell_length_b   7.58794689
_cell_length_c   7.58794689
_cell_angle_alpha   90.00000000
_cell_angle_beta   90.00000000
_cell_angle_gamma   90.00000000
_symmetry_Int_Tables_number   1
_chemical_formula_structural   Sc3Ga2
_chemical_formula_sum   'Sc12 Ga8'
_cell_volume   395.87703043
_cell_formula_units_Z   4
loop_
 _symmetry_equiv_pos_site_id
 _symmetry_equiv_pos_as_xyz
  1  'x, y, z'
loop_
 _atom_site_type_symbol
 _atom_site_label
 _atom_site_symmetry_multiplicity
 _atom_site_fract_x
 _atom_site_fract_y
 _atom_site_fract_z
 _atom_site_occupancy
  Sc  Sc0  1  0.00000000  0.34485900  0.34485900  1
  Sc  Sc1  1  0.50000000  0.84485901  0.15514100  1
  Sc  Sc2  1  0.50000000  0.15514100  0.84485901  1
  Sc  Sc3  1  0.00000000  0.65514101  0.65514101  1
  Sc  Sc4  1  0.00000000  0.79786701  0.20213300  1
  Sc  Sc5  1  0.50000000  0.70213301  0.70213301  1
  Sc  Sc6  1  0.50000000  0.29786700  0.29786700  1
  Sc  Sc7  1  0.00000000  0.20213300  0.79786701  1
  Sc  Sc8  1  0.25000000  0.50000001  -0.00000000  1
  Sc  Sc9  1  0.75000000  0.50000001  -0.00000000  1
  Sc  Sc10  1  0.25000000  0.00000000  0.50000001  1
  Sc  Sc11  1  0.75000000  0.00000000  0.50000001  1
  Ga  Ga12  1  0.20999700  0.12123200  0.12123200  1
  Ga  Ga13  1  0.70999700  0.62123201  0.37876801  1
  Ga  Ga14  1  0.70999700  0.37876801  0.62123201  1
  Ga  Ga15  1  0.20999700  0.87876801  0.87876801  1
  Ga  Ga16  1  0.29000300  0.37876801  0.62123201  1
  Ga  Ga17  1  0.29000300  0.62123201  0.37876801  1
  Ga  Ga18  1  0.79000300  0.12123200  0.12123200  1
  Ga  Ga19  1  0.79000300  0.87876801  0.87876801  1
