# generated using pymatgen
data_Pm6MgGa
_symmetry_space_group_name_H-M   'P 1'
_cell_length_a   5.31972694
_cell_length_b   6.84938002
_cell_length_c   6.84938097
_cell_angle_alpha   60.00000381
_cell_angle_beta   90.00000000
_cell_angle_gamma   90.00000000
_symmetry_Int_Tables_number   1
_chemical_formula_structural   Pm6MgGa
_chemical_formula_sum   'Pm6 Mg1 Ga1'
_cell_volume   216.13374295
_cell_formula_units_Z   1
loop_
 _symmetry_equiv_pos_site_id
 _symmetry_equiv_pos_as_xyz
  1  'x, y, z'
loop_
 _atom_site_type_symbol
 _atom_site_label
 _atom_site_symmetry_multiplicity
 _atom_site_fract_x
 _atom_site_fract_y
 _atom_site_fract_z
 _atom_site_occupancy
  Pm  Pm0  1  0.25000000  0.33333333  0.33333332  1
  Ga  Ga1  1  0.75000001  0.66666667  0.66666665  1
  Pm  Pm2  1  0.75000001  0.68536700  0.15731600  1
  Mg  Mg3  1  0.75000001  0.15731700  0.15731600  1
  Pm  Pm4  1  0.75000001  0.15731700  0.68536598  1
  Pm  Pm5  1  0.25000000  0.31463300  0.84268398  1
  Pm  Pm6  1  0.25000000  0.84268300  0.84268398  1
  Pm  Pm7  1  0.25000000  0.84268300  0.31463399  1
