# generated using pymatgen
data_Li5Te3
_symmetry_space_group_name_H-M   'P 1'
_cell_length_a   4.49217606
_cell_length_b   5.35964108
_cell_length_c   6.15426493
_cell_angle_alpha   90.00000000
_cell_angle_beta   90.00000000
_cell_angle_gamma   90.00000000
_symmetry_Int_Tables_number   1
_chemical_formula_structural   Li5Te3
_chemical_formula_sum   'Li5 Te3'
_cell_volume   148.17285984
_cell_formula_units_Z   1
loop_
 _symmetry_equiv_pos_site_id
 _symmetry_equiv_pos_as_xyz
  1  'x, y, z'
loop_
 _atom_site_type_symbol
 _atom_site_label
 _atom_site_symmetry_multiplicity
 _atom_site_fract_x
 _atom_site_fract_y
 _atom_site_fract_z
 _atom_site_occupancy
  Li  Li0  1  0.74999999  0.86207599  0.82593801  1
  Li  Li1  1  0.25000000  0.36207599  0.67406201  1
  Li  Li2  1  0.74999999  0.63792399  0.32593800  1
  Te  Te3  1  0.25000000  0.13792400  0.17406200  1
  Li  Li4  1  0.74999999  0.16568100  0.45063401  1
  Te  Te5  1  0.25000000  0.83431899  0.54936601  1
  Li  Li6  1  0.25000000  0.66568099  0.04936600  1
  Te  Te7  1  0.74999999  0.33431900  0.95063401  1
