# generated using pymatgen
data_SrCdAu
_symmetry_space_group_name_H-M   'P 1'
_cell_length_a   4.74353981
_cell_length_b   7.83819199
_cell_length_c   7.83819246
_cell_angle_alpha   120.00000000
_cell_angle_beta   90.00000000
_cell_angle_gamma   90.00000000
_symmetry_Int_Tables_number   1
_chemical_formula_structural   SrCdAu
_chemical_formula_sum   'Sr3 Cd3 Au3'
_cell_volume   252.38584929
_cell_formula_units_Z   3
loop_
 _symmetry_equiv_pos_site_id
 _symmetry_equiv_pos_as_xyz
  1  'x, y, z'
loop_
 _atom_site_type_symbol
 _atom_site_label
 _atom_site_symmetry_multiplicity
 _atom_site_fract_x
 _atom_site_fract_y
 _atom_site_fract_z
 _atom_site_occupancy
  Sr  Sr0  1  0.00000000  0.42147701  0.42147702  1
  Sr  Sr1  1  0.00000000  0.00000000  0.57852300  1
  Sr  Sr2  1  -0.00000000  0.57852301  0.00000003  1
  Cd  Cd3  1  0.50000002  0.75589402  0.75589404  1
  Cd  Cd4  1  0.50000002  0.00000000  0.24410600  1
  Cd  Cd5  1  0.50000002  0.24410601  0.00000001  1
  Au  Au6  1  0.50000002  0.66666668  0.33333337  1
  Au  Au7  1  0.50000002  0.33333334  0.66666669  1
  Au  Au8  1  0.00000000  0.00000000  0.00000000  1
