# generated using pymatgen
data_Mg2Sc3Ge4
_symmetry_space_group_name_H-M   'P 1'
_cell_length_a   3.80361700
_cell_length_b   7.13841820
_cell_length_c   7.13841677
_cell_angle_alpha   120.00000763
_cell_angle_beta   90.00000000
_cell_angle_gamma   90.00000000
_symmetry_Int_Tables_number   1
_chemical_formula_structural   Mg2Sc3Ge4
_chemical_formula_sum   'Mg2 Sc3 Ge4'
_cell_volume   167.85383392
_cell_formula_units_Z   1
loop_
 _symmetry_equiv_pos_site_id
 _symmetry_equiv_pos_as_xyz
  1  'x, y, z'
loop_
 _atom_site_type_symbol
 _atom_site_label
 _atom_site_symmetry_multiplicity
 _atom_site_fract_x
 _atom_site_fract_y
 _atom_site_fract_z
 _atom_site_occupancy
  Sc  Sc0  1  0.50000000  0.58726900  1.00000004  1
  Sc  Sc1  1  0.50000000  0.41273100  0.41273102  1
  Sc  Sc2  1  0.50000000  0.00000000  0.58726901  1
  Mg  Mg3  1  0.00000000  0.23724600  1.00000002  1
  Mg  Mg4  1  0.00000000  0.76275400  0.76275404  1
  Ge  Ge5  1  1.00000000  0.00000000  0.23724600  1
  Ge  Ge6  1  0.00000000  0.33333333  0.66666669  1
  Ge  Ge7  1  1.00000000  0.66666666  0.33333337  1
  Ge  Ge8  1  0.50000000  0.00000000  -0.00000000  1
