# generated using pymatgen
data_PN
_symmetry_space_group_name_H-M   'P 1'
_cell_length_a   3.88918805
_cell_length_b   3.88918829
_cell_length_c   5.77583981
_cell_angle_alpha   90.00000000
_cell_angle_beta   90.00000000
_cell_angle_gamma   120.00000000
_symmetry_Int_Tables_number   1
_chemical_formula_structural   PN
_chemical_formula_sum   'P2 N2'
_cell_volume   75.65953771
_cell_formula_units_Z   2
loop_
 _symmetry_equiv_pos_site_id
 _symmetry_equiv_pos_as_xyz
  1  'x, y, z'
loop_
 _atom_site_type_symbol
 _atom_site_label
 _atom_site_symmetry_multiplicity
 _atom_site_fract_x
 _atom_site_fract_y
 _atom_site_fract_z
 _atom_site_occupancy
  P  P0  1  0.33333337  0.66666669  0.06228300  1
  P  P1  1  0.66666668  0.33333335  0.93771703  1
  N  N2  1  0.33333337  0.66666669  0.32220701  1
  N  N3  1  0.66666668  0.33333335  0.67779302  1
