# generated using pymatgen
data_Eu2InAg2Au
_symmetry_space_group_name_H-M   'P 1'
_cell_length_a   4.80632591
_cell_length_b   4.80632544
_cell_length_c   7.75735283
_cell_angle_alpha   90.00000000
_cell_angle_beta   90.00000000
_cell_angle_gamma   120.00000000
_symmetry_Int_Tables_number   1
_chemical_formula_structural   Eu2InAg2Au
_chemical_formula_sum   'Eu2 In1 Ag2 Au1'
_cell_volume   155.19244193
_cell_formula_units_Z   1
loop_
 _symmetry_equiv_pos_site_id
 _symmetry_equiv_pos_as_xyz
  1  'x, y, z'
loop_
 _atom_site_type_symbol
 _atom_site_label
 _atom_site_symmetry_multiplicity
 _atom_site_fract_x
 _atom_site_fract_y
 _atom_site_fract_z
 _atom_site_occupancy
  Eu  Eu0  1  0.00000000  0.00000000  0.75137602  1
  Eu  Eu1  1  0.00000000  0.00000000  0.25137601  1
  Ag  Ag2  1  0.33333331  0.66666668  0.02728700  1
  Ag  Ag3  1  0.66666666  0.33333334  0.52728701  1
  Au  Au4  1  0.66666666  0.33333334  0.93903702  1
  In  In5  1  0.33333331  0.66666668  0.43903701  1
