# generated using pymatgen
data_Sc10In6SnPd
_symmetry_space_group_name_H-M   'P 1'
_cell_length_a   5.99549103
_cell_length_b   8.83854771
_cell_length_c   8.83854771
_cell_angle_alpha   120.00000000
_cell_angle_beta   90.00000000
_cell_angle_gamma   90.00000000
_symmetry_Int_Tables_number   1
_chemical_formula_structural   Sc10In6SnPd
_chemical_formula_sum   'Sc10 In6 Sn1 Pd1'
_cell_volume   405.61799119
_cell_formula_units_Z   1
loop_
 _symmetry_equiv_pos_site_id
 _symmetry_equiv_pos_as_xyz
  1  'x, y, z'
loop_
 _atom_site_type_symbol
 _atom_site_label
 _atom_site_symmetry_multiplicity
 _atom_site_fract_x
 _atom_site_fract_y
 _atom_site_fract_z
 _atom_site_occupancy
  Sc  Sc0  1  1.00000000  0.33333334  0.66666668  1
  Sc  Sc1  1  -0.00000000  0.66666669  0.33333334  1
  Sn  Sn2  1  0.50000000  0.66666669  0.33333334  1
  Sc  Sc3  1  0.50000000  0.33333334  0.66666668  1
  In  In4  1  0.25000000  0.26226801  -0.00000000  1
  In  In5  1  0.25000000  0.73773202  0.73773201  1
  In  In6  1  0.25000000  1.00000003  0.26226800  1
  In  In7  1  0.75000000  0.73773202  1.00000002  1
  In  In8  1  0.75000000  0.26226801  0.26226800  1
  In  In9  1  0.75000000  1.00000003  0.73773201  1
  Sc  Sc10  1  0.00000000  0.00000000  0.00000000  1
  Pd  Pd11  1  0.50000000  0.00000000  -0.00000000  1
  Sc  Sc12  1  0.25000000  0.61256402  -0.00000000  1
  Sc  Sc13  1  0.25000000  0.38743601  0.38743601  1
  Sc  Sc14  1  0.25000000  1.00000003  0.61256401  1
  Sc  Sc15  1  0.75000000  0.38743601  1.00000002  1
  Sc  Sc16  1  0.75000000  0.61256402  0.61256401  1
  Sc  Sc17  1  0.75000000  1.00000003  0.38743600  1
