# generated using pymatgen
data_Ba2Ce5Sn9
_symmetry_space_group_name_H-M   'P 1'
_cell_length_a   6.70867825
_cell_length_b   6.70867825
_cell_length_c   10.72305965
_cell_angle_alpha   90.00000000
_cell_angle_beta   90.00000000
_cell_angle_gamma   102.46769714
_symmetry_Int_Tables_number   1
_chemical_formula_structural   Ba2Ce5Sn9
_chemical_formula_sum   'Ba2 Ce5 Sn9'
_cell_volume   471.22505244
_cell_formula_units_Z   1
loop_
 _symmetry_equiv_pos_site_id
 _symmetry_equiv_pos_as_xyz
  1  'x, y, z'
loop_
 _atom_site_type_symbol
 _atom_site_label
 _atom_site_symmetry_multiplicity
 _atom_site_fract_x
 _atom_site_fract_y
 _atom_site_fract_z
 _atom_site_occupancy
  Ce  Ce0  1  0.63614103  0.63614100  0.75000002  1
  Ce  Ce1  1  0.36385902  0.36385900  0.25000001  1
  Ce  Ce2  1  0.79786301  0.20213700  0.50000002  1
  Ba  Ba3  1  0.79786301  0.20213700  1.00000003  1
  Ce  Ce4  1  0.20213704  0.79786300  0.50000002  1
  Ba  Ba5  1  0.20213704  0.79786300  1.00000003  1
  Sn  Sn6  1  0.02633900  0.02633900  0.75000002  1
  Ce  Ce7  1  0.97366105  0.97366100  0.25000001  1
  Sn  Sn8  1  0.31942701  0.31942700  0.95146303  1
  Sn  Sn9  1  0.68057303  0.68057300  0.04853700  1
  Sn  Sn10  1  0.31942701  0.31942700  0.54853702  1
  Sn  Sn11  1  0.68057303  0.68057300  0.45146301  1
  Sn  Sn12  1  0.07608503  0.49390600  0.75000002  1
  Sn  Sn13  1  0.50609405  0.92391500  0.25000001  1
  Sn  Sn14  1  0.92391502  0.50609400  0.25000001  1
  Sn  Sn15  1  0.49390600  0.07608500  0.75000002  1
