# generated using pymatgen
data_Mg2Ga
_symmetry_space_group_name_H-M   'P 1'
_cell_length_a   4.74999189
_cell_length_b   4.74999189
_cell_length_c   6.72370815
_cell_angle_alpha   90.00000000
_cell_angle_beta   90.00000000
_cell_angle_gamma   90.00000000
_symmetry_Int_Tables_number   1
_chemical_formula_structural   Mg2Ga
_chemical_formula_sum   'Mg4 Ga2'
_cell_volume   151.70314741
_cell_formula_units_Z   2
loop_
 _symmetry_equiv_pos_site_id
 _symmetry_equiv_pos_as_xyz
  1  'x, y, z'
loop_
 _atom_site_type_symbol
 _atom_site_label
 _atom_site_symmetry_multiplicity
 _atom_site_fract_x
 _atom_site_fract_y
 _atom_site_fract_z
 _atom_site_occupancy
  Mg  Mg0  1  0.50000001  0.00000000  0.75623098  1
  Mg  Mg1  1  0.00000000  0.50000001  0.24376899  1
  Mg  Mg2  1  0.50000001  0.00000000  0.24376899  1
  Mg  Mg3  1  0.00000000  0.50000001  0.75623098  1
  Ga  Ga4  1  0.50000001  0.50000001  0.49999999  1
  Ga  Ga5  1  0.00000000  0.00000000  0.00000000  1
