# generated using pymatgen
data_Mg4BH5O6
_symmetry_space_group_name_H-M   'P 1'
_cell_length_a   3.13600397
_cell_length_b   4.66554308
_cell_length_c   10.02131557
_cell_angle_alpha   89.99961090
_cell_angle_beta   90.00059509
_cell_angle_gamma   90.00141144
_symmetry_Int_Tables_number   1
_chemical_formula_structural   Mg4BH5O6
_chemical_formula_sum   'Mg4 B1 H5 O6'
_cell_volume   146.62348780
_cell_formula_units_Z   1
loop_
 _symmetry_equiv_pos_site_id
 _symmetry_equiv_pos_as_xyz
  1  'x, y, z'
loop_
 _atom_site_type_symbol
 _atom_site_label
 _atom_site_symmetry_multiplicity
 _atom_site_fract_x
 _atom_site_fract_y
 _atom_site_fract_z
 _atom_site_occupancy
  Mg  Mg0  1  0.25002899  0.55947699  0.64411304  1
  Mg  Mg1  1  0.24999498  0.94051298  0.14410902  1
  Mg  Mg2  1  0.75000099  0.44052599  0.35588702  1
  Mg  Mg3  1  0.75000401  0.05948300  0.85588904  1
  H  H4  1  0.24996898  0.89210698  0.40887803  1
  B  B5  1  0.24996898  0.60787099  0.90888405  1
  H  H6  1  0.74998900  0.10790300  0.59111903  1
  H  H7  1  0.74997400  0.39210699  0.09112101  1
  O  O8  1  0.24996000  0.19031700  0.30178102  1
  O  O9  1  0.24994999  0.30968999  0.80179004  1
  O  O10  1  0.74997898  0.80969399  0.69821404  1
  O  O11  1  0.74995699  0.69030799  0.19821202  1
  O  O12  1  0.25005398  0.68991899  0.44209403  1
  H  H13  1  0.25004498  0.81006699  0.94208905  1
  O  O14  1  0.75008800  0.31009899  0.55791403  1
  H  H15  1  0.75003700  0.18991800  0.05790700  1
