# generated using pymatgen
data_MgAl4Si
_symmetry_space_group_name_H-M   'P 1'
_cell_length_a   3.69786692
_cell_length_b   3.69828796
_cell_length_c   7.28027344
_cell_angle_alpha   75.28603363
_cell_angle_beta   90.00000000
_cell_angle_gamma   90.00000000
_symmetry_Int_Tables_number   1
_chemical_formula_structural   MgAl4Si
_chemical_formula_sum   'Mg1 Al4 Si1'
_cell_volume   96.29829886
_cell_formula_units_Z   1
loop_
 _symmetry_equiv_pos_site_id
 _symmetry_equiv_pos_as_xyz
  1  'x, y, z'
loop_
 _atom_site_type_symbol
 _atom_site_label
 _atom_site_symmetry_multiplicity
 _atom_site_fract_x
 _atom_site_fract_y
 _atom_site_fract_z
 _atom_site_occupancy
  Al  Al0  1  0.00000000  0.90107300  0.19785402  1
  Si  Si1  1  0.50000001  0.09912400  0.80175199  1
  Al  Al2  1  0.50000001  0.75091900  0.49816201  1
  Al  Al3  1  0.00000000  0.24903400  0.50193200  1
  Mg  Mg4  1  0.00000000  0.56632200  0.86735600  1
  Al  Al5  1  0.50000001  0.43352700  0.13294601  1
