# generated using pymatgen
data_InCuTe5
_symmetry_space_group_name_H-M   'P 1'
_cell_length_a   6.20639849
_cell_length_b   6.22516727
_cell_length_c   7.55744410
_cell_angle_alpha   114.27280426
_cell_angle_beta   112.96384430
_cell_angle_gamma   90.69826508
_symmetry_Int_Tables_number   1
_chemical_formula_structural   InCuTe5
_chemical_formula_sum   'In1 Cu1 Te5'
_cell_volume   239.84623409
_cell_formula_units_Z   1
loop_
 _symmetry_equiv_pos_site_id
 _symmetry_equiv_pos_as_xyz
  1  'x, y, z'
loop_
 _atom_site_type_symbol
 _atom_site_label
 _atom_site_symmetry_multiplicity
 _atom_site_fract_x
 _atom_site_fract_y
 _atom_site_fract_z
 _atom_site_occupancy
  Te  Te0  1  0.98410206  0.99746705  0.01070804  1
  In  In1  1  0.24818305  0.73344604  0.47879304  1
  Cu  Cu2  1  0.52128203  0.52736303  0.01220502  1
  Te  Te3  1  0.41391106  0.90068504  0.25232505  1
  Te  Te4  1  0.82564403  0.37868202  0.25829900  1
  Te  Te5  1  0.62014804  0.57942603  0.72950402  1
  Te  Te6  1  0.13672901  0.13293101  0.75816600  1
