# generated using pymatgen
data_Rb17I3
_symmetry_space_group_name_H-M   'P 1'
_cell_length_a   4.58832502
_cell_length_b   15.09609032
_cell_length_c   15.09609032
_cell_angle_alpha   120.00000000
_cell_angle_beta   90.00000000
_cell_angle_gamma   90.00000000
_symmetry_Int_Tables_number   1
_chemical_formula_structural   Rb17I3
_chemical_formula_sum   'Rb17 I3'
_cell_volume   905.55279860
_cell_formula_units_Z   1
loop_
 _symmetry_equiv_pos_site_id
 _symmetry_equiv_pos_as_xyz
  1  'x, y, z'
loop_
 _atom_site_type_symbol
 _atom_site_label
 _atom_site_symmetry_multiplicity
 _atom_site_fract_x
 _atom_site_fract_y
 _atom_site_fract_z
 _atom_site_occupancy
  Rb  Rb0  1  0.99999999  0.66666666  0.33333335  1
  Rb  Rb1  1  0.99999999  0.33333333  0.66666668  1
  Rb  Rb2  1  0.99999999  0.28234000  0.28234001  1
  Rb  Rb3  1  0.00000000  0.00000000  0.71766001  1
  Rb  Rb4  1  0.99999999  0.71765999  0.00000002  1
  Rb  Rb5  1  0.50000000  0.67784599  0.67784602  1
  Rb  Rb6  1  0.50000000  0.99999999  0.32215403  1
  Rb  Rb7  1  0.50000000  0.32215400  0.00000001  1
  Rb  Rb8  1  0.99999999  0.81484599  0.81484603  1
  Rb  Rb9  1  0.00000000  0.00000000  0.18515400  1
  Rb  Rb10  1  0.00000000  0.18515400  0.00000000  1
  Rb  Rb11  1  0.99999999  0.54274499  0.54274502  1
  Rb  Rb12  1  0.00000000  0.00000000  0.45725501  1
  Rb  Rb13  1  0.99999999  0.45725500  0.00000001  1
  I  I14  1  0.50000000  0.76668899  0.20787602  1
  I  I15  1  0.50000000  0.44118700  0.23331101  1
  Rb  Rb16  1  0.50000000  0.55881299  0.79212402  1
  I  I17  1  0.50000000  0.79212399  0.55881302  1
  Rb  Rb18  1  0.50000000  0.20787600  0.76668901  1
  Rb  Rb19  1  0.50000000  0.23331100  0.44118701  1
