# generated using pymatgen
data_DyB7Os6
_symmetry_space_group_name_H-M   'P 1'
_cell_length_a   3.82971191
_cell_length_b   3.82971191
_cell_length_c   13.80031490
_cell_angle_alpha   97.97578430
_cell_angle_beta   97.97578430
_cell_angle_gamma   90.00000000
_symmetry_Int_Tables_number   1
_chemical_formula_structural   DyB7Os6
_chemical_formula_sum   'Dy1 B7 Os6'
_cell_volume   198.46986552
_cell_formula_units_Z   1
loop_
 _symmetry_equiv_pos_site_id
 _symmetry_equiv_pos_as_xyz
  1  'x, y, z'
loop_
 _atom_site_type_symbol
 _atom_site_label
 _atom_site_symmetry_multiplicity
 _atom_site_fract_x
 _atom_site_fract_y
 _atom_site_fract_z
 _atom_site_occupancy
  Dy  Dy0  1  0.75000002  0.25000001  0.50000002  1
  Os  Os1  1  0.00000000  0.00000000  0.00000000  1
  B  B2  1  0.85372203  0.35372201  0.70744402  1
  Os  Os3  1  0.10372200  0.10372200  0.20744401  1
  B  B4  1  0.17782901  0.67782902  0.35565802  1
  Os  Os5  1  0.42782902  0.42782901  0.85565802  1
  Os  Os6  1  0.57217102  0.57217102  0.14434202  1
  Os  Os7  1  0.89627804  0.89627803  0.79255603  1
  B  B8  1  0.64627802  0.14627800  0.29255601  1
  Os  Os9  1  0.32217102  0.82217102  0.64434202  1
  B  B10  1  0.81802903  0.81802902  0.63605803  1
  B  B11  1  0.56802902  0.06802900  0.13605801  1
  B  B12  1  0.93197103  0.43197101  0.86394203  1
  B  B13  1  0.18197101  0.18197101  0.36394201  1
