# generated using pymatgen
data_NaLu3Ta4O12
_symmetry_space_group_name_H-M   'P 1'
_cell_length_a   5.29520321
_cell_length_b   5.62966394
_cell_length_c   7.68570423
_cell_angle_alpha   90.00000000
_cell_angle_beta   90.00000000
_cell_angle_gamma   90.00000000
_symmetry_Int_Tables_number   1
_chemical_formula_structural   NaLu3Ta4O12
_chemical_formula_sum   'Na1 Lu3 Ta4 O12'
_cell_volume   229.11249235
_cell_formula_units_Z   1
loop_
 _symmetry_equiv_pos_site_id
 _symmetry_equiv_pos_as_xyz
  1  'x, y, z'
loop_
 _atom_site_type_symbol
 _atom_site_label
 _atom_site_symmetry_multiplicity
 _atom_site_fract_x
 _atom_site_fract_y
 _atom_site_fract_z
 _atom_site_occupancy
  Na  Na0  1  0.02033800  0.92887201  0.74999998  1
  Lu  Lu1  1  0.52033798  0.57112801  0.24999999  1
  Lu  Lu2  1  0.47966198  0.42887200  0.74999998  1
  Lu  Lu3  1  0.97966196  0.07112800  0.24999999  1
  Ta  Ta4  1  0.00000000  0.50000000  0.49999998  1
  Ta  Ta5  1  0.49999998  0.00000000  0.49999998  1
  Ta  Ta6  1  0.49999998  0.00000000  -0.00000000  1
  Ta  Ta7  1  0.00000000  0.50000000  -0.00000000  1
  O  O8  1  0.68958597  0.30756200  0.43793299  1
  O  O9  1  0.18958599  0.19243800  0.56206698  1
  O  O10  1  0.81041397  0.80756201  0.06206700  1
  O  O11  1  0.31041399  0.69243801  0.93793297  1
  O  O12  1  0.31041399  0.69243801  0.56206698  1
  O  O13  1  0.81041397  0.80756201  0.43793299  1
  O  O14  1  0.18958599  0.19243800  0.93793297  1
  O  O15  1  0.68958597  0.30756200  0.06206700  1
  O  O16  1  0.12177000  0.45364500  0.24999999  1
  O  O17  1  0.62176998  0.04635500  0.74999998  1
  O  O18  1  0.37822999  0.95364501  0.24999999  1
  O  O19  1  0.87822997  0.54635501  0.74999998  1
