# generated using pymatgen
data_SrMnO3
_symmetry_space_group_name_H-M   'P 1'
_cell_length_a   5.50829983
_cell_length_b   5.50829983
_cell_length_c   8.51596737
_cell_angle_alpha   90.00000000
_cell_angle_beta   90.00000000
_cell_angle_gamma   90.00000000
_symmetry_Int_Tables_number   1
_chemical_formula_structural   SrMnO3
_chemical_formula_sum   'Sr4 Mn4 O12'
_cell_volume   258.38609122
_cell_formula_units_Z   4
loop_
 _symmetry_equiv_pos_site_id
 _symmetry_equiv_pos_as_xyz
  1  'x, y, z'
loop_
 _atom_site_type_symbol
 _atom_site_label
 _atom_site_symmetry_multiplicity
 _atom_site_fract_x
 _atom_site_fract_y
 _atom_site_fract_z
 _atom_site_occupancy
  Sr  Sr0  1  0.50000002  0.00000000  0.25105199  1
  Sr  Sr1  1  0.00000000  0.50000002  0.74894797  1
  Sr  Sr2  1  0.00000000  0.50000002  0.25105199  1
  Sr  Sr3  1  0.50000002  0.00000000  0.74894797  1
  Mn  Mn4  1  0.50000002  0.50000002  -0.00000000  1
  Mn  Mn5  1  0.00000000  0.00000000  0.49999998  1
  Mn  Mn6  1  0.50000002  0.50000002  0.49999998  1
  Mn  Mn7  1  0.00000000  0.00000000  0.00000000  1
  O  O8  1  0.00000000  0.00000000  0.22935799  1
  O  O9  1  0.50000002  0.50000002  0.72891997  1
  O  O10  1  0.50000002  0.50000002  0.27107999  1
  O  O11  1  0.00000000  0.00000000  0.77064197  1
  O  O12  1  0.70347202  0.78995202  0.49999998  1
  O  O13  1  0.20290601  0.29030101  -0.00000000  1
  O  O14  1  0.79709402  0.70969902  0.00000000  1
  O  O15  1  0.29652801  0.21004801  0.49999998  1
  O  O16  1  0.70969902  0.20290601  -0.00000000  1
  O  O17  1  0.21004801  0.70347202  0.49999998  1
  O  O18  1  0.78995202  0.29652801  0.49999998  1
  O  O19  1  0.29030101  0.79709402  -0.00000000  1
