# generated using pymatgen
data_Dy3Ho(Si5Ni3)2
_symmetry_space_group_name_H-M   'P 1'
_cell_length_a   5.57838202
_cell_length_b   7.80159664
_cell_length_c   7.80159664
_cell_angle_alpha   76.31819916
_cell_angle_beta   69.05231476
_cell_angle_gamma   69.05231476
_symmetry_Int_Tables_number   1
_chemical_formula_structural   Dy3Ho(Si5Ni3)2
_chemical_formula_sum   'Dy3 Ho1 Si10 Ni6'
_cell_volume   293.82086094
_cell_formula_units_Z   1
loop_
 _symmetry_equiv_pos_site_id
 _symmetry_equiv_pos_as_xyz
  1  'x, y, z'
loop_
 _atom_site_type_symbol
 _atom_site_label
 _atom_site_symmetry_multiplicity
 _atom_site_fract_x
 _atom_site_fract_y
 _atom_site_fract_z
 _atom_site_occupancy
  Ho  Ho0  1  0.63018400  0.60611800  0.13351404  1
  Dy  Dy1  1  0.36981600  0.39388200  0.86648603  1
  Dy  Dy2  1  0.13018400  0.13351400  0.60611801  1
  Dy  Dy3  1  0.86981600  0.86648600  0.39388206  1
  Si  Si4  1  0.25000000  0.50000000  0.50000003  1
  Si  Si5  1  0.75000000  0.50000000  0.50000004  1
  Si  Si6  1  0.48622100  0.76377900  0.76377905  1
  Si  Si7  1  0.01377900  0.23622100  0.23622101  1
  Si  Si8  1  0.51377900  0.23622100  0.23622102  1
  Ni  Ni9  1  0.98622100  0.76377900  0.76377906  1
  Si  Si10  1  0.89115899  0.26036600  0.95731604  1
  Si  Si11  1  0.10884101  0.73963400  0.04268403  1
  Si  Si12  1  0.39115901  0.95731600  0.26036605  1
  Si  Si13  1  0.60884099  0.04268400  0.73963402  1
  Ni  Ni14  1  0.25000000  0.00000000  0.00000000  1
  Ni  Ni15  1  0.74999999  0.00000000  0.00000001  1
  Si  Si16  1  0.86611900  0.51642800  0.75133404  1
  Ni  Ni17  1  0.13388101  0.48357200  0.24866602  1
  Ni  Ni18  1  0.36611901  0.75133400  0.51642804  1
  Ni  Ni19  1  0.63388100  0.24866600  0.48357203  1
