# generated using pymatgen
data_BaLa2Mg3O9
_symmetry_space_group_name_H-M   'P 1'
_cell_length_a   4.12712479
_cell_length_b   5.78465462
_cell_length_c   9.21080875
_cell_angle_alpha   71.89390564
_cell_angle_beta   89.43067169
_cell_angle_gamma   89.65032959
_symmetry_Int_Tables_number   1
_chemical_formula_structural   BaLa2Mg3O9
_chemical_formula_sum   'Ba1 La2 Mg3 O9'
_cell_volume   208.99860196
_cell_formula_units_Z   1
loop_
 _symmetry_equiv_pos_site_id
 _symmetry_equiv_pos_as_xyz
  1  'x, y, z'
loop_
 _atom_site_type_symbol
 _atom_site_label
 _atom_site_symmetry_multiplicity
 _atom_site_fract_x
 _atom_site_fract_y
 _atom_site_fract_z
 _atom_site_occupancy
  Mg  Mg0  1  0.48223103  0.48054301  0.00659799  1
  Mg  Mg1  1  0.45258204  0.82034302  0.34807099  1
  Mg  Mg2  1  0.52152703  0.16346200  0.66851899  1
  Ba  Ba3  1  0.99651606  0.62731902  0.72877299  1
  La  La4  1  0.94831106  0.33795601  0.28703399  1
  La  La5  1  0.89809806  0.94253302  0.01523099  1
  O  O6  1  0.49668103  0.33859601  0.82172499  1
  O  O7  1  0.51780904  0.66508302  0.17873999  1
  O  O8  1  0.49679404  0.99019502  0.50531799  1
  O  O9  1  0.50358904  0.84177602  0.82946099  1
  O  O10  1  0.49668003  0.49154801  0.50004699  1
  O  O11  1  0.51535203  0.14753500  0.18355600  1
  O  O12  1  0.99413505  0.16248100  0.66797499  1
  O  O13  1  0.99449007  0.82549202  0.33771699  1
  O  O14  1  0.98862506  0.51754901  0.00413399  1
