# generated using pymatgen
data_In4CuSe9
_symmetry_space_group_name_H-M   'P 1'
_cell_length_a   7.80102396
_cell_length_b   7.80102396
_cell_length_c   7.80102396
_cell_angle_alpha   60.00000000
_cell_angle_beta   60.00000000
_cell_angle_gamma   60.00000000
_symmetry_Int_Tables_number   1
_chemical_formula_structural   In4CuSe9
_chemical_formula_sum   'In4 Cu1 Se9'
_cell_volume   335.69110802
_cell_formula_units_Z   1
loop_
 _symmetry_equiv_pos_site_id
 _symmetry_equiv_pos_as_xyz
  1  'x, y, z'
loop_
 _atom_site_type_symbol
 _atom_site_label
 _atom_site_symmetry_multiplicity
 _atom_site_fract_x
 _atom_site_fract_y
 _atom_site_fract_z
 _atom_site_occupancy
  In  In0  1  0.37500000  0.37500000  0.87500001  1
  In  In1  1  0.37500000  0.37500000  0.37500000  1
  In  In2  1  0.37500000  0.87500001  0.37500000  1
  In  In3  1  0.87500001  0.37500000  0.37500000  1
  Cu  Cu4  1  0.75000001  0.75000001  0.75000001  1
  Se  Se5  1  0.00000000  0.00000000  0.00000000  1
  Se  Se6  1  0.62348701  0.62348801  0.12953700  1
  Se  Se7  1  0.62348701  0.62348801  0.62348801  1
  Se  Se8  1  0.62348701  0.12953700  0.62348801  1
  Se  Se9  1  0.12953600  0.62348801  0.62348801  1
  Se  Se10  1  0.12651300  0.12651200  0.62046301  1
  Se  Se11  1  0.12651300  0.12651200  0.12651200  1
  Se  Se12  1  0.12651300  0.62046301  0.12651200  1
  Se  Se13  1  0.62046401  0.12651200  0.12651200  1
