# generated using pymatgen
data_CeB4
_symmetry_space_group_name_H-M   'P 1'
_cell_length_a   4.10439014
_cell_length_b   7.22129726
_cell_length_c   7.22129726
_cell_angle_alpha   89.52282715
_cell_angle_beta   90.00000000
_cell_angle_gamma   90.00000000
_symmetry_Int_Tables_number   1
_chemical_formula_structural   CeB4
_chemical_formula_sum   'Ce4 B16'
_cell_volume   214.02476103
_cell_formula_units_Z   4
loop_
 _symmetry_equiv_pos_site_id
 _symmetry_equiv_pos_as_xyz
  1  'x, y, z'
loop_
 _atom_site_type_symbol
 _atom_site_label
 _atom_site_symmetry_multiplicity
 _atom_site_fract_x
 _atom_site_fract_y
 _atom_site_fract_z
 _atom_site_occupancy
  Ce  Ce0  1  -0.00000000  0.68540700  0.68540703  1
  Ce  Ce1  1  -0.00000000  0.31459300  0.31459302  1
  Ce  Ce2  1  -0.00000000  0.81368000  0.18632004  1
  Ce  Ce3  1  0.99999996  0.18632000  0.81368001  1
  B  B4  1  0.79847497  0.50000000  0.00000002  1
  B  B5  1  0.79847497  0.00000000  0.50000000  1
  B  B6  1  0.20152499  0.50000000  0.00000002  1
  B  B7  1  0.20152499  0.00000000  0.50000000  1
  B  B8  1  0.49999998  0.46194100  0.82421702  1
  B  B9  1  0.49999998  0.53805900  0.17578303  1
  B  B10  1  0.49999998  0.04112100  0.32516700  1
  B  B11  1  0.49999998  0.95887900  0.67483305  1
  B  B12  1  0.49999998  0.32516700  0.04112102  1
  B  B13  1  0.49999998  0.67483300  0.95887903  1
  B  B14  1  0.49999998  0.82421700  0.46194104  1
  B  B15  1  0.49999998  0.17578300  0.53805901  1
  B  B16  1  0.49999998  0.91115200  0.91115204  1
  B  B17  1  0.49999998  0.08884800  0.08884800  1
  B  B18  1  0.49999998  0.58900900  0.41099103  1
  B  B19  1  0.49999998  0.41099100  0.58900902  1
