# generated using pymatgen
data_Gd(SiRh)2
_symmetry_space_group_name_H-M   'P 1'
_cell_length_a   4.07458591
_cell_length_b   4.07458591
_cell_length_c   5.68554354
_cell_angle_alpha   110.99758911
_cell_angle_beta   110.99758911
_cell_angle_gamma   90.00000000
_symmetry_Int_Tables_number   1
_chemical_formula_structural   Gd(SiRh)2
_chemical_formula_sum   'Gd1 Si2 Rh2'
_cell_volume   81.37521152
_cell_formula_units_Z   1
loop_
 _symmetry_equiv_pos_site_id
 _symmetry_equiv_pos_as_xyz
  1  'x, y, z'
loop_
 _atom_site_type_symbol
 _atom_site_label
 _atom_site_symmetry_multiplicity
 _atom_site_fract_x
 _atom_site_fract_y
 _atom_site_fract_z
 _atom_site_occupancy
  Gd  Gd0  1  0.00000000  0.00000000  0.00000000  1
  Rh  Rh1  1  0.75000004  0.25000001  0.50000005  1
  Rh  Rh2  1  0.25000004  0.75000003  0.50000005  1
  Si  Si3  1  0.62884705  0.62884703  0.25769406  1
  Si  Si4  1  0.37115303  0.37115302  0.74230604  1
