# generated using pymatgen
data_NaCo5OF6
_symmetry_space_group_name_H-M   'P 1'
_cell_length_a   5.93963766
_cell_length_b   5.93963766
_cell_length_c   6.63893652
_cell_angle_alpha   63.42726898
_cell_angle_beta   63.42726898
_cell_angle_gamma   60.00000763
_symmetry_Int_Tables_number   1
_chemical_formula_structural   NaCo5OF6
_chemical_formula_sum   'Na1 Co5 O1 F6'
_cell_volume   173.68305443
_cell_formula_units_Z   1
loop_
 _symmetry_equiv_pos_site_id
 _symmetry_equiv_pos_as_xyz
  1  'x, y, z'
loop_
 _atom_site_type_symbol
 _atom_site_label
 _atom_site_symmetry_multiplicity
 _atom_site_fract_x
 _atom_site_fract_y
 _atom_site_fract_z
 _atom_site_occupancy
  Na  Na0  1  0.49999999  0.49999997  0.50000001  1
  Co  Co1  1  0.49999998  0.00000000  0.00000001  1
  Co  Co2  1  0.00000001  0.49999997  0.00000001  1
  Co  Co3  1  0.49999999  0.49999997  0.00000002  1
  Co  Co4  1  0.00000000  0.00000000  0.00000000  1
  F  F5  1  0.76521397  0.27691899  0.19265302  1
  F  F6  1  0.23478599  0.23478599  0.80734699  1
  F  F7  1  0.23478601  0.72308096  0.80734700  1
  F  F8  1  0.72308097  0.23478599  0.80734700  1
  O  O9  1  0.27516699  0.27516699  0.17449901  1
  Co  Co10  1  0.72483298  0.72483296  0.82550101  1
  F  F11  1  0.27691900  0.76521396  0.19265302  1
  F  F12  1  0.76521398  0.76521396  0.19265303  1
