# generated using pymatgen
data_NaPO3
_symmetry_space_group_name_H-M   'P 1'
_cell_length_a   4.57347918
_cell_length_b   7.28329325
_cell_length_c   9.02571487
_cell_angle_alpha   90.00000000
_cell_angle_beta   90.00000000
_cell_angle_gamma   91.07014465
_symmetry_Int_Tables_number   1
_chemical_formula_structural   NaPO3
_chemical_formula_sum   'Na4 P4 O12'
_cell_volume   300.59403331
_cell_formula_units_Z   4
loop_
 _symmetry_equiv_pos_site_id
 _symmetry_equiv_pos_as_xyz
  1  'x, y, z'
loop_
 _atom_site_type_symbol
 _atom_site_label
 _atom_site_symmetry_multiplicity
 _atom_site_fract_x
 _atom_site_fract_y
 _atom_site_fract_z
 _atom_site_occupancy
  Na  Na0  1  0.21491901  0.47311701  0.28936800  1
  Na  Na1  1  0.78508097  0.02688300  0.78936801  1
  Na  Na2  1  0.78508099  0.52688301  0.71063201  1
  Na  Na3  1  0.21491902  0.97311701  0.21063200  1
  P  P4  1  0.74150698  0.21230500  0.42804601  1
  P  P5  1  0.25849300  0.28769500  0.92804601  1
  P  P6  1  0.25849302  0.78769501  0.57195401  1
  P  P7  1  0.74150699  0.71230501  0.07195400  1
  O  O8  1  0.26523500  0.25504300  0.09776100  1
  O  O9  1  0.73476498  0.24495700  0.59776101  1
  O  O10  1  0.73476500  0.74495701  0.90223901  1
  O  O11  1  0.26523501  0.75504301  0.40223901  1
  O  O12  1  0.06983900  0.18398100  0.39014301  1
  O  O13  1  0.93016097  0.31601900  0.89014301  1
  O  O14  1  0.93016099  0.81601901  0.60985701  1
  O  O15  1  0.06983902  0.68398101  0.10985700  1
  O  O16  1  0.69350700  0.90636001  0.13888100  1
  O  O17  1  0.30649301  0.59364001  0.63888101  1
  O  O18  1  0.30649299  0.09364000  0.86111901  1
  O  O19  1  0.69350699  0.40636001  0.36111901  1
