# generated using pymatgen
data_NaF
_symmetry_space_group_name_H-M   'P 1'
_cell_length_a   4.04051399
_cell_length_b   4.92100954
_cell_length_c   4.92337561
_cell_angle_alpha   119.98409271
_cell_angle_beta   90.00000000
_cell_angle_gamma   90.00000000
_symmetry_Int_Tables_number   1
_chemical_formula_structural   NaF
_chemical_formula_sum   'Na3 F3'
_cell_volume   84.79183131
_cell_formula_units_Z   3
loop_
 _symmetry_equiv_pos_site_id
 _symmetry_equiv_pos_as_xyz
  1  'x, y, z'
loop_
 _atom_site_type_symbol
 _atom_site_label
 _atom_site_symmetry_multiplicity
 _atom_site_fract_x
 _atom_site_fract_y
 _atom_site_fract_z
 _atom_site_occupancy
  Na  Na0  1  1.00000000  0.99998595  -0.00000005  1
  Na  Na1  1  0.50000000  0.49999798  0.99999997  1
  F  F2  1  0.50000000  0.49999198  0.50001197  1
  F  F3  1  0.50000000  0.99997995  0.49998795  1
  F  F4  1  0.00000000  0.33310098  0.66625798  1
  Na  Na5  1  0.00000000  0.66684297  0.33374197  1
