# generated using pymatgen
data_Ba6BiSbO12
_symmetry_space_group_name_H-M   'P 1'
_cell_length_a   6.80811119
_cell_length_b   6.80811119
_cell_length_c   9.92629147
_cell_angle_alpha   90.00000000
_cell_angle_beta   90.00000000
_cell_angle_gamma   90.00000000
_symmetry_Int_Tables_number   1
_chemical_formula_structural   Ba6BiSbO12
_chemical_formula_sum   'Ba6 Bi1 Sb1 O12'
_cell_volume   460.08736144
_cell_formula_units_Z   1
loop_
 _symmetry_equiv_pos_site_id
 _symmetry_equiv_pos_as_xyz
  1  'x, y, z'
loop_
 _atom_site_type_symbol
 _atom_site_label
 _atom_site_symmetry_multiplicity
 _atom_site_fract_x
 _atom_site_fract_y
 _atom_site_fract_z
 _atom_site_occupancy
  Ba  Ba0  1  0.00000000  0.49999999  0.24999999  1
  Ba  Ba1  1  0.00000000  0.49999999  0.74999996  1
  Ba  Ba2  1  0.49999999  0.00000000  0.24999999  1
  Ba  Ba3  1  0.49999999  0.00000000  0.74999996  1
  Ba  Ba4  1  0.00000000  0.00000000  0.49999998  1
  Ba  Ba5  1  0.49999999  0.49999999  -0.00000000  1
  Bi  Bi6  1  0.00000000  0.00000000  0.00000000  1
  Sb  Sb7  1  0.49999999  0.49999999  0.49999998  1
  O  O8  1  0.13770900  0.26702699  -0.00000000  1
  O  O9  1  0.86229098  0.73297298  -0.00000000  1
  O  O10  1  0.73297298  0.13770900  0.00000000  1
  O  O11  1  0.36229099  0.76702698  0.49999998  1
  O  O12  1  0.26702699  0.86229098  -0.00000000  1
  O  O13  1  0.63770898  0.23297299  0.49999998  1
  O  O14  1  0.76702698  0.63770898  0.49999998  1
  O  O15  1  0.23297299  0.36229099  0.49999998  1
  O  O16  1  0.00000000  0.00000000  0.20644799  1
  O  O17  1  0.00000000  0.00000000  0.79355196  1
  O  O18  1  0.49999999  0.49999999  0.29355199  1
  O  O19  1  0.49999999  0.49999999  0.70644797  1
