# generated using pymatgen
data_ZrSc3Si6Rh7
_symmetry_space_group_name_H-M   'P 1'
_cell_length_a   6.85651541
_cell_length_b   6.85651541
_cell_length_c   6.85651541
_cell_angle_alpha   109.47122192
_cell_angle_beta   109.47122192
_cell_angle_gamma   109.47122192
_symmetry_Int_Tables_number   1
_chemical_formula_structural   ZrSc3Si6Rh7
_chemical_formula_sum   'Zr1 Sc3 Si6 Rh7'
_cell_volume   248.13524597
_cell_formula_units_Z   1
loop_
 _symmetry_equiv_pos_site_id
 _symmetry_equiv_pos_as_xyz
  1  'x, y, z'
loop_
 _atom_site_type_symbol
 _atom_site_label
 _atom_site_symmetry_multiplicity
 _atom_site_fract_x
 _atom_site_fract_y
 _atom_site_fract_z
 _atom_site_occupancy
  Zr  Zr0  1  0.50000007  1.00000004  1.00000006  1
  Sc  Sc1  1  0.50000003  0.50000002  0.50000004  1
  Sc  Sc2  1  0.00000000  0.00000000  0.50000000  1
  Sc  Sc3  1  0.00000003  0.50000002  0.00000003  1
  Si  Si4  1  0.68109705  0.68109702  0.00000005  1
  Si  Si5  1  0.31890302  0.31890301  0.00000003  1
  Si  Si6  1  0.31890300  0.00000000  0.31890301  1
  Si  Si7  1  0.68109700  0.00000000  0.68109701  1
  Si  Si8  1  1.00000005  0.68109702  0.68109706  1
  Si  Si9  1  1.00000002  0.31890301  0.31890304  1
  Rh  Rh10  1  0.00000000  0.00000000  0.00000000  1
  Rh  Rh11  1  0.50000002  0.25000001  0.75000002  1
  Rh  Rh12  1  0.25000005  0.75000003  0.50000005  1
  Rh  Rh13  1  0.75000003  0.50000002  0.25000004  1
  Rh  Rh14  1  0.25000003  0.50000002  0.75000003  1
  Rh  Rh15  1  0.50000005  0.75000003  0.25000005  1
  Rh  Rh16  1  0.75000002  0.25000001  0.50000003  1
