# generated using pymatgen
data_Na(HO)2
_symmetry_space_group_name_H-M   'P 1'
_cell_length_a   3.59143400
_cell_length_b   3.63327193
_cell_length_c   5.01120806
_cell_angle_alpha   96.29997253
_cell_angle_beta   90.00000000
_cell_angle_gamma   119.61980438
_symmetry_Int_Tables_number   1
_chemical_formula_structural   Na(HO)2
_chemical_formula_sum   'Na1 H2 O2'
_cell_volume   56.39000620
_cell_formula_units_Z   1
loop_
 _symmetry_equiv_pos_site_id
 _symmetry_equiv_pos_as_xyz
  1  'x, y, z'
loop_
 _atom_site_type_symbol
 _atom_site_label
 _atom_site_symmetry_multiplicity
 _atom_site_fract_x
 _atom_site_fract_y
 _atom_site_fract_z
 _atom_site_occupancy
  Na  Na0  1  0.94503500  0.00000000  0.00000000  1
  H  H1  1  0.14690999  0.57777500  0.58347300  1
  H  H2  1  0.56913500  0.42222500  0.41652700  1
  O  O3  1  0.25406399  0.61530100  0.76970200  1
  O  O4  1  0.63876300  0.38469900  0.23029801  1
