# generated using pymatgen
data_Ho(CoSi)2
_symmetry_space_group_name_H-M   'P 1'
_cell_length_a   3.80116010
_cell_length_b   3.80116010
_cell_length_c   5.38802433
_cell_angle_alpha   110.65509033
_cell_angle_beta   110.65509033
_cell_angle_gamma   90.00000000
_symmetry_Int_Tables_number   1
_chemical_formula_structural   Ho(CoSi)2
_chemical_formula_sum   'Ho1 Co2 Si2'
_cell_volume   67.47211068
_cell_formula_units_Z   1
loop_
 _symmetry_equiv_pos_site_id
 _symmetry_equiv_pos_as_xyz
  1  'x, y, z'
loop_
 _atom_site_type_symbol
 _atom_site_label
 _atom_site_symmetry_multiplicity
 _atom_site_fract_x
 _atom_site_fract_y
 _atom_site_fract_z
 _atom_site_occupancy
  Ho  Ho0  1  0.00000000  0.00000000  0.00000000  1
  Co  Co1  1  0.74999997  0.24999999  0.49999997  1
  Co  Co2  1  0.24999997  0.74999997  0.49999997  1
  Si  Si3  1  0.62419096  0.62419097  0.24838196  1
  Si  Si4  1  0.37580898  0.37580898  0.75161797  1
