# generated using pymatgen
data_Zr2Se5
_symmetry_space_group_name_H-M   'P 1'
_cell_length_a   4.07073784
_cell_length_b   6.94393921
_cell_length_c   7.05068541
_cell_angle_alpha   119.40749359
_cell_angle_beta   106.77875519
_cell_angle_gamma   90.00000000
_symmetry_Int_Tables_number   1
_chemical_formula_structural   Zr2Se5
_chemical_formula_sum   'Zr2 Se5'
_cell_volume   163.81161768
_cell_formula_units_Z   1
loop_
 _symmetry_equiv_pos_site_id
 _symmetry_equiv_pos_as_xyz
  1  'x, y, z'
loop_
 _atom_site_type_symbol
 _atom_site_label
 _atom_site_symmetry_multiplicity
 _atom_site_fract_x
 _atom_site_fract_y
 _atom_site_fract_z
 _atom_site_occupancy
  Zr  Zr0  1  0.25183002  0.26474198  0.50366000  1
  Zr  Zr1  1  0.74817006  0.73525796  0.49633999  1
  Se  Se2  1  0.00000000  0.00000000  0.00000000  1
  Se  Se3  1  0.12063102  0.45724597  0.24126198  1
  Se  Se4  1  0.87936906  0.54275397  0.75873801  1
  Se  Se5  1  0.37376402  0.03806300  0.74752802  1
  Se  Se6  1  0.62623606  0.96193695  0.25247197  1
