# generated using pymatgen
data_ZrAlNi3
_symmetry_space_group_name_H-M   'P 1'
_cell_length_a   4.98411083
_cell_length_b   7.06321287
_cell_length_c   7.44727182
_cell_angle_alpha   90.00000000
_cell_angle_beta   90.00000000
_cell_angle_gamma   90.00000000
_symmetry_Int_Tables_number   1
_chemical_formula_structural   ZrAlNi3
_chemical_formula_sum   'Zr4 Al4 Ni12'
_cell_volume   262.17253432
_cell_formula_units_Z   4
loop_
 _symmetry_equiv_pos_site_id
 _symmetry_equiv_pos_as_xyz
  1  'x, y, z'
loop_
 _atom_site_type_symbol
 _atom_site_label
 _atom_site_symmetry_multiplicity
 _atom_site_fract_x
 _atom_site_fract_y
 _atom_site_fract_z
 _atom_site_occupancy
  Zr  Zr0  1  0.75000003  0.90577902  0.24829701  1
  Zr  Zr1  1  0.25000001  0.09422100  0.75170302  1
  Zr  Zr2  1  0.75000003  0.40577901  0.75170302  1
  Zr  Zr3  1  0.25000001  0.59422101  0.24829701  1
  Ni  Ni4  1  0.75000003  0.51126601  0.11594800  1
  Al  Al5  1  0.25000001  0.48873401  0.88405202  1
  Ni  Ni6  1  0.75000003  0.01126700  0.88405202  1
  Ni  Ni7  1  0.25000001  0.98873402  0.11594800  1
  Ni  Ni8  1  0.00000000  0.75000001  0.61711501  1
  Al  Al9  1  0.50000002  0.25000000  0.38288501  1
  Ni  Ni10  1  0.00000000  0.25000000  0.38288501  1
  Al  Al11  1  0.50000002  0.75000001  0.61711501  1
  Ni  Ni12  1  0.75000003  0.54985201  0.41706601  1
  Ni  Ni13  1  0.25000001  0.45014801  0.58293401  1
  Ni  Ni14  1  0.75000003  0.04985200  0.58293401  1
  Ni  Ni15  1  0.25000001  0.95014802  0.41706601  1
  Ni  Ni16  1  0.00000000  0.75000001  0.95051602  1
  Ni  Ni17  1  0.50000002  0.25000000  0.04948400  1
  Al  Al18  1  0.00000000  0.25000000  0.04948400  1
  Ni  Ni19  1  0.50000002  0.75000001  0.95051602  1
