# generated using pymatgen
data_LaY3C4
_symmetry_space_group_name_H-M   'P 1'
_cell_length_a   6.70407391
_cell_length_b   6.70407391
_cell_length_c   6.70407391
_cell_angle_alpha   90.00000000
_cell_angle_beta   90.00000000
_cell_angle_gamma   90.00000000
_symmetry_Int_Tables_number   1
_chemical_formula_structural   LaY3C4
_chemical_formula_sum   'La2 Y6 C8'
_cell_volume   301.31196658
_cell_formula_units_Z   2
loop_
 _symmetry_equiv_pos_site_id
 _symmetry_equiv_pos_as_xyz
  1  'x, y, z'
loop_
 _atom_site_type_symbol
 _atom_site_label
 _atom_site_symmetry_multiplicity
 _atom_site_fract_x
 _atom_site_fract_y
 _atom_site_fract_z
 _atom_site_occupancy
  La  La0  1  0.50000001  0.50000001  0.50000001  1
  La  La1  1  0.00000000  0.00000000  0.00000000  1
  Y  Y2  1  0.50000001  0.00000000  0.75000001  1
  Y  Y3  1  0.00000000  0.25000000  0.50000001  1
  Y  Y4  1  0.75000001  0.50000001  -0.00000000  1
  Y  Y5  1  0.50000001  0.00000000  0.25000000  1
  Y  Y6  1  0.00000000  0.75000001  0.50000001  1
  Y  Y7  1  0.25000000  0.50000001  -0.00000000  1
  C  C8  1  0.75000001  0.25000000  0.75000001  1
  C  C9  1  0.25000000  0.75000001  0.25000000  1
  C  C10  1  0.75000001  0.75000001  0.25000000  1
  C  C11  1  0.25000000  0.25000000  0.75000001  1
  C  C12  1  0.25000000  0.75000001  0.75000001  1
  C  C13  1  0.75000001  0.25000000  0.25000000  1
  C  C14  1  0.25000000  0.25000000  0.25000000  1
  C  C15  1  0.75000001  0.75000001  0.75000001  1
