# generated using pymatgen
data_Gd3In
_symmetry_space_group_name_H-M   'P 1'
_cell_length_a   4.72299814
_cell_length_b   4.72299814
_cell_length_c   6.49031448
_cell_angle_alpha   111.33680725
_cell_angle_beta   111.33680725
_cell_angle_gamma   90.00000000
_symmetry_Int_Tables_number   1
_chemical_formula_structural   Gd3In
_chemical_formula_sum   'Gd3 In1'
_cell_volume   124.14006274
_cell_formula_units_Z   1
loop_
 _symmetry_equiv_pos_site_id
 _symmetry_equiv_pos_as_xyz
  1  'x, y, z'
loop_
 _atom_site_type_symbol
 _atom_site_label
 _atom_site_symmetry_multiplicity
 _atom_site_fract_x
 _atom_site_fract_y
 _atom_site_fract_z
 _atom_site_occupancy
  Gd  Gd0  1  0.00000000  0.00000000  0.00000000  1
  Gd  Gd1  1  0.74999997  0.24999999  0.49999999  1
  Gd  Gd2  1  0.24999998  0.74999997  0.49999998  1
  In  In3  1  0.49999997  0.49999998  -0.00000002  1
