# generated using pymatgen
data_Ce(MnAl2)4
_symmetry_space_group_name_H-M   'P 1'
_cell_length_a   5.04370594
_cell_length_b   6.73736715
_cell_length_c   6.73736715
_cell_angle_alpha   81.94597626
_cell_angle_beta   68.01842499
_cell_angle_gamma   68.01842499
_symmetry_Int_Tables_number   1
_chemical_formula_structural   Ce(MnAl2)4
_chemical_formula_sum   'Ce1 Mn4 Al8'
_cell_volume   196.86780928
_cell_formula_units_Z   1
loop_
 _symmetry_equiv_pos_site_id
 _symmetry_equiv_pos_as_xyz
  1  'x, y, z'
loop_
 _atom_site_type_symbol
 _atom_site_label
 _atom_site_symmetry_multiplicity
 _atom_site_fract_x
 _atom_site_fract_y
 _atom_site_fract_z
 _atom_site_occupancy
  Ce  Ce0  1  0.00000000  0.00000000  0.00000000  1
  Al  Al1  1  0.27333999  0.22666001  0.22666000  1
  Al  Al2  1  0.49999996  0.77334004  0.22666000  1
  Al  Al3  1  0.65579599  0.34420402  0.34420399  1
  Al  Al4  1  -0.00000005  0.65579603  0.34420402  1
  Al  Al5  1  0.34420396  0.65579603  0.65579602  1
  Al  Al6  1  -0.00000003  0.34420402  0.65579603  1
  Al  Al7  1  0.72665996  0.77334004  0.77334001  1
  Al  Al8  1  0.50000000  0.22666001  0.77334001  1
  Mn  Mn9  1  -0.00000004  0.50000002  0.00000001  1
  Mn  Mn10  1  0.49999998  0.50000002  -0.00000001  1
  Mn  Mn11  1  0.49999994  1.00000005  0.50000002  1
  Mn  Mn12  1  0.00000000  0.00000000  0.50000001  1
