# generated using pymatgen
data_Ce2Si5Ni6
_symmetry_space_group_name_H-M   'P 1'
_cell_length_a   4.10555410
_cell_length_b   4.10555410
_cell_length_c   12.65254593
_cell_angle_alpha   99.33706665
_cell_angle_beta   99.33706665
_cell_angle_gamma   90.00000000
_symmetry_Int_Tables_number   1
_chemical_formula_structural   Ce2Si5Ni6
_chemical_formula_sum   'Ce2 Si5 Ni6'
_cell_volume   207.57633538
_cell_formula_units_Z   1
loop_
 _symmetry_equiv_pos_site_id
 _symmetry_equiv_pos_as_xyz
  1  'x, y, z'
loop_
 _atom_site_type_symbol
 _atom_site_label
 _atom_site_symmetry_multiplicity
 _atom_site_fract_x
 _atom_site_fract_y
 _atom_site_fract_z
 _atom_site_occupancy
  Ce  Ce0  1  0.64893099  0.64893098  0.29786200  1
  Ce  Ce1  1  0.35106899  0.35106899  0.70213799  1
  Ni  Ni2  1  0.44784099  0.94783998  0.89568099  1
  Ni  Ni3  1  0.94784098  0.44783999  0.89568099  1
  Ni  Ni4  1  0.55215899  0.05216000  0.10431900  1
  Ni  Ni5  1  0.05215900  0.55215999  0.10431900  1
  Si  Si6  1  0.74999998  0.24999999  0.49999999  1
  Si  Si7  1  0.25000000  0.74999998  0.49999999  1
  Si  Si8  1  0.49999999  0.49999999  0.00000000  1
  Si  Si9  1  0.89615198  0.89615098  0.79230299  1
  Si  Si10  1  0.10384800  0.10384900  0.20769700  1
  Ni  Ni11  1  0.80173398  0.80173398  0.60346799  1
  Ni  Ni12  1  0.19826600  0.19826600  0.39653199  1
