# generated using pymatgen
data_LaTe7
_symmetry_space_group_name_H-M   'P 1'
_cell_length_a   9.03116608
_cell_length_b   9.08436489
_cell_length_c   9.03116608
_cell_angle_alpha   119.80647278
_cell_angle_beta   90.00000000
_cell_angle_gamma   119.80647278
_symmetry_Int_Tables_number   1
_chemical_formula_structural   LaTe7
_chemical_formula_sum   'La2 Te14'
_cell_volume   526.97295606
_cell_formula_units_Z   2
loop_
 _symmetry_equiv_pos_site_id
 _symmetry_equiv_pos_as_xyz
  1  'x, y, z'
loop_
 _atom_site_type_symbol
 _atom_site_label
 _atom_site_symmetry_multiplicity
 _atom_site_fract_x
 _atom_site_fract_y
 _atom_site_fract_z
 _atom_site_occupancy
  La  La0  1  0.75000002  0.50000001  0.75000002  1
  La  La1  1  0.25000002  0.50000001  0.25000002  1
  Te  Te2  1  0.83708099  0.00000100  0.66291999  1
  Te  Te3  1  0.16291905  0.99999903  0.33708005  1
  Te  Te4  1  0.33708100  0.00000000  0.83708099  1
  Te  Te5  1  0.66291899  0.00000000  0.16291900  1
  Te  Te6  1  0.16987103  0.62407102  0.95420002  1
  Te  Te7  1  0.83012901  0.37592901  0.04580002  1
  Te  Te8  1  0.45420003  0.62407102  0.66987103  1
  Te  Te9  1  0.66987103  0.62407102  0.16987103  1
  Te  Te10  1  0.04580002  0.37592901  0.54580001  1
  Te  Te11  1  0.54580001  0.37592901  0.33012902  1
  Te  Te12  1  0.33012902  0.37592901  0.83012901  1
  Te  Te13  1  0.95420002  0.62407102  0.45420003  1
  Te  Te14  1  0.00000000  0.00000000  0.00000000  1
  Te  Te15  1  0.50000000  0.00000000  0.50000000  1
