# generated using pymatgen
data_EuSi2Rh
_symmetry_space_group_name_H-M   'P 1'
_cell_length_a   4.31639814
_cell_length_b   4.35053015
_cell_length_c   8.56354904
_cell_angle_alpha   75.28480530
_cell_angle_beta   90.00000000
_cell_angle_gamma   90.00000000
_symmetry_Int_Tables_number   1
_chemical_formula_structural   EuSi2Rh
_chemical_formula_sum   'Eu2 Si4 Rh2'
_cell_volume   155.53708182
_cell_formula_units_Z   2
loop_
 _symmetry_equiv_pos_site_id
 _symmetry_equiv_pos_as_xyz
  1  'x, y, z'
loop_
 _atom_site_type_symbol
 _atom_site_label
 _atom_site_symmetry_multiplicity
 _atom_site_fract_x
 _atom_site_fract_y
 _atom_site_fract_z
 _atom_site_occupancy
  Eu  Eu0  1  0.24999999  0.89201497  0.21596998  1
  Eu  Eu1  1  0.74999998  0.10798500  0.78402997  1
  Rh  Rh2  1  0.24999999  0.68556398  0.62887197  1
  Rh  Rh3  1  0.74999998  0.31443599  0.37112798  1
  Si  Si4  1  0.24999999  0.54608698  0.90782596  1
  Si  Si5  1  0.74999998  0.45391299  0.09217399  1
  Si  Si6  1  0.24999999  0.25139399  0.49721198  1
  Si  Si7  1  0.74999998  0.74860598  0.50278798  1
