# generated using pymatgen
data_AlCu
_symmetry_space_group_name_H-M   'P 1'
_cell_length_a   4.06332111
_cell_length_b   5.25571299
_cell_length_c   5.25571299
_cell_angle_alpha   95.88582611
_cell_angle_beta   90.00000000
_cell_angle_gamma   90.00000000
_symmetry_Int_Tables_number   1
_chemical_formula_structural   AlCu
_chemical_formula_sum   'Al4 Cu4'
_cell_volume   111.64746395
_cell_formula_units_Z   4
loop_
 _symmetry_equiv_pos_site_id
 _symmetry_equiv_pos_as_xyz
  1  'x, y, z'
loop_
 _atom_site_type_symbol
 _atom_site_label
 _atom_site_symmetry_multiplicity
 _atom_site_fract_x
 _atom_site_fract_y
 _atom_site_fract_z
 _atom_site_occupancy
  Al  Al0  1  0.24999999  0.40633299  0.59366696  1
  Al  Al1  1  0.24999999  0.83229097  0.16770896  1
  Cu  Cu2  1  0.74999998  0.59366698  0.40633296  1
  Cu  Cu3  1  0.74999998  0.16770899  0.83229097  1
  Cu  Cu4  1  0.24999999  0.90453197  0.65649494  1
  Cu  Cu5  1  0.24999999  0.34350499  0.09546798  1
  Al  Al6  1  0.74999998  0.09546800  0.34350499  1
  Al  Al7  1  0.74999998  0.65649498  0.90453194  1
