# generated using pymatgen
data_K2PS4
_symmetry_space_group_name_H-M   'P 1'
_cell_length_a   4.39678812
_cell_length_b   4.39678812
_cell_length_c   8.20600510
_cell_angle_alpha   105.53938293
_cell_angle_beta   105.53938293
_cell_angle_gamma   90.00000000
_symmetry_Int_Tables_number   1
_chemical_formula_structural   K2PS4
_chemical_formula_sum   'K2 P1 S4'
_cell_volume   146.81012498
_cell_formula_units_Z   1
loop_
 _symmetry_equiv_pos_site_id
 _symmetry_equiv_pos_as_xyz
  1  'x, y, z'
loop_
 _atom_site_type_symbol
 _atom_site_label
 _atom_site_symmetry_multiplicity
 _atom_site_fract_x
 _atom_site_fract_y
 _atom_site_fract_z
 _atom_site_occupancy
  K  K0  1  0.34770400  0.34770400  0.69540802  1
  K  K1  1  0.65229601  0.65229599  0.30459203  1
  P  P2  1  0.00000000  0.00000000  0.00000000  1
  S  S3  1  0.12626500  0.12626500  0.25253001  1
  S  S4  1  0.87373501  0.87373499  0.74747005  1
  S  S5  1  0.49999999  0.00000000  0.00000001  1
  S  S6  1  1.00000000  0.49999999  1.00000004  1
