# generated using pymatgen
data_CaV2O4
_symmetry_space_group_name_H-M   'P 1'
_cell_length_a   3.99981594
_cell_length_b   5.49928617
_cell_length_c   9.79011059
_cell_angle_alpha   90.00000000
_cell_angle_beta   90.00000000
_cell_angle_gamma   111.32556152
_symmetry_Int_Tables_number   1
_chemical_formula_structural   CaV2O4
_chemical_formula_sum   'Ca2 V4 O8'
_cell_volume   200.59972820
_cell_formula_units_Z   2
loop_
 _symmetry_equiv_pos_site_id
 _symmetry_equiv_pos_as_xyz
  1  'x, y, z'
loop_
 _atom_site_type_symbol
 _atom_site_label
 _atom_site_symmetry_multiplicity
 _atom_site_fract_x
 _atom_site_fract_y
 _atom_site_fract_z
 _atom_site_occupancy
  V  V0  1  0.36528102  0.73056200  0.43598402  1
  V  V1  1  0.63471902  0.26943800  0.56401602  1
  V  V2  1  0.63471902  0.26943800  0.93598404  1
  V  V3  1  0.36528102  0.73056200  0.06401600  1
  O  O4  1  0.29228602  0.58457200  0.25000001  1
  O  O5  1  0.54969201  0.09938400  0.37981502  1
  O  O6  1  0.81595403  0.63190800  0.46472902  1
  O  O7  1  0.18404601  0.36809200  0.53527102  1
  O  O8  1  0.45030803  0.90061601  0.62018503  1
  O  O9  1  0.70771402  0.41542800  0.75000003  1
  Ca  Ca10  1  0.45030803  0.90061601  0.87981504  1
  Ca  Ca11  1  0.54969201  0.09938400  0.12018501  1
  O  O12  1  0.18404601  0.36809200  0.96472904  1
  O  O13  1  0.81595403  0.63190800  0.03527100  1
