# generated using pymatgen
data_Rb3I4
_symmetry_space_group_name_H-M   'P 1'
_cell_length_a   9.30549335
_cell_length_b   9.30549335
_cell_length_c   9.30549335
_cell_angle_alpha   109.47122192
_cell_angle_beta   109.47122192
_cell_angle_gamma   109.47122192
_symmetry_Int_Tables_number   1
_chemical_formula_structural   Rb3I4
_chemical_formula_sum   'Rb6 I8'
_cell_volume   620.29216917
_cell_formula_units_Z   2
loop_
 _symmetry_equiv_pos_site_id
 _symmetry_equiv_pos_as_xyz
  1  'x, y, z'
loop_
 _atom_site_type_symbol
 _atom_site_label
 _atom_site_symmetry_multiplicity
 _atom_site_fract_x
 _atom_site_fract_y
 _atom_site_fract_z
 _atom_site_occupancy
  Rb  Rb0  1  0.35621102  0.35621101  0.85621101  1
  I  I1  1  1.00000002  0.50000001  0.14378905  1
  Rb  Rb2  1  0.64378899  0.00000000  0.00000002  1
  Rb  Rb3  1  0.50000004  0.64378901  0.50000004  1
  Rb  Rb4  1  0.14378900  0.00000000  0.00000000  1
  Rb  Rb5  1  0.50000000  0.14378900  0.50000001  1
  I  I6  1  0.85621105  0.85621102  0.35621106  1
  Rb  Rb7  1  0.00000003  0.50000001  0.64378902  1
  I  I8  1  0.87500000  0.12500000  0.75000001  1
  I  I9  1  0.75000003  0.62500001  0.87500004  1
  I  I10  1  0.25000005  0.87500002  0.62500004  1
  I  I11  1  0.12500001  0.25000001  0.37500001  1
  I  I12  1  0.37500004  0.75000002  0.12500005  1
  I  I13  1  0.62500002  0.37500001  0.25000003  1
