# generated using pymatgen
data_Ca3Mn2O7
_symmetry_space_group_name_H-M   'P 1'
_cell_length_a   5.17109871
_cell_length_b   5.41194725
_cell_length_c   6.68062782
_cell_angle_alpha   112.09198761
_cell_angle_beta   110.89891815
_cell_angle_gamma   94.29029846
_symmetry_Int_Tables_number   1
_chemical_formula_structural   Ca3Mn2O7
_chemical_formula_sum   'Ca3 Mn2 O7'
_cell_volume   157.05195209
_cell_formula_units_Z   1
loop_
 _symmetry_equiv_pos_site_id
 _symmetry_equiv_pos_as_xyz
  1  'x, y, z'
loop_
 _atom_site_type_symbol
 _atom_site_label
 _atom_site_symmetry_multiplicity
 _atom_site_fract_x
 _atom_site_fract_y
 _atom_site_fract_z
 _atom_site_occupancy
  Ca  Ca0  1  0.62114598  0.37114599  0.74229197  1
  Ca  Ca1  1  0.37885396  0.62885399  0.25770796  1
  Mn  Mn2  1  0.14396593  0.89396598  0.78793191  1
  Mn  Mn3  1  0.85603401  0.10603400  0.21206801  1
  O  O4  1  0.01190398  0.21363000  0.93550695  1
  O  O5  1  0.42360295  0.72187699  0.93550693  1
  Ca  Ca6  1  0.98809596  0.78636999  0.06449297  1
  O  O7  1  0.57639699  0.27812299  0.06449299  1
  O  O8  1  0.79369597  0.63396199  0.58172196  1
  O  O9  1  0.28802593  0.94775998  0.58172192  1
  O  O10  1  0.20630398  0.36603799  0.41827796  1
  O  O11  1  0.71197401  0.05224000  0.41827800  1
