# generated using pymatgen
data_HoTi5CoSi5B
_symmetry_space_group_name_H-M   'P 1'
_cell_length_a   4.79614401
_cell_length_b   6.17327356
_cell_length_c   6.17327356
_cell_angle_alpha   79.04592896
_cell_angle_beta   67.14126587
_cell_angle_gamma   67.14126587
_symmetry_Int_Tables_number   1
_chemical_formula_structural   HoTi5CoSi5B
_chemical_formula_sum   'Ho1 Ti5 Co1 Si5 B1'
_cell_volume   155.03148720
_cell_formula_units_Z   1
loop_
 _symmetry_equiv_pos_site_id
 _symmetry_equiv_pos_as_xyz
  1  'x, y, z'
loop_
 _atom_site_type_symbol
 _atom_site_label
 _atom_site_symmetry_multiplicity
 _atom_site_fract_x
 _atom_site_fract_y
 _atom_site_fract_z
 _atom_site_occupancy
  Ho  Ho0  1  0.00000000  0.00000000  0.00000000  1
  Si  Si1  1  0.24929799  0.25070201  0.25070198  1
  Co  Co2  1  0.75070198  0.74929803  0.74929794  1
  Si  Si3  1  0.35323498  0.64676503  0.64676496  1
  Ti  Ti4  1  0.64676500  0.35323502  0.35323496  1
  Ti  Ti5  1  -0.00000003  0.65971203  0.34028797  1
  Ti  Ti6  1  1.00000001  0.34028802  0.65971195  1
  Ti  Ti7  1  0.50000000  0.17978201  0.82021799  1
  Ti  Ti8  1  0.49999997  0.82021804  0.17978194  1
  Si  Si9  1  0.49999997  1.00000005  0.49999994  1
  Si  Si10  1  0.99999998  1.00000005  0.49999991  1
  B  B11  1  0.49999999  0.50000002  -0.00000005  1
  Si  Si12  1  -0.00000002  0.50000002  -0.00000003  1
