# generated using pymatgen
data_DyCoGe
_symmetry_space_group_name_H-M   'P 1'
_cell_length_a   4.10165215
_cell_length_b   4.23760986
_cell_length_c   7.72166157
_cell_angle_alpha   105.92611694
_cell_angle_beta   105.40224457
_cell_angle_gamma   90.00000000
_symmetry_Int_Tables_number   1
_chemical_formula_structural   DyCoGe
_chemical_formula_sum   'Dy2 Co2 Ge2'
_cell_volume   124.03997313
_cell_formula_units_Z   2
loop_
 _symmetry_equiv_pos_site_id
 _symmetry_equiv_pos_as_xyz
  1  'x, y, z'
loop_
 _atom_site_type_symbol
 _atom_site_label
 _atom_site_symmetry_multiplicity
 _atom_site_fract_x
 _atom_site_fract_y
 _atom_site_fract_z
 _atom_site_occupancy
  Dy  Dy0  1  0.74804398  0.24804401  0.49608800  1
  Dy  Dy1  1  0.99970898  0.99970904  0.99941800  1
  Ge  Ge2  1  0.41603199  0.41603202  0.83206399  1
  Ge  Ge3  1  0.16848500  0.66848503  0.33697000  1
  Co  Co4  1  0.58280499  0.58280502  0.16561001  1
  Co  Co5  1  0.33492400  0.83492403  0.66984800  1
