# generated using pymatgen
data_V2O3
_symmetry_space_group_name_H-M   'P 1'
_cell_length_a   3.62014389
_cell_length_b   8.14726639
_cell_length_c   9.46345425
_cell_angle_alpha   104.88079071
_cell_angle_beta   101.02689362
_cell_angle_gamma   90.00000000
_symmetry_Int_Tables_number   1
_chemical_formula_structural   V2O3
_chemical_formula_sum   'V8 O12'
_cell_volume   264.42117423
_cell_formula_units_Z   4
loop_
 _symmetry_equiv_pos_site_id
 _symmetry_equiv_pos_as_xyz
  1  'x, y, z'
loop_
 _atom_site_type_symbol
 _atom_site_label
 _atom_site_symmetry_multiplicity
 _atom_site_fract_x
 _atom_site_fract_y
 _atom_site_fract_z
 _atom_site_occupancy
  V  V0  1  0.67673703  0.56158398  0.35347399  1
  V  V1  1  0.12513101  0.23011799  0.25026199  1
  V  V2  1  0.32237902  0.43508098  0.64475798  1
  V  V3  1  0.86978904  0.76698997  0.73957798  1
  V  V4  1  0.74837903  0.04020900  0.49675799  1
  V  V5  1  0.99978705  0.50230198  0.99957397  1
  V  V6  1  0.54862604  0.86341797  0.09725200  1
  V  V7  1  0.44818902  0.13195000  0.89637797  1
  O  O8  1  0.34832502  0.70430798  0.69664997  1
  O  O9  1  0.26194901  0.23412299  0.52389798  1
  O  O10  1  0.59104703  0.59850198  0.18209400  1
  O  O11  1  0.87756305  0.98216997  0.75512598  1
  O  O12  1  0.64851803  0.28859499  0.29703599  1
  O  O13  1  0.11860300  0.01569600  0.23720599  1
  O  O14  1  0.18589502  0.49274698  0.37178999  1
  O  O15  1  0.73864304  0.75653497  0.47728599  1
  O  O16  1  0.81118704  0.49759298  0.62237398  1
  O  O17  1  0.03322901  0.23791699  0.06645800  1
  O  O18  1  0.96220705  0.76117997  0.92441397  1
  O  O19  1  0.40860702  0.40168099  0.81721397  1
