# generated using pymatgen
data_Na2SrMn2O6
_symmetry_space_group_name_H-M   'P 1'
_cell_length_a   3.87302208
_cell_length_b   3.87302208
_cell_length_c   10.34835529
_cell_angle_alpha   100.78546906
_cell_angle_beta   100.78546906
_cell_angle_gamma   90.00000000
_symmetry_Int_Tables_number   1
_chemical_formula_structural   Na2SrMn2O6
_chemical_formula_sum   'Na2 Sr1 Mn2 O6'
_cell_volume   149.69391001
_cell_formula_units_Z   1
loop_
 _symmetry_equiv_pos_site_id
 _symmetry_equiv_pos_as_xyz
  1  'x, y, z'
loop_
 _atom_site_type_symbol
 _atom_site_label
 _atom_site_symmetry_multiplicity
 _atom_site_fract_x
 _atom_site_fract_y
 _atom_site_fract_z
 _atom_site_occupancy
  Sr  Sr0  1  0.82089995  0.82089997  0.64179995  1
  Na  Na1  1  0.18217699  0.18217699  0.36435399  1
  Na  Na2  1  0.99940994  0.99940997  0.99881993  1
  Mn  Mn3  1  0.40965998  0.40965999  0.81931997  1
  Mn  Mn4  1  0.58848997  0.58848998  0.17697997  1
  O  O5  1  0.29307898  0.29307899  0.58615798  1
  O  O6  1  0.69897396  0.69897398  0.39794796  1
  O  O7  1  0.92345696  0.42345699  0.84691395  1
  O  O8  1  0.42345696  0.92345697  0.84691395  1
  O  O9  1  0.08019798  0.58019798  0.16039598  1
  O  O10  1  0.58019798  0.08019800  0.16039598  1
