# generated using pymatgen
data_Ce3Al7Pd2
_symmetry_space_group_name_H-M   'P 1'
_cell_length_a   5.35695791
_cell_length_b   5.35695839
_cell_length_c   8.94754887
_cell_angle_alpha   90.00000000
_cell_angle_beta   90.00000000
_cell_angle_gamma   120.00000000
_symmetry_Int_Tables_number   1
_chemical_formula_structural   Ce3Al7Pd2
_chemical_formula_sum   'Ce3 Al7 Pd2'
_cell_volume   222.36745106
_cell_formula_units_Z   1
loop_
 _symmetry_equiv_pos_site_id
 _symmetry_equiv_pos_as_xyz
  1  'x, y, z'
loop_
 _atom_site_type_symbol
 _atom_site_label
 _atom_site_symmetry_multiplicity
 _atom_site_fract_x
 _atom_site_fract_y
 _atom_site_fract_z
 _atom_site_occupancy
  Ce  Ce0  1  0.66666669  0.33333333  0.57075301  1
  Ce  Ce1  1  0.33333336  0.66666666  0.42924701  1
  Ce  Ce2  1  0.33333336  0.66666666  0.07075300  1
  Al  Al3  1  0.66666669  0.33333333  0.92924701  1
  Al  Al4  1  0.00000000  0.00000000  0.50000001  1
  Al  Al5  1  0.00000000  0.00000000  0.00000000  1
  Al  Al6  1  0.17054101  0.34108200  0.75000001  1
  Pd  Pd7  1  0.17054103  0.82945899  0.75000001  1
  Al  Al8  1  0.65891804  0.82945899  0.75000001  1
  Al  Al9  1  0.82945903  0.65891799  0.25000000  1
  Pd  Pd10  1  0.82945902  0.17054100  0.25000000  1
  Al  Al11  1  0.34108201  0.17054100  0.25000000  1
