# generated using pymatgen
data_Mn7O8
_symmetry_space_group_name_H-M   'P 1'
_cell_length_a   3.53626204
_cell_length_b   3.53626227
_cell_length_c   19.56948471
_cell_angle_alpha   90.00000000
_cell_angle_beta   90.00000000
_cell_angle_gamma   120.00000000
_symmetry_Int_Tables_number   1
_chemical_formula_structural   Mn7O8
_chemical_formula_sum   'Mn7 O8'
_cell_volume   211.93316717
_cell_formula_units_Z   1
loop_
 _symmetry_equiv_pos_site_id
 _symmetry_equiv_pos_as_xyz
  1  'x, y, z'
loop_
 _atom_site_type_symbol
 _atom_site_label
 _atom_site_symmetry_multiplicity
 _atom_site_fract_x
 _atom_site_fract_y
 _atom_site_fract_z
 _atom_site_occupancy
  Mn  Mn0  1  0.66666668  0.33333334  0.92036901  1
  Mn  Mn1  1  0.66666668  0.33333334  0.64930401  1
  Mn  Mn2  1  0.66666668  0.33333334  0.38257901  1
  Mn  Mn3  1  0.66666668  0.33333334  0.12813100  1
  Mn  Mn4  1  0.33333336  0.66666668  0.78370301  1
  Mn  Mn5  1  0.33333336  0.66666668  0.51607201  1
  Mn  Mn6  1  0.33333336  0.66666668  0.25745900  1
  O  O7  1  0.66666668  0.33333334  0.75688401  1
  O  O8  1  0.66666668  0.33333334  0.49133701  1
  O  O9  1  0.66666668  0.33333334  0.25972500  1
  O  O10  1  0.33333336  0.66666668  0.89081701  1
  O  O11  1  0.33333336  0.66666668  0.62403101  1
  O  O12  1  0.33333336  0.66666668  0.35982901  1
  O  O13  1  0.33333336  0.66666668  0.15704900  1
  O  O14  1  0.66666668  0.33333334  0.02475900  1
