# generated using pymatgen
data_KAlF5
_symmetry_space_group_name_H-M   'P 1'
_cell_length_a   3.59344006
_cell_length_b   5.16082430
_cell_length_c   5.16082430
_cell_angle_alpha   74.62306976
_cell_angle_beta   69.62604523
_cell_angle_gamma   69.62604523
_symmetry_Int_Tables_number   1
_chemical_formula_structural   KAlF5
_chemical_formula_sum   'K1 Al1 F5'
_cell_volume   82.97146866
_cell_formula_units_Z   1
loop_
 _symmetry_equiv_pos_site_id
 _symmetry_equiv_pos_as_xyz
  1  'x, y, z'
loop_
 _atom_site_type_symbol
 _atom_site_label
 _atom_site_symmetry_multiplicity
 _atom_site_fract_x
 _atom_site_fract_y
 _atom_site_fract_z
 _atom_site_occupancy
  Al  Al0  1  0.49999997  0.50000000  0.50000004  1
  K  K1  1  0.00000000  0.00000000  0.00000000  1
  F  F2  1  0.49999995  0.79210001  0.20790006  1
  F  F3  1  0.49999998  0.20790000  0.79210002  1
  F  F4  1  0.25305096  0.74694901  0.74694907  1
  F  F5  1  0.74694898  0.25305100  0.25305101  1
  F  F6  1  -0.00000003  0.50000000  0.50000005  1
