# generated using pymatgen
data_Li4CrO4F5
_symmetry_space_group_name_H-M   'P 1'
_cell_length_a   5.13479424
_cell_length_b   5.46874905
_cell_length_c   6.94121933
_cell_angle_alpha   90.00000000
_cell_angle_beta   89.85185242
_cell_angle_gamma   90.00000000
_symmetry_Int_Tables_number   1
_chemical_formula_structural   Li4CrO4F5
_chemical_formula_sum   'Li4 Cr1 O4 F5'
_cell_volume   194.91504179
_cell_formula_units_Z   1
loop_
 _symmetry_equiv_pos_site_id
 _symmetry_equiv_pos_as_xyz
  1  'x, y, z'
loop_
 _atom_site_type_symbol
 _atom_site_label
 _atom_site_symmetry_multiplicity
 _atom_site_fract_x
 _atom_site_fract_y
 _atom_site_fract_z
 _atom_site_occupancy
  Li  Li0  1  0.46861198  0.40676300  0.81869100  1
  Li  Li1  1  0.96861196  0.59323699  0.31869103  1
  F  F2  1  0.98066795  0.18567400  0.99981002  1
  Li  Li3  1  0.48066798  0.81432599  0.49981001  1
  F  F4  1  0.97965395  0.68256699  0.75035702  1
  Cr  Cr5  1  0.47965398  0.31743300  0.25035701  1
  Li  Li6  1  0.05626300  0.86616399  0.92706899  1
  F  F7  1  0.08766800  0.40592900  0.80236399  1
  F  F8  1  0.66191197  0.67998099  0.71570401  1
  F  F9  1  0.11871999  0.75729799  0.54284899  1
  O  O10  1  0.55626297  0.13383600  0.42706901  1
  O  O11  1  0.58766797  0.59407099  0.30236402  1
  O  O12  1  0.16191199  0.32001900  0.21570400  1
  O  O13  1  0.61871997  0.24270200  0.04284902  1
