# generated using pymatgen
data_Nd3MgCoNiB6
_symmetry_space_group_name_H-M   'P 1'
_cell_length_a   5.69861984
_cell_length_b   5.69861984
_cell_length_c   5.69861984
_cell_angle_alpha   90.00000000
_cell_angle_beta   90.00000000
_cell_angle_gamma   90.00000000
_symmetry_Int_Tables_number   1
_chemical_formula_structural   Nd3MgCoNiB6
_chemical_formula_sum   'Nd3 Mg1 Co1 Ni1 B6'
_cell_volume   185.05850862
_cell_formula_units_Z   1
loop_
 _symmetry_equiv_pos_site_id
 _symmetry_equiv_pos_as_xyz
  1  'x, y, z'
loop_
 _atom_site_type_symbol
 _atom_site_label
 _atom_site_symmetry_multiplicity
 _atom_site_fract_x
 _atom_site_fract_y
 _atom_site_fract_z
 _atom_site_occupancy
  B  B0  1  0.67968802  0.82031202  0.17968800  1
  Ni  Ni1  1  0.82031202  0.17968800  0.67968802  1
  B  B2  1  0.17968800  0.67968802  0.82031202  1
  Co  Co3  1  0.32031201  0.32031201  0.32031201  1
  Nd  Nd4  1  0.91902503  0.41902501  0.08097500  1
  Nd  Nd5  1  0.08097500  0.91902503  0.41902501  1
  Nd  Nd6  1  0.41902501  0.08097500  0.91902503  1
  Mg  Mg7  1  0.58097502  0.58097502  0.58097502  1
  B  B8  1  0.40508901  0.59491102  0.09491100  1
  B  B9  1  0.59491102  0.09491100  0.40508901  1
  B  B10  1  0.90508903  0.90508903  0.90508903  1
  B  B11  1  0.09491100  0.40508901  0.59491102  1
