# generated using pymatgen
data_La(GeRh)2
_symmetry_space_group_name_H-M   'P 1'
_cell_length_a   4.19481993
_cell_length_b   4.19481993
_cell_length_c   6.07972431
_cell_angle_alpha   110.18083954
_cell_angle_beta   110.18083954
_cell_angle_gamma   90.00000000
_symmetry_Int_Tables_number   1
_chemical_formula_structural   La(GeRh)2
_chemical_formula_sum   'La1 Ge2 Rh2'
_cell_volume   93.38560322
_cell_formula_units_Z   1
loop_
 _symmetry_equiv_pos_site_id
 _symmetry_equiv_pos_as_xyz
  1  'x, y, z'
loop_
 _atom_site_type_symbol
 _atom_site_label
 _atom_site_symmetry_multiplicity
 _atom_site_fract_x
 _atom_site_fract_y
 _atom_site_fract_z
 _atom_site_occupancy
  La  La0  1  0.00000000  0.00000000  0.00000000  1
  Ge  Ge1  1  0.62486596  0.62486599  0.24973194  1
  Ge  Ge2  1  0.37513398  0.37513400  0.75026796  1
  Rh  Rh3  1  0.74999998  0.25000000  0.49999995  1
  Rh  Rh4  1  0.24999996  0.74999999  0.49999994  1
