# generated using pymatgen
data_Zr4SiPt12
_symmetry_space_group_name_H-M   'P 1'
_cell_length_a   7.45493555
_cell_length_b   7.45493555
_cell_length_c   7.45493555
_cell_angle_alpha   109.47122192
_cell_angle_beta   109.47122192
_cell_angle_gamma   109.47122192
_symmetry_Int_Tables_number   1
_chemical_formula_structural   Zr4SiPt12
_chemical_formula_sum   'Zr4 Si1 Pt12'
_cell_volume   318.94057162
_cell_formula_units_Z   1
loop_
 _symmetry_equiv_pos_site_id
 _symmetry_equiv_pos_as_xyz
  1  'x, y, z'
loop_
 _atom_site_type_symbol
 _atom_site_label
 _atom_site_symmetry_multiplicity
 _atom_site_fract_x
 _atom_site_fract_y
 _atom_site_fract_z
 _atom_site_occupancy
  Zr  Zr0  1  0.50000003  0.50000001  0.50000003  1
  Zr  Zr1  1  0.00000003  0.50000001  0.00000003  1
  Zr  Zr2  1  0.00000000  0.00000000  0.49999999  1
  Zr  Zr3  1  0.50000000  0.00000000  0.00000001  1
  Pt  Pt4  1  0.50000005  0.75000002  0.25000005  1
  Pt  Pt5  1  0.75000001  0.25000001  0.50000003  1
  Pt  Pt6  1  0.25000003  0.50000001  0.75000003  1
  Pt  Pt7  1  0.25000005  0.75000002  0.50000004  1
  Pt  Pt8  1  0.50000001  0.25000001  0.75000002  1
  Pt  Pt9  1  0.75000003  0.50000001  0.25000004  1
  Pt  Pt10  1  0.00000005  0.71054702  0.71054703  1
  Pt  Pt11  1  0.71054704  0.71054702  0.00000006  1
  Pt  Pt12  1  0.71054700  0.00000000  0.71054701  1
  Pt  Pt13  1  0.00000002  0.28945301  0.28945301  1
  Pt  Pt14  1  0.28945302  0.28945301  0.00000002  1
  Pt  Pt15  1  0.28945306  1.00000003  0.28945306  1
  Si  Si16  1  0.00000000  0.00000000  0.00000000  1
