# generated using pymatgen
data_Ag
_symmetry_space_group_name_H-M   'P 1'
_cell_length_a   4.10088778
_cell_length_b   4.10088778
_cell_length_c   5.32954359
_cell_angle_alpha   112.62708282
_cell_angle_beta   112.62708282
_cell_angle_gamma   90.00000000
_symmetry_Int_Tables_number   1
_chemical_formula_structural   Ag
_chemical_formula_sum   Ag4
_cell_volume   75.20050066
_cell_formula_units_Z   4
loop_
 _symmetry_equiv_pos_site_id
 _symmetry_equiv_pos_as_xyz
  1  'x, y, z'
loop_
 _atom_site_type_symbol
 _atom_site_label
 _atom_site_symmetry_multiplicity
 _atom_site_fract_x
 _atom_site_fract_y
 _atom_site_fract_z
 _atom_site_occupancy
  Ag  Ag0  1  0.75000006  0.25000002  0.50000005  1
  Ag  Ag1  1  0.25000005  0.75000006  0.50000005  1
  Ag  Ag2  1  0.50000006  0.50000004  0.00000004  1
  Ag  Ag3  1  0.00000000  0.00000000  0.00000000  1
