# generated using pymatgen
data_Zn2Cd7S5O2
_symmetry_space_group_name_H-M   'P 1'
_cell_length_a   3.82490897
_cell_length_b   6.11956978
_cell_length_c   14.44988537
_cell_angle_alpha   90.00000000
_cell_angle_beta   90.00000000
_cell_angle_gamma   90.00000000
_symmetry_Int_Tables_number   1
_chemical_formula_structural   Zn2Cd7S5O2
_chemical_formula_sum   'Zn2 Cd7 S5 O2'
_cell_volume   338.22553853
_cell_formula_units_Z   1
loop_
 _symmetry_equiv_pos_site_id
 _symmetry_equiv_pos_as_xyz
  1  'x, y, z'
loop_
 _atom_site_type_symbol
 _atom_site_label
 _atom_site_symmetry_multiplicity
 _atom_site_fract_x
 _atom_site_fract_y
 _atom_site_fract_z
 _atom_site_occupancy
  Zn  Zn0  1  0.25000000  0.74885203  0.32808399  1
  Zn  Zn1  1  0.25000000  0.24885201  0.17191600  1
  O  O2  1  0.75000001  0.25114801  0.67191598  1
  O  O3  1  0.75000001  0.75114803  0.82808398  1
  S  S4  1  0.25000000  0.22927801  0.93800398  1
  Cd  Cd5  1  0.75000001  0.77072203  0.06199600  1
  Cd  Cd6  1  0.25000000  0.72927803  0.56199599  1
  Cd  Cd7  1  0.75000001  0.27072201  0.43800399  1
  Cd  Cd8  1  0.25000000  0.62677202  0.90317098  1
  S  S9  1  0.75000001  0.37322801  0.09682900  1
  Cd  Cd10  1  0.25000000  0.12677200  0.59682898  1
  S  S11  1  0.75000001  0.87322803  0.40317099  1
  Cd  Cd12  1  0.75000001  0.12606100  0.82265998  1
  S  S13  1  0.25000000  0.37393901  0.32265999  1
  Cd  Cd14  1  0.75000001  0.62606102  0.67733998  1
  S  S15  1  0.25000000  0.87393903  0.17734000  1
