# generated using pymatgen
data_Ba4Re(BiO4)3
_symmetry_space_group_name_H-M   'P 1'
_cell_length_a   5.93014860
_cell_length_b   5.93014860
_cell_length_c   10.26947308
_cell_angle_alpha   73.21823883
_cell_angle_beta   73.21823883
_cell_angle_gamma   59.99999237
_symmetry_Int_Tables_number   1
_chemical_formula_structural   Ba4Re(BiO4)3
_chemical_formula_sum   'Ba4 Re1 Bi3 O12'
_cell_volume   294.86545119
_cell_formula_units_Z   1
loop_
 _symmetry_equiv_pos_site_id
 _symmetry_equiv_pos_as_xyz
  1  'x, y, z'
loop_
 _atom_site_type_symbol
 _atom_site_label
 _atom_site_symmetry_multiplicity
 _atom_site_fract_x
 _atom_site_fract_y
 _atom_site_fract_z
 _atom_site_occupancy
  Ba  Ba0  1  0.62502701  0.62502701  0.12491900  1
  Ba  Ba1  1  0.12496300  0.12496300  0.62511098  1
  Ba  Ba2  1  0.87479102  0.87479101  0.37562699  1
  Ba  Ba3  1  0.37520801  0.37520801  0.87437598  1
  Bi  Bi4  1  0.24987001  0.24987000  0.25038999  1
  Bi  Bi5  1  0.75012202  0.75012201  0.74963398  1
  Bi  Bi6  1  0.00029500  0.00029500  0.99911498  1
  Re  Re7  1  0.49970301  0.49970301  0.50089099  1
  O  O8  1  0.11563000  0.11563000  0.11528000  1
  O  O9  1  0.61567901  0.61567901  0.61598798  1
  O  O10  1  0.84772602  0.38320901  0.38585599  1
  O  O11  1  0.34620001  0.88547301  0.88285398  1
  O  O12  1  0.11563001  0.65346001  0.11528000  1
  O  O13  1  0.61567901  0.15265400  0.61598798  1
  O  O14  1  0.38320901  0.38320901  0.38585599  1
  O  O15  1  0.88547302  0.88547301  0.88285398  1
  O  O16  1  0.65346001  0.11563000  0.11528000  1
  O  O17  1  0.15265401  0.61567901  0.61598798  1
  O  O18  1  0.38320901  0.84772601  0.38585599  1
  O  O19  1  0.88547302  0.34620001  0.88285398  1
