# generated using pymatgen
data_Ba3Ca2LaGaAgP8
_symmetry_space_group_name_H-M   'P 1'
_cell_length_a   5.99081612
_cell_length_b   6.27624321
_cell_length_c   10.57998180
_cell_angle_alpha   90.00000000
_cell_angle_beta   90.00000000
_cell_angle_gamma   90.00000000
_symmetry_Int_Tables_number   1
_chemical_formula_structural   Ba3Ca2LaGaAgP8
_chemical_formula_sum   'Ba3 Ca2 La1 Ga1 Ag1 P8'
_cell_volume   397.80540055
_cell_formula_units_Z   1
loop_
 _symmetry_equiv_pos_site_id
 _symmetry_equiv_pos_as_xyz
  1  'x, y, z'
loop_
 _atom_site_type_symbol
 _atom_site_label
 _atom_site_symmetry_multiplicity
 _atom_site_fract_x
 _atom_site_fract_y
 _atom_site_fract_z
 _atom_site_occupancy
  La  La0  1  0.84746098  0.34134199  0.70513501  1
  Ba  Ba1  1  0.65253899  0.65865798  0.20513500  1
  Ag  Ag2  1  0.15253900  0.84134197  0.79486501  1
  Ca  Ca3  1  0.34746099  0.15865799  0.29486501  1
  Ba  Ba4  1  0.11290800  0.60139898  0.42218401  1
  Ca  Ca5  1  0.38709199  0.39860099  0.92218402  1
  P  P6  1  0.88709198  0.10139900  0.07781600  1
  Ba  Ba7  1  0.61290799  0.89860097  0.57781601  1
  P  P8  1  0.61517999  0.46326598  0.45948501  1
  P  P9  1  0.88481998  0.53673398  0.95948502  1
  P  P10  1  0.38481999  0.96326597  0.04051500  1
  P  P11  1  0.11518000  0.03673400  0.54051501  1
  P  P12  1  0.34743999  0.33224799  0.62712601  1
  P  P13  1  0.15256000  0.66775198  0.12712600  1
  P  P14  1  0.65255999  0.83224797  0.87287402  1
  Ga  Ga15  1  0.84743998  0.16775199  0.37287401  1
