# generated using pymatgen
data_CaLaYF6
_symmetry_space_group_name_H-M   'P 1'
_cell_length_a   3.89041209
_cell_length_b   5.53077793
_cell_length_c   6.55831099
_cell_angle_alpha   114.93954468
_cell_angle_beta   107.25360870
_cell_angle_gamma   90.00000000
_symmetry_Int_Tables_number   1
_chemical_formula_structural   CaLaYF6
_chemical_formula_sum   'Ca1 La1 Y1 F6'
_cell_volume   120.91760590
_cell_formula_units_Z   1
loop_
 _symmetry_equiv_pos_site_id
 _symmetry_equiv_pos_as_xyz
  1  'x, y, z'
loop_
 _atom_site_type_symbol
 _atom_site_label
 _atom_site_symmetry_multiplicity
 _atom_site_fract_x
 _atom_site_fract_y
 _atom_site_fract_z
 _atom_site_occupancy
  La  La0  1  0.50000001  0.50000000  0.00000001  1
  Y  Y1  1  0.16529000  0.16529000  0.33058001  1
  Ca  Ca2  1  0.83471002  0.83471000  0.66942003  1
  F  F3  1  0.32132900  0.05499400  0.64265802  1
  F  F4  1  0.00000002  0.78110500  -0.00000001  1
  F  F5  1  0.67867103  0.94500601  0.35734202  1
  F  F6  1  0.67867201  0.41233700  0.35734302  1
  F  F7  1  0.32132802  0.58766300  0.64265701  1
  F  F8  1  0.00000001  0.21889500  -0.00000000  1
