# generated using pymatgen
data_La8NiBi9
_symmetry_space_group_name_H-M   'P 1'
_cell_length_a   7.18835783
_cell_length_b   9.67636395
_cell_length_c   9.67636395
_cell_angle_alpha   120.00000000
_cell_angle_beta   90.00000000
_cell_angle_gamma   90.00000000
_symmetry_Int_Tables_number   1
_chemical_formula_structural   La8NiBi9
_chemical_formula_sum   'La8 Ni1 Bi9'
_cell_volume   582.88745520
_cell_formula_units_Z   1
loop_
 _symmetry_equiv_pos_site_id
 _symmetry_equiv_pos_as_xyz
  1  'x, y, z'
loop_
 _atom_site_type_symbol
 _atom_site_label
 _atom_site_symmetry_multiplicity
 _atom_site_fract_x
 _atom_site_fract_y
 _atom_site_fract_z
 _atom_site_occupancy
  La  La0  1  0.75000002  0.23074500  -0.00000000  1
  Bi  Bi1  1  0.75000002  0.76925500  0.76925500  1
  Bi  Bi2  1  0.75000002  1.00000001  0.23074500  1
  Bi  Bi3  1  0.25000001  0.76925500  1.00000000  1
  Bi  Bi4  1  0.25000001  0.23074500  0.23074500  1
  Bi  Bi5  1  0.25000001  1.00000001  0.76925500  1
  Bi  Bi6  1  0.50000001  0.33333334  0.66666667  1
  Bi  Bi7  1  0.50000001  0.66666667  0.33333333  1
  Bi  Bi8  1  1.00000002  0.66666667  0.33333333  1
  Bi  Bi9  1  0.00000000  0.33333334  0.66666667  1
  Ni  Ni10  1  0.50000001  0.00000000  -0.00000000  1
  La  La11  1  0.00000000  0.00000000  0.00000000  1
  La  La12  1  0.75000002  0.59555600  -0.00000000  1
  La  La13  1  0.75000002  0.40444400  0.40444400  1
  La  La14  1  0.75000002  1.00000001  0.59555600  1
  La  La15  1  0.25000001  0.40444400  -0.00000000  1
  La  La16  1  0.25000001  0.59555600  0.59555600  1
  La  La17  1  0.25000001  1.00000001  0.40444400  1
