# generated using pymatgen
data_HgTe10O9
_symmetry_space_group_name_H-M   'P 1'
_cell_length_a   6.31405210
_cell_length_b   7.62245893
_cell_length_c   7.68384218
_cell_angle_alpha   94.18603516
_cell_angle_beta   113.69548798
_cell_angle_gamma   92.18243408
_symmetry_Int_Tables_number   1
_chemical_formula_structural   HgTe10O9
_chemical_formula_sum   'Hg1 Te10 O9'
_cell_volume   336.81040204
_cell_formula_units_Z   1
loop_
 _symmetry_equiv_pos_site_id
 _symmetry_equiv_pos_as_xyz
  1  'x, y, z'
loop_
 _atom_site_type_symbol
 _atom_site_label
 _atom_site_symmetry_multiplicity
 _atom_site_fract_x
 _atom_site_fract_y
 _atom_site_fract_z
 _atom_site_occupancy
  Hg  Hg0  1  0.05481204  0.71935501  0.84856104  1
  O  O1  1  0.94518802  0.28064500  0.15143904  1
  Te  Te2  1  0.56277905  0.94085701  0.76637605  1
  Te  Te3  1  0.43722100  0.05914300  0.23362402  1
  Te  Te4  1  0.46854903  0.51568501  0.23882503  1
  Te  Te5  1  0.53145103  0.48431501  0.76117505  1
  Te  Te6  1  0.00503805  0.85213101  0.32158502  1
  Te  Te7  1  0.99496201  0.14786900  0.67841506  1
  Te  Te8  1  0.74566003  0.54347301  0.01812503  1
  O  O9  1  0.25434003  0.45652701  0.98187504  1
  O  O10  1  0.73627203  0.56101601  0.65003005  1
  O  O11  1  0.26372803  0.43898401  0.34997003  1
  O  O12  1  0.36513604  0.69885901  0.72408604  1
  O  O13  1  0.63486402  0.30114100  0.27591404  1
  O  O14  1  0.22716005  0.82123601  0.19719002  1
  O  O15  1  0.77284001  0.17876400  0.80281006  1
  O  O16  1  0.19669400  0.00894800  0.86351203  1
  Te  Te17  1  0.80330606  0.99105201  0.13648804  1
  Te  Te18  1  0.20276300  0.04539300  0.48502702  1
  Te  Te19  1  0.79723706  0.95460701  0.51497306  1
