# generated using pymatgen
data_K(LiS)2
_symmetry_space_group_name_H-M   'P 1'
_cell_length_a   3.86909795
_cell_length_b   3.86909795
_cell_length_c   7.70840597
_cell_angle_alpha   104.53469086
_cell_angle_beta   104.53469086
_cell_angle_gamma   90.00000000
_symmetry_Int_Tables_number   1
_chemical_formula_structural   K(LiS)2
_chemical_formula_sum   'K1 Li2 S2'
_cell_volume   107.88167779
_cell_formula_units_Z   1
loop_
 _symmetry_equiv_pos_site_id
 _symmetry_equiv_pos_as_xyz
  1  'x, y, z'
loop_
 _atom_site_type_symbol
 _atom_site_label
 _atom_site_symmetry_multiplicity
 _atom_site_fract_x
 _atom_site_fract_y
 _atom_site_fract_z
 _atom_site_occupancy
  K  K0  1  0.00000000  0.00000000  0.00000000  1
  Li  Li1  1  0.75000001  0.25000000  0.50000000  1
  Li  Li2  1  0.25000000  0.75000001  0.50000000  1
  S  S3  1  0.64300100  0.64300101  0.28600200  1
  S  S4  1  0.35699900  0.35699900  0.71399801  1
