# generated using pymatgen
data_Lu4Mg7Os
_symmetry_space_group_name_H-M   'P 1'
_cell_length_a   5.69079399
_cell_length_b   5.69079494
_cell_length_c   8.74034786
_cell_angle_alpha   90.00000000
_cell_angle_beta   90.00000000
_cell_angle_gamma   119.99999237
_symmetry_Int_Tables_number   1
_chemical_formula_structural   Lu4Mg7Os
_chemical_formula_sum   'Lu4 Mg7 Os1'
_cell_volume   245.13492128
_cell_formula_units_Z   1
loop_
 _symmetry_equiv_pos_site_id
 _symmetry_equiv_pos_as_xyz
  1  'x, y, z'
loop_
 _atom_site_type_symbol
 _atom_site_label
 _atom_site_symmetry_multiplicity
 _atom_site_fract_x
 _atom_site_fract_y
 _atom_site_fract_z
 _atom_site_occupancy
  Lu  Lu0  1  0.66666664  0.33333331  0.54970601  1
  Lu  Lu1  1  0.33333329  0.66666662  0.04970600  1
  Lu  Lu2  1  0.66666664  0.33333331  0.95029401  1
  Lu  Lu3  1  0.33333329  0.66666662  0.45029401  1
  Mg  Mg4  1  0.16003394  0.83996594  0.75000001  1
  Mg  Mg5  1  0.16003398  0.32006798  0.75000001  1
  Mg  Mg6  1  0.83996595  0.67993195  0.25000000  1
  Mg  Mg7  1  0.67993194  0.83996594  0.75000001  1
  Mg  Mg8  1  0.32006799  0.16003399  0.25000000  1
  Mg  Mg9  1  0.83996599  0.16003399  0.25000000  1
  Mg  Mg10  1  0.00000000  0.00000000  0.00000000  1
  Os  Os11  1  0.00000000  0.00000000  0.50000001  1
