# generated using pymatgen
data_AlTe
_symmetry_space_group_name_H-M   'P 1'
_cell_length_a   3.80068994
_cell_length_b   3.80069089
_cell_length_c   12.80516815
_cell_angle_alpha   90.00000000
_cell_angle_beta   90.00000000
_cell_angle_gamma   119.99999237
_symmetry_Int_Tables_number   1
_chemical_formula_structural   AlTe
_chemical_formula_sum   'Al4 Te4'
_cell_volume   160.19204351
_cell_formula_units_Z   4
loop_
 _symmetry_equiv_pos_site_id
 _symmetry_equiv_pos_as_xyz
  1  'x, y, z'
loop_
 _atom_site_type_symbol
 _atom_site_label
 _atom_site_symmetry_multiplicity
 _atom_site_fract_x
 _atom_site_fract_y
 _atom_site_fract_z
 _atom_site_occupancy
  Te  Te0  1  0.66666667  0.33333332  0.61668699  1
  Te  Te1  1  0.33333333  0.66666664  0.11668700  1
  Te  Te2  1  0.33333333  0.66666664  0.38331300  1
  Te  Te3  1  0.66666667  0.33333332  0.88331299  1
  Al  Al4  1  0.33333333  0.66666664  0.74999999  1
  Al  Al5  1  0.66666667  0.33333332  0.25000000  1
  Al  Al6  1  0.00000000  0.00000000  0.49999999  1
  Al  Al7  1  0.00000000  0.00000000  0.00000000  1
