# generated using pymatgen
data_Zr4CoSn5Ge
_symmetry_space_group_name_H-M   'P 1'
_cell_length_a   4.26671124
_cell_length_b   4.26671124
_cell_length_c   11.14687920
_cell_angle_alpha   90.00000000
_cell_angle_beta   90.00000000
_cell_angle_gamma   90.00000000
_symmetry_Int_Tables_number   1
_chemical_formula_structural   Zr4CoSn5Ge
_chemical_formula_sum   'Zr4 Co1 Sn5 Ge1'
_cell_volume   202.92698242
_cell_formula_units_Z   1
loop_
 _symmetry_equiv_pos_site_id
 _symmetry_equiv_pos_as_xyz
  1  'x, y, z'
loop_
 _atom_site_type_symbol
 _atom_site_label
 _atom_site_symmetry_multiplicity
 _atom_site_fract_x
 _atom_site_fract_y
 _atom_site_fract_z
 _atom_site_occupancy
  Zr  Zr0  1  0.00000000  0.00000000  0.69624499  1
  Zr  Zr1  1  0.00000000  0.00000000  0.30375499  1
  Sn  Sn2  1  0.49999997  0.00000000  0.88595698  1
  Sn  Sn3  1  0.00000000  0.49999997  0.88595698  1
  Ge  Ge4  1  0.49999997  0.00000000  0.11404300  1
  Sn  Sn5  1  0.00000000  0.49999997  0.11404300  1
  Sn  Sn6  1  0.49999997  0.00000000  0.49999999  1
  Sn  Sn7  1  0.00000000  0.49999997  0.49999999  1
  Zr  Zr8  1  0.49999997  0.49999997  0.69819299  1
  Zr  Zr9  1  0.49999997  0.49999997  0.30180699  1
  Co  Co10  1  0.00000000  0.00000000  0.00000000  1
