# generated using pymatgen
data_Ba2P2(HO3)3
_symmetry_space_group_name_H-M   'P 1'
_cell_length_a   6.40535545
_cell_length_b   6.40535545
_cell_length_c   6.44058895
_cell_angle_alpha   107.85512543
_cell_angle_beta   107.85512543
_cell_angle_gamma   112.54472351
_symmetry_Int_Tables_number   1
_chemical_formula_structural   Ba2P2(HO3)3
_chemical_formula_sum   'Ba2 P2 H3 O9'
_cell_volume   203.46976122
_cell_formula_units_Z   1
loop_
 _symmetry_equiv_pos_site_id
 _symmetry_equiv_pos_as_xyz
  1  'x, y, z'
loop_
 _atom_site_type_symbol
 _atom_site_label
 _atom_site_symmetry_multiplicity
 _atom_site_fract_x
 _atom_site_fract_y
 _atom_site_fract_z
 _atom_site_occupancy
  Ba  Ba0  1  0.75457001  0.25457001  0.49999999  1
  Ba  Ba1  1  0.50457001  0.50457001  0.00000000  1
  P  P2  1  0.23503500  0.73503501  0.49999999  1
  O  O3  1  0.98503502  0.98503502  0.00000000  1
  P  P4  1  0.97380402  0.89689702  0.63291998  1
  H  H5  1  0.26397700  0.34088401  0.36707999  1
  H  H6  1  0.14689700  0.72380401  0.13292000  1
  H  H7  1  0.59088401  0.01397700  0.86707997  1
  O  O8  1  0.78419602  0.01839600  0.06281200  1
  O  O9  1  0.95558302  0.72138401  0.93718697  1
  O  O10  1  0.26839600  0.53419601  0.56281298  1
  O  O11  1  0.97138402  0.70558301  0.43718799  1
  O  O12  1  0.26605900  0.20211500  0.22844099  1
  O  O13  1  0.97367502  0.03761800  0.77155998  1
  O  O14  1  0.45211501  0.01605900  0.72843998  1
  O  O15  1  0.28761800  0.72367501  0.27155899  1
