# generated using pymatgen
data_In
_symmetry_space_group_name_H-M   'P 1'
_cell_length_a   5.52493477
_cell_length_b   6.75308180
_cell_length_c   6.75308228
_cell_angle_alpha   60.00000000
_cell_angle_beta   90.00000000
_cell_angle_gamma   90.00000000
_symmetry_Int_Tables_number   1
_chemical_formula_structural   In
_chemical_formula_sum   In8
_cell_volume   218.20356294
_cell_formula_units_Z   8
loop_
 _symmetry_equiv_pos_site_id
 _symmetry_equiv_pos_as_xyz
  1  'x, y, z'
loop_
 _atom_site_type_symbol
 _atom_site_label
 _atom_site_symmetry_multiplicity
 _atom_site_fract_x
 _atom_site_fract_y
 _atom_site_fract_z
 _atom_site_occupancy
  In  In0  1  0.75000003  0.66447803  0.16776098  1
  In  In1  1  0.75000003  0.16776101  0.16776100  1
  In  In2  1  0.75000003  0.16776101  0.66447800  1
  In  In3  1  0.25000001  0.33552202  0.83223900  1
  In  In4  1  0.25000001  0.83223904  0.83223898  1
  In  In5  1  0.25000001  0.83223904  0.33552197  1
  In  In6  1  0.25000001  0.33333335  0.33333333  1
  In  In7  1  0.75000003  0.66666670  0.66666665  1
