# generated using pymatgen
data_Mg
_symmetry_space_group_name_H-M   'P 1'
_cell_length_a   3.22658396
_cell_length_b   5.15341282
_cell_length_c   8.24913216
_cell_angle_alpha   90.00000000
_cell_angle_beta   101.27809143
_cell_angle_gamma   90.00000000
_symmetry_Int_Tables_number   1
_chemical_formula_structural   Mg
_chemical_formula_sum   Mg6
_cell_volume   134.51716188
_cell_formula_units_Z   6
loop_
 _symmetry_equiv_pos_site_id
 _symmetry_equiv_pos_as_xyz
  1  'x, y, z'
loop_
 _atom_site_type_symbol
 _atom_site_label
 _atom_site_symmetry_multiplicity
 _atom_site_fract_x
 _atom_site_fract_y
 _atom_site_fract_z
 _atom_site_occupancy
  Mg  Mg0  1  0.61269201  0.25000001  0.22538400  1
  Mg  Mg1  1  0.94357102  0.25000001  0.88714196  1
  Mg  Mg2  1  0.05642900  0.75000003  0.11285799  1
  Mg  Mg3  1  0.38730801  0.75000003  0.77461596  1
  Mg  Mg4  1  0.27944701  0.25000001  0.55889397  1
  Mg  Mg5  1  0.72055302  0.75000003  0.44110599  1
