# generated using pymatgen
data_Co8Te10CO
_symmetry_space_group_name_H-M   'P 1'
_cell_length_a   6.05340195
_cell_length_b   6.14375687
_cell_length_c   8.68111038
_cell_angle_alpha   90.00000000
_cell_angle_beta   90.64007568
_cell_angle_gamma   90.00000000
_symmetry_Int_Tables_number   1
_chemical_formula_structural   Co8Te10CO
_chemical_formula_sum   'Co8 Te10 C1 O1'
_cell_volume   322.83581614
_cell_formula_units_Z   1
loop_
 _symmetry_equiv_pos_site_id
 _symmetry_equiv_pos_as_xyz
  1  'x, y, z'
loop_
 _atom_site_type_symbol
 _atom_site_label
 _atom_site_symmetry_multiplicity
 _atom_site_fract_x
 _atom_site_fract_y
 _atom_site_fract_z
 _atom_site_occupancy
  O  O0  1  0.00000000  0.00000000  0.00000000  1
  C  C1  1  0.49999998  0.50000001  0.50000000  1
  Co  Co2  1  0.00000000  0.00000000  0.50000000  1
  Co  Co3  1  0.49999998  0.50000001  -0.00000001  1
  Co  Co4  1  0.98504297  0.55801501  0.25585199  1
  Co  Co5  1  0.01495700  0.44198501  0.74414800  1
  Co  Co6  1  0.51495698  0.05801500  0.24414799  1
  Co  Co7  1  0.48504298  0.94198502  0.75585200  1
  Te  Te8  1  0.84108797  0.28562501  0.07748499  1
  Te  Te9  1  0.15891199  0.71437502  0.92251500  1
  Te  Te10  1  0.65891198  0.78562502  0.42251499  1
  Te  Te11  1  0.34108799  0.21437500  0.57748500  1
  Te  Te12  1  0.12551900  0.93237102  0.22490700  1
  Te  Te13  1  0.87448097  0.06762900  0.77509299  1
  Te  Te14  1  0.37448099  0.43237101  0.27509300  1
  Co  Co15  1  0.62551898  0.56762901  0.72490700  1
  Te  Te16  1  0.71000498  0.82774602  0.05755499  1
  Te  Te17  1  0.28999499  0.17225400  0.94244500  1
  Co  Co18  1  0.78999497  0.32774601  0.44244499  1
  Te  Te19  1  0.21000499  0.67225401  0.55755500  1
