# generated using pymatgen
data_La2Tm2CrFeBC3
_symmetry_space_group_name_H-M   'P 1'
_cell_length_a   3.77923393
_cell_length_b   5.55528784
_cell_length_c   6.73678923
_cell_angle_alpha   90.00000000
_cell_angle_beta   90.00000000
_cell_angle_gamma   109.88585663
_symmetry_Int_Tables_number   1
_chemical_formula_structural   La2Tm2CrFeBC3
_chemical_formula_sum   'La2 Tm2 Cr1 Fe1 B1 C3'
_cell_volume   133.00349284
_cell_formula_units_Z   1
loop_
 _symmetry_equiv_pos_site_id
 _symmetry_equiv_pos_as_xyz
  1  'x, y, z'
loop_
 _atom_site_type_symbol
 _atom_site_label
 _atom_site_symmetry_multiplicity
 _atom_site_fract_x
 _atom_site_fract_y
 _atom_site_fract_z
 _atom_site_occupancy
  La  La0  1  0.44844300  0.89688603  0.74999997  1
  La  La1  1  0.55155701  0.10311400  0.24999999  1
  Tm  Tm2  1  0.16541300  0.33082601  0.93669697  1
  Fe  Fe3  1  0.83458701  0.66917403  0.06330300  1
  Tm  Tm4  1  0.83458701  0.66917403  0.43669699  1
  Cr  Cr5  1  0.16541300  0.33082601  0.56330298  1
  C  C6  1  0.72923301  0.45846602  0.74999997  1
  B  B7  1  0.27076700  0.54153402  0.24999999  1
  C  C8  1  0.00000000  0.00000000  0.00000000  1
  C  C9  1  0.00000000  0.00000000  0.49999998  1
