# generated using pymatgen
data_Hg2As3S7
_symmetry_space_group_name_H-M   'P 1'
_cell_length_a   6.90996122
_cell_length_b   9.63168335
_cell_length_c   11.15513802
_cell_angle_alpha   113.31335449
_cell_angle_beta   105.04651642
_cell_angle_gamma   96.66650391
_symmetry_Int_Tables_number   1
_chemical_formula_structural   Hg2As3S7
_chemical_formula_sum   'Hg2 As3 S7'
_cell_volume   638.07527862
_cell_formula_units_Z   1
loop_
 _symmetry_equiv_pos_site_id
 _symmetry_equiv_pos_as_xyz
  1  'x, y, z'
loop_
 _atom_site_type_symbol
 _atom_site_label
 _atom_site_symmetry_multiplicity
 _atom_site_fract_x
 _atom_site_fract_y
 _atom_site_fract_z
 _atom_site_occupancy
  Hg  Hg0  1  0.92866498  0.63322398  0.96741800  1
  Hg  Hg1  1  0.46124699  0.66580598  0.03258200  1
  S  S2  1  0.82890499  0.85838497  0.13842101  1
  S  S3  1  0.19048400  0.71996398  0.86157900  1
  As  As4  1  0.98710998  0.85539697  0.35223301  1
  As  As5  1  0.13487700  0.50316398  0.64776700  1
  S  S6  1  0.12919900  0.28749199  0.69429500  1
  S  S7  1  0.93490398  0.59319698  0.30570500  1
  As  As8  1  0.46349899  0.34748599  0.86552700  1
  S  S9  1  0.09797200  0.48195898  0.13447300  1
  S  S10  1  0.44988599  0.60538198  0.23703800  1
  S  S11  1  0.71284799  0.36834399  0.76296200  1
