# generated using pymatgen
data_CeNi3Sn2
_symmetry_space_group_name_H-M   'P 1'
_cell_length_a   4.07123804
_cell_length_b   5.28866005
_cell_length_c   9.60724258
_cell_angle_alpha   90.00000000
_cell_angle_beta   90.00000000
_cell_angle_gamma   90.00000000
_symmetry_Int_Tables_number   1
_chemical_formula_structural   CeNi3Sn2
_chemical_formula_sum   'Ce2 Ni6 Sn4'
_cell_volume   206.85732513
_cell_formula_units_Z   2
loop_
 _symmetry_equiv_pos_site_id
 _symmetry_equiv_pos_as_xyz
  1  'x, y, z'
loop_
 _atom_site_type_symbol
 _atom_site_label
 _atom_site_symmetry_multiplicity
 _atom_site_fract_x
 _atom_site_fract_y
 _atom_site_fract_z
 _atom_site_occupancy
  Ce  Ce0  1  0.00000000  0.99998701  0.00000001  1
  Ce  Ce1  1  0.00000000  0.49997800  0.49999999  1
  Sn  Sn2  1  0.00000000  0.99998001  0.33186100  1
  Ni  Ni3  1  0.00000000  0.49997700  0.81406898  1
  Ni  Ni4  1  0.00000000  0.49997700  0.18593100  1
  Sn  Sn5  1  0.00000000  0.99998001  0.66813899  1
  Sn  Sn6  1  0.49999999  0.49999000  0.00000000  1
  Ni  Ni7  1  0.49999999  0.00001600  0.49999999  1
  Ni  Ni8  1  0.49999999  0.24690500  0.24808799  1
  Ni  Ni9  1  0.49999999  0.75305200  0.75191298  1
  Ni  Ni10  1  0.49999999  0.75305200  0.24808700  1
  Sn  Sn11  1  0.49999999  0.24690500  0.75191198  1
