# generated using pymatgen
data_Na2O2
_symmetry_space_group_name_H-M   'P 1'
_cell_length_a   5.20341587
_cell_length_b   5.20341587
_cell_length_c   6.38215876
_cell_angle_alpha   114.05750275
_cell_angle_beta   114.05750275
_cell_angle_gamma   90.00000000
_symmetry_Int_Tables_number   1
_chemical_formula_structural   Na2O2
_chemical_formula_sum   'Na4 O4'
_cell_volume   141.19361949
_cell_formula_units_Z   2
loop_
 _symmetry_equiv_pos_site_id
 _symmetry_equiv_pos_as_xyz
  1  'x, y, z'
loop_
 _atom_site_type_symbol
 _atom_site_label
 _atom_site_symmetry_multiplicity
 _atom_site_fract_x
 _atom_site_fract_y
 _atom_site_fract_z
 _atom_site_occupancy
  O  O0  1  0.75000001  0.25000000  0.49999999  1
  O  O1  1  0.50000001  0.50000001  -0.00000001  1
  O  O2  1  0.25000000  0.75000001  0.49999999  1
  Na  Na3  1  0.00000000  0.00000000  0.00000000  1
  O  O4  1  0.12312900  0.12312900  0.76269299  1
  Na  Na5  1  0.63956401  0.63956401  0.76269298  1
  Na  Na6  1  0.87687102  0.36043601  0.23730699  1
  Na  Na7  1  0.36043600  0.87687102  0.23730699  1
