# generated using pymatgen
data_In5Te2
_symmetry_space_group_name_H-M   'P 1'
_cell_length_a   4.51425743
_cell_length_b   4.51425743
_cell_length_c   14.43278027
_cell_angle_alpha   81.00262451
_cell_angle_beta   81.00262451
_cell_angle_gamma   60.00000381
_symmetry_Int_Tables_number   1
_chemical_formula_structural   In5Te2
_chemical_formula_sum   'In5 Te2'
_cell_volume   250.52672509
_cell_formula_units_Z   1
loop_
 _symmetry_equiv_pos_site_id
 _symmetry_equiv_pos_as_xyz
  1  'x, y, z'
loop_
 _atom_site_type_symbol
 _atom_site_label
 _atom_site_symmetry_multiplicity
 _atom_site_fract_x
 _atom_site_fract_y
 _atom_site_fract_z
 _atom_site_occupancy
  In  In0  1  0.42791201  0.42791203  0.71626400  1
  In  In1  1  0.57208802  0.57208804  0.28373599  1
  Te  Te2  1  0.13404800  0.13404801  0.59785600  1
  In  In3  1  0.28667901  0.28667902  0.13996300  1
  Te  Te4  1  0.71332102  0.71332104  0.86003699  1
  In  In5  1  0.86595203  0.86595205  0.40214399  1
  In  In6  1  0.00000000  0.00000000  0.00000000  1
