# generated using pymatgen
data_Sr3In5
_symmetry_space_group_name_H-M   'P 1'
_cell_length_a   4.92094183
_cell_length_b   6.39320898
_cell_length_c   16.40159988
_cell_angle_alpha   90.00000000
_cell_angle_beta   90.00000000
_cell_angle_gamma   112.63485718
_symmetry_Int_Tables_number   1
_chemical_formula_structural   Sr3In5
_chemical_formula_sum   'Sr6 In10'
_cell_volume   476.25974146
_cell_formula_units_Z   2
loop_
 _symmetry_equiv_pos_site_id
 _symmetry_equiv_pos_as_xyz
  1  'x, y, z'
loop_
 _atom_site_type_symbol
 _atom_site_label
 _atom_site_symmetry_multiplicity
 _atom_site_fract_x
 _atom_site_fract_y
 _atom_site_fract_z
 _atom_site_occupancy
  Sr  Sr0  1  0.08789299  0.17578600  0.60929397  1
  Sr  Sr1  1  0.91210697  0.82421399  0.39070598  1
  Sr  Sr2  1  0.08789299  0.17578600  0.89070595  1
  Sr  Sr3  1  0.91210697  0.82421399  0.10929399  1
  Sr  Sr4  1  0.36964795  0.73929599  0.74999996  1
  Sr  Sr5  1  0.63035200  0.26070400  0.24999999  1
  In  In6  1  0.66204700  0.32409400  0.74999996  1
  In  In7  1  0.33795296  0.67590599  0.24999999  1
  In  In8  1  0.37929795  0.75859599  0.53501897  1
  In  In9  1  0.62070200  0.24140400  0.46498097  1
  In  In10  1  0.37929795  0.75859599  0.96498095  1
  In  In11  1  0.62070200  0.24140400  0.03501900  1
  In  In12  1  0.20750097  0.41500200  0.09965099  1
  In  In13  1  0.79249898  0.58499799  0.90034895  1
  In  In14  1  0.20750097  0.41500200  0.40034898  1
  In  In15  1  0.79249898  0.58499799  0.59965097  1
