# generated using pymatgen
data_TiTlS2
_symmetry_space_group_name_H-M   'P 1'
_cell_length_a   3.96774411
_cell_length_b   3.96774411
_cell_length_c   7.42678833
_cell_angle_alpha   105.49318695
_cell_angle_beta   105.49318695
_cell_angle_gamma   90.00000000
_symmetry_Int_Tables_number   1
_chemical_formula_structural   TiTlS2
_chemical_formula_sum   'Ti1 Tl1 S2'
_cell_volume   108.25605005
_cell_formula_units_Z   1
loop_
 _symmetry_equiv_pos_site_id
 _symmetry_equiv_pos_as_xyz
  1  'x, y, z'
loop_
 _atom_site_type_symbol
 _atom_site_label
 _atom_site_symmetry_multiplicity
 _atom_site_fract_x
 _atom_site_fract_y
 _atom_site_fract_z
 _atom_site_occupancy
  Tl  Tl0  1  0.00000000  0.00000000  0.00000000  1
  Ti  Ti1  1  0.24999998  0.74999997  0.49999998  1
  S  S2  1  0.35362398  0.35362399  0.70724799  1
  S  S3  1  0.64637597  0.64637598  0.29275198  1
