# generated using pymatgen
data_Li3O4
_symmetry_space_group_name_H-M   'P 1'
_cell_length_a   3.02242208
_cell_length_b   3.09520602
_cell_length_c   6.79107189
_cell_angle_alpha   103.17275238
_cell_angle_beta   102.85762024
_cell_angle_gamma   90.00000000
_symmetry_Int_Tables_number   1
_chemical_formula_structural   Li3O4
_chemical_formula_sum   'Li3 O4'
_cell_volume   60.22178590
_cell_formula_units_Z   1
loop_
 _symmetry_equiv_pos_site_id
 _symmetry_equiv_pos_as_xyz
  1  'x, y, z'
loop_
 _atom_site_type_symbol
 _atom_site_label
 _atom_site_symmetry_multiplicity
 _atom_site_fract_x
 _atom_site_fract_y
 _atom_site_fract_z
 _atom_site_occupancy
  Li  Li0  1  0.81363196  0.81363199  0.62726397  1
  Li  Li1  1  0.18636799  0.18636800  0.37273599  1
  O  O2  1  0.64801097  0.64801099  0.29602197  1
  O  O3  1  0.35198898  0.35198899  0.70397798  1
  O  O4  1  0.07243899  0.57243899  0.14487799  1
  O  O5  1  0.92756096  0.42756099  0.85512197  1
  Li  Li6  1  0.49999998  0.00000000  -0.00000001  1
