# generated using pymatgen
data_KMn2OF5
_symmetry_space_group_name_H-M   'P 1'
_cell_length_a   5.12804604
_cell_length_b   5.12804604
_cell_length_c   12.25657463
_cell_angle_alpha   90.00000000
_cell_angle_beta   90.00000000
_cell_angle_gamma   120.00000000
_symmetry_Int_Tables_number   1
_chemical_formula_structural   KMn2OF5
_chemical_formula_sum   'K2 Mn4 O2 F10'
_cell_volume   279.12811087
_cell_formula_units_Z   2
loop_
 _symmetry_equiv_pos_site_id
 _symmetry_equiv_pos_as_xyz
  1  'x, y, z'
loop_
 _atom_site_type_symbol
 _atom_site_label
 _atom_site_symmetry_multiplicity
 _atom_site_fract_x
 _atom_site_fract_y
 _atom_site_fract_z
 _atom_site_occupancy
  K  K0  1  0.33333332  0.66666665  0.75000002  1
  K  K1  1  0.33333332  0.66666665  0.25000001  1
  Mn  Mn2  1  0.66666666  0.33333332  0.50000002  1
  Mn  Mn3  1  0.66666666  0.33333332  -0.00000000  1
  Mn  Mn4  1  0.00000000  0.00000000  0.00000000  1
  Mn  Mn5  1  0.00000000  0.00000000  0.50000002  1
  F  F6  1  0.95384299  0.28262399  0.58822902  1
  F  F7  1  0.95384299  0.28262399  0.08822900  1
  F  F8  1  0.71737599  0.67121898  0.58822902  1
  F  F9  1  0.71737599  0.67121898  0.08822900  1
  F  F10  1  0.71737599  0.04615700  0.91177103  1
  F  F11  1  0.71737599  0.04615700  0.41177101  1
  O  O12  1  0.32878100  0.04615700  0.58822902  1
  O  O13  1  0.32878100  0.04615700  0.08822900  1
  F  F14  1  0.32878099  0.28262399  0.91177103  1
  F  F15  1  0.32878099  0.28262399  0.41177101  1
  F  F16  1  0.95384299  0.67121898  0.91177103  1
  F  F17  1  0.95384299  0.67121898  0.41177101  1
