# generated using pymatgen
data_ZrNb11Si6
_symmetry_space_group_name_H-M   'P 1'
_cell_length_a   5.27576399
_cell_length_b   5.27576351
_cell_length_c   13.22987366
_cell_angle_alpha   90.00000000
_cell_angle_beta   90.00000000
_cell_angle_gamma   120.00000000
_symmetry_Int_Tables_number   1
_chemical_formula_structural   ZrNb11Si6
_chemical_formula_sum   'Zr1 Nb11 Si6'
_cell_volume   318.90182710
_cell_formula_units_Z   1
loop_
 _symmetry_equiv_pos_site_id
 _symmetry_equiv_pos_as_xyz
  1  'x, y, z'
loop_
 _atom_site_type_symbol
 _atom_site_label
 _atom_site_symmetry_multiplicity
 _atom_site_fract_x
 _atom_site_fract_y
 _atom_site_fract_z
 _atom_site_occupancy
  Zr  Zr0  1  0.83901095  0.67802197  0.66666668  1
  Nb  Nb1  1  0.83901099  0.16098899  -0.00000000  1
  Nb  Nb2  1  0.32197799  0.16098899  0.33333334  1
  Nb  Nb3  1  0.16098898  0.32197798  0.66666668  1
  Nb  Nb4  1  0.16098894  0.83901096  -0.00000000  1
  Nb  Nb5  1  0.67802194  0.83901096  0.33333334  1
  Nb  Nb6  1  0.50000000  0.00000000  0.78294202  1
  Nb  Nb7  1  0.49999997  0.49999998  0.11627500  1
  Nb  Nb8  1  0.99999997  0.49999998  0.44960801  1
  Nb  Nb9  1  0.50000000  0.00000000  0.55039201  1
  Nb  Nb10  1  0.99999997  0.49999998  0.21705801  1
  Nb  Nb11  1  0.49999997  0.49999998  0.88372502  1
  Si  Si12  1  0.50000000  0.00000000  0.16666700  1
  Si  Si13  1  0.49999997  0.49999998  0.50000001  1
  Si  Si14  1  0.99999997  0.49999998  0.83333302  1
  Si  Si15  1  0.00000000  0.00000000  0.16666700  1
  Si  Si16  1  0.00000000  0.00000000  0.50000001  1
  Si  Si17  1  0.00000000  0.00000000  0.83333302  1
