# generated using pymatgen
data_Na3Fe(PO4)2
_symmetry_space_group_name_H-M   'P 1'
_cell_length_a   5.18680000
_cell_length_b   5.18680000
_cell_length_c   7.13096762
_cell_angle_alpha   89.77990723
_cell_angle_beta   89.77990723
_cell_angle_gamma   64.51204681
_symmetry_Int_Tables_number   1
_chemical_formula_structural   Na3Fe(PO4)2
_chemical_formula_sum   'Na3 Fe1 P2 O8'
_cell_volume   173.17084640
_cell_formula_units_Z   1
loop_
 _symmetry_equiv_pos_site_id
 _symmetry_equiv_pos_as_xyz
  1  'x, y, z'
loop_
 _atom_site_type_symbol
 _atom_site_label
 _atom_site_symmetry_multiplicity
 _atom_site_fract_x
 _atom_site_fract_y
 _atom_site_fract_z
 _atom_site_occupancy
  Na  Na0  1  0.31215398  0.31215401  0.71554098  1
  Na  Na1  1  0.00000000  0.00000000  0.50000000  1
  Na  Na2  1  0.68784596  0.68784601  0.28445896  1
  Fe  Fe3  1  0.00000000  0.00000000  0.00000000  1
  P  P4  1  0.34562998  0.34563001  0.22285798  1
  P  P5  1  0.65436997  0.65437001  0.77714196  1
  O  O6  1  0.74967196  0.74967201  0.59838895  1
  O  O7  1  0.25032799  0.25032800  0.40161098  1
  O  O8  1  0.31785396  0.77608001  0.77925896  1
  O  O9  1  0.22391997  0.68214601  0.22074097  1
  O  O10  1  0.68214599  0.22392000  0.22074097  1
  O  O11  1  0.77607998  0.31785401  0.77925896  1
  O  O12  1  0.75597696  0.75597701  0.95468895  1
  O  O13  1  0.24402299  0.24402300  0.04531099  1
