# generated using pymatgen
data_La(SbPd)2
_symmetry_space_group_name_H-M   'P 1'
_cell_length_a   4.38992214
_cell_length_b   4.38992214
_cell_length_c   6.29277372
_cell_angle_alpha   110.41433716
_cell_angle_beta   110.41433716
_cell_angle_gamma   90.00000000
_symmetry_Int_Tables_number   1
_chemical_formula_structural   La(SbPd)2
_chemical_formula_sum   'La1 Sb2 Pd2'
_cell_volume   105.48930245
_cell_formula_units_Z   1
loop_
 _symmetry_equiv_pos_site_id
 _symmetry_equiv_pos_as_xyz
  1  'x, y, z'
loop_
 _atom_site_type_symbol
 _atom_site_label
 _atom_site_symmetry_multiplicity
 _atom_site_fract_x
 _atom_site_fract_y
 _atom_site_fract_z
 _atom_site_occupancy
  La  La0  1  0.00000000  0.00000000  0.00000000  1
  Sb  Sb1  1  0.61435597  0.61435598  0.22871199  1
  Sb  Sb2  1  0.38564398  0.38564398  0.77128802  1
  Pd  Pd3  1  0.74999997  0.24999999  0.50000001  1
  Pd  Pd4  1  0.24999998  0.74999997  0.50000001  1
