# generated using pymatgen
data_LiTmSc6O12
_symmetry_space_group_name_H-M   'P 1'
_cell_length_a   5.12361717
_cell_length_b   5.45321989
_cell_length_c   7.72458792
_cell_angle_alpha   90.00000000
_cell_angle_beta   90.00000000
_cell_angle_gamma   90.00000000
_symmetry_Int_Tables_number   1
_chemical_formula_structural   LiTmSc6O12
_chemical_formula_sum   'Li1 Tm1 Sc6 O12'
_cell_volume   215.82661688
_cell_formula_units_Z   1
loop_
 _symmetry_equiv_pos_site_id
 _symmetry_equiv_pos_as_xyz
  1  'x, y, z'
loop_
 _atom_site_type_symbol
 _atom_site_label
 _atom_site_symmetry_multiplicity
 _atom_site_fract_x
 _atom_site_fract_y
 _atom_site_fract_z
 _atom_site_occupancy
  Li  Li0  1  0.49999998  0.00000000  -0.00000000  1
  Sc  Sc1  1  0.49999998  0.00000000  0.50000001  1
  Sc  Sc2  1  0.00000000  0.50000001  0.50000001  1
  Sc  Sc3  1  0.00000000  0.50000001  -0.00000000  1
  Tm  Tm4  1  0.96936597  0.07815700  0.25000000  1
  Sc  Sc5  1  0.46936598  0.42184301  0.75000001  1
  Sc  Sc6  1  0.53063398  0.57815701  0.25000000  1
  Sc  Sc7  1  0.03063400  0.92184302  0.75000001  1
  O  O8  1  0.64273298  0.06609900  0.75000001  1
  O  O9  1  0.18691399  0.18680400  0.92573301  1
  O  O10  1  0.18691399  0.18680400  0.57426701  1
  O  O11  1  0.68691398  0.31319601  0.07426700  1
  O  O12  1  0.68691398  0.31319601  0.42573300  1
  O  O13  1  0.14273300  0.43390101  0.25000000  1
  O  O14  1  0.85726697  0.56609901  0.75000001  1
  O  O15  1  0.31308599  0.68680401  0.92573301  1
  O  O16  1  0.31308599  0.68680401  0.57426701  1
  O  O17  1  0.81308597  0.81319602  0.07426700  1
  O  O18  1  0.81308597  0.81319602  0.42573300  1
  O  O19  1  0.35726699  0.93390102  0.25000000  1
