# generated using pymatgen
data_CeNiBi2
_symmetry_space_group_name_H-M   'P 1'
_cell_length_a   6.09889507
_cell_length_b   6.96746302
_cell_length_c   9.76127911
_cell_angle_alpha   90.00000000
_cell_angle_beta   90.00000000
_cell_angle_gamma   90.00000000
_symmetry_Int_Tables_number   1
_chemical_formula_structural   CeNiBi2
_chemical_formula_sum   'Ce4 Ni4 Bi8'
_cell_volume   414.79409453
_cell_formula_units_Z   4
loop_
 _symmetry_equiv_pos_site_id
 _symmetry_equiv_pos_as_xyz
  1  'x, y, z'
loop_
 _atom_site_type_symbol
 _atom_site_label
 _atom_site_symmetry_multiplicity
 _atom_site_fract_x
 _atom_site_fract_y
 _atom_site_fract_z
 _atom_site_occupancy
  Ce  Ce0  1  0.65617299  0.16535800  0.05871100  1
  Bi  Bi1  1  0.34739900  0.54171800  0.25000000  1
  Ce  Ce2  1  0.84382699  0.66535800  0.05871100  1
  Bi  Bi3  1  0.15617300  0.33464200  0.94128899  1
  Bi  Bi4  1  0.34382700  0.83464200  0.94128899  1
  Bi  Bi5  1  0.65260099  0.45828200  0.74999999  1
  Bi  Bi6  1  0.84739899  0.95828200  0.74999999  1
  Bi  Bi7  1  0.34382700  0.83464200  0.55871099  1
  Bi  Bi8  1  0.15617300  0.33464200  0.55871099  1
  Ce  Ce9  1  0.84382699  0.66535800  0.44128900  1
  Bi  Bi10  1  0.15260100  0.04171800  0.25000000  1
  Ce  Ce11  1  0.65617299  0.16535800  0.44128900  1
  Ni  Ni12  1  0.93343799  0.36260400  0.25000000  1
  Ni  Ni13  1  0.43343799  0.13739600  0.74999999  1
  Ni  Ni14  1  0.56656199  0.86260400  0.25000000  1
  Ni  Ni15  1  0.06656200  0.63739600  0.74999999  1
