# generated using pymatgen
data_Ce7Ni8C
_symmetry_space_group_name_H-M   'P 1'
_cell_length_a   4.05174780
_cell_length_b   5.57269621
_cell_length_c   13.44610310
_cell_angle_alpha   90.00000000
_cell_angle_beta   90.00000000
_cell_angle_gamma   111.31749725
_symmetry_Int_Tables_number   1
_chemical_formula_structural   Ce7Ni8C
_chemical_formula_sum   'Ce7 Ni8 C1'
_cell_volume   282.82935568
_cell_formula_units_Z   1
loop_
 _symmetry_equiv_pos_site_id
 _symmetry_equiv_pos_as_xyz
  1  'x, y, z'
loop_
 _atom_site_type_symbol
 _atom_site_label
 _atom_site_symmetry_multiplicity
 _atom_site_fract_x
 _atom_site_fract_y
 _atom_site_fract_z
 _atom_site_occupancy
  Ce  Ce0  1  0.36251108  0.72502204  0.74999999  1
  Ce  Ce1  1  0.63748905  0.27497801  0.25000000  1
  Ce  Ce2  1  0.07903302  0.15806601  0.88760499  1
  Ce  Ce3  1  0.92096711  0.84193404  0.11239500  1
  Ce  Ce4  1  0.92096711  0.84193404  0.38760500  1
  Ce  Ce5  1  0.07903302  0.15806601  0.61239500  1
  Ni  Ni6  1  0.21432305  0.42864602  0.41903200  1
  Ni  Ni7  1  0.78567709  0.57135403  0.58096800  1
  Ni  Ni8  1  0.78567709  0.57135403  0.91903199  1
  Ce  Ce9  1  0.21432305  0.42864602  0.08096800  1
  Ni  Ni10  1  0.67251406  0.34502802  0.74999999  1
  Ni  Ni11  1  0.32748607  0.65497203  0.25000000  1
  Ni  Ni12  1  0.37607008  0.75214004  0.96035899  1
  C  C13  1  0.62393005  0.24786001  0.03964100  1
  Ni  Ni14  1  0.62393005  0.24786001  0.46035900  1
  Ni  Ni15  1  0.37607008  0.75214004  0.53964100  1
