# generated using pymatgen
data_La3GdO9
_symmetry_space_group_name_H-M   'P 1'
_cell_length_a   6.91163492
_cell_length_b   6.91163492
_cell_length_c   6.91163492
_cell_angle_alpha   60.72409821
_cell_angle_beta   60.72409821
_cell_angle_gamma   60.72409439
_symmetry_Int_Tables_number   1
_chemical_formula_structural   La3GdO9
_chemical_formula_sum   'La3 Gd1 O9'
_cell_volume   237.28296205
_cell_formula_units_Z   1
loop_
 _symmetry_equiv_pos_site_id
 _symmetry_equiv_pos_as_xyz
  1  'x, y, z'
loop_
 _atom_site_type_symbol
 _atom_site_label
 _atom_site_symmetry_multiplicity
 _atom_site_fract_x
 _atom_site_fract_y
 _atom_site_fract_z
 _atom_site_occupancy
  La  La0  1  0.99929402  0.99929399  0.99929396  1
  O  O1  1  0.39652301  0.81023299  0.39652297  1
  La  La2  1  0.40193701  0.40193700  0.40193698  1
  O  O3  1  0.39652301  0.39652300  0.81023298  1
  O  O4  1  0.81023301  0.39652300  0.39652298  1
  Gd  Gd5  1  0.63236701  0.63236700  0.63236697  1
  O  O6  1  0.59295200  0.13799600  0.13799599  1
  La  La7  1  0.13668900  0.13668900  0.13668899  1
  O  O8  1  0.13799600  0.13799600  0.59295199  1
  O  O9  1  0.63723101  0.63723100  0.09872897  1
  O  O10  1  0.13799601  0.59295200  0.13799598  1
  O  O11  1  0.63723100  0.09872900  0.63723098  1
  O  O12  1  0.09872901  0.63723100  0.63723098  1
