# generated using pymatgen
data_EuIn3
_symmetry_space_group_name_H-M   'P 1'
_cell_length_a   4.86318016
_cell_length_b   4.86318016
_cell_length_c   6.16897583
_cell_angle_alpha   113.21386719
_cell_angle_beta   113.21386719
_cell_angle_gamma   90.00000000
_symmetry_Int_Tables_number   1
_chemical_formula_structural   EuIn3
_chemical_formula_sum   'Eu1 In3'
_cell_volume   121.12900089
_cell_formula_units_Z   1
loop_
 _symmetry_equiv_pos_site_id
 _symmetry_equiv_pos_as_xyz
  1  'x, y, z'
loop_
 _atom_site_type_symbol
 _atom_site_label
 _atom_site_symmetry_multiplicity
 _atom_site_fract_x
 _atom_site_fract_y
 _atom_site_fract_z
 _atom_site_occupancy
  In  In0  1  0.74999801  0.24999900  0.49999905  1
  In  In1  1  0.25000005  0.75000100  0.49999906  1
  In  In2  1  0.50000103  0.50000100  0.00000206  1
  Eu  Eu3  1  0.00000000  0.00000000  0.00000000  1
