# generated using pymatgen
data_Ca6O7
_symmetry_space_group_name_H-M   'P 1'
_cell_length_a   6.77297783
_cell_length_b   6.82542562
_cell_length_c   6.82542562
_cell_angle_alpha   60.57542419
_cell_angle_beta   60.25386810
_cell_angle_gamma   60.25386810
_symmetry_Int_Tables_number   1
_chemical_formula_structural   Ca6O7
_chemical_formula_sum   'Ca6 O7'
_cell_volume   224.93012862
_cell_formula_units_Z   1
loop_
 _symmetry_equiv_pos_site_id
 _symmetry_equiv_pos_as_xyz
  1  'x, y, z'
loop_
 _atom_site_type_symbol
 _atom_site_label
 _atom_site_symmetry_multiplicity
 _atom_site_fract_x
 _atom_site_fract_y
 _atom_site_fract_z
 _atom_site_occupancy
  Ca  Ca0  1  0.60349703  0.60485202  0.60485201  1
  Ca  Ca1  1  0.18679902  0.60485202  0.60485200  1
  Ca  Ca2  1  0.99977201  0.00022800  0.00022803  1
  Ca  Ca3  1  0.60275503  0.60422602  0.19026400  1
  Ca  Ca4  1  0.60275501  0.19026401  0.60422602  1
  O  O5  1  0.86901104  0.85779602  0.40418200  1
  O  O6  1  0.86901202  0.40418201  0.85779503  1
  Ca  Ca7  1  0.87214404  0.86337202  0.86337201  1
  O  O8  1  0.40111203  0.86337202  0.86337200  1
  O  O9  1  0.36261502  0.36869901  0.90607102  1
  O  O10  1  0.36261403  0.90607102  0.36869998  1
  O  O11  1  0.36112102  0.36604301  0.36604300  1
  O  O12  1  0.90679302  0.36604301  0.36604302  1
