# generated using pymatgen
data_Gd(IrN)2
_symmetry_space_group_name_H-M   'P 1'
_cell_length_a   3.61402988
_cell_length_b   3.61402988
_cell_length_c   5.34646749
_cell_angle_alpha   109.75403595
_cell_angle_beta   109.75403595
_cell_angle_gamma   90.00000000
_symmetry_Int_Tables_number   1
_chemical_formula_structural   Gd(IrN)2
_chemical_formula_sum   'Gd1 Ir2 N2'
_cell_volume   61.33780290
_cell_formula_units_Z   1
loop_
 _symmetry_equiv_pos_site_id
 _symmetry_equiv_pos_as_xyz
  1  'x, y, z'
loop_
 _atom_site_type_symbol
 _atom_site_label
 _atom_site_symmetry_multiplicity
 _atom_site_fract_x
 _atom_site_fract_y
 _atom_site_fract_z
 _atom_site_occupancy
  Gd  Gd0  1  0.00000000  0.00000000  0.00000000  1
  N  N1  1  0.75000004  0.25000001  0.50000001  1
  N  N2  1  0.25000003  0.75000003  0.50000001  1
  Ir  Ir3  1  0.34095902  0.34095902  0.68191800  1
  Ir  Ir4  1  0.65904104  0.65904103  0.31808202  1
