# generated using pymatgen
data_RbCrTeSe
_symmetry_space_group_name_H-M   'P 1'
_cell_length_a   5.22990704
_cell_length_b   5.22990704
_cell_length_c   10.13413811
_cell_angle_alpha   90.00000000
_cell_angle_beta   90.00000000
_cell_angle_gamma   90.00000000
_symmetry_Int_Tables_number   1
_chemical_formula_structural   RbCrTeSe
_chemical_formula_sum   'Rb2 Cr2 Te2 Se2'
_cell_volume   277.18821183
_cell_formula_units_Z   2
loop_
 _symmetry_equiv_pos_site_id
 _symmetry_equiv_pos_as_xyz
  1  'x, y, z'
loop_
 _atom_site_type_symbol
 _atom_site_label
 _atom_site_symmetry_multiplicity
 _atom_site_fract_x
 _atom_site_fract_y
 _atom_site_fract_z
 _atom_site_occupancy
  Rb  Rb0  1  0.00000000  0.50000000  0.30283100  1
  Rb  Rb1  1  0.50000000  0.00000000  0.69716899  1
  Cr  Cr2  1  0.50000000  0.00000000  0.08377800  1
  Cr  Cr3  1  0.00000000  0.50000000  0.91622199  1
  Se  Se4  1  0.00000000  0.50000000  0.66666666  1
  Se  Se5  1  0.50000000  0.00000000  0.33333333  1
  Te  Te6  1  0.00000000  0.00000000  0.00000000  1
  Te  Te7  1  0.50000000  0.50000000  -0.00000000  1
