# generated using pymatgen
data_Cs3BaThZrCl12
_symmetry_space_group_name_H-M   'P 1'
_cell_length_a   7.47987604
_cell_length_b   7.47987604
_cell_length_c   11.32189083
_cell_angle_alpha   90.00000000
_cell_angle_beta   90.00000000
_cell_angle_gamma   90.00000000
_symmetry_Int_Tables_number   1
_chemical_formula_structural   Cs3BaThZrCl12
_chemical_formula_sum   'Cs3 Ba1 Th1 Zr1 Cl12'
_cell_volume   633.44332538
_cell_formula_units_Z   1
loop_
 _symmetry_equiv_pos_site_id
 _symmetry_equiv_pos_as_xyz
  1  'x, y, z'
loop_
 _atom_site_type_symbol
 _atom_site_label
 _atom_site_symmetry_multiplicity
 _atom_site_fract_x
 _atom_site_fract_y
 _atom_site_fract_z
 _atom_site_occupancy
  Ba  Ba0  1  0.00000000  0.50000000  0.75000001  1
  Cs  Cs1  1  0.50000000  0.00000000  0.75000001  1
  Cs  Cs2  1  0.00000000  0.50000000  0.25000000  1
  Cs  Cs3  1  0.50000000  0.00000000  0.25000000  1
  Zr  Zr4  1  0.00000000  0.00000000  0.00000000  1
  Th  Th5  1  0.50000000  0.50000000  0.50000001  1
  Cl  Cl6  1  0.00000000  0.00000000  0.23732700  1
  Cl  Cl7  1  0.50000000  0.50000000  0.26267300  1
  Cl  Cl8  1  0.00000000  0.00000000  0.76267301  1
  Cl  Cl9  1  0.50000000  0.50000000  0.73732701  1
  Cl  Cl10  1  0.18936700  0.70034700  -0.00000000  1
  Cl  Cl11  1  0.79965300  0.31063300  0.50000001  1
  Cl  Cl12  1  0.81063300  0.29965300  0.00000000  1
  Cl  Cl13  1  0.20034700  0.68936700  0.50000001  1
  Cl  Cl14  1  0.31063300  0.20034700  0.50000001  1
  Cl  Cl15  1  0.68936700  0.79965300  0.50000001  1
  Cl  Cl16  1  0.29965300  0.18936700  -0.00000000  1
  Cl  Cl17  1  0.70034700  0.81063300  0.00000000  1
