# generated using pymatgen
data_Lu3Sc(B2Os)4
_symmetry_space_group_name_H-M   'P 1'
_cell_length_a   5.25338507
_cell_length_b   5.87863302
_cell_length_c   6.29743481
_cell_angle_alpha   90.00000000
_cell_angle_beta   90.00000000
_cell_angle_gamma   90.00000000
_symmetry_Int_Tables_number   1
_chemical_formula_structural   Lu3Sc(B2Os)4
_chemical_formula_sum   'Lu3 Sc1 B8 Os4'
_cell_volume   194.48193433
_cell_formula_units_Z   1
loop_
 _symmetry_equiv_pos_site_id
 _symmetry_equiv_pos_as_xyz
  1  'x, y, z'
loop_
 _atom_site_type_symbol
 _atom_site_label
 _atom_site_symmetry_multiplicity
 _atom_site_fract_x
 _atom_site_fract_y
 _atom_site_fract_z
 _atom_site_occupancy
  Sc  Sc0  1  0.25000000  0.00640700  0.34884701  1
  Lu  Lu1  1  0.25000000  0.50640700  0.15115300  1
  Lu  Lu2  1  0.74999999  0.99359300  0.65115302  1
  Lu  Lu3  1  0.74999999  0.49359300  0.84884703  1
  B  B4  1  0.07300000  0.37227500  0.54356602  1
  B  B5  1  0.42699999  0.87227500  0.95643403  1
  B  B6  1  0.57299999  0.62772500  0.45643401  1
  B  B7  1  0.92699999  0.12772500  0.04356600  1
  B  B8  1  0.92699999  0.62772500  0.45643401  1
  B  B9  1  0.57299999  0.12772500  0.04356600  1
  B  B10  1  0.42699999  0.37227500  0.54356602  1
  B  B11  1  0.07300000  0.87227500  0.95643403  1
  Os  Os12  1  0.25000000  0.17986200  0.80851302  1
  Os  Os13  1  0.25000000  0.67986200  0.69148702  1
  Os  Os14  1  0.74999999  0.82013800  0.19148701  1
  Os  Os15  1  0.74999999  0.32013800  0.30851301  1
