# generated using pymatgen
data_NaLi(GdS2)2
_symmetry_space_group_name_H-M   'P 1'
_cell_length_a   4.71266460
_cell_length_b   4.71266460
_cell_length_c   8.12332916
_cell_angle_alpha   73.13786316
_cell_angle_beta   73.13786316
_cell_angle_gamma   59.99998856
_symmetry_Int_Tables_number   1
_chemical_formula_structural   NaLi(GdS2)2
_chemical_formula_sum   'Na1 Li1 Gd2 S4'
_cell_volume   147.21713691
_cell_formula_units_Z   1
loop_
 _symmetry_equiv_pos_site_id
 _symmetry_equiv_pos_as_xyz
  1  'x, y, z'
loop_
 _atom_site_type_symbol
 _atom_site_label
 _atom_site_symmetry_multiplicity
 _atom_site_fract_x
 _atom_site_fract_y
 _atom_site_fract_z
 _atom_site_occupancy
  Li  Li0  1  0.74932103  0.74932103  0.75203698  1
  Na  Na1  1  0.25050501  0.25050501  0.24848499  1
  S  S2  1  0.12509000  0.12509001  0.62473001  1
  S  S3  1  0.62481202  0.62481203  0.12556397  1
  Gd  Gd4  1  0.00101000  0.00101000  0.99697003  1
  Gd  Gd5  1  0.49928002  0.49928002  0.50215999  1
  S  S6  1  0.37591901  0.37591902  0.87224300  1
  S  S7  1  0.87406303  0.87406304  0.37781096  1
