# generated using pymatgen
data_Tm2Se3
_symmetry_space_group_name_H-M   'P 1'
_cell_length_a   4.10292196
_cell_length_b   4.10292149
_cell_length_c   14.03128815
_cell_angle_alpha   90.00000000
_cell_angle_beta   90.00000000
_cell_angle_gamma   120.00000763
_symmetry_Int_Tables_number   1
_chemical_formula_structural   Tm2Se3
_chemical_formula_sum   'Tm4 Se6'
_cell_volume   204.55712202
_cell_formula_units_Z   2
loop_
 _symmetry_equiv_pos_site_id
 _symmetry_equiv_pos_as_xyz
  1  'x, y, z'
loop_
 _atom_site_type_symbol
 _atom_site_label
 _atom_site_symmetry_multiplicity
 _atom_site_fract_x
 _atom_site_fract_y
 _atom_site_fract_z
 _atom_site_occupancy
  Tm  Tm0  1  0.33333337  0.66666667  0.38206800  1
  Tm  Tm1  1  0.66666669  0.33333334  0.88206799  1
  Tm  Tm2  1  0.33333337  0.66666667  0.64765399  1
  Tm  Tm3  1  0.66666669  0.33333334  0.14765400  1
  Se  Se4  1  0.00000000  0.00000000  0.00161500  1
  Se  Se5  1  0.00000000  0.00000000  0.50161499  1
  Se  Se6  1  0.33333337  0.66666667  0.01736200  1
  Se  Se7  1  0.66666669  0.33333334  0.51736199  1
  Se  Se8  1  0.00000000  0.00000000  0.26697100  1
  Se  Se9  1  0.00000000  0.00000000  0.76697099  1
