# generated using pymatgen
data_Na2O
_symmetry_space_group_name_H-M   'P 1'
_cell_length_a   6.27901602
_cell_length_b   6.27901554
_cell_length_c   11.26716518
_cell_angle_alpha   90.00000000
_cell_angle_beta   90.00000000
_cell_angle_gamma   120.00000000
_symmetry_Int_Tables_number   1
_chemical_formula_structural   Na2O
_chemical_formula_sum   'Na12 O6'
_cell_volume   384.70554139
_cell_formula_units_Z   6
loop_
 _symmetry_equiv_pos_site_id
 _symmetry_equiv_pos_as_xyz
  1  'x, y, z'
loop_
 _atom_site_type_symbol
 _atom_site_label
 _atom_site_symmetry_multiplicity
 _atom_site_fract_x
 _atom_site_fract_y
 _atom_site_fract_z
 _atom_site_occupancy
  Na  Na0  1  -0.00000001  0.37624400  0.80096499  1
  O  O1  1  0.33333331  0.66666667  0.29176200  1
  Na  Na2  1  -0.00000002  0.62375600  0.19903500  1
  Na  Na3  1  0.62375598  0.62375600  0.80096499  1
  O  O4  1  0.33333331  0.66666667  0.70823799  1
  Na  Na5  1  0.37624400  0.00000000  0.80096499  1
  Na  Na6  1  0.37624399  0.37624400  0.19903500  1
  O  O7  1  0.66666665  0.33333334  0.29176200  1
  O  O8  1  0.66666665  0.33333334  0.70823799  1
  Na  Na9  1  0.62375596  1.00000001  0.19903500  1
  Na  Na10  1  0.00000000  0.00000000  0.22452600  1
  Na  Na11  1  0.49999998  0.50000000  -0.00000000  1
  Na  Na12  1  0.33333331  0.66666667  0.49999999  1
  O  O13  1  0.00000000  0.00000000  0.77547399  1
  O  O14  1  -0.00000002  0.50000000  0.99999998  1
  Na  Na15  1  0.66666665  0.33333334  0.49999999  1
  Na  Na16  1  0.50000000  0.00000000  -0.00000000  1
  Na  Na17  1  0.00000000  0.00000000  0.49999999  1
