# generated using pymatgen
data_Sn13H7
_symmetry_space_group_name_H-M   'P 1'
_cell_length_a   8.13753605
_cell_length_b   8.13753605
_cell_length_c   8.13753605
_cell_angle_alpha   107.65244293
_cell_angle_beta   107.65244293
_cell_angle_gamma   107.65244293
_symmetry_Int_Tables_number   1
_chemical_formula_structural   Sn13H7
_chemical_formula_sum   'Sn13 H7'
_cell_volume   440.53951699
_cell_formula_units_Z   1
loop_
 _symmetry_equiv_pos_site_id
 _symmetry_equiv_pos_as_xyz
  1  'x, y, z'
loop_
 _atom_site_type_symbol
 _atom_site_label
 _atom_site_symmetry_multiplicity
 _atom_site_fract_x
 _atom_site_fract_y
 _atom_site_fract_z
 _atom_site_occupancy
  Sn  Sn0  1  0.97185704  0.70170701  0.90111214  1
  Sn  Sn1  1  0.90111207  0.97185701  0.70170717  1
  Sn  Sn2  1  0.70170707  0.90111201  0.97185714  1
  H  H3  1  0.02814303  0.29829300  0.09888803  1
  H  H4  1  0.09888800  0.02814300  0.29829301  1
  H  H5  1  0.29829300  0.09888800  0.02814303  1
  H  H6  1  0.50000004  0.50000001  0.50000009  1
  Sn  Sn7  1  0.00000000  0.00000000  0.00000000  1
  H  H8  1  0.61910304  0.54145601  0.84500010  1
  H  H9  1  0.84500004  0.61910301  0.54145612  1
  H  H10  1  0.54145607  0.84500001  0.61910313  1
  Sn  Sn11  1  0.38089704  0.45854400  0.15500008  1
  Sn  Sn12  1  0.15500004  0.38089700  0.45854405  1
  Sn  Sn13  1  0.45854400  0.15500000  0.38089705  1
  Sn  Sn14  1  0.31035807  0.77807701  0.92399011  1
  Sn  Sn15  1  0.77807707  0.92399001  0.31035815  1
  Sn  Sn16  1  0.92399000  0.31035800  0.77807709  1
  Sn  Sn17  1  0.68964200  0.22192300  0.07601007  1
  Sn  Sn18  1  0.22192300  0.07601000  0.68964202  1
  Sn  Sn19  1  0.07601007  0.68964201  0.22192308  1
