# generated using pymatgen
data_La2Si5Pt3
_symmetry_space_group_name_H-M   'P 1'
_cell_length_a   6.03303194
_cell_length_b   8.30934048
_cell_length_c   8.30934048
_cell_angle_alpha   73.70152283
_cell_angle_beta   68.71378326
_cell_angle_gamma   68.71378326
_symmetry_Int_Tables_number   1
_chemical_formula_structural   La2Si5Pt3
_chemical_formula_sum   'La4 Si10 Pt6'
_cell_volume   356.29983947
_cell_formula_units_Z   2
loop_
 _symmetry_equiv_pos_site_id
 _symmetry_equiv_pos_as_xyz
  1  'x, y, z'
loop_
 _atom_site_type_symbol
 _atom_site_label
 _atom_site_symmetry_multiplicity
 _atom_site_fract_x
 _atom_site_fract_y
 _atom_site_fract_z
 _atom_site_occupancy
  La  La0  1  0.37219405  0.89410001  0.36151198  1
  La  La1  1  0.62780600  0.10590000  0.63848802  1
  La  La2  1  0.87219302  0.36151201  0.89410102  1
  La  La3  1  0.12780704  0.63848801  0.10589898  1
  Si  Si4  1  0.11447701  0.23614200  0.53490400  1
  Si  Si5  1  0.88552304  0.76385801  0.46509600  1
  Si  Si6  1  0.61447703  0.53490401  0.23614200  1
  Si  Si7  1  0.38552303  0.46509601  0.76385801  1
  Pt  Pt8  1  0.02399004  0.72601001  0.72600999  1
  Pt  Pt9  1  0.97601001  0.27399000  0.27399002  1
  Pt  Pt10  1  0.47601001  0.27399000  0.27399001  1
  Pt  Pt11  1  0.52399004  0.72601001  0.72601000  1
  Si  Si12  1  0.75000005  1.00000001  -0.00000002  1
  Si  Si13  1  0.25000006  1.00000001  -0.00000003  1
  Pt  Pt14  1  0.75000003  0.50000001  0.50000001  1
  Pt  Pt15  1  0.25000003  0.50000001  0.50000000  1
  Si  Si16  1  0.13789705  0.97145601  0.75274898  1
  Si  Si17  1  0.86210300  0.02854400  0.24725103  1
  Si  Si18  1  0.63789804  0.75274801  0.97145600  1
  Si  Si19  1  0.36210201  0.24725200  0.02854400  1
