# generated using pymatgen
data_Eu2GaAu2
_symmetry_space_group_name_H-M   'P 1'
_cell_length_a   5.74027824
_cell_length_b   5.74027824
_cell_length_c   7.87958097
_cell_angle_alpha   78.64223480
_cell_angle_beta   78.64223480
_cell_angle_gamma   60.10472107
_symmetry_Int_Tables_number   1
_chemical_formula_structural   Eu2GaAu2
_chemical_formula_sum   'Eu4 Ga2 Au4'
_cell_volume   219.18700103
_cell_formula_units_Z   2
loop_
 _symmetry_equiv_pos_site_id
 _symmetry_equiv_pos_as_xyz
  1  'x, y, z'
loop_
 _atom_site_type_symbol
 _atom_site_label
 _atom_site_symmetry_multiplicity
 _atom_site_fract_x
 _atom_site_fract_y
 _atom_site_fract_z
 _atom_site_occupancy
  Eu  Eu0  1  0.48353902  0.21599501  0.64992399  1
  Eu  Eu1  1  0.78400504  0.51646101  0.85007599  1
  Eu  Eu2  1  0.51646104  0.78400502  0.35007599  1
  Eu  Eu3  1  0.21599502  0.48353901  0.14992400  1
  Ga  Ga4  1  0.13395003  0.86605002  0.74999999  1
  Ga  Ga5  1  0.86605003  0.13395000  0.24999999  1
  Au  Au6  1  0.25972403  0.99629602  0.99737399  1
  Au  Au7  1  0.00370402  0.74027602  0.50262599  1
  Au  Au8  1  0.74027603  0.00370400  0.00262600  1
  Au  Au9  1  0.99629604  0.25972401  0.49737399  1
