# generated using pymatgen
data_Zr3Ga3Ni2
_symmetry_space_group_name_H-M   'P 1'
_cell_length_a   4.13172007
_cell_length_b   4.13171959
_cell_length_c   11.90178299
_cell_angle_alpha   90.00000000
_cell_angle_beta   90.00000000
_cell_angle_gamma   120.00000000
_symmetry_Int_Tables_number   1
_chemical_formula_structural   Zr3Ga3Ni2
_chemical_formula_sum   'Zr3 Ga3 Ni2'
_cell_volume   175.95612437
_cell_formula_units_Z   1
loop_
 _symmetry_equiv_pos_site_id
 _symmetry_equiv_pos_as_xyz
  1  'x, y, z'
loop_
 _atom_site_type_symbol
 _atom_site_label
 _atom_site_symmetry_multiplicity
 _atom_site_fract_x
 _atom_site_fract_y
 _atom_site_fract_z
 _atom_site_occupancy
  Zr  Zr0  1  0.00000000  0.00000000  0.88499700  1
  Zr  Zr1  1  0.00000000  0.00000000  0.37434400  1
  Ga  Ga2  1  0.00000000  0.00000000  0.62565600  1
  Zr  Zr3  1  0.00000000  0.00000000  0.11500300  1
  Ga  Ga4  1  0.33333328  0.66666664  0.50000000  1
  Ga  Ga5  1  0.66666663  0.33333332  0.75211100  1
  Ni  Ni6  1  0.66666663  0.33333332  0.24788900  1
  Ni  Ni7  1  0.33333328  0.66666664  1.00000000  1
