# generated using pymatgen
data_LuCo2SiGe2
_symmetry_space_group_name_H-M   'P 1'
_cell_length_a   4.05402613
_cell_length_b   4.95067406
_cell_length_c   4.95067358
_cell_angle_alpha   120.00000000
_cell_angle_beta   90.00000000
_cell_angle_gamma   90.00000000
_symmetry_Int_Tables_number   1
_chemical_formula_structural   LuCo2SiGe2
_chemical_formula_sum   'Lu1 Co2 Si1 Ge2'
_cell_volume   86.04899480
_cell_formula_units_Z   1
loop_
 _symmetry_equiv_pos_site_id
 _symmetry_equiv_pos_as_xyz
  1  'x, y, z'
loop_
 _atom_site_type_symbol
 _atom_site_label
 _atom_site_symmetry_multiplicity
 _atom_site_fract_x
 _atom_site_fract_y
 _atom_site_fract_z
 _atom_site_occupancy
  Lu  Lu0  1  0.00000000  0.00000000  0.00000000  1
  Ge  Ge1  1  0.00000000  0.33333332  0.66666665  1
  Co  Co2  1  0.49999998  0.50080898  0.49919098  1
  Co  Co3  1  0.49999998  0.99838196  0.49919095  1
  Ge  Ge4  1  0.49999998  0.50080898  0.00161797  1
  Si  Si5  1  0.00000000  0.66666664  0.33333330  1
