# generated using pymatgen
data_Bi2O5
_symmetry_space_group_name_H-M   'P 1'
_cell_length_a   5.85657215
_cell_length_b   5.90822077
_cell_length_c   8.54874134
_cell_angle_alpha   69.96988678
_cell_angle_beta   70.14706421
_cell_angle_gamma   73.47895813
_symmetry_Int_Tables_number   1
_chemical_formula_structural   Bi2O5
_chemical_formula_sum   'Bi4 O10'
_cell_volume   256.62356361
_cell_formula_units_Z   2
loop_
 _symmetry_equiv_pos_site_id
 _symmetry_equiv_pos_as_xyz
  1  'x, y, z'
loop_
 _atom_site_type_symbol
 _atom_site_label
 _atom_site_symmetry_multiplicity
 _atom_site_fract_x
 _atom_site_fract_y
 _atom_site_fract_z
 _atom_site_occupancy
  Bi  Bi0  1  0.49637702  0.50429300  0.28267599  1
  Bi  Bi1  1  0.50510202  0.49541200  0.78549700  1
  Bi  Bi2  1  0.95536597  0.04475300  0.01385701  1
  Bi  Bi3  1  0.04930806  0.95906700  0.51019098  1
  O  O4  1  0.83848198  0.14985100  0.79688501  1
  O  O5  1  0.15013705  0.83313700  0.29815499  1
  O  O6  1  0.80195502  0.71299600  0.61517999  1
  O  O7  1  0.23664901  0.24921000  0.85310300  1
  O  O8  1  0.20049204  0.77176600  0.90969499  1
  O  O9  1  0.39016203  0.63062100  0.53220599  1
  O  O10  1  0.63244001  0.38610300  0.03251100  1
  O  O11  1  0.76600199  0.19458400  0.41112500  1
  O  O12  1  0.70345703  0.80375500  0.10586799  1
  O  O13  1  0.24196201  0.24792300  0.34485700  1
