# generated using pymatgen
data_ZrV4(B2Ir)2
_symmetry_space_group_name_H-M   'P 1'
_cell_length_a   3.33567810
_cell_length_b   6.54033804
_cell_length_c   6.54033709
_cell_angle_alpha   120.00000000
_cell_angle_beta   90.00000000
_cell_angle_gamma   90.00000000
_symmetry_Int_Tables_number   1
_chemical_formula_structural   ZrV4(B2Ir)2
_chemical_formula_sum   'Zr1 V4 B4 Ir2'
_cell_volume   123.57058230
_cell_formula_units_Z   1
loop_
 _symmetry_equiv_pos_site_id
 _symmetry_equiv_pos_as_xyz
  1  'x, y, z'
loop_
 _atom_site_type_symbol
 _atom_site_label
 _atom_site_symmetry_multiplicity
 _atom_site_fract_x
 _atom_site_fract_y
 _atom_site_fract_z
 _atom_site_occupancy
  Zr  Zr0  1  0.00000000  0.00000000  0.00000000  1
  V  V1  1  0.49999998  0.80007697  0.60015396  1
  Ir  Ir2  1  0.49999998  0.80007697  0.19992294  1
  Ir  Ir3  1  0.99999997  0.46399198  0.53600798  1
  V  V4  1  0.99999997  0.07201600  0.53600801  1
  V  V5  1  0.99999997  0.46399198  0.92798399  1
  V  V6  1  0.49999998  0.39984598  0.19992298  1
  B  B7  1  0.49999998  0.18357899  0.36715800  1
  B  B8  1  0.49999998  0.63284197  0.81642097  1
  B  B9  1  0.00000000  0.66666664  0.33333329  1
  B  B10  1  0.49999998  0.18357899  0.81642101  1
