# generated using pymatgen
data_Rb2LaUO6
_symmetry_space_group_name_H-M   'P 1'
_cell_length_a   6.38303280
_cell_length_b   6.38303280
_cell_length_c   6.53945446
_cell_angle_alpha   119.21184540
_cell_angle_beta   119.21185303
_cell_angle_gamma   90.00000000
_symmetry_Int_Tables_number   1
_chemical_formula_structural   Rb2LaUO6
_chemical_formula_sum   'Rb2 La1 U1 O6'
_cell_volume   192.80105853
_cell_formula_units_Z   1
loop_
 _symmetry_equiv_pos_site_id
 _symmetry_equiv_pos_as_xyz
  1  'x, y, z'
loop_
 _atom_site_type_symbol
 _atom_site_label
 _atom_site_symmetry_multiplicity
 _atom_site_fract_x
 _atom_site_fract_y
 _atom_site_fract_z
 _atom_site_occupancy
  La  La0  1  0.50000003  0.50000003  0.00000003  1
  Rb  Rb1  1  0.75000003  0.25000002  0.50000003  1
  Rb  Rb2  1  0.25000003  0.75000005  0.50000007  1
  U  U3  1  0.00000000  0.00000000  0.00000000  1
  O  O4  1  0.77880303  0.22119701  0.00000001  1
  O  O5  1  0.22119703  0.77880305  0.00000005  1
  O  O6  1  0.77880305  0.77880305  0.00000005  1
  O  O7  1  0.22119701  0.22119701  0.00000001  1
  O  O8  1  0.23315201  0.23315201  0.46630403  1
  O  O9  1  0.76684805  0.76684805  0.53369607  1
