# generated using pymatgen
data_Ce(BOs2)2
_symmetry_space_group_name_H-M   'P 1'
_cell_length_a   3.59824491
_cell_length_b   7.09144592
_cell_length_c   7.09144592
_cell_angle_alpha   90.00000000
_cell_angle_beta   90.00000000
_cell_angle_gamma   90.00000000
_symmetry_Int_Tables_number   1
_chemical_formula_structural   Ce(BOs2)2
_chemical_formula_sum   'Ce2 B4 Os8'
_cell_volume   180.95071774
_cell_formula_units_Z   2
loop_
 _symmetry_equiv_pos_site_id
 _symmetry_equiv_pos_as_xyz
  1  'x, y, z'
loop_
 _atom_site_type_symbol
 _atom_site_label
 _atom_site_symmetry_multiplicity
 _atom_site_fract_x
 _atom_site_fract_y
 _atom_site_fract_z
 _atom_site_occupancy
  Ce  Ce0  1  0.00000000  0.00000000  0.00000000  1
  Ce  Ce1  1  0.50000001  0.50000001  0.50000001  1
  Os  Os2  1  1.00000003  0.58523401  0.83710201  1
  Os  Os3  1  0.00000000  0.83710201  0.58523401  1
  Os  Os4  1  1.00000003  0.16289800  0.41476600  1
  Os  Os5  1  0.00000000  0.41476600  0.16289800  1
  Os  Os6  1  0.50000001  0.66289801  0.08523400  1
  Os  Os7  1  0.50000001  0.91476601  0.33710200  1
  Os  Os8  1  0.50000001  0.08523400  0.66289801  1
  Os  Os9  1  0.50000001  0.33710200  0.91476601  1
  B  B10  1  0.00000000  0.72001901  0.27998100  1
  B  B11  1  0.00000000  0.27998100  0.72001901  1
  B  B12  1  0.50000001  0.77998101  0.77998101  1
  B  B13  1  0.50000001  0.22001900  0.22001900  1
