# generated using pymatgen
data_NaMg2Bi(MoO5)2
_symmetry_space_group_name_H-M   'P 1'
_cell_length_a   5.67178392
_cell_length_b   5.81924391
_cell_length_c   7.54473925
_cell_angle_alpha   104.12938690
_cell_angle_beta   102.02406311
_cell_angle_gamma   107.20265961
_symmetry_Int_Tables_number   1
_chemical_formula_structural   NaMg2Bi(MoO5)2
_chemical_formula_sum   'Na1 Mg2 Bi1 Mo2 O10'
_cell_volume   219.85059877
_cell_formula_units_Z   1
loop_
 _symmetry_equiv_pos_site_id
 _symmetry_equiv_pos_as_xyz
  1  'x, y, z'
loop_
 _atom_site_type_symbol
 _atom_site_label
 _atom_site_symmetry_multiplicity
 _atom_site_fract_x
 _atom_site_fract_y
 _atom_site_fract_z
 _atom_site_occupancy
  Na  Na0  1  0.84240302  0.17673301  0.22182400  1
  Bi  Bi1  1  0.15759706  0.82326703  0.77817607  1
  Mg  Mg2  1  0.50000004  0.50000002  0.50000003  1
  Mg  Mg3  1  0.50000004  0.50000002  0.00000002  1
  Mo  Mo4  1  0.81629702  0.17549001  0.74947501  1
  Mo  Mo5  1  0.18370306  0.82451003  0.25052505  1
  O  O6  1  0.40185605  0.57582502  0.74970705  1
  O  O7  1  0.59814404  0.42417502  0.25029302  1
  O  O8  1  0.10694902  0.24628901  0.93415204  1
  O  O9  1  0.89305106  0.75371103  0.06584803  1
  O  O10  1  0.77927507  0.87663904  0.59568705  1
  O  O11  1  0.22072501  0.12336101  0.40431301  1
  O  O12  1  0.18504405  0.60669502  0.37803004  1
  O  O13  1  0.81495604  0.39330502  0.62197002  1
  O  O14  1  0.42081807  0.83457203  0.12711905  1
  O  O15  1  0.57918202  0.16542801  0.87288102  1
