# generated using pymatgen
data_AlGa11Co4
_symmetry_space_group_name_H-M   'P 1'
_cell_length_a   6.26719809
_cell_length_b   6.26719809
_cell_length_c   6.58098221
_cell_angle_alpha   90.00000000
_cell_angle_beta   90.00000000
_cell_angle_gamma   90.00000000
_symmetry_Int_Tables_number   1
_chemical_formula_structural   AlGa11Co4
_chemical_formula_sum   'Al1 Ga11 Co4'
_cell_volume   258.48631770
_cell_formula_units_Z   1
loop_
 _symmetry_equiv_pos_site_id
 _symmetry_equiv_pos_as_xyz
  1  'x, y, z'
loop_
 _atom_site_type_symbol
 _atom_site_label
 _atom_site_symmetry_multiplicity
 _atom_site_fract_x
 _atom_site_fract_y
 _atom_site_fract_z
 _atom_site_occupancy
  Al  Al0  1  0.84423699  0.15576300  0.76297498  1
  Ga  Ga1  1  0.65576299  0.65576299  0.73702498  1
  Ga  Ga2  1  0.15576300  0.84423699  0.23702499  1
  Ga  Ga3  1  0.15576300  0.84423699  0.76297498  1
  Ga  Ga4  1  0.00000000  0.49999999  -0.00000000  1
  Ga  Ga5  1  0.34423700  0.34423700  0.26297499  1
  Ga  Ga6  1  0.49999999  0.00000000  0.49999998  1
  Ga  Ga7  1  0.65576299  0.65576299  0.26297499  1
  Ga  Ga8  1  0.84423699  0.15576300  0.23702499  1
  Ga  Ga9  1  0.34423700  0.34423700  0.73702498  1
  Ga  Ga10  1  0.00000000  0.49999999  0.49999998  1
  Ga  Ga11  1  0.49999999  0.00000000  0.00000000  1
  Co  Co12  1  0.34365200  0.65634799  0.49999998  1
  Co  Co13  1  0.65634799  0.34365200  0.49999998  1
  Co  Co14  1  0.84365199  0.84365199  -0.00000000  1
  Co  Co15  1  0.15634800  0.15634800  -0.00000000  1
