# generated using pymatgen
data_Sr4CaCuO8
_symmetry_space_group_name_H-M   'P 1'
_cell_length_a   5.37496996
_cell_length_b   5.37512016
_cell_length_c   7.08660889
_cell_angle_alpha   90.00000000
_cell_angle_beta   112.28626251
_cell_angle_gamma   90.00000000
_symmetry_Int_Tables_number   1
_chemical_formula_structural   Sr4CaCuO8
_chemical_formula_sum   'Sr4 Ca1 Cu1 O8'
_cell_volume   189.44605275
_cell_formula_units_Z   1
loop_
 _symmetry_equiv_pos_site_id
 _symmetry_equiv_pos_as_xyz
  1  'x, y, z'
loop_
 _atom_site_type_symbol
 _atom_site_label
 _atom_site_symmetry_multiplicity
 _atom_site_fract_x
 _atom_site_fract_y
 _atom_site_fract_z
 _atom_site_occupancy
  Sr  Sr0  1  0.64128602  0.99999997  0.28257202  1
  Sr  Sr1  1  0.13940000  0.49999998  0.27880000  1
  Sr  Sr2  1  0.85846602  0.49999998  0.71693202  1
  Sr  Sr3  1  0.35980201  0.99999997  0.71960400  1
  Ca  Ca4  1  0.50416001  0.49999998  0.00832002  1
  Cu  Cu5  1  0.99928802  0.99999997  0.99857602  1
  O  O6  1  0.24419201  0.25508999  0.99332700  1
  O  O7  1  0.74913502  0.74490998  0.99332701  1
  O  O8  1  0.74913502  0.25508999  0.99332701  1
  O  O9  1  0.24419201  0.74490998  0.99332700  1
  O  O10  1  0.31646301  0.49999998  0.63292600  1
  O  O11  1  0.83069502  0.99999997  0.66139002  1
  O  O12  1  0.18254900  0.99999997  0.36509800  1
  O  O13  1  0.68123402  0.49999998  0.36246802  1
