# generated using pymatgen
data_In5CuS6
_symmetry_space_group_name_H-M   'P 1'
_cell_length_a   4.19636917
_cell_length_b   5.77884912
_cell_length_c   12.64489174
_cell_angle_alpha   90.00000000
_cell_angle_beta   90.00000000
_cell_angle_gamma   90.00000000
_symmetry_Int_Tables_number   1
_chemical_formula_structural   In5CuS6
_chemical_formula_sum   'In5 Cu1 S6'
_cell_volume   306.64095528
_cell_formula_units_Z   1
loop_
 _symmetry_equiv_pos_site_id
 _symmetry_equiv_pos_as_xyz
  1  'x, y, z'
loop_
 _atom_site_type_symbol
 _atom_site_label
 _atom_site_symmetry_multiplicity
 _atom_site_fract_x
 _atom_site_fract_y
 _atom_site_fract_z
 _atom_site_occupancy
  In  In0  1  0.24999999  0.60870699  0.83628602  1
  Cu  Cu1  1  0.74999997  0.39129299  0.16371400  1
  In  In2  1  0.74999997  0.10870700  0.66371401  1
  S  S3  1  0.24999999  0.89129298  0.33628601  1
  S  S4  1  0.24999999  0.85586998  0.66440701  1
  In  In5  1  0.74999997  0.14413000  0.33559301  1
  S  S6  1  0.74999997  0.35586999  0.83559302  1
  In  In7  1  0.24999999  0.64412999  0.16440700  1
  S  S8  1  0.24999999  0.87528098  0.98208202  1
  S  S9  1  0.74999997  0.12471900  0.01791800  1
  S  S10  1  0.74999997  0.37528099  0.51791801  1
  In  In11  1  0.24999999  0.62471899  0.48208201  1
