# generated using pymatgen
data_Ta6GaSe11
_symmetry_space_group_name_H-M   'P 1'
_cell_length_a   6.63095903
_cell_length_b   6.63777018
_cell_length_c   9.43766403
_cell_angle_alpha   77.85182953
_cell_angle_beta   77.81578064
_cell_angle_gamma   61.41310883
_symmetry_Int_Tables_number   1
_chemical_formula_structural   Ta6GaSe11
_chemical_formula_sum   'Ta6 Ga1 Se11'
_cell_volume   353.62943828
_cell_formula_units_Z   1
loop_
 _symmetry_equiv_pos_site_id
 _symmetry_equiv_pos_as_xyz
  1  'x, y, z'
loop_
 _atom_site_type_symbol
 _atom_site_label
 _atom_site_symmetry_multiplicity
 _atom_site_fract_x
 _atom_site_fract_y
 _atom_site_fract_z
 _atom_site_occupancy
  Ta  Ta0  1  0.39693599  0.40390400  0.19387903  1
  Ta  Ta1  1  0.80805497  0.79989599  0.39882205  1
  Ga  Ga2  1  0.19194499  0.20010400  0.60117803  1
  Ta  Ta3  1  0.60306398  0.59609599  0.80612105  1
  Ta  Ta4  1  0.80464897  0.81389499  0.89714106  1
  Se  Se5  1  0.19535099  0.18610500  0.10285901  1
  Ta  Ta6  1  0.59388198  0.60143799  0.30684804  1
  Ta  Ta7  1  0.40611799  0.39856200  0.69315204  1
  Se  Se8  1  0.56127499  0.22612900  0.44598603  1
  Se  Se9  1  0.96266498  0.62863299  0.64681406  1
  Se  Se10  1  0.36587500  0.02954200  0.84967403  1
  Se  Se11  1  0.76432098  0.43739800  0.05236203  1
  Se  Se12  1  0.16503498  0.82613799  0.25181603  1
  Se  Se13  1  0.03733499  0.37136700  0.35318602  1
  Se  Se14  1  0.43872498  0.77387099  0.55401405  1
  Se  Se15  1  0.83496499  0.17386200  0.74818404  1
  Se  Se16  1  0.23567899  0.56260199  0.94763805  1
  Se  Se17  1  0.63412497  0.97045799  0.15032605  1
