# generated using pymatgen
data_LuSnAu
_symmetry_space_group_name_H-M   'P 1'
_cell_length_a   4.30211210
_cell_length_b   7.27850580
_cell_length_c   7.27850580
_cell_angle_alpha   120.00000000
_cell_angle_beta   90.00000000
_cell_angle_gamma   90.00000000
_symmetry_Int_Tables_number   1
_chemical_formula_structural   LuSnAu
_chemical_formula_sum   'Lu3 Sn3 Au3'
_cell_volume   197.37712541
_cell_formula_units_Z   3
loop_
 _symmetry_equiv_pos_site_id
 _symmetry_equiv_pos_as_xyz
  1  'x, y, z'
loop_
 _atom_site_type_symbol
 _atom_site_label
 _atom_site_symmetry_multiplicity
 _atom_site_fract_x
 _atom_site_fract_y
 _atom_site_fract_z
 _atom_site_occupancy
  Lu  Lu0  1  0.00000000  0.41125901  0.41125900  1
  Lu  Lu1  1  0.99999998  0.00000000  0.58874101  1
  Lu  Lu2  1  0.00000000  0.58874101  -0.00000000  1
  Sn  Sn3  1  0.49999999  0.74890102  0.74890101  1
  Sn  Sn4  1  0.49999999  0.00000000  0.25109900  1
  Sn  Sn5  1  0.49999999  0.25109901  -0.00000000  1
  Au  Au6  1  0.49999999  0.66666668  0.33333333  1
  Au  Au7  1  0.49999999  0.33333334  0.66666667  1
  Au  Au8  1  0.00000000  0.00000000  0.00000000  1
