# generated using pymatgen
data_CeSn2
_symmetry_space_group_name_H-M   'P 1'
_cell_length_a   4.82074213
_cell_length_b   4.82074213
_cell_length_c   10.88897133
_cell_angle_alpha   90.00000000
_cell_angle_beta   90.00000000
_cell_angle_gamma   120.00000000
_symmetry_Int_Tables_number   1
_chemical_formula_structural   CeSn2
_chemical_formula_sum   'Ce3 Sn6'
_cell_volume   219.15192404
_cell_formula_units_Z   3
loop_
 _symmetry_equiv_pos_site_id
 _symmetry_equiv_pos_as_xyz
  1  'x, y, z'
loop_
 _atom_site_type_symbol
 _atom_site_label
 _atom_site_symmetry_multiplicity
 _atom_site_fract_x
 _atom_site_fract_y
 _atom_site_fract_z
 _atom_site_occupancy
  Ce  Ce0  1  0.33333332  0.66666664  -0.00000000  1
  Ce  Ce1  1  0.33333332  0.66666664  0.33220399  1
  Ce  Ce2  1  0.33333332  0.66666664  0.66779598  1
  Sn  Sn3  1  0.00000000  0.00000000  0.19395299  1
  Sn  Sn4  1  0.00000000  0.00000000  0.80604698  1
  Sn  Sn5  1  0.66666665  0.33333332  0.49999998  1
  Sn  Sn6  1  0.66666665  0.33333332  0.14536300  1
  Sn  Sn7  1  0.00000000  0.00000000  0.49999998  1
  Sn  Sn8  1  0.66666665  0.33333332  0.85463697  1
