# generated using pymatgen
data_Cs2ClF
_symmetry_space_group_name_H-M   'P 1'
_cell_length_a   6.45091009
_cell_length_b   6.45091009
_cell_length_c   7.71553278
_cell_angle_alpha   90.00000000
_cell_angle_beta   90.00000000
_cell_angle_gamma   120.00000000
_symmetry_Int_Tables_number   1
_chemical_formula_structural   Cs2ClF
_chemical_formula_sum   'Cs4 Cl2 F2'
_cell_volume   278.06000770
_cell_formula_units_Z   2
loop_
 _symmetry_equiv_pos_site_id
 _symmetry_equiv_pos_as_xyz
  1  'x, y, z'
loop_
 _atom_site_type_symbol
 _atom_site_label
 _atom_site_symmetry_multiplicity
 _atom_site_fract_x
 _atom_site_fract_y
 _atom_site_fract_z
 _atom_site_occupancy
  Cs  Cs0  1  0.33333333  0.66666666  0.75000002  1
  Cs  Cs1  1  0.66666666  0.33333333  0.25000001  1
  Cl  Cl2  1  0.16738100  0.33476200  0.25000001  1
  Cl  Cl3  1  0.66523899  0.83262000  0.25000001  1
  Cs  Cs4  1  0.16738100  0.83262000  0.25000001  1
  F  F5  1  0.83261899  0.66523800  0.75000002  1
  F  F6  1  0.33476100  0.16738000  0.75000002  1
  Cs  Cs7  1  0.83261899  0.16738000  0.75000002  1
