# generated using pymatgen
data_Ce2Ag7Se8S
_symmetry_space_group_name_H-M   'P 1'
_cell_length_a   6.44216013
_cell_length_b   8.51941872
_cell_length_c   8.53956223
_cell_angle_alpha   119.92200470
_cell_angle_beta   90.00000000
_cell_angle_gamma   90.00000000
_symmetry_Int_Tables_number   1
_chemical_formula_structural   Ce2Ag7Se8S
_chemical_formula_sum   'Ce2 Ag7 Se8 S1'
_cell_volume   406.20803372
_cell_formula_units_Z   1
loop_
 _symmetry_equiv_pos_site_id
 _symmetry_equiv_pos_as_xyz
  1  'x, y, z'
loop_
 _atom_site_type_symbol
 _atom_site_label
 _atom_site_symmetry_multiplicity
 _atom_site_fract_x
 _atom_site_fract_y
 _atom_site_fract_z
 _atom_site_occupancy
  Ce  Ce0  1  0.50001699  0.33314500  0.66587600  1
  Ce  Ce1  1  0.50001699  0.66727001  0.33412404  1
  Ag  Ag2  1  0.00001700  0.66685501  0.33412404  1
  Se  Se3  1  0.00001700  0.33273000  0.66587600  1
  Ag  Ag4  1  0.75018598  0.22084900  0.00000002  1
  Ag  Ag5  1  0.74987698  0.77813801  0.77743603  1
  Ag  Ag6  1  0.74987698  0.00070200  0.22256399  1
  Ag  Ag7  1  0.25018599  0.77915101  0.00000005  1
  Ag  Ag8  1  0.24987699  0.22186200  0.22256401  1
  Ag  Ag9  1  0.24987699  0.99929801  0.77743605  1
  Se  Se10  1  0.74930498  0.59201501  0.00000004  1
  Se  Se11  1  0.75035998  0.40714800  0.40724402  1
  Se  Se12  1  0.75035998  0.99990401  0.59275605  1
  Se  Se13  1  0.24930499  0.40798500  0.00000003  1
  Se  Se14  1  0.25035999  0.59285201  0.59275602  1
  Se  Se15  1  0.25035999  0.00009600  0.40724399  1
  S  S16  1  0.49999999  0.00019100  0.00000000  1
  Se  Se17  1  0.00000000  0.99980901  0.00000007  1
