# generated using pymatgen
data_K3BaScZnGa2F12
_symmetry_space_group_name_H-M   'P 1'
_cell_length_a   5.88062668
_cell_length_b   5.88059521
_cell_length_c   10.24006748
_cell_angle_alpha   106.68679047
_cell_angle_beta   106.68681335
_cell_angle_gamma   59.99975967
_symmetry_Int_Tables_number   1
_chemical_formula_structural   K3BaScZnGa2F12
_chemical_formula_sum   'K3 Ba1 Sc1 Zn1 Ga2 F12'
_cell_volume   289.32692551
_cell_formula_units_Z   1
loop_
 _symmetry_equiv_pos_site_id
 _symmetry_equiv_pos_as_xyz
  1  'x, y, z'
loop_
 _atom_site_type_symbol
 _atom_site_label
 _atom_site_symmetry_multiplicity
 _atom_site_fract_x
 _atom_site_fract_y
 _atom_site_fract_z
 _atom_site_occupancy
  Ba  Ba0  1  0.28442400  0.28442399  0.85327197  1
  K  K1  1  0.71557699  0.71557597  0.14672898  1
  K  K2  1  0.12604600  0.12604600  0.37813798  1
  K  K3  1  0.87395299  0.87395497  0.62186196  1
  Sc  Sc4  1  0.59356299  0.59356298  0.78068596  1
  Zn  Zn5  1  0.40643700  0.40643198  0.21930798  1
  Ga  Ga6  1  0.49999899  0.49999898  0.49999697  1
  Ga  Ga7  1  0.00000100  0.00000000  0.00000300  1
  F  F8  1  0.27260300  0.80486497  0.88233196  1
  F  F9  1  0.80486399  0.27260399  0.88233196  1
  F  F10  1  0.80486499  0.80486497  0.88233195  1
  F  F11  1  0.19512900  0.19512899  0.11766699  1
  F  F12  1  0.72740799  0.19512899  0.11766698  1
  F  F13  1  0.19513000  0.72740597  0.11766699  1
  F  F14  1  0.15411000  0.61144898  0.37700898  1
  F  F15  1  0.61144999  0.15410899  0.37700898  1
  F  F16  1  0.38855500  0.84588497  0.62299397  1
  F  F17  1  0.84587999  0.38855799  0.62299296  1
  F  F18  1  0.38855600  0.38855799  0.62299297  1
  F  F19  1  0.61144999  0.61144798  0.37700897  1
