# generated using pymatgen
data_V2CoGe
_symmetry_space_group_name_H-M   'P 1'
_cell_length_a   4.62146282
_cell_length_b   4.63771009
_cell_length_c   9.20516586
_cell_angle_alpha   90.00000000
_cell_angle_beta   89.99003601
_cell_angle_gamma   90.00000000
_symmetry_Int_Tables_number   1
_chemical_formula_structural   V2CoGe
_chemical_formula_sum   'V8 Co4 Ge4'
_cell_volume   197.29436096
_cell_formula_units_Z   4
loop_
 _symmetry_equiv_pos_site_id
 _symmetry_equiv_pos_as_xyz
  1  'x, y, z'
loop_
 _atom_site_type_symbol
 _atom_site_label
 _atom_site_symmetry_multiplicity
 _atom_site_fract_x
 _atom_site_fract_y
 _atom_site_fract_z
 _atom_site_occupancy
  V  V0  1  0.50049202  0.00000000  0.62344901  1
  Co  Co1  1  0.49674102  0.00000000  0.12782700  1
  Co  Co2  1  0.75193403  0.49999999  0.99891601  1
  V  V3  1  0.75604603  0.49999999  0.49951800  1
  V  V4  1  0.00106100  0.25340899  0.74770301  1
  V  V5  1  0.00046400  0.25285799  0.25326200  1
  V  V6  1  0.49812902  0.00000000  0.87311901  1
  V  V7  1  0.50122102  0.00000000  0.37686200  1
  Co  Co8  1  0.24801201  0.49999999  0.99939002  1
  Co  Co9  1  0.24476501  0.49999999  0.49985301  1
  V  V10  1  0.00106100  0.74659098  0.74770301  1
  V  V11  1  0.00046400  0.74714198  0.25326200  1
  Ge  Ge12  1  0.49763702  0.49999999  0.74847301  1
  Ge  Ge13  1  0.49876202  0.49999999  0.25535800  1
  Ge  Ge14  1  0.00354900  0.00000000  0.99763002  1
  Ge  Ge15  1  0.99966304  0.00000000  0.49767500  1
