# generated using pymatgen
data_V3OF5
_symmetry_space_group_name_H-M   'P 1'
_cell_length_a   4.59164190
_cell_length_b   4.59602022
_cell_length_c   9.60846138
_cell_angle_alpha   90.00000000
_cell_angle_beta   85.40398407
_cell_angle_gamma   90.00000000
_symmetry_Int_Tables_number   1
_chemical_formula_structural   V3OF5
_chemical_formula_sum   'V6 O2 F10'
_cell_volume   202.11802495
_cell_formula_units_Z   2
loop_
 _symmetry_equiv_pos_site_id
 _symmetry_equiv_pos_as_xyz
  1  'x, y, z'
loop_
 _atom_site_type_symbol
 _atom_site_label
 _atom_site_symmetry_multiplicity
 _atom_site_fract_x
 _atom_site_fract_y
 _atom_site_fract_z
 _atom_site_occupancy
  V  V0  1  0.98595697  0.00100800  0.98998297  1
  V  V1  1  0.52574699  0.46703698  0.83143998  1
  V  V2  1  0.97882397  0.00405400  0.67348497  1
  V  V3  1  0.48595699  0.49899198  0.48998298  1
  V  V4  1  0.02574700  0.03296300  0.33143999  1
  V  V5  1  0.47882399  0.49594598  0.17348499  1
  O  O6  1  0.80859598  0.17590799  0.83231897  1
  O  O7  1  0.30859599  0.32409198  0.33231899  1
  F  F8  1  0.30201699  0.28349899  0.98703698  1
  F  F9  1  0.22459899  0.76448396  0.84572998  1
  F  F10  1  0.69764898  0.67987397  0.66752898  1
  F  F11  1  0.28188099  0.29014299  0.65285098  1
  F  F12  1  0.80201698  0.21650099  0.48703698  1
  F  F13  1  0.19472799  0.80656396  0.51962699  1
  F  F14  1  0.72459898  0.73551596  0.34572998  1
  F  F15  1  0.78188098  0.20985699  0.15285098  1
  F  F16  1  0.19764899  0.82012596  0.16752899  1
  F  F17  1  0.69472798  0.69343597  0.01962699  1
