# generated using pymatgen
data_Zr4Ga13
_symmetry_space_group_name_H-M   'P 1'
_cell_length_a   7.23445415
_cell_length_b   7.23445415
_cell_length_c   7.23445415
_cell_angle_alpha   109.47122192
_cell_angle_beta   109.47122192
_cell_angle_gamma   109.47122192
_symmetry_Int_Tables_number   1
_chemical_formula_structural   Zr4Ga13
_chemical_formula_sum   'Zr4 Ga13'
_cell_volume   291.47102958
_cell_formula_units_Z   1
loop_
 _symmetry_equiv_pos_site_id
 _symmetry_equiv_pos_as_xyz
  1  'x, y, z'
loop_
 _atom_site_type_symbol
 _atom_site_label
 _atom_site_symmetry_multiplicity
 _atom_site_fract_x
 _atom_site_fract_y
 _atom_site_fract_z
 _atom_site_occupancy
  Zr  Zr0  1  0.50000003  0.50000001  0.50000003  1
  Zr  Zr1  1  0.00000000  0.00000000  0.49999999  1
  Zr  Zr2  1  1.00000003  0.50000001  1.00000004  1
  Zr  Zr3  1  0.50000000  0.00000000  0.00000001  1
  Ga  Ga4  1  0.69059004  0.69059002  0.00000005  1
  Ga  Ga5  1  0.69059000  0.00000000  0.69059001  1
  Ga  Ga6  1  0.30941000  0.00000000  0.30941000  1
  Ga  Ga7  1  0.00000002  0.30941001  0.30941001  1
  Ga  Ga8  1  0.00000004  0.69059002  0.69059003  1
  Ga  Ga9  1  0.30941002  0.30941001  0.00000002  1
  Ga  Ga10  1  0.75000001  0.25000001  0.50000003  1
  Ga  Ga11  1  0.75000003  0.50000001  0.25000004  1
  Ga  Ga12  1  0.25000003  0.50000001  0.75000002  1
  Ga  Ga13  1  0.50000005  0.75000002  0.25000005  1
  Ga  Ga14  1  0.50000001  0.25000001  0.75000002  1
  Ga  Ga15  1  0.25000005  0.75000002  0.50000004  1
  Ga  Ga16  1  0.00000000  0.00000000  0.00000000  1
