# generated using pymatgen
data_Te2W
_symmetry_space_group_name_H-M   'P 1'
_cell_length_a   3.55871010
_cell_length_b   3.55871058
_cell_length_c   33.01996613
_cell_angle_alpha   90.00000000
_cell_angle_beta   90.00000000
_cell_angle_gamma   119.99999237
_symmetry_Int_Tables_number   1
_chemical_formula_structural   Te2W
_chemical_formula_sum   'Te6 W3'
_cell_volume   362.15340101
_cell_formula_units_Z   3
loop_
 _symmetry_equiv_pos_site_id
 _symmetry_equiv_pos_as_xyz
  1  'x, y, z'
loop_
 _atom_site_type_symbol
 _atom_site_label
 _atom_site_symmetry_multiplicity
 _atom_site_fract_x
 _atom_site_fract_y
 _atom_site_fract_z
 _atom_site_occupancy
  Te  Te0  1  0.00000000  0.00000000  0.05480500  1
  Te  Te1  1  0.66666664  0.33333333  0.28718902  1
  Te  Te2  1  0.66666664  0.33333333  0.82242105  1
  Te  Te3  1  0.66666664  0.33333333  0.17757901  1
  Te  Te4  1  0.66666664  0.33333333  0.71281104  1
  Te  Te5  1  0.00000000  0.00000000  0.94519505  1
  W  W6  1  0.00000000  0.00000000  0.23238401  1
  W  W7  1  0.00000000  0.00000000  0.76761604  1
  W  W8  1  0.66666664  0.33333333  1.00000006  1
