# generated using pymatgen
data_ScGeRh
_symmetry_space_group_name_H-M   'P 1'
_cell_length_a   3.90166903
_cell_length_b   6.49592876
_cell_length_c   7.33734083
_cell_angle_alpha   90.00000000
_cell_angle_beta   90.00000000
_cell_angle_gamma   90.00000000
_symmetry_Int_Tables_number   1
_chemical_formula_structural   ScGeRh
_chemical_formula_sum   'Sc4 Ge4 Rh4'
_cell_volume   185.96463961
_cell_formula_units_Z   4
loop_
 _symmetry_equiv_pos_site_id
 _symmetry_equiv_pos_as_xyz
  1  'x, y, z'
loop_
 _atom_site_type_symbol
 _atom_site_label
 _atom_site_symmetry_multiplicity
 _atom_site_fract_x
 _atom_site_fract_y
 _atom_site_fract_z
 _atom_site_occupancy
  Sc  Sc0  1  0.25000000  0.48717602  0.18873400  1
  Sc  Sc1  1  0.75000000  0.51282402  0.81126602  1
  Sc  Sc2  1  0.75000000  0.01282400  0.68873402  1
  Sc  Sc3  1  0.25000000  0.98717604  0.31126601  1
  Rh  Rh4  1  0.25000000  0.83435303  0.92524202  1
  Rh  Rh5  1  0.75000000  0.16564701  0.07475800  1
  Rh  Rh6  1  0.75000000  0.66564702  0.42524201  1
  Rh  Rh7  1  0.25000000  0.33435301  0.57475801  1
  Ge  Ge8  1  0.25000000  0.71696703  0.60445001  1
  Ge  Ge9  1  0.75000000  0.28303301  0.39555001  1
  Ge  Ge10  1  0.75000000  0.78303303  0.10445000  1
  Ge  Ge11  1  0.25000000  0.21696701  0.89555002  1
