# generated using pymatgen
data_Li
_symmetry_space_group_name_H-M   'P 1'
_cell_length_a   2.89013314
_cell_length_b   2.89013314
_cell_length_c   4.93752480
_cell_angle_alpha   72.98211670
_cell_angle_beta   72.98211670
_cell_angle_gamma   59.99997330
_symmetry_Int_Tables_number   1
_chemical_formula_structural   Li
_chemical_formula_sum   Li2
_cell_volume   33.61564468
_cell_formula_units_Z   2
loop_
 _symmetry_equiv_pos_site_id
 _symmetry_equiv_pos_as_xyz
  1  'x, y, z'
loop_
 _atom_site_type_symbol
 _atom_site_label
 _atom_site_symmetry_multiplicity
 _atom_site_fract_x
 _atom_site_fract_y
 _atom_site_fract_z
 _atom_site_occupancy
  Li  Li0  1  0.50000001  0.50000001  0.50000003  1
  Li  Li1  1  0.00000000  0.00000000  0.00000000  1
