# generated using pymatgen
data_Li2ZrF6
_symmetry_space_group_name_H-M   'P 1'
_cell_length_a   3.34932995
_cell_length_b   5.87275600
_cell_length_c   5.87275600
_cell_angle_alpha   120.00000000
_cell_angle_beta   90.00000000
_cell_angle_gamma   90.00000000
_symmetry_Int_Tables_number   1
_chemical_formula_structural   Li2ZrF6
_chemical_formula_sum   'Li2 Zr1 F6'
_cell_volume   100.03972278
_cell_formula_units_Z   1
loop_
 _symmetry_equiv_pos_site_id
 _symmetry_equiv_pos_as_xyz
  1  'x, y, z'
loop_
 _atom_site_type_symbol
 _atom_site_label
 _atom_site_symmetry_multiplicity
 _atom_site_fract_x
 _atom_site_fract_y
 _atom_site_fract_z
 _atom_site_occupancy
  F  F0  1  0.50000001  0.60090200  0.60090202  1
  F  F1  1  0.50000001  0.39909800  1.00000002  1
  F  F2  1  0.50000001  1.00000001  0.39909802  1
  F  F3  1  -0.00000000  1.00000001  0.74030202  1
  F  F4  1  1.00000002  0.74030200  0.00000001  1
  F  F5  1  1.00000002  0.25969800  0.25969801  1
  Zr  Zr6  1  0.50000001  0.00000000  -0.00000000  1
  Li  Li7  1  1.00000002  0.33333334  0.66666668  1
  Li  Li8  1  1.00000002  0.66666667  0.33333335  1
