# generated using pymatgen
data_K4NaCu2CO9
_symmetry_space_group_name_H-M   'P 1'
_cell_length_a   5.85425758
_cell_length_b   5.85425758
_cell_length_c   8.31164455
_cell_angle_alpha   90.00000000
_cell_angle_beta   90.00000000
_cell_angle_gamma   91.83506775
_symmetry_Int_Tables_number   1
_chemical_formula_structural   K4NaCu2CO9
_chemical_formula_sum   'K4 Na1 Cu2 C1 O9'
_cell_volume   284.71334977
_cell_formula_units_Z   1
loop_
 _symmetry_equiv_pos_site_id
 _symmetry_equiv_pos_as_xyz
  1  'x, y, z'
loop_
 _atom_site_type_symbol
 _atom_site_label
 _atom_site_symmetry_multiplicity
 _atom_site_fract_x
 _atom_site_fract_y
 _atom_site_fract_z
 _atom_site_occupancy
  K  K0  1  0.99349699  0.50102001  0.23222101  1
  K  K1  1  0.49898001  0.00650300  0.23222101  1
  K  K2  1  0.99349699  0.50102001  0.76777904  1
  K  K3  1  0.49898001  0.00650300  0.76777904  1
  Na  Na4  1  0.00050997  0.99949001  -0.00000000  1
  Cu  Cu5  1  0.49815699  0.50184301  -0.00000000  1
  Cu  Cu6  1  0.00381597  0.99618401  0.50000003  1
  C  C7  1  0.50252199  0.49747801  0.50000003  1
  O  O8  1  0.00070997  0.99929001  0.28106502  1
  O  O9  1  0.00070997  0.99929001  0.71893504  1
  O  O10  1  0.27565598  0.72434401  -0.00000000  1
  O  O11  1  0.72197300  0.27802700  -0.00000000  1
  O  O12  1  0.72491598  0.72702201  1.00000005  1
  O  O13  1  0.27297799  0.27508400  -0.00000000  1
  O  O14  1  0.42624399  0.57375601  0.36367102  1
  O  O15  1  0.42624399  0.57375601  0.63632903  1
  O  O16  1  0.65751000  0.34249000  0.50000003  1
