# generated using pymatgen
data_CsKBePF15
_symmetry_space_group_name_H-M   'P 1'
_cell_length_a   7.53268719
_cell_length_b   7.53268719
_cell_length_c   7.53268719
_cell_angle_alpha   92.21760559
_cell_angle_beta   118.72802734
_cell_angle_gamma   118.72802734
_symmetry_Int_Tables_number   1
_chemical_formula_structural   CsKBePF15
_chemical_formula_sum   'Cs1 K1 Be1 P1 F15'
_cell_volume   307.78926138
_cell_formula_units_Z   1
loop_
 _symmetry_equiv_pos_site_id
 _symmetry_equiv_pos_as_xyz
  1  'x, y, z'
loop_
 _atom_site_type_symbol
 _atom_site_label
 _atom_site_symmetry_multiplicity
 _atom_site_fract_x
 _atom_site_fract_y
 _atom_site_fract_z
 _atom_site_occupancy
  Cs  Cs0  1  0.49999991  0.42267596  0.92267591  1
  F  F1  1  0.49999996  0.07732399  0.57732395  1
  K  K2  1  0.00000000  0.00000000  0.00000000  1
  P  P3  1  0.87025282  0.87265792  0.43349886  1
  F  F4  1  0.12974691  0.56324695  0.00240594  1
  F  F5  1  0.56084082  0.99759491  0.12734088  1
  Be  Be6  1  0.43915889  0.56649995  0.43675391  1
  F  F7  1  0.74400496  0.00610100  0.36620794  1
  F  F8  1  0.25599489  0.62220294  0.26209593  1
  F  F9  1  0.36010687  0.73790393  0.99389890  1
  F  F10  1  0.63989287  0.63379194  0.37779690  1
  F  F11  1  0.06157685  0.97875891  0.67258290  1
  F  F12  1  0.93842286  0.61100494  0.91718187  1
  F  F13  1  0.69382395  0.08281799  0.02124194  1
  F  F14  1  0.30617593  0.32741697  0.38899394  1
  F  F15  1  0.93426082  0.83788592  0.28025686  1
  F  F16  1  0.06573894  0.34599597  0.90362495  1
  F  F17  1  0.44237196  0.09637599  0.16211496  1
  F  F18  1  0.55762786  0.71974193  0.65400289  1
