# generated using pymatgen
data_KY2S5
_symmetry_space_group_name_H-M   'P 1'
_cell_length_a   4.54467106
_cell_length_b   4.54467106
_cell_length_c   11.68195343
_cell_angle_alpha   78.78350830
_cell_angle_beta   78.78350830
_cell_angle_gamma   59.99998474
_symmetry_Int_Tables_number   1
_chemical_formula_structural   KY2S5
_chemical_formula_sum   'K1 Y2 S5'
_cell_volume   203.61515342
_cell_formula_units_Z   1
loop_
 _symmetry_equiv_pos_site_id
 _symmetry_equiv_pos_as_xyz
  1  'x, y, z'
loop_
 _atom_site_type_symbol
 _atom_site_label
 _atom_site_symmetry_multiplicity
 _atom_site_fract_x
 _atom_site_fract_y
 _atom_site_fract_z
 _atom_site_occupancy
  K  K0  1  0.50000000  0.50000000  0.49999997  1
  S  S1  1  0.90453100  0.90453100  0.28640696  1
  S  S2  1  0.09546900  0.09546900  0.71359298  1
  Y  Y3  1  0.70082400  0.70082400  0.89752796  1
  Y  Y4  1  0.29917600  0.29917600  0.10247199  1
  S  S5  1  0.78020500  0.78020500  0.65938496  1
  S  S6  1  0.21979500  0.21979500  0.34061498  1
  S  S7  1  0.00000000  0.00000000  0.00000000  1
