# generated using pymatgen
data_Sm2Co11BP4
_symmetry_space_group_name_H-M   'P 1'
_cell_length_a   5.37367392
_cell_length_b   5.37367392
_cell_length_c   7.45069313
_cell_angle_alpha   90.00000000
_cell_angle_beta   90.00000000
_cell_angle_gamma   90.00000000
_symmetry_Int_Tables_number   1
_chemical_formula_structural   Sm2Co11BP4
_chemical_formula_sum   'Sm2 Co11 B1 P4'
_cell_volume   215.14898168
_cell_formula_units_Z   1
loop_
 _symmetry_equiv_pos_site_id
 _symmetry_equiv_pos_as_xyz
  1  'x, y, z'
loop_
 _atom_site_type_symbol
 _atom_site_label
 _atom_site_symmetry_multiplicity
 _atom_site_fract_x
 _atom_site_fract_y
 _atom_site_fract_z
 _atom_site_occupancy
  Sm  Sm0  1  0.50000001  0.00000000  0.24804900  1
  Sm  Sm1  1  0.00000000  0.50000001  0.74804899  1
  B  B2  1  0.32857801  0.50000001  0.40358699  1
  P  P3  1  0.67142201  0.50000001  0.40358699  1
  P  P4  1  0.50000001  0.32857801  0.90358698  1
  P  P5  1  0.50000001  0.67142201  0.90358698  1
  P  P6  1  0.17008500  0.00000000  0.59836099  1
  Co  Co7  1  0.82991501  0.00000000  0.59836099  1
  Co  Co8  1  0.00000000  0.17008500  0.09836100  1
  Co  Co9  1  0.00000000  0.82991501  0.09836100  1
  Co  Co10  1  0.75161701  0.50000001  0.10512200  1
  Co  Co11  1  0.24838300  0.50000001  0.10512200  1
  Co  Co12  1  0.50000001  0.75161701  0.60512199  1
  Co  Co13  1  0.50000001  0.24838300  0.60512199  1
  Co  Co14  1  0.74940801  0.00000000  0.89390598  1
  Co  Co15  1  0.25059200  0.00000000  0.89390598  1
  Co  Co16  1  0.00000000  0.74940801  0.39390599  1
  Co  Co17  1  0.00000000  0.25059200  0.39390599  1
