# generated using pymatgen
data_Ac7La
_symmetry_space_group_name_H-M   'P 1'
_cell_length_a   6.39217710
_cell_length_b   7.91620398
_cell_length_c   7.91620350
_cell_angle_alpha   120.00000000
_cell_angle_beta   90.00000000
_cell_angle_gamma   90.00000000
_symmetry_Int_Tables_number   1
_chemical_formula_structural   Ac7La
_chemical_formula_sum   'Ac7 La1'
_cell_volume   346.90723460
_cell_formula_units_Z   1
loop_
 _symmetry_equiv_pos_site_id
 _symmetry_equiv_pos_as_xyz
  1  'x, y, z'
loop_
 _atom_site_type_symbol
 _atom_site_label
 _atom_site_symmetry_multiplicity
 _atom_site_fract_x
 _atom_site_fract_y
 _atom_site_fract_z
 _atom_site_occupancy
  Ac  Ac0  1  0.25000000  0.16795700  0.33591398  1
  Ac  Ac1  1  0.25000000  0.66408498  0.83204195  1
  Ac  Ac2  1  0.25000000  0.16795700  0.83204197  1
  Ac  Ac3  1  0.74999999  0.83204298  0.66408594  1
  Ac  Ac4  1  0.74999999  0.33591499  0.16795798  1
  Ac  Ac5  1  0.74999999  0.83204298  0.16795795  1
  Ac  Ac6  1  0.74999999  0.33333333  0.66666663  1
  La  La7  1  0.25000000  0.66666665  0.33333329  1
