# generated using pymatgen
data_RbLi3La2S7
_symmetry_space_group_name_H-M   'P 1'
_cell_length_a   7.29668188
_cell_length_b   7.29668188
_cell_length_c   7.92797136
_cell_angle_alpha   62.60089493
_cell_angle_beta   62.60089493
_cell_angle_gamma   60.00000000
_symmetry_Int_Tables_number   1
_chemical_formula_structural   RbLi3La2S7
_chemical_formula_sum   'Rb1 Li3 La2 S7'
_cell_volume   309.66805960
_cell_formula_units_Z   1
loop_
 _symmetry_equiv_pos_site_id
 _symmetry_equiv_pos_as_xyz
  1  'x, y, z'
loop_
 _atom_site_type_symbol
 _atom_site_label
 _atom_site_symmetry_multiplicity
 _atom_site_fract_x
 _atom_site_fract_y
 _atom_site_fract_z
 _atom_site_occupancy
  La  La0  1  0.15865999  0.15866000  0.52402002  1
  La  La1  1  0.84133996  0.84134000  0.47598004  1
  Li  Li2  1  0.49999998  0.50000000  0.00000002  1
  Li  Li3  1  -0.00000002  0.50000000  0.00000001  1
  Li  Li4  1  0.49999999  0.00000000  0.00000001  1
  Rb  Rb5  1  0.40511398  0.40511400  0.78465803  1
  S  S6  1  0.59488597  0.59488600  0.21534202  1
  S  S7  1  0.10084698  0.57869400  0.21961202  1
  S  S8  1  0.10084700  0.10084700  0.21961201  1
  S  S9  1  0.57869399  0.10084700  0.21961201  1
  S  S10  1  0.42130596  0.89915300  0.78038804  1
  S  S11  1  0.89915297  0.42130600  0.78038803  1
  S  S12  1  0.89915296  0.89915300  0.78038804  1
