# generated using pymatgen
data_Rb2Sn2O5
_symmetry_space_group_name_H-M   'P 1'
_cell_length_a   7.43585300
_cell_length_b   7.43585300
_cell_length_c   7.43585300
_cell_angle_alpha   60.00000000
_cell_angle_beta   60.00000000
_cell_angle_gamma   60.00000000
_symmetry_Int_Tables_number   1
_chemical_formula_structural   Rb2Sn2O5
_chemical_formula_sum   'Rb4 Sn4 O10'
_cell_volume   290.72165995
_cell_formula_units_Z   2
loop_
 _symmetry_equiv_pos_site_id
 _symmetry_equiv_pos_as_xyz
  1  'x, y, z'
loop_
 _atom_site_type_symbol
 _atom_site_label
 _atom_site_symmetry_multiplicity
 _atom_site_fract_x
 _atom_site_fract_y
 _atom_site_fract_z
 _atom_site_occupancy
  Rb  Rb0  1  0.74999999  0.74999999  0.74999999  1
  O  O1  1  0.00000000  0.00000000  0.00000000  1
  Sn  Sn2  1  0.87499999  0.37499999  0.37499999  1
  Sn  Sn3  1  0.37499999  0.87499999  0.37499999  1
  Sn  Sn4  1  0.37499999  0.37499999  0.87499999  1
  Sn  Sn5  1  0.37499999  0.37499999  0.37499999  1
  Rb  Rb6  1  0.05520100  0.05520100  0.44479899  1
  Rb  Rb7  1  0.05520100  0.44479899  0.05520100  1
  O  O8  1  0.30520100  0.30520100  0.69479899  1
  O  O9  1  0.30520100  0.69479899  0.30520100  1
  O  O10  1  0.05520100  0.44479899  0.44479899  1
  Rb  Rb11  1  0.44479899  0.05520100  0.05520100  1
  O  O12  1  0.69479899  0.30520100  0.30520100  1
  O  O13  1  0.44479899  0.05520100  0.44479899  1
  O  O14  1  0.44479899  0.44479899  0.05520100  1
  O  O15  1  0.30520100  0.69479899  0.69479899  1
  O  O16  1  0.69479899  0.69479899  0.30520100  1
  O  O17  1  0.69479899  0.30520100  0.69479899  1
