# generated using pymatgen
data_Rb2ZrPd4Se5
_symmetry_space_group_name_H-M   'P 1'
_cell_length_a   4.13840914
_cell_length_b   8.12517834
_cell_length_c   10.46054554
_cell_angle_alpha   90.00000000
_cell_angle_beta   90.00000000
_cell_angle_gamma   104.75377655
_symmetry_Int_Tables_number   1
_chemical_formula_structural   Rb2ZrPd4Se5
_chemical_formula_sum   'Rb2 Zr1 Pd4 Se5'
_cell_volume   340.14197473
_cell_formula_units_Z   1
loop_
 _symmetry_equiv_pos_site_id
 _symmetry_equiv_pos_as_xyz
  1  'x, y, z'
loop_
 _atom_site_type_symbol
 _atom_site_label
 _atom_site_symmetry_multiplicity
 _atom_site_fract_x
 _atom_site_fract_y
 _atom_site_fract_z
 _atom_site_occupancy
  Rb  Rb0  1  0.73970298  0.47940598  0.25000001  1
  Rb  Rb1  1  0.26029700  0.52059398  0.75000003  1
  Zr  Zr2  1  0.00000000  0.00000000  0.50000002  1
  Pd  Pd3  1  0.00000000  0.00000000  0.00000000  1
  Pd  Pd4  1  0.45730400  0.91460896  0.25000001  1
  Pd  Pd5  1  0.54269598  0.08539100  0.75000003  1
  Se  Se6  1  0.05382000  0.10763900  0.25000001  1
  Pd  Pd7  1  0.94617998  0.89236096  0.75000003  1
  Se  Se8  1  0.38840200  0.77680297  0.46512402  1
  Se  Se9  1  0.61159798  0.22319699  0.53487602  1
  Se  Se10  1  0.38840200  0.77680297  0.03487600  1
  Se  Se11  1  0.61159798  0.22319699  0.96512404  1
