# generated using pymatgen
data_VO2
_symmetry_space_group_name_H-M   'P 1'
_cell_length_a   3.54041600
_cell_length_b   5.02859020
_cell_length_c   6.73244619
_cell_angle_alpha   109.86150360
_cell_angle_beta   90.00000000
_cell_angle_gamma   110.61145020
_symmetry_Int_Tables_number   1
_chemical_formula_structural   VO2
_chemical_formula_sum   'V3 O6'
_cell_volume   104.53581064
_cell_formula_units_Z   3
loop_
 _symmetry_equiv_pos_site_id
 _symmetry_equiv_pos_as_xyz
  1  'x, y, z'
loop_
 _atom_site_type_symbol
 _atom_site_label
 _atom_site_symmetry_multiplicity
 _atom_site_fract_x
 _atom_site_fract_y
 _atom_site_fract_z
 _atom_site_occupancy
  V  V0  1  0.20691301  0.38704399  0.65577799  1
  V  V1  1  0.81986901  0.61295599  0.34422200  1
  V  V2  1  0.00068600  0.00000000  0.00000000  1
  O  O3  1  0.32017901  0.61439499  0.43508700  1
  O  O4  1  0.97759202  0.92878398  0.27542500  1
  O  O5  1  0.04880800  0.07121600  0.72457498  1
  O  O6  1  0.70578401  0.38560499  0.56491299  1
  O  O7  1  0.66960600  0.30604299  0.11092100  1
  O  O8  1  0.36356301  0.69395698  0.88907898  1
