# generated using pymatgen
data_V2CdO6
_symmetry_space_group_name_H-M   'P 1'
_cell_length_a   5.20900822
_cell_length_b   5.20900774
_cell_length_c   9.89647007
_cell_angle_alpha   90.00000000
_cell_angle_beta   90.00000000
_cell_angle_gamma   120.00000000
_symmetry_Int_Tables_number   1
_chemical_formula_structural   V2CdO6
_chemical_formula_sum   'V4 Cd2 O12'
_cell_volume   232.55248921
_cell_formula_units_Z   2
loop_
 _symmetry_equiv_pos_site_id
 _symmetry_equiv_pos_as_xyz
  1  'x, y, z'
loop_
 _atom_site_type_symbol
 _atom_site_label
 _atom_site_symmetry_multiplicity
 _atom_site_fract_x
 _atom_site_fract_y
 _atom_site_fract_z
 _atom_site_occupancy
  V  V0  1  0.66666663  0.33333333  0.25000000  1
  V  V1  1  0.33333330  0.66666666  0.74999999  1
  Cd  Cd2  1  0.00000000  0.00000000  0.50000000  1
  Cd  Cd3  1  0.00000000  0.00000000  0.00000000  1
  V  V4  1  0.33333330  0.66666666  0.25000000  1
  V  V5  1  0.66666663  0.33333333  0.74999999  1
  O  O6  1  0.34678398  0.36046700  0.36199800  1
  O  O7  1  0.65321595  0.63953300  0.63800200  1
  O  O8  1  0.01368298  0.65321600  0.36199800  1
  O  O9  1  0.34678396  0.98631699  0.13800200  1
  O  O10  1  0.98631695  0.34678400  0.63800200  1
  O  O11  1  0.65321597  0.01368300  0.86199799  1
  O  O12  1  0.63953295  0.98631699  0.36199800  1
  O  O13  1  0.01368299  0.36046700  0.13800200  1
  O  O14  1  0.36046698  0.01368300  0.63800200  1
  O  O15  1  0.98631694  0.63953300  0.86199799  1
  O  O16  1  0.63953296  0.65321600  0.13800200  1
  O  O17  1  0.36046698  0.34678400  0.86199799  1
