# generated using pymatgen
data_Ce3Mg
_symmetry_space_group_name_H-M   'P 1'
_cell_length_a   5.27566385
_cell_length_b   6.93075418
_cell_length_c   6.93075418
_cell_angle_alpha   120.00000000
_cell_angle_beta   90.00000000
_cell_angle_gamma   90.00000000
_symmetry_Int_Tables_number   1
_chemical_formula_structural   Ce3Mg
_chemical_formula_sum   'Ce6 Mg2'
_cell_volume   219.46675355
_cell_formula_units_Z   2
loop_
 _symmetry_equiv_pos_site_id
 _symmetry_equiv_pos_as_xyz
  1  'x, y, z'
loop_
 _atom_site_type_symbol
 _atom_site_label
 _atom_site_symmetry_multiplicity
 _atom_site_fract_x
 _atom_site_fract_y
 _atom_site_fract_z
 _atom_site_occupancy
  Ce  Ce0  1  0.25000001  0.66666665  0.33333332  1
  Mg  Mg1  1  0.75000002  0.33333332  0.66666665  1
  Ce  Ce2  1  0.75000002  0.84002398  0.15997599  1
  Ce  Ce3  1  0.75000002  0.31995199  0.15997599  1
  Ce  Ce4  1  0.75000002  0.84002398  0.68004798  1
  Ce  Ce5  1  0.25000001  0.15997600  0.84002397  1
  Ce  Ce6  1  0.25000001  0.68004798  0.84002397  1
  Mg  Mg7  1  0.25000001  0.15997600  0.31995199  1
