# generated using pymatgen
data_VP5O14
_symmetry_space_group_name_H-M   'P 1'
_cell_length_a   4.72744322
_cell_length_b   6.81507015
_cell_length_c   7.88031292
_cell_angle_alpha   91.59908295
_cell_angle_beta   92.84719849
_cell_angle_gamma   105.30202484
_symmetry_Int_Tables_number   1
_chemical_formula_structural   VP5O14
_chemical_formula_sum   'V1 P5 O14'
_cell_volume   244.36196064
_cell_formula_units_Z   1
loop_
 _symmetry_equiv_pos_site_id
 _symmetry_equiv_pos_as_xyz
  1  'x, y, z'
loop_
 _atom_site_type_symbol
 _atom_site_label
 _atom_site_symmetry_multiplicity
 _atom_site_fract_x
 _atom_site_fract_y
 _atom_site_fract_z
 _atom_site_occupancy
  V  V0  1  0.49999994  0.50000001  0.50000003  1
  P  P1  1  0.00000000  0.00000000  0.00000000  1
  P  P2  1  0.88816094  0.25422200  0.31028702  1
  P  P3  1  0.11183895  0.74577801  0.68971303  1
  P  P4  1  0.48083692  0.86084201  0.23642203  1
  P  P5  1  0.51916297  0.13915800  0.76357803  1
  O  O6  1  0.20747393  0.93318801  0.19175202  1
  O  O7  1  0.79252596  0.06681200  0.80824803  1
  O  O8  1  0.15333697  0.29495600  0.43779202  1
  O  O9  1  0.84666292  0.70504401  0.56220804  1
  O  O10  1  0.69561497  0.03341500  0.36180102  1
  O  O11  1  0.30438492  0.96658501  0.63819903  1
  O  O12  1  0.30048095  0.59573301  0.67504203  1
  O  O13  1  0.69951894  0.40426701  0.32495802  1
  O  O14  1  0.61285795  0.32795300  0.65957503  1
  O  O15  1  0.38714194  0.67204701  0.34042502  1
  O  O16  1  0.04116095  0.76525601  0.87660103  1
  O  O17  1  0.95883894  0.23474400  0.12339902  1
  O  O18  1  0.35078597  0.16827100  0.91952203  1
  O  O19  1  0.64921392  0.83172901  0.08047802  1
