# generated using pymatgen
data_Mn2Sb3Se7
_symmetry_space_group_name_H-M   'P 1'
_cell_length_a   3.78288412
_cell_length_b   6.46983862
_cell_length_c   11.30621147
_cell_angle_alpha   104.99056244
_cell_angle_beta   90.00000000
_cell_angle_gamma   106.99855804
_symmetry_Int_Tables_number   1
_chemical_formula_structural   Mn2Sb3Se7
_chemical_formula_sum   'Mn2 Sb3 Se7'
_cell_volume   254.76291572
_cell_formula_units_Z   1
loop_
 _symmetry_equiv_pos_site_id
 _symmetry_equiv_pos_as_xyz
  1  'x, y, z'
loop_
 _atom_site_type_symbol
 _atom_site_label
 _atom_site_symmetry_multiplicity
 _atom_site_fract_x
 _atom_site_fract_y
 _atom_site_fract_z
 _atom_site_occupancy
  Sb  Sb0  1  0.30655000  0.61310000  0.20788400  1
  Sb  Sb1  1  0.69276198  0.38552400  0.80140198  1
  Sb  Sb2  1  0.00171400  0.00342800  0.00757100  1
  Mn  Mn3  1  0.88683498  0.77367000  0.56270499  1
  Mn  Mn4  1  0.11523100  0.23046200  0.42508199  1
  Se  Se5  1  0.25213900  0.50427800  0.63279798  1
  Se  Se6  1  0.72700098  0.45400200  0.35249099  1
  Se  Se7  1  0.66415098  0.32830200  0.05220000  1
  Se  Se8  1  0.34041099  0.68082200  0.94744297  1
  Se  Se9  1  0.96923898  0.93847800  0.23128500  1
  Se  Se10  1  0.03612800  0.07225600  0.78526997  1
  Se  Se11  1  0.50783998  0.01568000  0.49386898  1
