# generated using pymatgen
data_CeEr3Si11Ir4Ru
_symmetry_space_group_name_H-M   'P 1'
_cell_length_a   5.63055420
_cell_length_b   8.26099014
_cell_length_c   8.26099014
_cell_angle_alpha   71.59209442
_cell_angle_beta   70.07488251
_cell_angle_gamma   70.07488251
_symmetry_Int_Tables_number   1
_chemical_formula_structural   CeEr3Si11Ir4Ru
_chemical_formula_sum   'Ce1 Er3 Si11 Ir4 Ru1'
_cell_volume   330.84768295
_cell_formula_units_Z   1
loop_
 _symmetry_equiv_pos_site_id
 _symmetry_equiv_pos_as_xyz
  1  'x, y, z'
loop_
 _atom_site_type_symbol
 _atom_site_label
 _atom_site_symmetry_multiplicity
 _atom_site_fract_x
 _atom_site_fract_y
 _atom_site_fract_z
 _atom_site_occupancy
  Ce  Ce0  1  0.86502297  0.36748198  0.90247297  1
  Er  Er1  1  0.13497700  0.63251796  0.09752701  1
  Er  Er2  1  0.63497798  0.09752599  0.63251797  1
  Er  Er3  1  0.36502199  0.90247395  0.36748201  1
  Si  Si4  1  0.24999999  0.00000000  0.00000000  1
  Si  Si5  1  0.74999997  0.00000000  0.00000001  1
  Si  Si6  1  0.54193198  0.70806796  0.70806798  1
  Si  Si7  1  0.95806796  0.29193198  0.29193200  1
  Ir  Ir8  1  0.45806798  0.29193198  0.29193200  1
  Si  Si9  1  0.04193200  0.70806796  0.70806798  1
  Si  Si10  1  0.59582898  0.57270597  0.23563701  1
  Si  Si11  1  0.09582800  0.23563799  0.57270598  1
  Si  Si12  1  0.90417197  0.76436195  0.42729400  1
  Si  Si13  1  0.40417099  0.42729397  0.76436297  1
  Ir  Ir14  1  0.14600200  0.94685094  0.76114498  1
  Ir  Ir15  1  0.74999997  0.49999997  0.49999999  1
  Ru  Ru16  1  0.64600198  0.76114495  0.94685097  1
  Si  Si17  1  0.35399799  0.23885499  0.05314901  1
  Si  Si18  1  0.85399797  0.05314900  0.23885499  1
  Ir  Ir19  1  0.24999999  0.49999997  0.49999999  1
