# generated using pymatgen
data_NbCu3Se2
_symmetry_space_group_name_H-M   'P 1'
_cell_length_a   6.43372917
_cell_length_b   7.29637098
_cell_length_c   7.37125158
_cell_angle_alpha   119.66452026
_cell_angle_beta   115.87484741
_cell_angle_gamma   90.00000000
_symmetry_Int_Tables_number   1
_chemical_formula_structural   NbCu3Se2
_chemical_formula_sum   'Nb3 Cu9 Se6'
_cell_volume   260.00538765
_cell_formula_units_Z   3
loop_
 _symmetry_equiv_pos_site_id
 _symmetry_equiv_pos_as_xyz
  1  'x, y, z'
loop_
 _atom_site_type_symbol
 _atom_site_label
 _atom_site_symmetry_multiplicity
 _atom_site_fract_x
 _atom_site_fract_y
 _atom_site_fract_z
 _atom_site_occupancy
  Nb  Nb0  1  0.10639495  0.55235798  0.60471494  1
  Nb  Nb1  1  0.50168094  0.44764198  0.39528493  1
  Nb  Nb2  1  0.49110190  0.97865997  0.45731989  1
  Cu  Cu3  1  0.03378300  0.02134000  0.54267998  1
  Cu  Cu4  1  0.91515489  0.75088797  0.00177489  1
  Cu  Cu5  1  0.91337993  0.24911199  0.99822490  1
  Cu  Cu6  1  0.73742194  0.16123999  0.24213694  1
  Cu  Cu7  1  0.49528491  0.83875997  0.75786289  1
  Cu  Cu8  1  0.73742191  0.58089698  0.24213691  1
  Cu  Cu9  1  0.49528494  0.41910299  0.75786292  1
  Cu  Cu10  1  0.25965795  0.49999998  -0.00000005  1
  Cu  Cu11  1  0.25965799  0.00000000  -0.00000002  1
  Se  Se12  1  0.82815393  0.33858099  0.66682291  1
  Se  Se13  1  0.16133094  0.66141898  0.33317693  1
  Se  Se14  1  0.82815389  0.82824297  0.66682287  1
  Se  Se15  1  0.16133098  0.17175699  0.33317697  1
  Se  Se16  1  0.54375491  0.78635097  0.07270291  1
  Se  Se17  1  0.47105196  0.21364899  0.92729693  1
