# generated using pymatgen
data_Li2Te2HO11
_symmetry_space_group_name_H-M   'P 1'
_cell_length_a   5.27436209
_cell_length_b   5.35296392
_cell_length_c   7.52949619
_cell_angle_alpha   90.00000000
_cell_angle_beta   89.99686432
_cell_angle_gamma   90.00000000
_symmetry_Int_Tables_number   1
_chemical_formula_structural   Li2Te2HO11
_chemical_formula_sum   'Li2 Te2 H1 O11'
_cell_volume   212.58380439
_cell_formula_units_Z   1
loop_
 _symmetry_equiv_pos_site_id
 _symmetry_equiv_pos_as_xyz
  1  'x, y, z'
loop_
 _atom_site_type_symbol
 _atom_site_label
 _atom_site_symmetry_multiplicity
 _atom_site_fract_x
 _atom_site_fract_y
 _atom_site_fract_z
 _atom_site_occupancy
  O  O0  1  0.00000000  0.50000001  -0.00000000  1
  H  H1  1  0.49999999  0.00000000  0.49999998  1
  O  O2  1  0.00000000  0.50000001  0.49999999  1
  Te  Te3  1  0.49999999  0.00000000  -0.00000000  1
  O  O4  1  0.93911198  0.49289701  0.74863898  1
  O  O5  1  0.78624599  0.21280200  0.03058799  1
  O  O6  1  0.78829399  0.21573100  0.46946098  1
  O  O7  1  0.71170599  0.71573101  0.03053899  1
  O  O8  1  0.71375399  0.71280201  0.46941198  1
  O  O9  1  0.56088799  0.99289701  0.75136098  1
  O  O10  1  0.43911199  0.00710300  0.24863899  1
  Li  Li11  1  0.28624600  0.28719800  0.53058799  1
  O  O12  1  0.28829400  0.28426900  0.96946097  1
  O  O13  1  0.21375400  0.78719801  0.96941198  1
  Te  Te14  1  0.21170600  0.78426901  0.53053899  1
  Li  Li15  1  0.06088800  0.50710301  0.25136099  1
