# generated using pymatgen
data_CaTiCl2O
_symmetry_space_group_name_H-M   'P 1'
_cell_length_a   3.73079395
_cell_length_b   6.11105680
_cell_length_c   7.98173428
_cell_angle_alpha   89.91759491
_cell_angle_beta   90.00000000
_cell_angle_gamma   107.77317047
_symmetry_Int_Tables_number   1
_chemical_formula_structural   CaTiCl2O
_chemical_formula_sum   'Ca2 Ti2 Cl4 O2'
_cell_volume   173.29082438
_cell_formula_units_Z   2
loop_
 _symmetry_equiv_pos_site_id
 _symmetry_equiv_pos_as_xyz
  1  'x, y, z'
loop_
 _atom_site_type_symbol
 _atom_site_label
 _atom_site_symmetry_multiplicity
 _atom_site_fract_x
 _atom_site_fract_y
 _atom_site_fract_z
 _atom_site_occupancy
  Ca  Ca0  1  0.26585194  0.53170401  0.29389799  1
  Ca  Ca1  1  0.73414796  0.46829600  0.70610198  1
  Ti  Ti2  1  0.00000000  0.00000000  0.49999999  1
  Ti  Ti3  1  0.49999990  1.00000001  -0.00000000  1
  Cl  Cl4  1  0.13724697  0.27449400  0.97105498  1
  Cl  Cl5  1  0.45522991  0.91046001  0.69821598  1
  Cl  Cl6  1  0.54477000  0.08954000  0.30178399  1
  Cl  Cl7  1  0.86275293  0.72550601  0.02894500  1
  O  O8  1  0.83346894  0.66693801  0.43898799  1
  O  O9  1  0.16653097  0.33306200  0.56101199  1
