# generated using pymatgen
data_La5Cr4S11
_symmetry_space_group_name_H-M   'P 1'
_cell_length_a   5.93919992
_cell_length_b   8.27710056
_cell_length_c   8.27710056
_cell_angle_alpha   73.08061981
_cell_angle_beta   68.97514343
_cell_angle_gamma   68.97514343
_symmetry_Int_Tables_number   1
_chemical_formula_structural   La5Cr4S11
_chemical_formula_sum   'La5 Cr4 S11'
_cell_volume   348.31623954
_cell_formula_units_Z   1
loop_
 _symmetry_equiv_pos_site_id
 _symmetry_equiv_pos_as_xyz
  1  'x, y, z'
loop_
 _atom_site_type_symbol
 _atom_site_label
 _atom_site_symmetry_multiplicity
 _atom_site_fract_x
 _atom_site_fract_y
 _atom_site_fract_z
 _atom_site_occupancy
  La  La0  1  0.86665802  0.39517500  0.87150903  1
  La  La1  1  0.13334204  0.60482500  0.12849099  1
  La  La2  1  0.63334201  0.12849100  0.60482503  1
  La  La3  1  0.36665805  0.87150900  0.39517499  1
  Cr  Cr4  1  0.63564403  0.47337100  0.25534001  1
  Cr  Cr5  1  0.36435603  0.52662900  0.74466001  1
  Cr  Cr6  1  0.86435504  0.74466100  0.52662902  1
  Cr  Cr7  1  0.13564502  0.25533900  0.47337100  1
  La  La8  1  0.25000006  1.00000001  1.00000000  1
  S  S9  1  0.75000006  1.00000001  1.00000001  1
  S  S10  1  0.01410002  0.23590000  0.23590000  1
  S  S11  1  0.48590005  0.76410000  0.76410001  1
  S  S12  1  0.98590004  0.76410000  0.76410002  1
  S  S13  1  0.51410001  0.23590000  0.23590001  1
  S  S14  1  0.59861405  0.74551500  0.05725700  1
  S  S15  1  0.40138601  0.25448500  0.94274302  1
  S  S16  1  0.90138606  0.94274301  0.25448501  1
  S  S17  1  0.09861400  0.05725700  0.74551501  1
  S  S18  1  0.25000003  0.50000000  0.50000000  1
  S  S19  1  0.75000003  0.50000000  0.50000002  1
