# generated using pymatgen
data_Sr3Eu2Cu3O8
_symmetry_space_group_name_H-M   'P 1'
_cell_length_a   3.92728949
_cell_length_b   3.92728949
_cell_length_c   15.34237385
_cell_angle_alpha   90.00000000
_cell_angle_beta   90.00000000
_cell_angle_gamma   89.80345917
_symmetry_Int_Tables_number   1
_chemical_formula_structural   Sr3Eu2Cu3O8
_chemical_formula_sum   'Sr3 Eu2 Cu3 O8'
_cell_volume   236.63328658
_cell_formula_units_Z   1
loop_
 _symmetry_equiv_pos_site_id
 _symmetry_equiv_pos_as_xyz
  1  'x, y, z'
loop_
 _atom_site_type_symbol
 _atom_site_label
 _atom_site_symmetry_multiplicity
 _atom_site_fract_x
 _atom_site_fract_y
 _atom_site_fract_z
 _atom_site_occupancy
  Sr  Sr0  1  0.50424402  0.49575601  0.64237001  1
  Sr  Sr1  1  0.50424402  0.49575601  0.35763000  1
  Cu  Cu2  1  0.00110302  0.99889702  0.76773601  1
  Cu  Cu3  1  0.00110302  0.99889702  0.23226400  1
  Cu  Cu4  1  0.02378602  0.97621402  0.50000000  1
  Eu  Eu5  1  0.50019102  0.49980901  0.87741701  1
  Eu  Eu6  1  0.50019102  0.49980901  0.12258300  1
  Sr  Sr7  1  0.00042602  0.99957402  -0.00000000  1
  O  O8  1  0.50108803  0.99940102  0.78016701  1
  O  O9  1  0.00059901  0.49891201  0.78016701  1
  O  O10  1  0.50108803  0.99940102  0.21983300  1
  O  O11  1  0.00059901  0.49891201  0.21983300  1
  O  O12  1  0.98952002  0.01048000  0.62683701  1
  O  O13  1  0.98952002  0.01048000  0.37316300  1
  O  O14  1  0.51956303  0.95045002  0.50000000  1
  O  O15  1  0.04955001  0.48043701  0.50000000  1
