# generated using pymatgen
data_Li2SiN
_symmetry_space_group_name_H-M   'P 1'
_cell_length_a   4.12054491
_cell_length_b   4.45722485
_cell_length_c   6.57303810
_cell_angle_alpha   99.42529297
_cell_angle_beta   90.00000000
_cell_angle_gamma   90.00000000
_symmetry_Int_Tables_number   1
_chemical_formula_structural   Li2SiN
_chemical_formula_sum   'Li4 Si2 N2'
_cell_volume   119.09195345
_cell_formula_units_Z   2
loop_
 _symmetry_equiv_pos_site_id
 _symmetry_equiv_pos_as_xyz
  1  'x, y, z'
loop_
 _atom_site_type_symbol
 _atom_site_label
 _atom_site_symmetry_multiplicity
 _atom_site_fract_x
 _atom_site_fract_y
 _atom_site_fract_z
 _atom_site_occupancy
  Si  Si0  1  0.25000001  0.20727501  0.29153601  1
  Si  Si1  1  0.75000002  0.79272503  0.70846404  1
  Li  Li2  1  0.25000001  0.75104703  0.46960403  1
  Li  Li3  1  0.75000002  0.24895301  0.53039602  1
  N  N4  1  0.25000001  0.10644700  0.88930801  1
  N  N5  1  0.75000002  0.89355304  0.11069204  1
  Li  Li6  1  0.25000001  0.53275502  0.83476303  1
  Li  Li7  1  0.75000002  0.46724502  0.16523702  1
