# generated using pymatgen
data_Al2InTe11
_symmetry_space_group_name_H-M   'P 1'
_cell_length_a   8.06875896
_cell_length_b   8.06875896
_cell_length_c   8.06875896
_cell_angle_alpha   61.13748169
_cell_angle_beta   61.13748169
_cell_angle_gamma   61.13748169
_symmetry_Int_Tables_number   1
_chemical_formula_structural   Al2InTe11
_chemical_formula_sum   'Al2 In1 Te11'
_cell_volume   380.96252903
_cell_formula_units_Z   1
loop_
 _symmetry_equiv_pos_site_id
 _symmetry_equiv_pos_as_xyz
  1  'x, y, z'
loop_
 _atom_site_type_symbol
 _atom_site_label
 _atom_site_symmetry_multiplicity
 _atom_site_fract_x
 _atom_site_fract_y
 _atom_site_fract_z
 _atom_site_occupancy
  Te  Te0  1  0.00000000  0.00000000  0.00000000  1
  Te  Te1  1  0.50000003  0.00000000  -0.00000001  1
  Te  Te2  1  -0.00000000  0.50000003  -0.00000001  1
  Te  Te3  1  0.00000000  0.00000000  0.50000000  1
  Al  Al4  1  0.39812102  0.39812102  0.39812098  1
  Al  Al5  1  0.60187903  0.60187903  0.60187897  1
  Te  Te6  1  0.21608501  0.75856804  0.75856797  1
  Te  Te7  1  0.75856804  0.21608501  0.75856797  1
  Te  Te8  1  0.75856804  0.75856804  0.21608496  1
  Te  Te9  1  0.78391504  0.24143201  0.24143197  1
  Te  Te10  1  0.24143201  0.78391504  0.24143197  1
  Te  Te11  1  0.24143201  0.24143201  0.78391499  1
  Te  Te12  1  0.75084004  0.75084004  0.75083996  1
  In  In13  1  0.24916001  0.24916001  0.24915999  1
