# generated using pymatgen
data_CeSi3Ni
_symmetry_space_group_name_H-M   'P 1'
_cell_length_a   4.05334806
_cell_length_b   4.08274221
_cell_length_c   10.96786308
_cell_angle_alpha   79.27339172
_cell_angle_beta   90.00000000
_cell_angle_gamma   90.00000000
_symmetry_Int_Tables_number   1
_chemical_formula_structural   CeSi3Ni
_chemical_formula_sum   'Ce2 Si6 Ni2'
_cell_volume   178.33317270
_cell_formula_units_Z   2
loop_
 _symmetry_equiv_pos_site_id
 _symmetry_equiv_pos_as_xyz
  1  'x, y, z'
loop_
 _atom_site_type_symbol
 _atom_site_label
 _atom_site_symmetry_multiplicity
 _atom_site_fract_x
 _atom_site_fract_y
 _atom_site_fract_z
 _atom_site_occupancy
  Ce  Ce0  1  0.49999999  0.16905899  0.66188202  1
  Ce  Ce1  1  0.49999999  0.83094095  0.33811802  1
  Ni  Ni2  1  0.00000000  0.38837798  0.22324401  1
  Ni  Ni3  1  0.00000000  0.61162197  0.77675602  1
  Si  Si4  1  0.00000000  0.28292698  0.43414601  1
  Si  Si5  1  0.00000000  0.71707296  0.56585402  1
  Si  Si6  1  0.49999999  0.44266298  0.11467401  1
  Si  Si7  1  0.49999999  0.55733697  0.88532603  1
  Si  Si8  1  0.00000000  0.05757500  0.88485002  1
  Si  Si9  1  0.99999998  0.94242495  0.11515001  1
