# generated using pymatgen
data_HCN2
_symmetry_space_group_name_H-M   'P 1'
_cell_length_a   3.90327907
_cell_length_b   3.90325689
_cell_length_c   5.54638863
_cell_angle_alpha   90.00009155
_cell_angle_beta   69.39905548
_cell_angle_gamma   59.99957275
_symmetry_Int_Tables_number   1
_chemical_formula_structural   HCN2
_chemical_formula_sum   'H1 C1 N2'
_cell_volume   66.86824902
_cell_formula_units_Z   1
loop_
 _symmetry_equiv_pos_site_id
 _symmetry_equiv_pos_as_xyz
  1  'x, y, z'
loop_
 _atom_site_type_symbol
 _atom_site_label
 _atom_site_symmetry_multiplicity
 _atom_site_fract_x
 _atom_site_fract_y
 _atom_site_fract_z
 _atom_site_occupancy
  H  H0  1  0.99995609  0.99998201  0.00002591  1
  C  C1  1  0.99998107  0.50000700  0.50002592  1
  N  N2  1  0.83678107  0.58160700  0.74482592  1
  N  N3  1  0.16318403  0.41840300  0.25521897  1
