# generated using pymatgen
data_NaLuZr2F14
_symmetry_space_group_name_H-M   'P 1'
_cell_length_a   5.73954105
_cell_length_b   6.15363836
_cell_length_c   8.33503151
_cell_angle_alpha   101.89710999
_cell_angle_beta   90.00000000
_cell_angle_gamma   90.00000000
_symmetry_Int_Tables_number   1
_chemical_formula_structural   NaLuZr2F14
_chemical_formula_sum   'Na1 Lu1 Zr2 F14'
_cell_volume   288.06189694
_cell_formula_units_Z   1
loop_
 _symmetry_equiv_pos_site_id
 _symmetry_equiv_pos_as_xyz
  1  'x, y, z'
loop_
 _atom_site_type_symbol
 _atom_site_label
 _atom_site_symmetry_multiplicity
 _atom_site_fract_x
 _atom_site_fract_y
 _atom_site_fract_z
 _atom_site_occupancy
  Lu  Lu0  1  0.69721199  0.65517098  0.68407400  1
  Na  Na1  1  0.19721200  0.34482899  0.31592600  1
  Zr  Zr2  1  0.70705099  0.81149398  0.22373197  1
  Zr  Zr3  1  0.20705100  0.18850600  0.77626803  1
  F  F4  1  0.89009999  0.45461099  0.47721100  1
  F  F5  1  0.39010000  0.54538899  0.52278900  1
  F  F6  1  0.42645500  0.92552098  0.76841699  1
  F  F7  1  0.92645499  0.07447900  0.23158301  1
  F  F8  1  0.94454999  0.95936998  0.75965299  1
  F  F9  1  0.44455000  0.04063000  0.24034701  1
  F  F10  1  0.99443599  0.45673099  0.78645201  1
  F  F11  1  0.49443600  0.54326899  0.21354798  1
  F  F12  1  0.70344099  0.75459798  0.97515801  1
  F  F13  1  0.20344100  0.24540199  0.02484199  1
  F  F14  1  0.71061299  0.85939498  0.47313198  1
  F  F15  1  0.21061300  0.14060500  0.52686802  1
  F  F16  1  0.50250200  0.37871599  0.78156002  1
  F  F17  1  0.00250200  0.62128399  0.21843998  1
