# generated using pymatgen
data_SmBiAu4
_symmetry_space_group_name_H-M   'P 1'
_cell_length_a   4.02933407
_cell_length_b   4.02933407
_cell_length_c   9.18223667
_cell_angle_alpha   90.00000000
_cell_angle_beta   90.00000000
_cell_angle_gamma   90.00000000
_symmetry_Int_Tables_number   1
_chemical_formula_structural   SmBiAu4
_chemical_formula_sum   'Sm1 Bi1 Au4'
_cell_volume   149.07850680
_cell_formula_units_Z   1
loop_
 _symmetry_equiv_pos_site_id
 _symmetry_equiv_pos_as_xyz
  1  'x, y, z'
loop_
 _atom_site_type_symbol
 _atom_site_label
 _atom_site_symmetry_multiplicity
 _atom_site_fract_x
 _atom_site_fract_y
 _atom_site_fract_z
 _atom_site_occupancy
  Sm  Sm0  1  0.49999999  0.00000000  0.72309503  1
  Bi  Bi1  1  0.00000000  0.49999999  0.27690501  1
  Au  Au2  1  0.00000000  0.00000000  0.00000000  1
  Au  Au3  1  0.49999999  0.49999999  -0.00000000  1
  Au  Au4  1  0.49999999  0.00000000  0.37535501  1
  Au  Au5  1  0.00000000  0.49999999  0.62464502  1
