# generated using pymatgen
data_Pm7Mg
_symmetry_space_group_name_H-M   'P 1'
_cell_length_a   5.50597620
_cell_length_b   7.07462788
_cell_length_c   7.07462835
_cell_angle_alpha   60.00000000
_cell_angle_beta   90.00000000
_cell_angle_gamma   90.00000000
_symmetry_Int_Tables_number   1
_chemical_formula_structural   Pm7Mg
_chemical_formula_sum   'Pm7 Mg1'
_cell_volume   238.65590957
_cell_formula_units_Z   1
loop_
 _symmetry_equiv_pos_site_id
 _symmetry_equiv_pos_as_xyz
  1  'x, y, z'
loop_
 _atom_site_type_symbol
 _atom_site_label
 _atom_site_symmetry_multiplicity
 _atom_site_fract_x
 _atom_site_fract_y
 _atom_site_fract_z
 _atom_site_occupancy
  Pm  Pm0  1  0.24999999  0.33333334  0.33333332  1
  Pm  Pm1  1  0.74999997  0.66666669  0.66666664  1
  Pm  Pm2  1  0.74999997  0.66739602  0.16630198  1
  Pm  Pm3  1  0.74999997  0.16630201  0.16630199  1
  Mg  Mg4  1  0.74999997  0.16630201  0.66739600  1
  Pm  Pm5  1  0.24999999  0.33260401  0.83369799  1
  Pm  Pm6  1  0.24999999  0.83369803  0.83369797  1
  Pm  Pm7  1  0.24999999  0.83369803  0.33260397  1
