# generated using pymatgen
data_VB2W
_symmetry_space_group_name_H-M   'P 1'
_cell_length_a   3.01256609
_cell_length_b   3.07960606
_cell_length_c   4.39261961
_cell_angle_alpha   110.52054596
_cell_angle_beta   90.00000000
_cell_angle_gamma   90.00000000
_symmetry_Int_Tables_number   1
_chemical_formula_structural   VB2W
_chemical_formula_sum   'V1 B2 W1'
_cell_volume   38.16670877
_cell_formula_units_Z   1
loop_
 _symmetry_equiv_pos_site_id
 _symmetry_equiv_pos_as_xyz
  1  'x, y, z'
loop_
 _atom_site_type_symbol
 _atom_site_label
 _atom_site_symmetry_multiplicity
 _atom_site_fract_x
 _atom_site_fract_y
 _atom_site_fract_z
 _atom_site_occupancy
  V  V0  1  0.99999997  0.14173700  0.28347402  1
  B  B1  1  0.49999999  0.56497800  0.12995603  1
  B  B2  1  0.99999997  0.44216700  0.88433406  1
  W  W3  1  0.49999999  0.85111700  0.70223407  1
