# generated using pymatgen
data_LiSn2
_symmetry_space_group_name_H-M   'P 1'
_cell_length_a   2.94609404
_cell_length_b   2.94609404
_cell_length_c   7.40271139
_cell_angle_alpha   78.52225494
_cell_angle_beta   78.52225494
_cell_angle_gamma   59.99999619
_symmetry_Int_Tables_number   1
_chemical_formula_structural   LiSn2
_chemical_formula_sum   'Li1 Sn2'
_cell_volume   54.15477152
_cell_formula_units_Z   1
loop_
 _symmetry_equiv_pos_site_id
 _symmetry_equiv_pos_as_xyz
  1  'x, y, z'
loop_
 _atom_site_type_symbol
 _atom_site_label
 _atom_site_symmetry_multiplicity
 _atom_site_fract_x
 _atom_site_fract_y
 _atom_site_fract_z
 _atom_site_occupancy
  Li  Li0  1  0.00000000  0.00000000  0.00000000  1
  Sn  Sn1  1  0.77771903  0.77771903  0.66684300  1
  Sn  Sn2  1  0.22228101  0.22228101  0.33315700  1
