# generated using pymatgen
data_La2Ag3SbSe8
_symmetry_space_group_name_H-M   'P 1'
_cell_length_a   4.33047819
_cell_length_b   8.47555256
_cell_length_c   10.02394295
_cell_angle_alpha   81.14002228
_cell_angle_beta   77.52540588
_cell_angle_gamma   75.19863892
_symmetry_Int_Tables_number   1
_chemical_formula_structural   La2Ag3SbSe8
_chemical_formula_sum   'La2 Ag3 Sb1 Se8'
_cell_volume   345.39611945
_cell_formula_units_Z   1
loop_
 _symmetry_equiv_pos_site_id
 _symmetry_equiv_pos_as_xyz
  1  'x, y, z'
loop_
 _atom_site_type_symbol
 _atom_site_label
 _atom_site_symmetry_multiplicity
 _atom_site_fract_x
 _atom_site_fract_y
 _atom_site_fract_z
 _atom_site_occupancy
  La  La0  1  0.26673500  0.12996000  0.33657001  1
  La  La1  1  0.73326504  0.87004000  0.66343003  1
  Se  Se2  1  0.39394800  0.26211600  0.94998803  1
  Se  Se3  1  0.60605203  0.73788400  0.05001201  1
  Ag  Ag4  1  0.03834802  0.23677700  0.68652702  1
  Ag  Ag5  1  0.96165202  0.76322300  0.31347302  1
  Ag  Ag6  1  0.41138503  0.52628000  0.65095003  1
  Sb  Sb7  1  0.58861501  0.47372000  0.34905002  1
  Se  Se8  1  0.07578108  0.97409500  0.87434303  1
  Se  Se9  1  0.92421896  0.02590500  0.12565701  1
  Se  Se10  1  0.15174404  0.49321300  0.20329901  1
  Se  Se11  1  0.84825600  0.50678700  0.79670103  1
  Se  Se12  1  0.39020805  0.76160500  0.45797902  1
  Se  Se13  1  0.60979199  0.23839500  0.54202102  1
