# generated using pymatgen
data_Lu3(SnAu2)2
_symmetry_space_group_name_H-M   'P 1'
_cell_length_a   3.98920107
_cell_length_b   7.60050392
_cell_length_c   7.60050440
_cell_angle_alpha   120.00000000
_cell_angle_beta   90.00000000
_cell_angle_gamma   90.00000000
_symmetry_Int_Tables_number   1
_chemical_formula_structural   Lu3(SnAu2)2
_chemical_formula_sum   'Lu3 Sn2 Au4'
_cell_volume   199.57280460
_cell_formula_units_Z   1
loop_
 _symmetry_equiv_pos_site_id
 _symmetry_equiv_pos_as_xyz
  1  'x, y, z'
loop_
 _atom_site_type_symbol
 _atom_site_label
 _atom_site_symmetry_multiplicity
 _atom_site_fract_x
 _atom_site_fract_y
 _atom_site_fract_z
 _atom_site_occupancy
  Lu  Lu0  1  0.49999999  0.58752102  0.58752102  1
  Lu  Lu1  1  0.49999999  0.00000000  0.41247900  1
  Lu  Lu2  1  0.49999999  0.41247901  0.00000001  1
  Sn  Sn3  1  0.00000000  0.24732501  0.24732501  1
  Au  Au4  1  0.99999998  0.00000000  0.75267500  1
  Sn  Sn5  1  0.00000000  0.75267502  0.00000003  1
  Au  Au6  1  0.49999999  0.00000000  -0.00000000  1
  Au  Au7  1  0.00000000  0.66666668  0.33333336  1
  Au  Au8  1  0.00000000  0.33333334  0.66666668  1
