# generated using pymatgen
data_Al(Cr3Se4)2
_symmetry_space_group_name_H-M   'P 1'
_cell_length_a   6.81396151
_cell_length_b   6.81396151
_cell_length_c   6.81396151
_cell_angle_alpha   92.01113892
_cell_angle_beta   92.01113892
_cell_angle_gamma   92.01113892
_symmetry_Int_Tables_number   1
_chemical_formula_structural   Al(Cr3Se4)2
_chemical_formula_sum   'Al1 Cr6 Se8'
_cell_volume   315.77402435
_cell_formula_units_Z   1
loop_
 _symmetry_equiv_pos_site_id
 _symmetry_equiv_pos_as_xyz
  1  'x, y, z'
loop_
 _atom_site_type_symbol
 _atom_site_label
 _atom_site_symmetry_multiplicity
 _atom_site_fract_x
 _atom_site_fract_y
 _atom_site_fract_z
 _atom_site_occupancy
  Al  Al0  1  0.00000000  0.00000000  0.00000000  1
  Cr  Cr1  1  0.41385601  0.23053701  0.55024298  1
  Cr  Cr2  1  0.23053699  0.55024302  0.41385597  1
  Cr  Cr3  1  0.55024300  0.41385601  0.23053696  1
  Cr  Cr4  1  0.58614400  0.76946302  0.44975695  1
  Cr  Cr5  1  0.76946301  0.44975701  0.58614396  1
  Cr  Cr6  1  0.44975700  0.58614402  0.76946297  1
  Se  Se7  1  0.22217000  0.22217001  0.22216999  1
  Se  Se8  1  0.77783000  0.77783002  0.77782995  1
  Se  Se9  1  0.38247599  0.73658102  0.12744795  1
  Se  Se10  1  0.73658102  0.12744800  0.38247597  1
  Se  Se11  1  0.12744799  0.38247601  0.73658100  1
  Se  Se12  1  0.61752401  0.26341901  0.87255198  1
  Se  Se13  1  0.26341898  0.87255202  0.61752396  1
  Se  Se14  1  0.87255201  0.61752402  0.26341894  1
