# generated using pymatgen
data_NaZrBe3Pd
_symmetry_space_group_name_H-M   'P 1'
_cell_length_a   4.83568287
_cell_length_b   4.83568287
_cell_length_c   4.83568287
_cell_angle_alpha   60.00000000
_cell_angle_beta   60.00000000
_cell_angle_gamma   60.00000000
_symmetry_Int_Tables_number   1
_chemical_formula_structural   NaZrBe3Pd
_chemical_formula_sum   'Na1 Zr1 Be3 Pd1'
_cell_volume   79.95735820
_cell_formula_units_Z   1
loop_
 _symmetry_equiv_pos_site_id
 _symmetry_equiv_pos_as_xyz
  1  'x, y, z'
loop_
 _atom_site_type_symbol
 _atom_site_label
 _atom_site_symmetry_multiplicity
 _atom_site_fract_x
 _atom_site_fract_y
 _atom_site_fract_z
 _atom_site_occupancy
  Na  Na0  1  0.00000000  0.00000000  0.00000000  1
  Zr  Zr1  1  0.74999997  0.74999997  0.74999997  1
  Be  Be2  1  0.37551298  0.87345896  0.37551398  1
  Be  Be3  1  0.37551298  0.37551398  0.37551398  1
  Be  Be4  1  0.37551298  0.37551398  0.87345896  1
  Pd  Pd5  1  0.87345796  0.37551398  0.37551398  1
