# generated using pymatgen
data_RuF2
_symmetry_space_group_name_H-M   'P 1'
_cell_length_a   3.32175589
_cell_length_b   4.10069847
_cell_length_c   6.30069542
_cell_angle_alpha   81.53057098
_cell_angle_beta   74.71607971
_cell_angle_gamma   66.10742188
_symmetry_Int_Tables_number   1
_chemical_formula_structural   RuF2
_chemical_formula_sum   'Ru1 F2'
_cell_volume   75.61508973
_cell_formula_units_Z   1
loop_
 _symmetry_equiv_pos_site_id
 _symmetry_equiv_pos_as_xyz
  1  'x, y, z'
loop_
 _atom_site_type_symbol
 _atom_site_label
 _atom_site_symmetry_multiplicity
 _atom_site_fract_x
 _atom_site_fract_y
 _atom_site_fract_z
 _atom_site_occupancy
  F  F0  1  0.00000000  0.00000000  0.00000000  1
  Ru  Ru1  1  0.49820107  0.77907101  0.22452696  1
  F  F2  1  0.50179903  0.22092900  0.77547296  1
