# generated using pymatgen
data_Ti3BiO8
_symmetry_space_group_name_H-M   'P 1'
_cell_length_a   3.86255288
_cell_length_b   7.50815582
_cell_length_c   7.50815630
_cell_angle_alpha   120.00000000
_cell_angle_beta   90.00000000
_cell_angle_gamma   90.00000000
_symmetry_Int_Tables_number   1
_chemical_formula_structural   Ti3BiO8
_chemical_formula_sum   'Ti3 Bi1 O8'
_cell_volume   188.56958799
_cell_formula_units_Z   1
loop_
 _symmetry_equiv_pos_site_id
 _symmetry_equiv_pos_as_xyz
  1  'x, y, z'
loop_
 _atom_site_type_symbol
 _atom_site_label
 _atom_site_symmetry_multiplicity
 _atom_site_fract_x
 _atom_site_fract_y
 _atom_site_fract_z
 _atom_site_occupancy
  Ti  Ti0  1  0.00000000  0.00000000  0.49999999  1
  Ti  Ti1  1  0.00000000  0.50000002  0.50000000  1
  Ti  Ti2  1  0.00000000  0.50000002  0.99999999  1
  O  O3  1  1.00000003  0.21392801  0.42785599  1
  O  O4  1  0.00000000  0.21392801  0.78607199  1
  O  O5  1  0.00000000  0.78607202  0.57214400  1
  O  O6  1  0.00000000  0.42785601  0.21392800  1
  O  O7  1  0.50000002  0.50000002  0.50000000  1
  O  O8  1  0.50000002  0.50000002  0.99999999  1
  O  O9  1  0.50000002  0.00000000  0.49999999  1
  Bi  Bi10  1  1.00000003  0.57214402  0.78607199  1
  O  O11  1  1.00000003  0.78607202  0.21392801  1
