# generated using pymatgen
data_RbFeTe3
_symmetry_space_group_name_H-M   'P 1'
_cell_length_a   6.00308895
_cell_length_b   7.64366198
_cell_length_c   7.64366150
_cell_angle_alpha   120.00000000
_cell_angle_beta   90.00000000
_cell_angle_gamma   90.00000000
_symmetry_Int_Tables_number   1
_chemical_formula_structural   RbFeTe3
_chemical_formula_sum   'Rb2 Fe2 Te6'
_cell_volume   303.74443468
_cell_formula_units_Z   2
loop_
 _symmetry_equiv_pos_site_id
 _symmetry_equiv_pos_as_xyz
  1  'x, y, z'
loop_
 _atom_site_type_symbol
 _atom_site_label
 _atom_site_symmetry_multiplicity
 _atom_site_fract_x
 _atom_site_fract_y
 _atom_site_fract_z
 _atom_site_occupancy
  Rb  Rb0  1  0.75000001  0.33333333  0.66666666  1
  Rb  Rb1  1  0.25000000  0.66666666  0.33333331  1
  Fe  Fe2  1  0.00000000  0.00000000  0.00000000  1
  Fe  Fe3  1  0.50000000  0.00000000  -0.00000000  1
  Te  Te4  1  0.75000001  0.83965899  0.16034097  1
  Te  Te5  1  0.75000001  0.32068200  0.16034099  1
  Te  Te6  1  0.75000001  0.83965899  0.67931798  1
  Te  Te7  1  0.25000000  0.16034100  0.32068200  1
  Te  Te8  1  0.25000000  0.16034100  0.83965900  1
  Te  Te9  1  0.25000000  0.67931799  0.83965899  1
