# generated using pymatgen
data_Li2VF6
_symmetry_space_group_name_H-M   'P 1'
_cell_length_a   4.65150833
_cell_length_b   5.03331900
_cell_length_c   5.03331900
_cell_angle_alpha   60.09927750
_cell_angle_beta   90.35210419
_cell_angle_gamma   89.64789581
_symmetry_Int_Tables_number   1
_chemical_formula_structural   Li2VF6
_chemical_formula_sum   'Li2 V1 F6'
_cell_volume   102.14902663
_cell_formula_units_Z   1
loop_
 _symmetry_equiv_pos_site_id
 _symmetry_equiv_pos_as_xyz
  1  'x, y, z'
loop_
 _atom_site_type_symbol
 _atom_site_label
 _atom_site_symmetry_multiplicity
 _atom_site_fract_x
 _atom_site_fract_y
 _atom_site_fract_z
 _atom_site_occupancy
  Li  Li0  1  0.50348796  0.33587000  0.34215101  1
  Li  Li1  1  0.50348793  0.65784900  0.66412999  1
  V  V2  1  0.01848891  0.97522199  0.02477797  1
  F  F3  1  0.24651493  0.68842300  0.31157698  1
  F  F4  1  0.74527796  0.32239600  0.67760401  1
  F  F5  1  0.24404900  0.00337300  0.67447900  1
  F  F6  1  0.74732593  0.68416600  0.99279699  1
  F  F7  1  0.74732599  0.00720300  0.31583403  1
  F  F8  1  0.24404897  0.32552100  0.99662698  1
