# generated using pymatgen
data_Ba4Bi3O11
_symmetry_space_group_name_H-M   'P 1'
_cell_length_a   6.21683073
_cell_length_b   6.21683073
_cell_length_c   8.93525219
_cell_angle_alpha   90.00000000
_cell_angle_beta   90.00000000
_cell_angle_gamma   89.99363708
_symmetry_Int_Tables_number   1
_chemical_formula_structural   Ba4Bi3O11
_chemical_formula_sum   'Ba4 Bi3 O11'
_cell_volume   345.33841974
_cell_formula_units_Z   1
loop_
 _symmetry_equiv_pos_site_id
 _symmetry_equiv_pos_as_xyz
  1  'x, y, z'
loop_
 _atom_site_type_symbol
 _atom_site_label
 _atom_site_symmetry_multiplicity
 _atom_site_fract_x
 _atom_site_fract_y
 _atom_site_fract_z
 _atom_site_occupancy
  Ba  Ba0  1  0.04652098  0.50748698  0.25547099  1
  Ba  Ba1  1  0.04652098  0.50748698  0.74452898  1
  Ba  Ba2  1  0.50748698  0.04652100  0.74452898  1
  Ba  Ba3  1  0.50748698  0.04652100  0.25547099  1
  Bi  Bi4  1  0.00914800  0.00914800  -0.00000000  1
  Bi  Bi5  1  0.01029500  0.01029500  0.49999999  1
  Bi  Bi6  1  0.51934796  0.51934798  0.49999999  1
  O  O7  1  0.00995800  0.00995800  0.24935699  1
  O  O8  1  0.00995800  0.00995800  0.75064298  1
  O  O9  1  0.75383796  0.25269999  0.49999999  1
  O  O10  1  0.76353894  0.76353897  0.49999999  1
  O  O11  1  0.69500097  0.10153400  -0.00000000  1
  O  O12  1  0.50785796  0.50785798  0.26878799  1
  O  O13  1  0.50785796  0.50785798  0.73121198  1
  O  O14  1  0.10153397  0.69500097  0.99999998  1
  O  O15  1  0.25269996  0.75383797  0.49999999  1
  O  O16  1  0.23987298  0.23987299  0.99999998  1
  O  O17  1  0.26107398  0.26107399  0.49999999  1
