# generated using pymatgen
data_La3GeCl4
_symmetry_space_group_name_H-M   'P 1'
_cell_length_a   4.24702787
_cell_length_b   9.34011650
_cell_length_c   10.67601013
_cell_angle_alpha   97.73034668
_cell_angle_beta   90.00000000
_cell_angle_gamma   103.14134979
_symmetry_Int_Tables_number   1
_chemical_formula_structural   La3GeCl4
_chemical_formula_sum   'La6 Ge2 Cl8'
_cell_volume   408.44961120
_cell_formula_units_Z   2
loop_
 _symmetry_equiv_pos_site_id
 _symmetry_equiv_pos_as_xyz
  1  'x, y, z'
loop_
 _atom_site_type_symbol
 _atom_site_label
 _atom_site_symmetry_multiplicity
 _atom_site_fract_x
 _atom_site_fract_y
 _atom_site_fract_z
 _atom_site_occupancy
  La  La0  1  0.31959506  0.63919000  0.85135193  1
  La  La1  1  0.68040505  0.36081000  0.14864797  1
  La  La2  1  0.61562204  0.23124400  0.49046597  1
  La  La3  1  0.38437807  0.76875601  0.50953394  1
  La  La4  1  0.53521002  0.07042000  0.83075596  1
  La  La5  1  0.46479009  0.92958001  0.16924394  1
  Ge  Ge6  1  0.06426001  0.12852000  0.05066399  1
  Cl  Cl7  1  0.93574010  0.87148001  0.94933591  1
  Cl  Cl8  1  0.91155609  0.82311201  0.72301893  1
  Ge  Ge9  1  0.08844402  0.17688800  0.27698098  1
  Cl  Cl10  1  0.01884000  0.03768000  0.61157997  1
  Cl  Cl11  1  0.98116010  0.96232001  0.38841993  1
  Cl  Cl12  1  0.77360907  0.54721800  0.39145595  1
  Cl  Cl13  1  0.22639104  0.45278200  0.60854395  1
  Cl  Cl14  1  0.70282505  0.40565000  0.87396894  1
  Cl  Cl15  1  0.29717505  0.59435000  0.12603096  1
