# generated using pymatgen
data_Rb3NbFe3Si
_symmetry_space_group_name_H-M   'P 1'
_cell_length_a   5.65053988
_cell_length_b   5.65053988
_cell_length_c   5.65053988
_cell_angle_alpha   90.00000000
_cell_angle_beta   90.00000000
_cell_angle_gamma   90.00000000
_symmetry_Int_Tables_number   1
_chemical_formula_structural   Rb3NbFe3Si
_chemical_formula_sum   'Rb3 Nb1 Fe3 Si1'
_cell_volume   180.41383242
_cell_formula_units_Z   1
loop_
 _symmetry_equiv_pos_site_id
 _symmetry_equiv_pos_as_xyz
  1  'x, y, z'
loop_
 _atom_site_type_symbol
 _atom_site_label
 _atom_site_symmetry_multiplicity
 _atom_site_fract_x
 _atom_site_fract_y
 _atom_site_fract_z
 _atom_site_occupancy
  Nb  Nb0  1  0.00000000  0.00000000  0.00000000  1
  Fe  Fe1  1  0.00000000  0.50000001  0.00000000  1
  Fe  Fe2  1  0.00000000  0.00000000  0.50000001  1
  Fe  Fe3  1  0.50000001  0.00000000  0.00000000  1
  Si  Si4  1  0.24202001  0.24202001  0.24202001  1
  Rb  Rb5  1  0.75798002  0.75798002  0.24202001  1
  Rb  Rb6  1  0.24202001  0.75798002  0.75798002  1
  Rb  Rb7  1  0.75798002  0.24202001  0.75798002  1
