# generated using pymatgen
data_CaMn3O6
_symmetry_space_group_name_H-M   'P 1'
_cell_length_a   5.36331177
_cell_length_b   5.53080320
_cell_length_c   7.70070696
_cell_angle_alpha   90.00000000
_cell_angle_beta   90.00000000
_cell_angle_gamma   90.00000000
_symmetry_Int_Tables_number   1
_chemical_formula_structural   CaMn3O6
_chemical_formula_sum   'Ca2 Mn6 O12'
_cell_volume   228.42931949
_cell_formula_units_Z   2
loop_
 _symmetry_equiv_pos_site_id
 _symmetry_equiv_pos_as_xyz
  1  'x, y, z'
loop_
 _atom_site_type_symbol
 _atom_site_label
 _atom_site_symmetry_multiplicity
 _atom_site_fract_x
 _atom_site_fract_y
 _atom_site_fract_z
 _atom_site_occupancy
  Ca  Ca0  1  0.01029900  0.70248497  -0.00000000  1
  Ca  Ca1  1  0.51029902  0.29751499  0.50000000  1
  Mn  Mn2  1  0.48207902  0.20380199  -0.00000000  1
  Mn  Mn3  1  0.98207904  0.79619797  0.50000000  1
  Mn  Mn4  1  0.00068200  0.24448399  0.75066600  1
  Mn  Mn5  1  0.00068200  0.24448399  0.24933400  1
  Mn  Mn6  1  0.50068202  0.75551597  0.25066600  1
  Mn  Mn7  1  0.50068202  0.75551597  0.74933400  1
  O  O8  1  0.07997000  0.20773999  0.50000000  1
  O  O9  1  0.21640701  0.96892396  0.80169200  1
  O  O10  1  0.21640701  0.96892396  0.19830800  1
  O  O11  1  0.31055601  0.44500398  0.19186000  1
  O  O12  1  0.31055601  0.44500398  0.80814000  1
  O  O13  1  0.37252302  0.72727597  0.50000000  1
  O  O14  1  0.57997003  0.79225997  -0.00000000  1
  O  O15  1  0.71640703  0.03107600  0.69830800  1
  O  O16  1  0.71640703  0.03107600  0.30169200  1
  O  O17  1  0.81055604  0.55499598  0.69186000  1
  O  O18  1  0.81055604  0.55499598  0.30814000  1
  O  O19  1  0.87252304  0.27272399  0.00000000  1
