# generated using pymatgen
data_BaNaW2O7
_symmetry_space_group_name_H-M   'P 1'
_cell_length_a   3.88885999
_cell_length_b   3.88885999
_cell_length_c   12.02598000
_cell_angle_alpha   99.30475616
_cell_angle_beta   99.30475616
_cell_angle_gamma   90.00000000
_symmetry_Int_Tables_number   1
_chemical_formula_structural   BaNaW2O7
_chemical_formula_sum   'Ba1 Na1 W2 O7'
_cell_volume   177.05331820
_cell_formula_units_Z   1
loop_
 _symmetry_equiv_pos_site_id
 _symmetry_equiv_pos_as_xyz
  1  'x, y, z'
loop_
 _atom_site_type_symbol
 _atom_site_label
 _atom_site_symmetry_multiplicity
 _atom_site_fract_x
 _atom_site_fract_y
 _atom_site_fract_z
 _atom_site_occupancy
  Na  Na0  1  0.66570399  0.66570400  0.33140799  1
  Ba  Ba1  1  0.33429599  0.33429600  0.66859200  1
  W  W2  1  0.07736400  0.07736400  0.15472800  1
  W  W3  1  0.92263598  0.92263600  0.84527198  1
  O  O4  1  0.79670399  0.79670400  0.59340799  1
  O  O5  1  0.20329600  0.20329600  0.40659200  1
  O  O6  1  0.09604199  0.59604200  0.19208399  1
  O  O7  1  0.90395799  0.40395800  0.80791599  1
  O  O8  1  0.00000000  0.00000000  0.00000000  1
  O  O9  1  0.40395799  0.90395800  0.80791599  1
  O  O10  1  0.59604200  0.09604200  0.19208399  1
