# generated using pymatgen
data_GdAu2
_symmetry_space_group_name_H-M   'P 1'
_cell_length_a   4.55251980
_cell_length_b   4.55252075
_cell_length_c   7.33239985
_cell_angle_alpha   90.00000000
_cell_angle_beta   90.00000000
_cell_angle_gamma   119.99999237
_symmetry_Int_Tables_number   1
_chemical_formula_structural   GdAu2
_chemical_formula_sum   'Gd2 Au4'
_cell_volume   131.60748259
_cell_formula_units_Z   2
loop_
 _symmetry_equiv_pos_site_id
 _symmetry_equiv_pos_as_xyz
  1  'x, y, z'
loop_
 _atom_site_type_symbol
 _atom_site_label
 _atom_site_symmetry_multiplicity
 _atom_site_fract_x
 _atom_site_fract_y
 _atom_site_fract_z
 _atom_site_occupancy
  Gd  Gd0  1  0.00000000  0.00000000  0.96678202  1
  Gd  Gd1  1  0.00000000  0.00000000  0.46678201  1
  Au  Au2  1  0.33333333  0.66666668  0.28104601  1
  Au  Au3  1  0.66666669  0.33333334  0.78104602  1
  Au  Au4  1  0.33333333  0.66666668  0.69717201  1
  Au  Au5  1  0.66666669  0.33333334  0.19717200  1
