# generated using pymatgen
data_AlFe(CO3)4
_symmetry_space_group_name_H-M   'P 1'
_cell_length_a   4.57099676
_cell_length_b   6.30150938
_cell_length_c   7.75160360
_cell_angle_alpha   89.96573639
_cell_angle_beta   88.88307190
_cell_angle_gamma   89.97201538
_symmetry_Int_Tables_number   1
_chemical_formula_structural   AlFe(CO3)4
_chemical_formula_sum   'Al1 Fe1 C4 O12'
_cell_volume   223.23608850
_cell_formula_units_Z   1
loop_
 _symmetry_equiv_pos_site_id
 _symmetry_equiv_pos_as_xyz
  1  'x, y, z'
loop_
 _atom_site_type_symbol
 _atom_site_label
 _atom_site_symmetry_multiplicity
 _atom_site_fract_x
 _atom_site_fract_y
 _atom_site_fract_z
 _atom_site_occupancy
  Al  Al0  1  0.50027701  0.00014600  0.00007001  1
  Fe  Fe1  1  0.00011602  0.50011701  0.49994802  1
  C  C2  1  0.98965103  0.20339700  0.19225002  1
  C  C3  1  0.49005802  0.29659100  0.69211901  1
  C  C4  1  0.50995003  0.70339401  0.30788004  1
  C  C5  1  0.01039203  0.79657901  0.80788003  1
  O  O6  1  0.87656603  0.29320800  0.32681002  1
  O  O7  1  0.62310904  0.79304601  0.17324605  1
  O  O8  1  0.37677902  0.20688100  0.82668600  1
  O  O9  1  0.12340902  0.70667001  0.67326702  1
  O  O10  1  0.81727502  0.17395400  0.06088002  1
  O  O11  1  0.68216904  0.67393601  0.43932803  1
  O  O12  1  0.31764402  0.32618500  0.56065001  1
  O  O13  1  0.18275903  0.82616501  0.93912103  1
  O  O14  1  0.75622503  0.35558900  0.68534501  1
  O  O15  1  0.74409104  0.85569701  0.81457104  1
  O  O16  1  0.25586801  0.14417400  0.18545001  1
  O  O17  1  0.24366203  0.64427001  0.31449903  1
