# generated using pymatgen
data_Ce2SnPt3
_symmetry_space_group_name_H-M   'P 1'
_cell_length_a   4.53174210
_cell_length_b   4.53174210
_cell_length_c   15.60734844
_cell_angle_alpha   90.00000000
_cell_angle_beta   90.00000000
_cell_angle_gamma   120.00000000
_symmetry_Int_Tables_number   1
_chemical_formula_structural   Ce2SnPt3
_chemical_formula_sum   'Ce4 Sn2 Pt6'
_cell_volume   277.58125177
_cell_formula_units_Z   2
loop_
 _symmetry_equiv_pos_site_id
 _symmetry_equiv_pos_as_xyz
  1  'x, y, z'
loop_
 _atom_site_type_symbol
 _atom_site_label
 _atom_site_symmetry_multiplicity
 _atom_site_fract_x
 _atom_site_fract_y
 _atom_site_fract_z
 _atom_site_occupancy
  Ce  Ce0  1  0.00000000  0.00000000  0.74999998  1
  Ce  Ce1  1  0.00000000  0.00000000  0.24999999  1
  Ce  Ce2  1  0.00000000  0.00000000  0.00000000  1
  Ce  Ce3  1  0.00000000  0.00000000  0.49999999  1
  Pt  Pt4  1  0.66666666  0.33333335  0.84020498  1
  Pt  Pt5  1  0.33333335  0.66666670  0.15979500  1
  Pt  Pt6  1  0.33333335  0.66666670  0.34020499  1
  Pt  Pt7  1  0.66666666  0.33333335  0.65979498  1
  Pt  Pt8  1  0.66666666  0.33333335  0.38683499  1
  Sn  Sn9  1  0.33333335  0.66666670  0.61316498  1
  Sn  Sn10  1  0.33333335  0.66666670  0.88683497  1
  Pt  Pt11  1  0.66666666  0.33333335  0.11316500  1
