# generated using pymatgen
data_NaCo2F6
_symmetry_space_group_name_H-M   'P 1'
_cell_length_a   5.32185507
_cell_length_b   7.19785166
_cell_length_c   7.19785166
_cell_angle_alpha   76.85381317
_cell_angle_beta   70.53814697
_cell_angle_gamma   70.53814697
_symmetry_Int_Tables_number   1
_chemical_formula_structural   NaCo2F6
_chemical_formula_sum   'Na2 Co4 F12'
_cell_volume   243.00188214
_cell_formula_units_Z   2
loop_
 _symmetry_equiv_pos_site_id
 _symmetry_equiv_pos_as_xyz
  1  'x, y, z'
loop_
 _atom_site_type_symbol
 _atom_site_label
 _atom_site_symmetry_multiplicity
 _atom_site_fract_x
 _atom_site_fract_y
 _atom_site_fract_z
 _atom_site_occupancy
  Na  Na0  1  0.49999999  0.18912900  0.81087097  1
  Na  Na1  1  0.99999994  0.81157400  0.18842598  1
  Co  Co2  1  0.20012799  0.18345800  0.34886199  1
  Co  Co3  1  0.79987195  0.65113800  0.81654197  1
  Co  Co4  1  0.30424593  0.81142000  0.64950800  1
  Co  Co5  1  0.69575398  0.35049200  0.18857997  1
  F  F6  1  0.09903698  0.17855300  0.10144000  1
  F  F7  1  0.90096293  0.89856000  0.82144697  1
  F  F8  1  0.40448793  0.82009700  0.90007000  1
  F  F9  1  0.59551200  0.09993000  0.17990297  1
  F  F10  1  0.79034599  0.27778200  0.44391396  1
  F  F11  1  0.20965395  0.55608600  0.72221800  1
  F  F12  1  0.71748994  0.71996800  0.55922598  1
  F  F13  1  0.28250996  0.44077400  0.28003200  1
  F  F14  1  0.72160397  0.40329500  0.88490397  1
  F  F15  1  0.27839599  0.11509600  0.59670498  1
  F  F16  1  0.77783396  0.60470400  0.11205498  1
  F  F17  1  0.22216592  0.88794500  0.39529601  1
