# generated using pymatgen
data_La5NiPb3
_symmetry_space_group_name_H-M   'P 1'
_cell_length_a   6.97544289
_cell_length_b   9.84577370
_cell_length_c   9.84577370
_cell_angle_alpha   120.00000000
_cell_angle_beta   90.00000000
_cell_angle_gamma   90.00000000
_symmetry_Int_Tables_number   1
_chemical_formula_structural   La5NiPb3
_chemical_formula_sum   'La10 Ni2 Pb6'
_cell_volume   585.60141521
_cell_formula_units_Z   2
loop_
 _symmetry_equiv_pos_site_id
 _symmetry_equiv_pos_as_xyz
  1  'x, y, z'
loop_
 _atom_site_type_symbol
 _atom_site_label
 _atom_site_symmetry_multiplicity
 _atom_site_fract_x
 _atom_site_fract_y
 _atom_site_fract_z
 _atom_site_occupancy
  La  La0  1  0.25000000  0.23294100  -0.00000001  1
  La  La1  1  0.25000000  0.76705901  0.76705898  1
  La  La2  1  0.25000000  0.00000000  0.23294100  1
  La  La3  1  0.75000001  0.76705901  -0.00000002  1
  La  La4  1  0.75000001  0.23294100  0.23294099  1
  La  La5  1  0.75000001  0.00000000  0.76705900  1
  La  La6  1  0.00000000  0.33333334  0.66666666  1
  La  La7  1  -0.00000000  0.66666668  0.33333332  1
  La  La8  1  0.50000001  0.66666668  0.33333332  1
  La  La9  1  0.50000001  0.33333334  0.66666666  1
  Ni  Ni10  1  0.00000000  0.00000000  0.00000000  1
  Ni  Ni11  1  0.50000001  0.00000000  -0.00000000  1
  Pb  Pb12  1  0.25000000  0.59463501  -0.00000001  1
  Pb  Pb13  1  0.25000000  0.40536501  0.40536499  1
  Pb  Pb14  1  0.25000000  0.00000000  0.59463500  1
  Pb  Pb15  1  0.75000001  0.40536501  -0.00000001  1
  Pb  Pb16  1  0.75000001  0.59463501  0.59463498  1
  Pb  Pb17  1  0.75000001  0.00000000  0.40536500  1
