# generated using pymatgen
data_AlGe3
_symmetry_space_group_name_H-M   'P 1'
_cell_length_a   3.48467803
_cell_length_b   3.48467803
_cell_length_c   6.37610006
_cell_angle_alpha   105.85840607
_cell_angle_beta   105.85840607
_cell_angle_gamma   90.00000000
_symmetry_Int_Tables_number   1
_chemical_formula_structural   AlGe3
_chemical_formula_sum   'Al1 Ge3'
_cell_volume   71.40977247
_cell_formula_units_Z   1
loop_
 _symmetry_equiv_pos_site_id
 _symmetry_equiv_pos_as_xyz
  1  'x, y, z'
loop_
 _atom_site_type_symbol
 _atom_site_label
 _atom_site_symmetry_multiplicity
 _atom_site_fract_x
 _atom_site_fract_y
 _atom_site_fract_z
 _atom_site_occupancy
  Al  Al0  1  0.74934302  0.74934300  0.49868604  1
  Ge  Ge1  1  0.49934303  0.99934301  0.99868605  1
  Ge  Ge2  1  0.16765701  0.16765700  0.33531401  1
  Ge  Ge3  1  0.91765702  0.41765700  0.83531404  1
