# generated using pymatgen
data_Sr2Mg
_symmetry_space_group_name_H-M   'P 1'
_cell_length_a   3.80900407
_cell_length_b   7.16620445
_cell_length_c   7.64795399
_cell_angle_alpha   105.31103516
_cell_angle_beta   90.00000000
_cell_angle_gamma   105.41221619
_symmetry_Int_Tables_number   1
_chemical_formula_structural   Sr2Mg
_chemical_formula_sum   'Sr4 Mg2'
_cell_volume   193.55532933
_cell_formula_units_Z   2
loop_
 _symmetry_equiv_pos_site_id
 _symmetry_equiv_pos_as_xyz
  1  'x, y, z'
loop_
 _atom_site_type_symbol
 _atom_site_label
 _atom_site_symmetry_multiplicity
 _atom_site_fract_x
 _atom_site_fract_y
 _atom_site_fract_z
 _atom_site_occupancy
  Sr  Sr0  1  0.15192104  0.30384200  0.57026501  1
  Mg  Mg1  1  0.84807907  0.69615801  0.42973500  1
  Sr  Sr2  1  0.16249504  0.32499000  0.08571300  1
  Sr  Sr3  1  0.83750507  0.67501001  0.91428701  1
  Mg  Mg4  1  0.50300899  0.00601800  0.76367102  1
  Sr  Sr5  1  0.49699112  0.99398201  0.23632899  1
