# generated using pymatgen
data_CsV4(HO4)3
_symmetry_space_group_name_H-M   'P 1'
_cell_length_a   5.24871874
_cell_length_b   7.18485737
_cell_length_c   7.79588747
_cell_angle_alpha   63.33857727
_cell_angle_beta   79.22346497
_cell_angle_gamma   84.47167969
_symmetry_Int_Tables_number   1
_chemical_formula_structural   CsV4(HO4)3
_chemical_formula_sum   'Cs1 V4 H3 O12'
_cell_volume   258.07433173
_cell_formula_units_Z   1
loop_
 _symmetry_equiv_pos_site_id
 _symmetry_equiv_pos_as_xyz
  1  'x, y, z'
loop_
 _atom_site_type_symbol
 _atom_site_label
 _atom_site_symmetry_multiplicity
 _atom_site_fract_x
 _atom_site_fract_y
 _atom_site_fract_z
 _atom_site_occupancy
  Cs  Cs0  1  0.00232102  0.99508201  0.00079299  1
  V  V1  1  0.40358000  0.87976601  0.42928900  1
  V  V2  1  0.59461898  0.12449800  0.56896502  1
  V  V3  1  0.83936699  0.68552700  0.68021102  1
  V  V4  1  0.15400400  0.32474900  0.31055200  1
  H  H5  1  0.50780400  0.65986800  0.28360201  1
  H  H6  1  0.49200699  0.33895000  0.71920202  1
  H  H7  1  0.97076498  0.49445100  0.98198903  1
  O  O8  1  0.11376901  0.70999800  0.50651800  1
  O  O9  1  0.88936298  0.28362000  0.49946202  1
  O  O10  1  0.58007499  0.63018600  0.60243501  1
  O  O11  1  0.41827399  0.36889300  0.39542101  1
  O  O12  1  0.51189100  0.81398201  0.23072800  1
  O  O13  1  0.48574999  0.18532300  0.77056002  1
  O  O14  1  0.87758798  0.46239900  0.88729602  1
  O  O15  1  0.09827001  0.53482600  0.10807700  1
  O  O16  1  0.30877201  0.96156401  0.62594600  1
  O  O17  1  0.69667498  0.03358600  0.37753502  1
  O  O18  1  0.77123799  0.88779701  0.74586601  1
  O  O19  1  0.22886999  0.11093400  0.25755301  1
