# generated using pymatgen
data_ZrUN2
_symmetry_space_group_name_H-M   'P 1'
_cell_length_a   3.90761614
_cell_length_b   3.90761614
_cell_length_c   6.75599766
_cell_angle_alpha   73.19016266
_cell_angle_beta   73.19016266
_cell_angle_gamma   60.00000000
_symmetry_Int_Tables_number   1
_chemical_formula_structural   ZrUN2
_chemical_formula_sum   'Zr1 U1 N2'
_cell_volume   84.21114224
_cell_formula_units_Z   1
loop_
 _symmetry_equiv_pos_site_id
 _symmetry_equiv_pos_as_xyz
  1  'x, y, z'
loop_
 _atom_site_type_symbol
 _atom_site_label
 _atom_site_symmetry_multiplicity
 _atom_site_fract_x
 _atom_site_fract_y
 _atom_site_fract_z
 _atom_site_occupancy
  Zr  Zr0  1  0.00184000  0.00184000  0.99448003  1
  U  U1  1  0.50199301  0.50199299  0.49402101  1
  N  N2  1  0.11882900  0.11882900  0.64351302  1
  N  N3  1  0.62733901  0.62733898  0.11798300  1
