# generated using pymatgen
data_Al2V4C
_symmetry_space_group_name_H-M   'P 1'
_cell_length_a   3.67959690
_cell_length_b   6.37413740
_cell_length_c   6.37413740
_cell_angle_alpha   109.55314636
_cell_angle_beta   90.00000000
_cell_angle_gamma   90.00000000
_symmetry_Int_Tables_number   1
_chemical_formula_structural   Al2V4C
_chemical_formula_sum   'Al2 V4 C1'
_cell_volume   140.87916654
_cell_formula_units_Z   1
loop_
 _symmetry_equiv_pos_site_id
 _symmetry_equiv_pos_as_xyz
  1  'x, y, z'
loop_
 _atom_site_type_symbol
 _atom_site_label
 _atom_site_symmetry_multiplicity
 _atom_site_fract_x
 _atom_site_fract_y
 _atom_site_fract_z
 _atom_site_occupancy
  Al  Al0  1  0.50000001  0.00000000  0.49999999  1
  V  V1  1  0.50000001  0.49999998  -0.00000001  1
  V  V2  1  0.00000000  0.00000000  0.00000000  1
  Al  Al3  1  -0.00000000  0.75215798  0.24784198  1
  V  V4  1  -0.00000000  0.24784199  0.75215798  1
  V  V5  1  0.50000001  0.24911999  0.24911999  1
  C  C6  1  0.50000001  0.75087998  0.75087997  1
