# generated using pymatgen
data_SrCuO2
_symmetry_space_group_name_H-M   'P 1'
_cell_length_a   2.94048810
_cell_length_b   2.94048858
_cell_length_c   12.02936840
_cell_angle_alpha   90.00000000
_cell_angle_beta   90.00000000
_cell_angle_gamma   119.99999237
_symmetry_Int_Tables_number   1
_chemical_formula_structural   SrCuO2
_chemical_formula_sum   'Sr2 Cu2 O4'
_cell_volume   90.07668881
_cell_formula_units_Z   2
loop_
 _symmetry_equiv_pos_site_id
 _symmetry_equiv_pos_as_xyz
  1  'x, y, z'
loop_
 _atom_site_type_symbol
 _atom_site_label
 _atom_site_symmetry_multiplicity
 _atom_site_fract_x
 _atom_site_fract_y
 _atom_site_fract_z
 _atom_site_occupancy
  O  O0  1  0.66666664  0.33333333  0.58531898  1
  O  O1  1  0.33333331  0.66666667  0.41468099  1
  O  O2  1  0.33333331  0.66666667  0.08531900  1
  O  O3  1  0.66666664  0.33333333  0.91468097  1
  Sr  Sr4  1  0.66666664  0.33333333  0.24999999  1
  Sr  Sr5  1  0.33333331  0.66666667  0.74999998  1
  Cu  Cu6  1  0.00000000  0.00000000  0.49999998  1
  Cu  Cu7  1  0.00000000  0.00000000  0.00000000  1
