# generated using pymatgen
data_CeSi2
_symmetry_space_group_name_H-M   'P 1'
_cell_length_a   4.20997381
_cell_length_b   4.20997381
_cell_length_c   7.76622438
_cell_angle_alpha   105.72638702
_cell_angle_beta   105.72638702
_cell_angle_gamma   90.00000000
_symmetry_Int_Tables_number   1
_chemical_formula_structural   CeSi2
_chemical_formula_sum   'Ce2 Si4'
_cell_volume   127.13384908
_cell_formula_units_Z   2
loop_
 _symmetry_equiv_pos_site_id
 _symmetry_equiv_pos_as_xyz
  1  'x, y, z'
loop_
 _atom_site_type_symbol
 _atom_site_label
 _atom_site_symmetry_multiplicity
 _atom_site_fract_x
 _atom_site_fract_y
 _atom_site_fract_z
 _atom_site_occupancy
  Ce  Ce0  1  0.58233401  0.58233302  0.16466698  1
  Ce  Ce1  1  0.33233400  0.83233303  0.66466699  1
  Si  Si2  1  0.16602000  0.16602101  0.33204100  1
  Si  Si3  1  0.91602003  0.41602101  0.83204099  1
  Si  Si4  1  0.99864602  0.99864604  0.99729198  1
  Si  Si5  1  0.74864602  0.24864601  0.49729199  1
