# generated using pymatgen
data_Te
_symmetry_space_group_name_H-M   'P 1'
_cell_length_a   7.68219614
_cell_length_b   7.68219519
_cell_length_c   14.22158813
_cell_angle_alpha   90.00000000
_cell_angle_beta   90.00000000
_cell_angle_gamma   120.00000000
_symmetry_Int_Tables_number   1
_chemical_formula_structural   Te
_chemical_formula_sum   Te16
_cell_volume   726.85780363
_cell_formula_units_Z   16
loop_
 _symmetry_equiv_pos_site_id
 _symmetry_equiv_pos_as_xyz
  1  'x, y, z'
loop_
 _atom_site_type_symbol
 _atom_site_label
 _atom_site_symmetry_multiplicity
 _atom_site_fract_x
 _atom_site_fract_y
 _atom_site_fract_z
 _atom_site_occupancy
  Te  Te0  1  0.00000000  0.00000000  0.50000000  1
  Te  Te1  1  0.00000000  0.00000000  0.00000000  1
  Te  Te2  1  0.33333328  0.66666665  0.25000000  1
  Te  Te3  1  0.66666663  0.33333332  0.74999999  1
  Te  Te4  1  0.32605097  0.31760399  0.37787600  1
  Te  Te5  1  0.67394894  0.68239598  0.62212399  1
  Te  Te6  1  0.99155294  0.67394898  0.37787600  1
  Te  Te7  1  0.32605099  0.00844700  0.12212400  1
  Te  Te8  1  0.00844698  0.32605099  0.62212399  1
  Te  Te9  1  0.67394892  0.99155297  0.87787599  1
  Te  Te10  1  0.68239599  0.00844700  0.37787600  1
  Te  Te11  1  0.99155296  0.31760399  0.12212400  1
  Te  Te12  1  0.31760393  0.99155297  0.62212399  1
  Te  Te13  1  0.00844695  0.68239598  0.87787599  1
  Te  Te14  1  0.68239594  0.67394898  0.12212400  1
  Te  Te15  1  0.31760397  0.32605099  0.87787599  1
