# generated using pymatgen
data_WSe2
_symmetry_space_group_name_H-M   'P 1'
_cell_length_a   3.25583601
_cell_length_b   3.25583529
_cell_length_c   36.35693359
_cell_angle_alpha   90.00000000
_cell_angle_beta   90.00000000
_cell_angle_gamma   120.00000763
_symmetry_Int_Tables_number   1
_chemical_formula_structural   WSe2
_chemical_formula_sum   'W4 Se8'
_cell_volume   333.76653820
_cell_formula_units_Z   4
loop_
 _symmetry_equiv_pos_site_id
 _symmetry_equiv_pos_as_xyz
  1  'x, y, z'
loop_
 _atom_site_type_symbol
 _atom_site_label
 _atom_site_symmetry_multiplicity
 _atom_site_fract_x
 _atom_site_fract_y
 _atom_site_fract_z
 _atom_site_occupancy
  W  W0  1  0.00000000  0.00000000  0.90609601  1
  W  W1  1  0.00000000  0.00000000  0.53030901  1
  W  W2  1  0.66666668  0.33333335  0.71817401  1
  W  W3  1  0.66666668  0.33333335  0.34244900  1
  Se  Se4  1  0.66666668  0.33333335  0.95287701  1
  Se  Se5  1  0.66666668  0.33333335  0.57708401  1
  Se  Se6  1  0.66666668  0.33333335  0.85933701  1
  Se  Se7  1  0.66666668  0.33333335  0.48360801  1
  Se  Se8  1  0.00000000  0.00000000  0.67552501  1
  Se  Se9  1  0.00000000  0.00000000  0.29974700  1
  Se  Se10  1  0.00000000  0.00000000  0.76089901  1
  Se  Se11  1  0.00000000  0.00000000  0.38514700  1
