# generated using pymatgen
data_SmV4Fe8C
_symmetry_space_group_name_H-M   'P 1'
_cell_length_a   4.85396910
_cell_length_b   6.50514841
_cell_length_c   6.50514793
_cell_angle_alpha   81.58266449
_cell_angle_beta   68.09389496
_cell_angle_gamma   68.09388733
_symmetry_Int_Tables_number   1
_chemical_formula_structural   SmV4Fe8C
_chemical_formula_sum   'Sm1 V4 Fe8 C1'
_cell_volume   176.80791015
_cell_formula_units_Z   1
loop_
 _symmetry_equiv_pos_site_id
 _symmetry_equiv_pos_as_xyz
  1  'x, y, z'
loop_
 _atom_site_type_symbol
 _atom_site_label
 _atom_site_symmetry_multiplicity
 _atom_site_fract_x
 _atom_site_fract_y
 _atom_site_fract_z
 _atom_site_occupancy
  Sm  Sm0  1  0.00000006  0.99256700  0.00743296  1
  V  V1  1  0.00000002  0.36643500  0.63356500  1
  Fe  Fe2  1  0.50000004  0.77526600  0.22473398  1
  Fe  Fe3  1  0.50000000  0.22259600  0.77740402  1
  Fe  Fe4  1  0.71999303  0.78220600  0.77780700  1
  Fe  Fe5  1  0.28000601  0.22219300  0.21779400  1
  Fe  Fe6  1  0.00102606  0.99773800  0.49915697  1
  Fe  Fe7  1  0.50207905  0.99773800  0.49915698  1
  Fe  Fe8  1  0.49792102  0.50084300  0.00226198  1
  Fe  Fe9  1  0.99897400  0.50084300  0.00226199  1
  V  V10  1  0.00000004  0.64326800  0.35673198  1
  V  V11  1  0.64133401  0.35863900  0.35869300  1
  V  V12  1  0.35866603  0.64130700  0.64136100  1
  C  C13  1  0.50000005  0.99836000  0.00163996  1
