# generated using pymatgen
data_Rb3TmV2O8
_symmetry_space_group_name_H-M   'P 1'
_cell_length_a   5.83392191
_cell_length_b   5.83392239
_cell_length_c   7.48686123
_cell_angle_alpha   90.00000000
_cell_angle_beta   90.00000000
_cell_angle_gamma   120.00000000
_symmetry_Int_Tables_number   1
_chemical_formula_structural   Rb3TmV2O8
_chemical_formula_sum   'Rb3 Tm1 V2 O8'
_cell_volume   220.67425734
_cell_formula_units_Z   1
loop_
 _symmetry_equiv_pos_site_id
 _symmetry_equiv_pos_as_xyz
  1  'x, y, z'
loop_
 _atom_site_type_symbol
 _atom_site_label
 _atom_site_symmetry_multiplicity
 _atom_site_fract_x
 _atom_site_fract_y
 _atom_site_fract_z
 _atom_site_occupancy
  Rb  Rb0  1  0.66666669  0.33333333  0.32353899  1
  Rb  Rb1  1  0.33333336  0.66666667  0.67646098  1
  Rb  Rb2  1  0.00000000  0.00000000  0.00000000  1
  Tm  Tm3  1  0.00000000  0.00000000  0.49999998  1
  V  V4  1  0.66666669  0.33333333  0.75380498  1
  V  V5  1  0.33333336  0.66666667  0.24619499  1
  O  O6  1  0.66666669  0.33333333  0.97830797  1
  O  O7  1  0.33333336  0.66666667  0.02169200  1
  O  O8  1  0.83044804  0.66089600  0.66979098  1
  O  O9  1  0.16955201  0.33910400  0.33020899  1
  O  O10  1  0.83044802  0.16955200  0.66979098  1
  O  O11  1  0.16955203  0.83044800  0.33020899  1
  O  O12  1  0.33910401  0.16955200  0.66979098  1
  O  O13  1  0.66089604  0.83044800  0.33020899  1
