# generated using pymatgen
data_LaB4Rh5
_symmetry_space_group_name_H-M   'P 1'
_cell_length_a   6.81212950
_cell_length_b   6.81213808
_cell_length_c   7.05591202
_cell_angle_alpha   89.99993134
_cell_angle_beta   89.99993134
_cell_angle_gamma   92.14320374
_symmetry_Int_Tables_number   1
_chemical_formula_structural   LaB4Rh5
_chemical_formula_sum   'La2 B8 Rh10'
_cell_volume   327.20172899
_cell_formula_units_Z   2
loop_
 _symmetry_equiv_pos_site_id
 _symmetry_equiv_pos_as_xyz
  1  'x, y, z'
loop_
 _atom_site_type_symbol
 _atom_site_label
 _atom_site_symmetry_multiplicity
 _atom_site_fract_x
 _atom_site_fract_y
 _atom_site_fract_z
 _atom_site_occupancy
  La  La0  1  0.50000600  0.00000400  0.00000097  1
  La  La1  1  0.00000497  0.50001100  0.49999998  1
  Rh  Rh2  1  0.00000900  0.00000700  0.74999800  1
  Rh  Rh3  1  0.00000900  0.00000700  0.25000100  1
  Rh  Rh4  1  0.64966196  0.64966200  0.75000193  1
  Rh  Rh5  1  0.35035498  0.35035800  0.74999996  1
  Rh  Rh6  1  0.64966296  0.64966200  0.24999793  1
  Rh  Rh7  1  0.35035498  0.35035800  0.24999996  1
  Rh  Rh8  1  0.62459299  0.16071700  0.50000095  1
  Rh  Rh9  1  0.16071396  0.62459200  -0.00000004  1
  Rh  Rh10  1  0.37535195  0.83925200  0.49999994  1
  Rh  Rh11  1  0.83924598  0.37534000  -0.00000007  1
  B  B12  1  0.69705298  0.30294900  0.25001194  1
  B  B13  1  0.69705398  0.30294900  0.74998694  1
  B  B14  1  0.30295296  0.69706100  0.75000295  1
  B  B15  1  0.30295296  0.69705900  0.24999495  1
  B  B16  1  0.69274395  0.86435000  0.49999992  1
  B  B17  1  0.30724799  0.13567900  0.49999997  1
  B  B18  1  0.86434996  0.69273600  -0.00000008  1
  B  B19  1  0.13567298  0.30724800  0.00000098  1
