# generated using pymatgen
data_LaTmCu3
_symmetry_space_group_name_H-M   'P 1'
_cell_length_a   4.34510994
_cell_length_b   5.59123850
_cell_length_c   5.59123850
_cell_angle_alpha   62.88023758
_cell_angle_beta   67.13481140
_cell_angle_gamma   67.13481140
_symmetry_Int_Tables_number   1
_chemical_formula_structural   LaTmCu3
_chemical_formula_sum   'La1 Tm1 Cu3'
_cell_volume   107.63589282
_cell_formula_units_Z   1
loop_
 _symmetry_equiv_pos_site_id
 _symmetry_equiv_pos_as_xyz
  1  'x, y, z'
loop_
 _atom_site_type_symbol
 _atom_site_label
 _atom_site_symmetry_multiplicity
 _atom_site_fract_x
 _atom_site_fract_y
 _atom_site_fract_z
 _atom_site_occupancy
  Tm  Tm0  1  0.79580800  0.70419199  0.70419202  1
  La  La1  1  0.20419200  0.29580800  0.29580801  1
  Cu  Cu2  1  0.49999999  0.70798099  0.29201902  1
  Cu  Cu3  1  0.50000000  0.29201900  0.70798101  1
  Cu  Cu4  1  0.00000000  0.00000000  0.00000000  1
