# generated using pymatgen
data_Ho6C7S
_symmetry_space_group_name_H-M   'P 1'
_cell_length_a   3.98327804
_cell_length_b   3.98327899
_cell_length_c   19.76120949
_cell_angle_alpha   90.00000000
_cell_angle_beta   90.00000000
_cell_angle_gamma   119.99999237
_symmetry_Int_Tables_number   1
_chemical_formula_structural   Ho6C7S
_chemical_formula_sum   'Ho6 C7 S1'
_cell_volume   271.53482346
_cell_formula_units_Z   1
loop_
 _symmetry_equiv_pos_site_id
 _symmetry_equiv_pos_as_xyz
  1  'x, y, z'
loop_
 _atom_site_type_symbol
 _atom_site_label
 _atom_site_symmetry_multiplicity
 _atom_site_fract_x
 _atom_site_fract_y
 _atom_site_fract_z
 _atom_site_occupancy
  S  S0  1  0.00000000  0.00000000  0.00000000  1
  C  C1  1  0.00000000  0.00000000  0.50000001  1
  C  C2  1  0.66666666  0.33333333  0.25000001  1
  C  C3  1  0.33333333  0.66666666  0.75000002  1
  C  C4  1  0.66666666  0.33333333  0.87149902  1
  C  C5  1  0.33333333  0.66666666  0.12850100  1
  C  C6  1  0.33333333  0.66666666  0.37149901  1
  C  C7  1  0.66666666  0.33333333  0.62850102  1
  Ho  Ho8  1  0.66666666  0.33333333  0.41658901  1
  Ho  Ho9  1  0.33333333  0.66666666  0.58341102  1
  Ho  Ho10  1  0.33333333  0.66666666  0.91658902  1
  Ho  Ho11  1  0.66666666  0.33333333  0.08341100  1
  Ho  Ho12  1  0.66666666  0.33333333  0.75000002  1
  Ho  Ho13  1  0.33333333  0.66666666  0.25000001  1
