# generated using pymatgen
data_Al7Tc
_symmetry_space_group_name_H-M   'P 1'
_cell_length_a   4.43510199
_cell_length_b   5.52500010
_cell_length_c   5.52500057
_cell_angle_alpha   60.00000381
_cell_angle_beta   90.00000000
_cell_angle_gamma   90.00000000
_symmetry_Int_Tables_number   1
_chemical_formula_structural   Al7Tc
_chemical_formula_sum   'Al7 Tc1'
_cell_volume   117.24622716
_cell_formula_units_Z   1
loop_
 _symmetry_equiv_pos_site_id
 _symmetry_equiv_pos_as_xyz
  1  'x, y, z'
loop_
 _atom_site_type_symbol
 _atom_site_label
 _atom_site_symmetry_multiplicity
 _atom_site_fract_x
 _atom_site_fract_y
 _atom_site_fract_z
 _atom_site_occupancy
  Al  Al0  1  0.75000000  0.66666665  0.66666667  1
  Tc  Tc1  1  0.25000000  0.33333333  0.33333334  1
  Al  Al2  1  0.75000000  0.16780000  0.16780000  1
  Al  Al3  1  0.75000000  0.66439999  0.16780001  1
  Al  Al4  1  0.25000000  0.83219998  0.33560001  1
  Al  Al5  1  0.25000000  0.83219998  0.83220001  1
  Al  Al6  1  0.25000000  0.33559999  0.83220000  1
  Al  Al7  1  0.75000000  0.16780000  0.66440000  1
