# generated using pymatgen
data_Ba3SrCe4O12
_symmetry_space_group_name_H-M   'P 1'
_cell_length_a   6.20219612
_cell_length_b   6.23904324
_cell_length_c   8.76187325
_cell_angle_alpha   90.00000000
_cell_angle_beta   90.00000000
_cell_angle_gamma   90.00000000
_symmetry_Int_Tables_number   1
_chemical_formula_structural   Ba3SrCe4O12
_chemical_formula_sum   'Ba3 Sr1 Ce4 O12'
_cell_volume   339.04742974
_cell_formula_units_Z   1
loop_
 _symmetry_equiv_pos_site_id
 _symmetry_equiv_pos_as_xyz
  1  'x, y, z'
loop_
 _atom_site_type_symbol
 _atom_site_label
 _atom_site_symmetry_multiplicity
 _atom_site_fract_x
 _atom_site_fract_y
 _atom_site_fract_z
 _atom_site_occupancy
  Sr  Sr0  1  0.98505098  0.00460400  0.24999999  1
  Ba  Ba1  1  0.48505099  0.49539598  0.24999999  1
  Ba  Ba2  1  0.51494899  0.50460398  0.74999998  1
  Ba  Ba3  1  0.01494900  0.99539596  0.74999998  1
  Ce  Ce4  1  0.49999999  0.00000000  0.00000000  1
  Ce  Ce5  1  0.00000000  0.49999998  0.49999999  1
  Ce  Ce6  1  0.00000000  0.49999998  -0.00000000  1
  Ce  Ce7  1  0.49999999  0.00000000  0.49999999  1
  O  O8  1  0.51072799  0.93160796  0.24999999  1
  O  O9  1  0.01072800  0.56839198  0.24999999  1
  O  O10  1  0.98927198  0.43160798  0.74999998  1
  O  O11  1  0.48927199  0.06839200  0.74999998  1
  O  O12  1  0.72837899  0.27129799  0.03641900  1
  O  O13  1  0.22837900  0.22870199  0.46358099  1
  O  O14  1  0.77162098  0.77129797  0.96358097  1
  O  O15  1  0.27162099  0.72870197  0.53641898  1
  O  O16  1  0.27162099  0.72870197  0.96358097  1
  O  O17  1  0.77162098  0.77129797  0.53641898  1
  O  O18  1  0.22837900  0.22870199  0.03641900  1
  O  O19  1  0.72837899  0.27129799  0.46358099  1
