# generated using pymatgen
data_InCuSe2
_symmetry_space_group_name_H-M   'P 1'
_cell_length_a   5.95118999
_cell_length_b   5.95118999
_cell_length_c   6.88161898
_cell_angle_alpha   115.61981201
_cell_angle_beta   115.61981201
_cell_angle_gamma   90.00000000
_symmetry_Int_Tables_number   1
_chemical_formula_structural   InCuSe2
_chemical_formula_sum   'In2 Cu2 Se4'
_cell_volume   192.84476807
_cell_formula_units_Z   2
loop_
 _symmetry_equiv_pos_site_id
 _symmetry_equiv_pos_as_xyz
  1  'x, y, z'
loop_
 _atom_site_type_symbol
 _atom_site_label
 _atom_site_symmetry_multiplicity
 _atom_site_fract_x
 _atom_site_fract_y
 _atom_site_fract_z
 _atom_site_occupancy
  In  In0  1  0.25000006  0.75000004  0.50000010  1
  In  In1  1  0.50000005  0.50000002  0.00000008  1
  Cu  Cu2  1  0.75000004  0.25000001  0.50000008  1
  Cu  Cu3  1  0.00000000  0.00000000  0.00000000  1
  Se  Se4  1  0.37500004  0.33882402  0.25000006  1
  Se  Se5  1  0.66117603  0.12500001  0.75000008  1
  Se  Se6  1  0.08882405  0.62500003  0.75000009  1
  Se  Se7  1  0.87500009  0.91117604  0.25000014  1
