# generated using pymatgen
data_Zr4Ni9Sn7
_symmetry_space_group_name_H-M   'P 1'
_cell_length_a   6.23899603
_cell_length_b   6.94585514
_cell_length_c   6.94585514
_cell_angle_alpha   90.00000000
_cell_angle_beta   90.00000000
_cell_angle_gamma   90.00000000
_symmetry_Int_Tables_number   1
_chemical_formula_structural   Zr4Ni9Sn7
_chemical_formula_sum   'Zr4 Ni9 Sn7'
_cell_volume   300.99976220
_cell_formula_units_Z   1
loop_
 _symmetry_equiv_pos_site_id
 _symmetry_equiv_pos_as_xyz
  1  'x, y, z'
loop_
 _atom_site_type_symbol
 _atom_site_label
 _atom_site_symmetry_multiplicity
 _atom_site_fract_x
 _atom_site_fract_y
 _atom_site_fract_z
 _atom_site_occupancy
  Zr  Zr0  1  0.00000000  0.17626200  0.17626200  1
  Sn  Sn1  1  0.50000000  0.67626199  0.32373799  1
  Sn  Sn2  1  0.50000000  0.32373799  0.67626199  1
  Zr  Zr3  1  0.00000000  0.82373798  0.82373798  1
  Sn  Sn4  1  0.00000000  0.65147799  0.34852199  1
  Ni  Ni5  1  0.50000000  0.84852198  0.84852198  1
  Sn  Sn6  1  0.50000000  0.15147800  0.15147800  1
  Sn  Sn7  1  0.00000000  0.34852199  0.65147799  1
  Sn  Sn8  1  0.25000000  0.49999999  -0.00000000  1
  Zr  Zr9  1  0.75000000  0.49999999  -0.00000000  1
  Sn  Sn10  1  0.25000000  0.00000000  0.49999999  1
  Zr  Zr11  1  0.75000000  0.00000000  0.49999999  1
  Ni  Ni12  1  0.27985700  0.37349599  0.37349599  1
  Ni  Ni13  1  0.77985700  0.87349598  0.12650400  1
  Ni  Ni14  1  0.77985700  0.12650400  0.87349598  1
  Ni  Ni15  1  0.27985700  0.62650399  0.62650399  1
  Ni  Ni16  1  0.22014300  0.12650400  0.87349598  1
  Ni  Ni17  1  0.22014300  0.87349598  0.12650400  1
  Ni  Ni18  1  0.72014300  0.37349599  0.37349599  1
  Ni  Ni19  1  0.72014300  0.62650399  0.62650399  1
