# generated using pymatgen
data_VO2
_symmetry_space_group_name_H-M   'P 1'
_cell_length_a   5.10762167
_cell_length_b   5.10762167
_cell_length_c   8.05310631
_cell_angle_alpha   85.13211060
_cell_angle_beta   85.13211060
_cell_angle_gamma   71.57080841
_symmetry_Int_Tables_number   1
_chemical_formula_structural   VO2
_chemical_formula_sum   'V4 O8'
_cell_volume   198.21997471
_cell_formula_units_Z   4
loop_
 _symmetry_equiv_pos_site_id
 _symmetry_equiv_pos_as_xyz
  1  'x, y, z'
loop_
 _atom_site_type_symbol
 _atom_site_label
 _atom_site_symmetry_multiplicity
 _atom_site_fract_x
 _atom_site_fract_y
 _atom_site_fract_z
 _atom_site_occupancy
  V  V0  1  0.06246600  0.93753397  0.24999999  1
  V  V1  1  0.93753397  0.06246600  0.74999998  1
  V  V2  1  0.49999999  0.00000000  0.49999999  1
  V  V3  1  0.00000000  0.49999999  -0.00000000  1
  O  O4  1  0.20278500  0.74531998  0.07762799  1
  O  O5  1  0.25468000  0.79721498  0.42237199  1
  O  O6  1  0.79721498  0.25467999  0.92237198  1
  O  O7  1  0.74531998  0.20278499  0.57762799  1
  O  O8  1  0.09016800  0.26833199  0.21527399  1
  O  O9  1  0.73166798  0.90983197  0.28472598  1
  O  O10  1  0.90983198  0.73166798  0.78472598  1
  O  O11  1  0.26833199  0.09016800  0.71527399  1
