# generated using pymatgen
data_Ce2SiPt3
_symmetry_space_group_name_H-M   'P 1'
_cell_length_a   4.10550213
_cell_length_b   8.19925594
_cell_length_c   8.19925594
_cell_angle_alpha   120.00000000
_cell_angle_beta   90.00000000
_cell_angle_gamma   90.00000000
_symmetry_Int_Tables_number   1
_chemical_formula_structural   Ce2SiPt3
_chemical_formula_sum   'Ce4 Si2 Pt6'
_cell_volume   239.02636113
_cell_formula_units_Z   2
loop_
 _symmetry_equiv_pos_site_id
 _symmetry_equiv_pos_as_xyz
  1  'x, y, z'
loop_
 _atom_site_type_symbol
 _atom_site_label
 _atom_site_symmetry_multiplicity
 _atom_site_fract_x
 _atom_site_fract_y
 _atom_site_fract_z
 _atom_site_occupancy
  Ce  Ce0  1  0.49999998  0.00000000  -0.00000000  1
  Ce  Ce1  1  0.49999998  0.00000000  0.50000000  1
  Ce  Ce2  1  0.49999998  0.50000000  0.00000000  1
  Ce  Ce3  1  0.49999998  0.50000000  0.50000000  1
  Pt  Pt4  1  0.99999997  0.66919600  0.83459801  1
  Pt  Pt5  1  0.99999997  0.16540200  0.33080400  1
  Pt  Pt6  1  0.00000000  0.16540200  0.83459801  1
  Pt  Pt7  1  0.99999997  0.83459801  0.16540200  1
  Pt  Pt8  1  0.00000000  0.83459801  0.66919601  1
  Pt  Pt9  1  0.00000000  0.33080400  0.16540200  1
  Si  Si10  1  0.00000000  0.33333334  0.66666667  1
  Si  Si11  1  0.00000000  0.66666667  0.33333334  1
