# generated using pymatgen
data_LiCuO2
_symmetry_space_group_name_H-M   'P 1'
_cell_length_a   4.68087101
_cell_length_b   4.68087196
_cell_length_c   5.72337723
_cell_angle_alpha   114.13736725
_cell_angle_beta   114.13737488
_cell_angle_gamma   90.00000000
_symmetry_Int_Tables_number   1
_chemical_formula_structural   LiCuO2
_chemical_formula_sum   'Li2 Cu2 O4'
_cell_volume   102.30555793
_cell_formula_units_Z   2
loop_
 _symmetry_equiv_pos_site_id
 _symmetry_equiv_pos_as_xyz
  1  'x, y, z'
loop_
 _atom_site_type_symbol
 _atom_site_label
 _atom_site_symmetry_multiplicity
 _atom_site_fract_x
 _atom_site_fract_y
 _atom_site_fract_z
 _atom_site_occupancy
  Li  Li0  1  0.25000002  0.74999999  0.50000000  1
  Li  Li1  1  0.50000001  0.49999999  0.00000002  1
  Cu  Cu2  1  0.75000001  0.25000000  0.50000005  1
  Cu  Cu3  1  0.00000000  0.00000000  0.00000000  1
  O  O4  1  0.87500002  0.92356798  0.25000003  1
  O  O5  1  0.37500001  0.32643199  0.25000002  1
  O  O6  1  0.67356800  0.12500000  0.75000105  1
  O  O7  1  0.07643202  0.62499999  0.74999900  1
