# generated using pymatgen
data_HoCo2Si3
_symmetry_space_group_name_H-M   'P 1'
_cell_length_a   2.96011209
_cell_length_b   5.57179785
_cell_length_c   5.57179832
_cell_angle_alpha   120.00000000
_cell_angle_beta   90.00000000
_cell_angle_gamma   90.00000000
_symmetry_Int_Tables_number   1
_chemical_formula_structural   HoCo2Si3
_chemical_formula_sum   'Ho1 Co2 Si3'
_cell_volume   79.58468997
_cell_formula_units_Z   1
loop_
 _symmetry_equiv_pos_site_id
 _symmetry_equiv_pos_as_xyz
  1  'x, y, z'
loop_
 _atom_site_type_symbol
 _atom_site_label
 _atom_site_symmetry_multiplicity
 _atom_site_fract_x
 _atom_site_fract_y
 _atom_site_fract_z
 _atom_site_occupancy
  Ho  Ho0  1  0.00000000  0.00000000  0.00000000  1
  Co  Co1  1  0.00000000  0.66666670  0.33333336  1
  Co  Co2  1  0.00000000  0.33333335  0.66666668  1
  Si  Si3  1  0.49999998  0.50000002  0.00000002  1
  Si  Si4  1  0.49999998  0.00000000  0.50000000  1
  Si  Si5  1  0.49999998  0.50000002  0.50000002  1
