# generated using pymatgen
data_LiV4O8F
_symmetry_space_group_name_H-M   'P 1'
_cell_length_a   5.14067078
_cell_length_b   5.42989922
_cell_length_c   6.60476542
_cell_angle_alpha   90.00000000
_cell_angle_beta   90.15886688
_cell_angle_gamma   90.00000000
_symmetry_Int_Tables_number   1
_chemical_formula_structural   LiV4O8F
_chemical_formula_sum   'Li1 V4 O8 F1'
_cell_volume   184.36024971
_cell_formula_units_Z   1
loop_
 _symmetry_equiv_pos_site_id
 _symmetry_equiv_pos_as_xyz
  1  'x, y, z'
loop_
 _atom_site_type_symbol
 _atom_site_label
 _atom_site_symmetry_multiplicity
 _atom_site_fract_x
 _atom_site_fract_y
 _atom_site_fract_z
 _atom_site_occupancy
  Li  Li0  1  0.50084602  0.17022599  0.00363302  1
  V  V1  1  0.00084600  0.82977397  0.50363300  1
  O  O2  1  0.00131400  0.83066997  0.99718500  1
  V  V3  1  0.50131402  0.16932999  0.49718502  1
  V  V4  1  0.00334300  0.32000999  0.75370700  1
  V  V5  1  0.50334302  0.67998997  0.25370702  1
  O  O6  1  0.34538502  0.27165199  0.73907501  1
  O  O7  1  0.38825502  0.84282997  0.46973901  1
  O  O8  1  0.43498702  0.36133999  0.26707002  1
  O  O9  1  0.36184802  0.82615997  0.03946001  1
  O  O10  1  0.84538504  0.72834797  0.23907503  1
  F  F11  1  0.88825504  0.15716999  0.96973903  1
  O  O12  1  0.93498704  0.63865997  0.76707003  1
  O  O13  1  0.86184804  0.17383999  0.53946003  1
