# generated using pymatgen
data_Ag
_symmetry_space_group_name_H-M   'P 1'
_cell_length_a   3.41987801
_cell_length_b   5.73123693
_cell_length_c   7.13494921
_cell_angle_alpha   108.22083282
_cell_angle_beta   90.00000000
_cell_angle_gamma   107.35877991
_symmetry_Int_Tables_number   1
_chemical_formula_structural   Ag
_chemical_formula_sum   Ag6
_cell_volume   126.11094042
_cell_formula_units_Z   6
loop_
 _symmetry_equiv_pos_site_id
 _symmetry_equiv_pos_as_xyz
  1  'x, y, z'
loop_
 _atom_site_type_symbol
 _atom_site_label
 _atom_site_symmetry_multiplicity
 _atom_site_fract_x
 _atom_site_fract_y
 _atom_site_fract_z
 _atom_site_occupancy
  Ag  Ag0  1  0.83077194  0.66154401  0.43552403  1
  Ag  Ag1  1  0.16922797  0.33845600  0.56447602  1
  Ag  Ag2  1  0.51253500  0.02507000  0.73724101  1
  Ag  Ag3  1  0.82968094  0.65936201  0.89463203  1
  Ag  Ag4  1  0.17031897  0.34063800  0.10536801  1
  Ag  Ag5  1  0.48746491  0.97493001  0.26275903  1
