# generated using pymatgen
data_Rb2BCl10O
_symmetry_space_group_name_H-M   'P 1'
_cell_length_a   5.65081882
_cell_length_b   6.81276798
_cell_length_c   8.60738373
_cell_angle_alpha   113.31284332
_cell_angle_beta   109.16284180
_cell_angle_gamma   90.00000000
_symmetry_Int_Tables_number   1
_chemical_formula_structural   Rb2BCl10O
_chemical_formula_sum   'Rb2 B1 Cl10 O1'
_cell_volume   284.20773171
_cell_formula_units_Z   1
loop_
 _symmetry_equiv_pos_site_id
 _symmetry_equiv_pos_as_xyz
  1  'x, y, z'
loop_
 _atom_site_type_symbol
 _atom_site_label
 _atom_site_symmetry_multiplicity
 _atom_site_fract_x
 _atom_site_fract_y
 _atom_site_fract_z
 _atom_site_occupancy
  Rb  Rb0  1  0.62740703  0.37740600  0.25481302  1
  Rb  Rb1  1  0.37259303  0.62259400  0.74518703  1
  B  B2  1  0.13765102  0.88765100  0.27530202  1
  Cl  Cl3  1  0.86234904  0.11234900  0.72469804  1
  Cl  Cl4  1  0.30117903  0.81367400  0.12734802  1
  Cl  Cl5  1  0.17383101  0.18632600  0.87265203  1
  O  O6  1  0.69882103  0.18632600  0.87265204  1
  Cl  Cl7  1  0.82616905  0.81367400  0.12734803  1
  Cl  Cl8  1  0.50000002  0.00000000  0.50000003  1
  Cl  Cl9  1  0.00000000  0.00000000  0.50000002  1
  Cl  Cl10  1  0.16570401  0.19608500  0.33140702  1
  Cl  Cl11  1  0.83429605  0.80391500  0.66859304  1
  Cl  Cl12  1  0.83429604  0.36467800  0.66859304  1
  Cl  Cl13  1  0.16570402  0.63532200  0.33140702  1
