# generated using pymatgen
data_Li5VCr2O6
_symmetry_space_group_name_H-M   'P 1'
_cell_length_a   6.01960468
_cell_length_b   6.01960468
_cell_length_c   6.01960421
_cell_angle_alpha   61.39300919
_cell_angle_beta   61.39300919
_cell_angle_gamma   61.39301682
_symmetry_Int_Tables_number   1
_chemical_formula_structural   Li5VCr2O6
_chemical_formula_sum   'Li5 V1 Cr2 O6'
_cell_volume   159.06363859
_cell_formula_units_Z   1
loop_
 _symmetry_equiv_pos_site_id
 _symmetry_equiv_pos_as_xyz
  1  'x, y, z'
loop_
 _atom_site_type_symbol
 _atom_site_label
 _atom_site_symmetry_multiplicity
 _atom_site_fract_x
 _atom_site_fract_y
 _atom_site_fract_z
 _atom_site_occupancy
  O  O0  1  0.75845501  0.75845498  0.75845500  1
  O  O1  1  0.99075901  0.99075897  0.99075900  1
  O  O2  1  0.37993900  0.37993899  0.37993900  1
  O  O3  1  0.87116000  0.36789999  0.36790000  1
  O  O4  1  0.36790002  0.87115998  0.36790000  1
  O  O5  1  0.36790000  0.36789999  0.87115999  1
  Li  Li6  1  0.62513699  0.15669200  0.62513700  1
  Li  Li7  1  0.62513701  0.62513698  0.15669200  1
  Li  Li8  1  0.15669201  0.62513698  0.62513699  1
  V  V9  1  0.12690500  0.12690500  0.12690500  1
  Cr  Cr10  1  0.59585599  0.13165400  0.13165400  1
  Li  Li11  1  0.13165401  0.59585598  0.13165400  1
  Cr  Cr12  1  0.13165400  0.13165400  0.59585600  1
  Li  Li13  1  0.62086201  0.62086198  0.62086200  1
