# generated using pymatgen
data_Zr2Te3
_symmetry_space_group_name_H-M   'P 1'
_cell_length_a   6.38084984
_cell_length_b   10.26829624
_cell_length_c   10.27008057
_cell_angle_alpha   119.99425507
_cell_angle_beta   90.00000000
_cell_angle_gamma   90.00000000
_symmetry_Int_Tables_number   1
_chemical_formula_structural   Zr2Te3
_chemical_formula_sum   'Zr8 Te12'
_cell_volume   582.78254353
_cell_formula_units_Z   4
loop_
 _symmetry_equiv_pos_site_id
 _symmetry_equiv_pos_as_xyz
  1  'x, y, z'
loop_
 _atom_site_type_symbol
 _atom_site_label
 _atom_site_symmetry_multiplicity
 _atom_site_fract_x
 _atom_site_fract_y
 _atom_site_fract_z
 _atom_site_occupancy
  Te  Te0  1  0.46537301  0.66666668  0.33333339  1
  Zr  Zr1  1  0.96537302  0.33333334  0.66666670  1
  Te  Te2  1  0.25106901  0.87418401  0.74836808  1
  Te  Te3  1  0.25110801  0.87415001  0.12579307  1
  Te  Te4  1  0.25110801  0.25164300  0.12579302  1
  Te  Te5  1  0.75106902  0.12581600  0.25163201  1
  Zr  Zr6  1  0.75110802  0.12585000  0.87420703  1
  Te  Te7  1  0.75110802  0.74835701  0.87420707  1
  Te  Te8  1  0.44127901  0.45824101  0.91648205  1
  Te  Te9  1  0.44120601  0.45818501  0.54178904  1
  Te  Te10  1  0.44120601  0.08360400  0.54178902  1
  Te  Te11  1  0.94127902  0.54175901  0.08351804  1
  Te  Te12  1  0.94120602  0.54181501  0.45821105  1
  Te  Te13  1  0.94120602  0.91639601  0.45821108  1
  Zr  Zr14  1  0.18366800  0.18856500  0.37713002  1
  Zr  Zr15  1  0.18349200  0.18858700  0.81134903  1
  Zr  Zr16  1  0.18349200  0.62276201  0.81134906  1
  Zr  Zr17  1  0.68366802  0.81143501  0.62287007  1
  Zr  Zr18  1  0.68349202  0.81141301  0.18865106  1
  Zr  Zr19  1  0.68349202  0.37723800  0.18865103  1
