# generated using pymatgen
data_CrSe2
_symmetry_space_group_name_H-M   'P 1'
_cell_length_a   3.55334997
_cell_length_b   4.74493504
_cell_length_c   8.76049709
_cell_angle_alpha   90.00000000
_cell_angle_beta   90.00000000
_cell_angle_gamma   90.00000000
_symmetry_Int_Tables_number   1
_chemical_formula_structural   CrSe2
_chemical_formula_sum   'Cr2 Se4'
_cell_volume   147.70561463
_cell_formula_units_Z   2
loop_
 _symmetry_equiv_pos_site_id
 _symmetry_equiv_pos_as_xyz
  1  'x, y, z'
loop_
 _atom_site_type_symbol
 _atom_site_label
 _atom_site_symmetry_multiplicity
 _atom_site_fract_x
 _atom_site_fract_y
 _atom_site_fract_z
 _atom_site_occupancy
  Cr  Cr0  1  0.50000000  0.00000000  0.88238199  1
  Cr  Cr1  1  0.00000000  0.50000000  0.11761800  1
  Se  Se2  1  0.50000000  0.50000000  0.93532099  1
  Se  Se3  1  0.00000000  0.00000000  0.06467900  1
  Se  Se4  1  0.00000000  0.00000000  0.67732199  1
  Se  Se5  1  0.50000000  0.50000000  0.32267800  1
