# generated using pymatgen
data_AlSe
_symmetry_space_group_name_H-M   'P 1'
_cell_length_a   2.77648807
_cell_length_b   3.58094716
_cell_length_c   5.45841885
_cell_angle_alpha   82.45514679
_cell_angle_beta   75.26606750
_cell_angle_gamma   67.19008636
_symmetry_Int_Tables_number   1
_chemical_formula_structural   AlSe
_chemical_formula_sum   'Al2 Se2'
_cell_volume   48.34840531
_cell_formula_units_Z   2
loop_
 _symmetry_equiv_pos_site_id
 _symmetry_equiv_pos_as_xyz
  1  'x, y, z'
loop_
 _atom_site_type_symbol
 _atom_site_label
 _atom_site_symmetry_multiplicity
 _atom_site_fract_x
 _atom_site_fract_y
 _atom_site_fract_z
 _atom_site_occupancy
  Al  Al0  1  0.00000001  0.49999999  0.50000000  1
  Al  Al1  1  0.00000000  0.00000000  0.00000000  1
  Se  Se2  1  0.42244101  0.92521898  0.22989898  1
  Se  Se3  1  0.57755898  0.07478100  0.77010104  1
