# generated using pymatgen
data_SrPr(CO4)2
_symmetry_space_group_name_H-M   'P 1'
_cell_length_a   4.55749226
_cell_length_b   4.55749226
_cell_length_c   7.87129498
_cell_angle_alpha   73.17192078
_cell_angle_beta   73.17192078
_cell_angle_gamma   59.99999619
_symmetry_Int_Tables_number   1
_chemical_formula_structural   SrPr(CO4)2
_chemical_formula_sum   'Sr1 Pr1 C2 O8'
_cell_volume   133.44332368
_cell_formula_units_Z   1
loop_
 _symmetry_equiv_pos_site_id
 _symmetry_equiv_pos_as_xyz
  1  'x, y, z'
loop_
 _atom_site_type_symbol
 _atom_site_label
 _atom_site_symmetry_multiplicity
 _atom_site_fract_x
 _atom_site_fract_y
 _atom_site_fract_z
 _atom_site_occupancy
  Sr  Sr0  1  0.35251402  0.35251400  0.94245800  1
  Pr  Pr1  1  0.85646604  0.85646601  0.43060201  1
  C  C2  1  0.59212703  0.59212701  0.22361900  1
  C  C3  1  0.10374600  0.10374600  0.68876200  1
  O  O4  1  0.36557603  0.85719401  0.63571200  1
  O  O5  1  0.53708203  0.53708200  0.38875400  1
  O  O6  1  0.85719402  0.14151800  0.63571200  1
  O  O7  1  0.75636402  0.31804000  0.16721600  1
  O  O8  1  0.14151801  0.36557600  0.63571200  1
  O  O9  1  0.04837300  0.04837300  0.85488100  1
  O  O10  1  0.31804003  0.75838001  0.16721600  1
  O  O11  1  0.75838004  0.75636401  0.16721601  1
