# generated using pymatgen
data_Zn3S4
_symmetry_space_group_name_H-M   'P 1'
_cell_length_a   3.64891601
_cell_length_b   3.64891601
_cell_length_c   12.52685642
_cell_angle_alpha   90.00000000
_cell_angle_beta   90.00000000
_cell_angle_gamma   120.00000000
_symmetry_Int_Tables_number   1
_chemical_formula_structural   Zn3S4
_chemical_formula_sum   'Zn3 S4'
_cell_volume   144.44431859
_cell_formula_units_Z   1
loop_
 _symmetry_equiv_pos_site_id
 _symmetry_equiv_pos_as_xyz
  1  'x, y, z'
loop_
 _atom_site_type_symbol
 _atom_site_label
 _atom_site_symmetry_multiplicity
 _atom_site_fract_x
 _atom_site_fract_y
 _atom_site_fract_z
 _atom_site_occupancy
  Zn  Zn0  1  0.66666667  0.33333334  0.77039497  1
  Zn  Zn1  1  0.33333334  0.66666668  0.22960499  1
  Zn  Zn2  1  0.00000000  0.00000000  0.49999998  1
  S  S3  1  0.33333334  0.66666668  0.40723099  1
  S  S4  1  0.66666667  0.33333334  0.59276898  1
  S  S5  1  0.33333334  0.66666668  0.85398197  1
  S  S6  1  0.66666667  0.33333334  0.14601800  1
