# generated using pymatgen
data_BaNa3CoClO
_symmetry_space_group_name_H-M   'P 1'
_cell_length_a   5.84613657
_cell_length_b   5.84613657
_cell_length_c   5.84613705
_cell_angle_alpha   61.55294418
_cell_angle_beta   61.55294418
_cell_angle_gamma   61.55293655
_symmetry_Int_Tables_number   1
_chemical_formula_structural   BaNa3CoClO
_chemical_formula_sum   'Ba1 Na3 Co1 Cl1 O1'
_cell_volume   146.20690562
_cell_formula_units_Z   1
loop_
 _symmetry_equiv_pos_site_id
 _symmetry_equiv_pos_as_xyz
  1  'x, y, z'
loop_
 _atom_site_type_symbol
 _atom_site_label
 _atom_site_symmetry_multiplicity
 _atom_site_fract_x
 _atom_site_fract_y
 _atom_site_fract_z
 _atom_site_occupancy
  Na  Na0  1  0.00000000  0.00000000  0.00000000  1
  Ba  Ba1  1  0.49999999  0.50000001  0.50000002  1
  Na  Na2  1  0.00000000  0.00000000  0.49999998  1
  Na  Na3  1  -0.00000002  0.50000001  0.00000002  1
  Co  Co4  1  0.49999996  1.00000003  1.00000002  1
  O  O5  1  0.27910199  0.27910201  0.27910201  1
  Cl  Cl6  1  0.72089798  0.72089802  0.72089803  1
