# generated using pymatgen
data_In6Se7S
_symmetry_space_group_name_H-M   'P 1'
_cell_length_a   7.99214792
_cell_length_b   7.99214792
_cell_length_c   7.99214792
_cell_angle_alpha   60.00000000
_cell_angle_beta   60.00000000
_cell_angle_gamma   60.00000000
_symmetry_Int_Tables_number   1
_chemical_formula_structural   In6Se7S
_chemical_formula_sum   'In6 Se7 S1'
_cell_volume   360.97368456
_cell_formula_units_Z   1
loop_
 _symmetry_equiv_pos_site_id
 _symmetry_equiv_pos_as_xyz
  1  'x, y, z'
loop_
 _atom_site_type_symbol
 _atom_site_label
 _atom_site_symmetry_multiplicity
 _atom_site_fract_x
 _atom_site_fract_y
 _atom_site_fract_z
 _atom_site_occupancy
  In  In0  1  0.37500000  0.37500000  0.87500000  1
  In  In1  1  0.87500000  0.37500000  0.37500000  1
  In  In2  1  0.37500000  0.37500000  0.37500000  1
  In  In3  1  0.37500000  0.87500000  0.37500000  1
  In  In4  1  0.00000000  0.00000000  0.00000000  1
  In  In5  1  0.75000000  0.75000000  0.75000000  1
  Se  Se6  1  0.60272800  0.13242400  0.13242400  1
  Se  Se7  1  0.61757600  0.61757600  0.14727200  1
  Se  Se8  1  0.61757600  0.14727200  0.61757600  1
  Se  Se9  1  0.61757600  0.61757600  0.61757600  1
  Se  Se10  1  0.13242400  0.60272800  0.13242400  1
  S  S11  1  0.13242400  0.13242400  0.13242400  1
  Se  Se12  1  0.14727200  0.61757600  0.61757600  1
  Se  Se13  1  0.13242400  0.13242400  0.60272800  1
