# generated using pymatgen
data_Na6AgO7
_symmetry_space_group_name_H-M   'P 1'
_cell_length_a   4.71660900
_cell_length_b   6.42964268
_cell_length_c   6.42964315
_cell_angle_alpha   82.35874176
_cell_angle_beta   68.48244476
_cell_angle_gamma   68.48245239
_symmetry_Int_Tables_number   1
_chemical_formula_structural   Na6AgO7
_chemical_formula_sum   'Na6 Ag1 O7'
_cell_volume   168.75390205
_cell_formula_units_Z   1
loop_
 _symmetry_equiv_pos_site_id
 _symmetry_equiv_pos_as_xyz
  1  'x, y, z'
loop_
 _atom_site_type_symbol
 _atom_site_label
 _atom_site_symmetry_multiplicity
 _atom_site_fract_x
 _atom_site_fract_y
 _atom_site_fract_z
 _atom_site_occupancy
  Na  Na0  1  0.00000006  0.99465798  0.00534192  1
  O  O1  1  1.00000001  0.36918599  0.63081397  1
  Ag  Ag2  1  0.50000004  0.77244799  0.22755194  1
  Na  Na3  1  0.50000001  0.22814800  0.77185197  1
  Na  Na4  1  0.72499104  0.77583699  0.77418093  1
  Na  Na5  1  0.27500901  0.22581900  0.22416298  1
  O  O6  1  0.99978105  0.99943298  0.50112692  1
  O  O7  1  0.49965905  0.99943298  0.50112691  1
  O  O8  1  0.50034102  0.49887299  0.00056697  1
  O  O9  1  0.00021903  0.49887299  0.00056696  1
  Na  Na10  1  1.00000003  0.63616899  0.36383096  1
  O  O11  1  0.64083201  0.36006799  0.35826797  1
  Na  Na12  1  0.35916803  0.64173199  0.63993194  1
  O  O13  1  0.50000005  0.99932398  0.00067593  1
