# generated using pymatgen
data_Cr6BP3
_symmetry_space_group_name_H-M   'P 1'
_cell_length_a   3.12688708
_cell_length_b   5.84282017
_cell_length_c   5.84282017
_cell_angle_alpha   90.00000000
_cell_angle_beta   90.00000000
_cell_angle_gamma   90.00000000
_symmetry_Int_Tables_number   1
_chemical_formula_structural   Cr6BP3
_chemical_formula_sum   'Cr6 B1 P3'
_cell_volume   106.74738324
_cell_formula_units_Z   1
loop_
 _symmetry_equiv_pos_site_id
 _symmetry_equiv_pos_as_xyz
  1  'x, y, z'
loop_
 _atom_site_type_symbol
 _atom_site_label
 _atom_site_symmetry_multiplicity
 _atom_site_fract_x
 _atom_site_fract_y
 _atom_site_fract_z
 _atom_site_occupancy
  Cr  Cr0  1  0.00000000  0.00000000  0.00000000  1
  Cr  Cr1  1  0.00000000  0.49999999  0.49999999  1
  B  B2  1  0.99999997  0.11362900  0.61362898  1
  P  P3  1  0.00000000  0.88637097  0.38637099  1
  P  P4  1  0.00000000  0.61362898  0.88637097  1
  P  P5  1  0.00000000  0.38637099  0.11362900  1
  Cr  Cr6  1  0.49999999  0.67737898  0.17737899  1
  Cr  Cr7  1  0.49999999  0.32262099  0.82262098  1
  Cr  Cr8  1  0.49999999  0.17737899  0.32262099  1
  Cr  Cr9  1  0.49999999  0.82262098  0.67737898  1
