# generated using pymatgen
data_La8AgTe9
_symmetry_space_group_name_H-M   'P 1'
_cell_length_a   6.31411886
_cell_length_b   9.44923973
_cell_length_c   9.44923878
_cell_angle_alpha   120.00000000
_cell_angle_beta   90.00000000
_cell_angle_gamma   90.00000000
_symmetry_Int_Tables_number   1
_chemical_formula_structural   La8AgTe9
_chemical_formula_sum   'La8 Ag1 Te9'
_cell_volume   488.24418070
_cell_formula_units_Z   1
loop_
 _symmetry_equiv_pos_site_id
 _symmetry_equiv_pos_as_xyz
  1  'x, y, z'
loop_
 _atom_site_type_symbol
 _atom_site_label
 _atom_site_symmetry_multiplicity
 _atom_site_fract_x
 _atom_site_fract_y
 _atom_site_fract_z
 _atom_site_occupancy
  La  La0  1  0.75000002  0.38183500  0.38183500  1
  La  La1  1  0.25000001  0.61816500  0.61816500  1
  La  La2  1  0.75000002  0.00000000  0.61816503  1
  La  La3  1  0.25000001  0.00000000  0.38183502  1
  La  La4  1  0.75000002  0.61816500  1.00000001  1
  La  La5  1  0.25000001  0.38183500  1.00000003  1
  La  La6  1  0.00000000  0.00000000  0.00000000  1
  Ag  Ag7  1  0.50000001  0.00000000  -0.00000000  1
  Te  Te8  1  0.75000002  0.73331200  0.73331200  1
  Te  Te9  1  0.25000001  0.26668800  0.26668800  1
  Te  Te10  1  0.75000002  0.00000000  0.26668801  1
  Te  Te11  1  0.25000001  0.00000000  0.73331204  1
  Te  Te12  1  0.75000002  0.26668800  -0.00000001  1
  La  La13  1  0.25000001  0.73331200  -0.00000004  1
  Te  Te14  1  1.00000002  0.66666667  0.33333331  1
  Te  Te15  1  0.00000000  0.33333333  0.66666668  1
  Te  Te16  1  0.50000001  0.33333333  0.66666668  1
  Te  Te17  1  0.50000001  0.66666667  0.33333331  1
