# generated using pymatgen
data_LaNi2Te6Se
_symmetry_space_group_name_H-M   'P 1'
_cell_length_a   4.05743599
_cell_length_b   4.05743647
_cell_length_c   17.96662903
_cell_angle_alpha   90.00000000
_cell_angle_beta   90.00000000
_cell_angle_gamma   120.00000000
_symmetry_Int_Tables_number   1
_chemical_formula_structural   LaNi2Te6Se
_chemical_formula_sum   'La1 Ni2 Te6 Se1'
_cell_volume   256.15370244
_cell_formula_units_Z   1
loop_
 _symmetry_equiv_pos_site_id
 _symmetry_equiv_pos_as_xyz
  1  'x, y, z'
loop_
 _atom_site_type_symbol
 _atom_site_label
 _atom_site_symmetry_multiplicity
 _atom_site_fract_x
 _atom_site_fract_y
 _atom_site_fract_z
 _atom_site_occupancy
  La  La0  1  0.00000000  0.00000000  0.89567500  1
  Te  Te1  1  0.00000000  0.00000000  0.10432500  1
  Te  Te2  1  0.00000000  0.00000000  0.39567500  1
  Te  Te3  1  0.00000000  0.00000000  0.60432500  1
  Se  Se4  1  0.66666668  0.33333333  0.50007000  1
  Ni  Ni5  1  0.33333337  0.66666666  0.49993000  1
  Te  Te6  1  0.33333337  0.66666666  0.00007000  1
  Ni  Ni7  1  0.66666668  0.33333333  0.99993000  1
  Te  Te8  1  0.66666668  0.33333333  0.75000000  1
  Te  Te9  1  0.33333337  0.66666666  0.25000000  1
