# generated using pymatgen
data_NaMoI2OF13
_symmetry_space_group_name_H-M   'P 1'
_cell_length_a   5.44760799
_cell_length_b   6.19671106
_cell_length_c   10.60791397
_cell_angle_alpha   90.56266022
_cell_angle_beta   90.00000000
_cell_angle_gamma   90.00000000
_symmetry_Int_Tables_number   1
_chemical_formula_structural   NaMoI2OF13
_chemical_formula_sum   'Na1 Mo1 I2 O1 F13'
_cell_volume   358.07676606
_cell_formula_units_Z   1
loop_
 _symmetry_equiv_pos_site_id
 _symmetry_equiv_pos_as_xyz
  1  'x, y, z'
loop_
 _atom_site_type_symbol
 _atom_site_label
 _atom_site_symmetry_multiplicity
 _atom_site_fract_x
 _atom_site_fract_y
 _atom_site_fract_z
 _atom_site_occupancy
  Na  Na0  1  0.40327300  0.22440400  0.74209597  1
  F  F1  1  0.90327300  0.77559599  0.25790399  1
  Mo  Mo2  1  0.50553100  0.27523400  0.39531798  1
  F  F3  1  0.01360400  0.27007900  0.07273000  1
  I  I4  1  0.51360400  0.72992099  0.92726996  1
  I  I5  1  0.00553100  0.72476599  0.60468197  1
  F  F6  1  0.16179200  0.01500300  0.11437599  1
  F  F7  1  0.68821600  0.13267300  0.27598499  1
  O  O8  1  0.61646800  0.14731800  0.53895898  1
  F  F9  1  0.19397900  0.35360100  0.93601096  1
  F  F10  1  0.16140000  0.46394400  0.59565597  1
  F  F11  1  0.64648500  0.55189399  0.80665296  1
  F  F12  1  0.14648500  0.44810600  0.19334699  1
  F  F13  1  0.66140000  0.53605599  0.40434398  1
  F  F14  1  0.69397900  0.64639899  0.06398899  1
  F  F15  1  0.11646800  0.85268199  0.46104098  1
  F  F16  1  0.18821600  0.86732699  0.72401496  1
  F  F17  1  0.66179200  0.98499699  0.88562396  1
