# generated using pymatgen
data_Zr2SN
_symmetry_space_group_name_H-M   'P 1'
_cell_length_a   3.52300906
_cell_length_b   3.52300906
_cell_length_c   6.44923639
_cell_angle_alpha   74.14916229
_cell_angle_beta   74.14916229
_cell_angle_gamma   59.99997711
_symmetry_Int_Tables_number   1
_chemical_formula_structural   Zr2SN
_chemical_formula_sum   'Zr2 S1 N1'
_cell_volume   65.78328635
_cell_formula_units_Z   1
loop_
 _symmetry_equiv_pos_site_id
 _symmetry_equiv_pos_as_xyz
  1  'x, y, z'
loop_
 _atom_site_type_symbol
 _atom_site_label
 _atom_site_symmetry_multiplicity
 _atom_site_fract_x
 _atom_site_fract_y
 _atom_site_fract_z
 _atom_site_occupancy
  S  S0  1  0.99942200  0.99942204  0.00173397  1
  N  N1  1  0.14592000  0.14592001  0.56224001  1
  Zr  Zr2  1  0.74486500  0.74486503  0.76540499  1
  Zr  Zr3  1  0.26609300  0.26609301  0.20172100  1
