# generated using pymatgen
data_ZrNiSn
_symmetry_space_group_name_H-M   'P 1'
_cell_length_a   3.34113503
_cell_length_b   7.32570982
_cell_length_c   7.32570934
_cell_angle_alpha   120.00000000
_cell_angle_beta   90.00000000
_cell_angle_gamma   90.00000000
_symmetry_Int_Tables_number   1
_chemical_formula_structural   ZrNiSn
_chemical_formula_sum   'Zr3 Ni3 Sn3'
_cell_volume   155.28305047
_cell_formula_units_Z   3
loop_
 _symmetry_equiv_pos_site_id
 _symmetry_equiv_pos_as_xyz
  1  'x, y, z'
loop_
 _atom_site_type_symbol
 _atom_site_label
 _atom_site_symmetry_multiplicity
 _atom_site_fract_x
 _atom_site_fract_y
 _atom_site_fract_z
 _atom_site_occupancy
  Zr  Zr0  1  0.50000000  0.00000000  0.39296699  1
  Zr  Zr1  1  0.50000000  0.39296699  -0.00000003  1
  Zr  Zr2  1  0.50000000  0.60703299  0.60703294  1
  Sn  Sn3  1  0.99999999  0.00000000  0.72688898  1
  Sn  Sn4  1  0.00000000  0.72688899  -0.00000006  1
  Sn  Sn5  1  0.00000000  0.27311100  0.27311097  1
  Ni  Ni6  1  0.00000000  0.66666666  0.33333328  1
  Ni  Ni7  1  0.00000000  0.33333333  0.66666663  1
  Ni  Ni8  1  0.50000000  0.00000000  -0.00000000  1
