# generated using pymatgen
data_Li4MgCrF8
_symmetry_space_group_name_H-M   'P 1'
_cell_length_a   5.75355053
_cell_length_b   6.12146473
_cell_length_c   6.12152863
_cell_angle_alpha   60.57643890
_cell_angle_beta   62.04833221
_cell_angle_gamma   62.03274536
_symmetry_Int_Tables_number   1
_chemical_formula_structural   Li4MgCrF8
_chemical_formula_sum   'Li4 Mg1 Cr1 F8'
_cell_volume   157.69909917
_cell_formula_units_Z   1
loop_
 _symmetry_equiv_pos_site_id
 _symmetry_equiv_pos_as_xyz
  1  'x, y, z'
loop_
 _atom_site_type_symbol
 _atom_site_label
 _atom_site_symmetry_multiplicity
 _atom_site_fract_x
 _atom_site_fract_y
 _atom_site_fract_z
 _atom_site_occupancy
  Li  Li0  1  0.00928801  0.99105103  0.99102800  1
  Li  Li1  1  0.24071201  0.25894901  0.25897200  1
  Li  Li2  1  0.62499901  0.12500100  0.62500102  1
  Li  Li3  1  0.62499902  0.62500002  0.12500100  1
  Cr  Cr4  1  0.12499601  0.62500202  0.62499900  1
  Mg  Mg5  1  0.62500702  0.62499802  0.62500001  1
  F  F6  1  0.37619201  0.38221101  0.86448501  1
  F  F7  1  0.36540001  0.39885801  0.39874500  1
  F  F8  1  0.37599301  0.86446603  0.38232299  1
  F  F9  1  0.83727502  0.39871601  0.39846501  1
  F  F10  1  0.41272501  0.85128203  0.85153600  1
  F  F11  1  0.87400702  0.38553001  0.86767902  1
  F  F12  1  0.88459802  0.85114203  0.85125401  1
  F  F13  1  0.87380802  0.86779403  0.38551300  1
