# generated using pymatgen
data_Lu9MgGa6
_symmetry_space_group_name_H-M   'P 1'
_cell_length_a   6.28125000
_cell_length_b   8.34689999
_cell_length_c   8.34689999
_cell_angle_alpha   120.00000000
_cell_angle_beta   90.00000000
_cell_angle_gamma   90.00000000
_symmetry_Int_Tables_number   1
_chemical_formula_structural   Lu9MgGa6
_chemical_formula_sum   'Lu9 Mg1 Ga6'
_cell_volume   378.98945847
_cell_formula_units_Z   1
loop_
 _symmetry_equiv_pos_site_id
 _symmetry_equiv_pos_as_xyz
  1  'x, y, z'
loop_
 _atom_site_type_symbol
 _atom_site_label
 _atom_site_symmetry_multiplicity
 _atom_site_fract_x
 _atom_site_fract_y
 _atom_site_fract_z
 _atom_site_occupancy
  Lu  Lu0  1  0.50000000  0.33333333  0.66666663  1
  Lu  Lu1  1  0.50000000  0.66666666  0.33333330  1
  Lu  Lu2  1  0.00000000  0.66666666  0.33333330  1
  Mg  Mg3  1  0.00000000  0.33333333  0.66666663  1
  Lu  Lu4  1  0.75000000  0.26065900  -0.00000001  1
  Lu  Lu5  1  0.75000000  0.73934099  0.73934094  1
  Lu  Lu6  1  0.75000000  0.99999999  0.26065896  1
  Lu  Lu7  1  0.25000000  0.73934099  -0.00000002  1
  Lu  Lu8  1  0.25000000  0.26065900  0.26065898  1
  Lu  Lu9  1  0.25000000  0.99999999  0.73934094  1
  Ga  Ga10  1  0.75000000  0.61061199  -0.00000002  1
  Ga  Ga11  1  0.75000000  0.38938799  0.38938797  1
  Ga  Ga12  1  0.75000000  0.99999999  0.61061194  1
  Ga  Ga13  1  0.25000000  0.38938799  0.99999994  1
  Ga  Ga14  1  0.25000000  0.61061199  0.61061195  1
  Ga  Ga15  1  0.25000000  0.99999999  0.38938795  1
