# generated using pymatgen
data_PrSc3IrI5
_symmetry_space_group_name_H-M   'P 1'
_cell_length_a   4.32541800
_cell_length_b   9.39585590
_cell_length_c   10.13596725
_cell_angle_alpha   103.50344849
_cell_angle_beta   102.31990051
_cell_angle_gamma   90.00000000
_symmetry_Int_Tables_number   1
_chemical_formula_structural   PrSc3IrI5
_chemical_formula_sum   'Pr1 Sc3 Ir1 I5'
_cell_volume   390.78568747
_cell_formula_units_Z   1
loop_
 _symmetry_equiv_pos_site_id
 _symmetry_equiv_pos_as_xyz
  1  'x, y, z'
loop_
 _atom_site_type_symbol
 _atom_site_label
 _atom_site_symmetry_multiplicity
 _atom_site_fract_x
 _atom_site_fract_y
 _atom_site_fract_z
 _atom_site_occupancy
  Sc  Sc0  1  0.64012899  0.07284900  0.28025798  1
  Pr  Pr1  1  0.35987100  0.92715103  0.71974203  1
  Sc  Sc2  1  0.99901500  0.78875102  0.99803000  1
  Sc  Sc3  1  0.00098500  0.21124901  0.00197001  1
  Ir  Ir4  1  0.50000000  0.00000000  -0.00000001  1
  I  I5  1  0.50000000  0.50000002  0.00000002  1
  I  I6  1  0.82773899  0.16786701  0.65547798  1
  I  I7  1  0.17226100  0.83213303  0.34452204  1
  I  I8  1  0.16959000  0.33947901  0.33918001  1
  I  I9  1  0.83041000  0.66052102  0.66082001  1
