# generated using pymatgen
data_ZrAl3(V2Fe)3
_symmetry_space_group_name_H-M   'P 1'
_cell_length_a   4.78752518
_cell_length_b   6.52639961
_cell_length_c   6.52639961
_cell_angle_alpha   81.69879913
_cell_angle_beta   68.48273468
_cell_angle_gamma   68.48273468
_symmetry_Int_Tables_number   1
_chemical_formula_structural   ZrAl3(V2Fe)3
_chemical_formula_sum   'Zr1 Al3 V6 Fe3'
_cell_volume   176.47489579
_cell_formula_units_Z   1
loop_
 _symmetry_equiv_pos_site_id
 _symmetry_equiv_pos_as_xyz
  1  'x, y, z'
loop_
 _atom_site_type_symbol
 _atom_site_label
 _atom_site_symmetry_multiplicity
 _atom_site_fract_x
 _atom_site_fract_y
 _atom_site_fract_z
 _atom_site_occupancy
  Zr  Zr0  1  0.00844191  0.99155805  0.99155810  1
  V  V1  1  0.49825199  0.00032300  0.50080800  1
  Fe  Fe2  1  0.00061600  0.00032300  0.50080802  1
  Fe  Fe3  1  0.49825194  0.50080802  0.00032302  1
  Fe  Fe4  1  0.00061595  0.50080802  0.00032304  1
  V  V5  1  0.28247597  0.21752401  0.21752401  1
  Al  Al6  1  0.72011091  0.77988904  0.77988906  1
  Al  Al7  1  0.49825597  0.22217001  0.78131703  1
  V  V8  1  0.49825592  0.78131704  0.22217005  1
  V  V9  1  0.35953093  0.64046903  0.64046906  1
  V  V10  1  0.64151895  0.35848102  0.35848102  1
  Al  Al11  1  0.99683492  0.64664803  0.35968103  1
  V  V12  1  0.99683495  0.35968102  0.64664802  1
