# generated using pymatgen
data_Mg10Ga
_symmetry_space_group_name_H-M   'P 1'
_cell_length_a   4.64453220
_cell_length_b   4.64453220
_cell_length_c   11.96091175
_cell_angle_alpha   90.00000000
_cell_angle_beta   90.00000000
_cell_angle_gamma   90.00000000
_symmetry_Int_Tables_number   1
_chemical_formula_structural   Mg10Ga
_chemical_formula_sum   'Mg10 Ga1'
_cell_volume   258.01695351
_cell_formula_units_Z   1
loop_
 _symmetry_equiv_pos_site_id
 _symmetry_equiv_pos_as_xyz
  1  'x, y, z'
loop_
 _atom_site_type_symbol
 _atom_site_label
 _atom_site_symmetry_multiplicity
 _atom_site_fract_x
 _atom_site_fract_y
 _atom_site_fract_z
 _atom_site_occupancy
  Mg  Mg0  1  0.00000000  0.00000000  0.69420201  1
  Mg  Mg1  1  0.00000000  0.00000000  0.30579801  1
  Mg  Mg2  1  0.49999998  0.00000000  0.88016302  1
  Mg  Mg3  1  0.00000000  0.49999998  0.88016302  1
  Mg  Mg4  1  0.49999998  0.00000000  0.11983700  1
  Mg  Mg5  1  0.00000000  0.49999998  0.11983700  1
  Mg  Mg6  1  0.49999998  0.00000000  0.50000001  1
  Mg  Mg7  1  0.00000000  0.49999998  0.50000001  1
  Mg  Mg8  1  0.49999998  0.49999998  0.69605201  1
  Mg  Mg9  1  0.49999998  0.49999998  0.30394801  1
  Ga  Ga10  1  0.00000000  0.00000000  0.00000000  1
