# generated using pymatgen
data_LiMg9N7
_symmetry_space_group_name_H-M   'P 1'
_cell_length_a   5.50301981
_cell_length_b   5.51650572
_cell_length_c   8.34786892
_cell_angle_alpha   83.60980225
_cell_angle_beta   70.75511932
_cell_angle_gamma   70.26488495
_symmetry_Int_Tables_number   1
_chemical_formula_structural   LiMg9N7
_chemical_formula_sum   'Li1 Mg9 N7'
_cell_volume   225.20530104
_cell_formula_units_Z   1
loop_
 _symmetry_equiv_pos_site_id
 _symmetry_equiv_pos_as_xyz
  1  'x, y, z'
loop_
 _atom_site_type_symbol
 _atom_site_label
 _atom_site_symmetry_multiplicity
 _atom_site_fract_x
 _atom_site_fract_y
 _atom_site_fract_z
 _atom_site_occupancy
  Li  Li0  1  0.04771206  0.73154400  0.39145497  1
  Mg  Mg1  1  0.43916708  0.73154400  0.60854496  1
  Mg  Mg2  1  0.56083304  0.26845600  0.39145498  1
  Mg  Mg3  1  0.85155909  0.75860300  0.79562395  1
  Mg  Mg4  1  0.95228806  0.26845600  0.60854497  1
  Mg  Mg5  1  0.26377907  0.76397900  -0.00000002  1
  Mg  Mg6  1  0.35281703  0.24139700  0.79562397  1
  Mg  Mg7  1  0.64718309  0.75860300  0.20437597  1
  Mg  Mg8  1  0.73622105  0.23602100  -0.00000001  1
  Mg  Mg9  1  0.14844103  0.24139700  0.20437599  1
  N  N10  1  0.80035407  0.50000000  0.39929197  1
  N  N11  1  0.19964605  0.50000000  0.60070797  1
  N  N12  1  0.60110106  0.50000000  0.79779796  1
  N  N13  1  0.10072200  0.00000000  0.79855597  1
  N  N14  1  0.39889906  0.50000000  0.20220198  1
  N  N15  1  0.50000002  0.00000000  -0.00000000  1
  N  N16  1  0.89927803  0.00000000  0.20144399  1
