# generated using pymatgen
data_La2TiGe4Ir5
_symmetry_space_group_name_H-M   'P 1'
_cell_length_a   5.13388920
_cell_length_b   6.42882013
_cell_length_c   6.42882013
_cell_angle_alpha   105.02246094
_cell_angle_beta   90.00000000
_cell_angle_gamma   90.00000000
_symmetry_Int_Tables_number   1
_chemical_formula_structural   La2TiGe4Ir5
_chemical_formula_sum   'La2 Ti1 Ge4 Ir5'
_cell_volume   204.93076693
_cell_formula_units_Z   1
loop_
 _symmetry_equiv_pos_site_id
 _symmetry_equiv_pos_as_xyz
  1  'x, y, z'
loop_
 _atom_site_type_symbol
 _atom_site_label
 _atom_site_symmetry_multiplicity
 _atom_site_fract_x
 _atom_site_fract_y
 _atom_site_fract_z
 _atom_site_occupancy
  La  La0  1  0.74999997  0.65341901  0.65341901  1
  La  La1  1  0.24999999  0.34658100  0.34658100  1
  Ir  Ir2  1  0.74999997  0.06024000  0.06024000  1
  Ti  Ti3  1  0.24999999  0.93976001  0.93976001  1
  Ge  Ge4  1  0.74999997  0.47534401  0.08173200  1
  Ge  Ge5  1  0.24999999  0.52465601  0.91826801  1
  Ge  Ge6  1  0.74999997  0.08173200  0.47534401  1
  Ge  Ge7  1  0.24999999  0.91826801  0.52465601  1
  Ir  Ir8  1  -0.00000000  0.20050500  0.79949501  1
  Ir  Ir9  1  -0.00000000  0.79949501  0.20050500  1
  Ir  Ir10  1  0.49999998  0.79949501  0.20050500  1
  Ir  Ir11  1  0.49999998  0.20050500  0.79949501  1
