# generated using pymatgen
data_VMo(HO3)3
_symmetry_space_group_name_H-M   'P 1'
_cell_length_a   3.76432705
_cell_length_b   6.42581892
_cell_length_c   7.70722818
_cell_angle_alpha   67.62006378
_cell_angle_beta   80.11105347
_cell_angle_gamma   75.39841461
_symmetry_Int_Tables_number   1
_chemical_formula_structural   VMo(HO3)3
_chemical_formula_sum   'V1 Mo1 H3 O9'
_cell_volume   166.22066956
_cell_formula_units_Z   1
loop_
 _symmetry_equiv_pos_site_id
 _symmetry_equiv_pos_as_xyz
  1  'x, y, z'
loop_
 _atom_site_type_symbol
 _atom_site_label
 _atom_site_symmetry_multiplicity
 _atom_site_fract_x
 _atom_site_fract_y
 _atom_site_fract_z
 _atom_site_occupancy
  V  V0  1  0.26459199  0.15337500  0.79067901  1
  Mo  Mo1  1  0.74382497  0.86915498  0.20163003  1
  H  H2  1  0.53641097  0.77791898  0.65808503  1
  O  O3  1  0.93499498  0.46305999  0.11279001  1
  H  H4  1  0.26925698  0.66844698  0.82995402  1
  H  H5  1  0.51054599  0.21112099  0.31599201  1
  O  O6  1  0.32632199  0.24924499  0.54772001  1
  O  O7  1  0.69721797  0.75356098  0.44314003  1
  O  O8  1  0.25088597  0.92045197  0.11675403  1
  O  O9  1  0.77534199  0.06589000  0.86338400  1
  O  O10  1  0.13652299  0.40792199  0.83811402  1
  O  O11  1  0.88678097  0.58793498  0.16170002  1
  O  O12  1  0.41642497  0.78918298  0.77948703  1
  O  O13  1  0.61223399  0.18270199  0.19813800  1
