# generated using pymatgen
data_GdB2O7
_symmetry_space_group_name_H-M   'P 1'
_cell_length_a   5.03521490
_cell_length_b   5.03521490
_cell_length_c   6.43790150
_cell_angle_alpha   66.97951508
_cell_angle_beta   66.97951508
_cell_angle_gamma   59.99998856
_symmetry_Int_Tables_number   1
_chemical_formula_structural   GdB2O7
_chemical_formula_sum   'Gd1 B2 O7'
_cell_volume   126.12280639
_cell_formula_units_Z   1
loop_
 _symmetry_equiv_pos_site_id
 _symmetry_equiv_pos_as_xyz
  1  'x, y, z'
loop_
 _atom_site_type_symbol
 _atom_site_label
 _atom_site_symmetry_multiplicity
 _atom_site_fract_x
 _atom_site_fract_y
 _atom_site_fract_z
 _atom_site_occupancy
  O  O0  1  0.00000000  0.00000000  0.00000000  1
  Gd  Gd1  1  0.49999997  0.49999999  0.50000000  1
  B  B2  1  0.24999998  0.25000000  0.25000000  1
  B  B3  1  0.74999995  0.74999999  0.75000001  1
  O  O4  1  0.52171697  0.25000000  0.25000000  1
  O  O5  1  0.02171698  0.47828299  0.75000000  1
  O  O6  1  0.74999997  0.02171700  0.75000000  1
  O  O7  1  0.47828296  0.74999999  0.75000000  1
  O  O8  1  0.97828295  0.52171699  0.25000001  1
  O  O9  1  0.24999996  0.97828298  0.25000001  1
