# generated using pymatgen
data_Li7V3O10
_symmetry_space_group_name_H-M   'P 1'
_cell_length_a   3.89375401
_cell_length_b   5.02711773
_cell_length_c   9.29236889
_cell_angle_alpha   90.00000000
_cell_angle_beta   90.00000000
_cell_angle_gamma   112.78504944
_symmetry_Int_Tables_number   1
_chemical_formula_structural   Li7V3O10
_chemical_formula_sum   'Li7 V3 O10'
_cell_volume   167.69807758
_cell_formula_units_Z   1
loop_
 _symmetry_equiv_pos_site_id
 _symmetry_equiv_pos_as_xyz
  1  'x, y, z'
loop_
 _atom_site_type_symbol
 _atom_site_label
 _atom_site_symmetry_multiplicity
 _atom_site_fract_x
 _atom_site_fract_y
 _atom_site_fract_z
 _atom_site_occupancy
  Li  Li0  1  0.42070305  0.84140604  0.61458901  1
  Li  Li1  1  0.13047302  0.26094601  0.59186301  1
  Li  Li2  1  0.13047302  0.26094601  0.90813701  1
  Li  Li3  1  0.86952705  0.73905404  0.09186300  1
  Li  Li4  1  0.57929701  0.15859401  0.38541100  1
  Li  Li5  1  0.57929701  0.15859401  0.11458900  1
  V  V6  1  0.42070305  0.84140604  0.88541101  1
  Li  Li7  1  0.86952705  0.73905404  0.40813700  1
  O  O8  1  0.26668403  0.53336803  0.75000001  1
  O  O9  1  0.73331603  0.46663202  0.25000000  1
  O  O10  1  0.36428405  0.72856804  0.39090600  1
  O  O11  1  0.63571602  0.27143201  0.60909401  1
  O  O12  1  0.63571602  0.27143201  0.89090601  1
  O  O13  1  0.36428405  0.72856804  0.10909400  1
  O  O14  1  0.09582901  0.19165801  0.37990700  1
  O  O15  1  0.90417105  0.80834204  0.62009301  1
  O  O16  1  0.09582901  0.19165801  0.12009300  1
  O  O17  1  0.90417105  0.80834204  0.87990701  1
  V  V18  1  0.76788503  0.53577003  0.75000001  1
  V  V19  1  0.23211503  0.46423002  0.25000000  1
