# generated using pymatgen
data_Mg
_symmetry_space_group_name_H-M   'P 1'
_cell_length_a   3.13766193
_cell_length_b   5.06611395
_cell_length_c   8.29394722
_cell_angle_alpha   90.00000000
_cell_angle_beta   100.90339661
_cell_angle_gamma   90.00000000
_symmetry_Int_Tables_number   1
_chemical_formula_structural   Mg
_chemical_formula_sum   Mg6
_cell_volume   129.45852046
_cell_formula_units_Z   6
loop_
 _symmetry_equiv_pos_site_id
 _symmetry_equiv_pos_as_xyz
  1  'x, y, z'
loop_
 _atom_site_type_symbol
 _atom_site_label
 _atom_site_symmetry_multiplicity
 _atom_site_fract_x
 _atom_site_fract_y
 _atom_site_fract_z
 _atom_site_occupancy
  Mg  Mg0  1  0.61092401  0.25000000  0.22184800  1
  Mg  Mg1  1  0.38907600  0.75000001  0.77815202  1
  Mg  Mg2  1  0.27766600  0.25000000  0.55533202  1
  Mg  Mg3  1  0.94475801  0.25000000  0.88951602  1
  Mg  Mg4  1  0.72233401  0.75000001  0.44466800  1
  Mg  Mg5  1  0.05524200  0.75000001  0.11048400  1
