# generated using pymatgen
data_Ta2GaNi3
_symmetry_space_group_name_H-M   'P 1'
_cell_length_a   4.90383577
_cell_length_b   4.90383530
_cell_length_c   7.68736315
_cell_angle_alpha   90.00000000
_cell_angle_beta   90.00000000
_cell_angle_gamma   120.00000000
_symmetry_Int_Tables_number   1
_chemical_formula_structural   Ta2GaNi3
_chemical_formula_sum   'Ta4 Ga2 Ni6'
_cell_volume   160.09575695
_cell_formula_units_Z   2
loop_
 _symmetry_equiv_pos_site_id
 _symmetry_equiv_pos_as_xyz
  1  'x, y, z'
loop_
 _atom_site_type_symbol
 _atom_site_label
 _atom_site_symmetry_multiplicity
 _atom_site_fract_x
 _atom_site_fract_y
 _atom_site_fract_z
 _atom_site_occupancy
  Ta  Ta0  1  0.66666668  0.33333334  0.56123999  1
  Ta  Ta1  1  0.33333331  0.66666668  0.43875999  1
  Ta  Ta2  1  0.33333331  0.66666668  0.06124000  1
  Ta  Ta3  1  0.66666668  0.33333334  0.93875998  1
  Ni  Ni4  1  0.17215099  0.34430200  0.74999999  1
  Ni  Ni5  1  0.17215095  0.82785001  0.74999999  1
  Ni  Ni6  1  0.65569898  0.82785001  0.74999999  1
  Ni  Ni7  1  0.82784900  0.65569801  0.25000000  1
  Ni  Ni8  1  0.82784903  0.17215000  0.25000000  1
  Ni  Ni9  1  0.34430100  0.17215000  0.25000000  1
  Ga  Ga10  1  0.00000000  0.00000000  0.49999999  1
  Ga  Ga11  1  0.00000000  0.00000000  0.00000000  1
