# generated using pymatgen
data_ZrS
_symmetry_space_group_name_H-M   'P 1'
_cell_length_a   6.09821320
_cell_length_b   6.96368599
_cell_length_c   6.96368504
_cell_angle_alpha   120.00000763
_cell_angle_beta   90.00000000
_cell_angle_gamma   90.00000000
_symmetry_Int_Tables_number   1
_chemical_formula_structural   ZrS
_chemical_formula_sum   'Zr4 S4'
_cell_volume   256.10113375
_cell_formula_units_Z   4
loop_
 _symmetry_equiv_pos_site_id
 _symmetry_equiv_pos_as_xyz
  1  'x, y, z'
loop_
 _atom_site_type_symbol
 _atom_site_label
 _atom_site_symmetry_multiplicity
 _atom_site_fract_x
 _atom_site_fract_y
 _atom_site_fract_z
 _atom_site_occupancy
  Zr  Zr0  1  0.49999998  0.00000000  -0.00000000  1
  Zr  Zr1  1  0.00000000  0.00000000  0.00000000  1
  S  S2  1  0.24999999  0.29634101  0.29634103  1
  S  S3  1  0.74999998  0.29634101  0.00000002  1
  S  S4  1  0.74999998  0.70365903  0.70365906  1
  Zr  Zr5  1  0.24999999  0.70365903  0.00000005  1
  Zr  Zr6  1  0.24999999  0.00000000  0.70365901  1
  S  S7  1  0.74999998  0.00000000  0.29634100  1
