# generated using pymatgen
data_Mn3O4
_symmetry_space_group_name_H-M   'P 1'
_cell_length_a   5.87221479
_cell_length_b   5.87221479
_cell_length_c   5.87221432
_cell_angle_alpha   60.73489761
_cell_angle_beta   60.73489761
_cell_angle_gamma   60.73489761
_symmetry_Int_Tables_number   1
_chemical_formula_structural   Mn3O4
_chemical_formula_sum   'Mn6 O8'
_cell_volume   145.55716138
_cell_formula_units_Z   2
loop_
 _symmetry_equiv_pos_site_id
 _symmetry_equiv_pos_as_xyz
  1  'x, y, z'
loop_
 _atom_site_type_symbol
 _atom_site_label
 _atom_site_symmetry_multiplicity
 _atom_site_fract_x
 _atom_site_fract_y
 _atom_site_fract_z
 _atom_site_occupancy
  Mn  Mn0  1  0.12525600  0.12525600  0.12525600  1
  Mn  Mn1  1  0.87474403  0.87474401  0.87474401  1
  Mn  Mn2  1  0.50000001  0.00000000  0.50000001  1
  Mn  Mn3  1  0.00000001  0.50000000  0.50000001  1
  Mn  Mn4  1  0.50000001  0.50000000  1.00000002  1
  Mn  Mn5  1  0.50000001  0.50000000  0.50000001  1
  O  O6  1  0.26069001  0.26069000  0.26069000  1
  O  O7  1  0.25984501  0.25984500  0.71210501  1
  O  O8  1  0.71210501  0.25984500  0.25984500  1
  O  O9  1  0.25984502  0.71210501  0.25984500  1
  O  O10  1  0.74015501  0.28789500  0.74015501  1
  O  O11  1  0.28789502  0.74015501  0.74015501  1
  O  O12  1  0.74015502  0.74015501  0.28789500  1
  O  O13  1  0.73931002  0.73931001  0.73931001  1
