# generated using pymatgen
data_Sm2Ge4Pd3
_symmetry_space_group_name_H-M   'P 1'
_cell_length_a   6.03086615
_cell_length_b   7.91569185
_cell_length_c   8.01200199
_cell_angle_alpha   90.00000000
_cell_angle_beta   112.10867310
_cell_angle_gamma   90.00000000
_symmetry_Int_Tables_number   1
_chemical_formula_structural   Sm2Ge4Pd3
_chemical_formula_sum   'Sm4 Ge8 Pd6'
_cell_volume   354.35760772
_cell_formula_units_Z   2
loop_
 _symmetry_equiv_pos_site_id
 _symmetry_equiv_pos_as_xyz
  1  'x, y, z'
loop_
 _atom_site_type_symbol
 _atom_site_label
 _atom_site_symmetry_multiplicity
 _atom_site_fract_x
 _atom_site_fract_y
 _atom_site_fract_z
 _atom_site_occupancy
  Sm  Sm0  1  0.11376800  0.41752701  0.22753600  1
  Sm  Sm1  1  0.88623199  0.58247301  0.77246403  1
  Sm  Sm2  1  0.38623200  0.91752702  0.77246401  1
  Sm  Sm3  1  0.61376799  0.08247300  0.22753602  1
  Pd  Pd4  1  0.00000000  0.00000000  0.00000000  1
  Pd  Pd5  1  0.49999999  0.50000001  0.00000001  1
  Pd  Pd6  1  0.03269800  0.25000000  0.56539600  1
  Pd  Pd7  1  0.46730199  0.75000001  0.43460401  1
  Pd  Pd8  1  0.96730199  0.75000001  0.43460403  1
  Pd  Pd9  1  0.53269799  0.25000000  0.56539602  1
  Ge  Ge10  1  0.20332100  0.25000000  0.90664201  1
  Ge  Ge11  1  0.29667900  0.75000001  0.09335801  1
  Ge  Ge12  1  0.79667899  0.75000001  0.09335802  1
  Ge  Ge13  1  0.70332099  0.25000000  0.90664202  1
  Ge  Ge14  1  0.18467600  0.05096600  0.36935201  1
  Ge  Ge15  1  0.81532399  0.94903402  0.63064802  1
  Ge  Ge16  1  0.31532400  0.55096601  0.63064801  1
  Ge  Ge17  1  0.68467599  0.44903401  0.36935202  1
