# generated using pymatgen
data_Ce4Ti2CS7
_symmetry_space_group_name_H-M   'P 1'
_cell_length_a   4.05269384
_cell_length_b   4.05269384
_cell_length_c   20.09313774
_cell_angle_alpha   90.00000000
_cell_angle_beta   90.00000000
_cell_angle_gamma   120.00000000
_symmetry_Int_Tables_number   1
_chemical_formula_structural   Ce4Ti2CS7
_chemical_formula_sum   'Ce4 Ti2 C1 S7'
_cell_volume   285.80247573
_cell_formula_units_Z   1
loop_
 _symmetry_equiv_pos_site_id
 _symmetry_equiv_pos_as_xyz
  1  'x, y, z'
loop_
 _atom_site_type_symbol
 _atom_site_label
 _atom_site_symmetry_multiplicity
 _atom_site_fract_x
 _atom_site_fract_y
 _atom_site_fract_z
 _atom_site_occupancy
  S  S0  1  0.00000000  0.00000000  0.00000000  1
  S  S1  1  0.00000000  0.00000000  0.49999998  1
  S  S2  1  0.66666669  0.33333335  0.24999999  1
  S  S3  1  0.33333335  0.66666670  0.74999997  1
  S  S4  1  0.66666669  0.33333335  0.87062797  1
  C  C5  1  0.33333335  0.66666670  0.12937200  1
  S  S6  1  0.33333335  0.66666670  0.37062799  1
  S  S7  1  0.66666669  0.33333335  0.62937198  1
  Ce  Ce8  1  0.66666669  0.33333335  0.41251398  1
  Ce  Ce9  1  0.33333335  0.66666670  0.58748598  1
  Ce  Ce10  1  0.33333335  0.66666670  0.91251397  1
  Ce  Ce11  1  0.66666669  0.33333335  0.08748600  1
  Ti  Ti12  1  0.66666669  0.33333335  0.74999997  1
  Ti  Ti13  1  0.33333335  0.66666670  0.24999999  1
