# generated using pymatgen
data_Ac6HoEr
_symmetry_space_group_name_H-M   'P 1'
_cell_length_a   6.18328094
_cell_length_b   7.50806999
_cell_length_c   7.50807047
_cell_angle_alpha   60.00000381
_cell_angle_beta   90.00000000
_cell_angle_gamma   90.00000000
_symmetry_Int_Tables_number   1
_chemical_formula_structural   Ac6HoEr
_chemical_formula_sum   'Ac6 Ho1 Er1'
_cell_volume   301.86049560
_cell_formula_units_Z   1
loop_
 _symmetry_equiv_pos_site_id
 _symmetry_equiv_pos_as_xyz
  1  'x, y, z'
loop_
 _atom_site_type_symbol
 _atom_site_label
 _atom_site_symmetry_multiplicity
 _atom_site_fract_x
 _atom_site_fract_y
 _atom_site_fract_z
 _atom_site_occupancy
  Ac  Ac0  1  0.25000000  0.33333333  0.33333335  1
  Ho  Ho1  1  0.75000001  0.66666666  0.66666669  1
  Ac  Ac2  1  0.75000001  0.67405399  0.16297302  1
  Ac  Ac3  1  0.75000001  0.16297300  0.16297301  1
  Ac  Ac4  1  0.75000001  0.16297300  0.67405401  1
  Er  Er5  1  0.25000000  0.32594600  0.83702702  1
  Ac  Ac6  1  0.25000000  0.83702699  0.83702703  1
  Ac  Ac7  1  0.25000000  0.83702699  0.32594603  1
