# generated using pymatgen
data_Tm2NiGe2
_symmetry_space_group_name_H-M   'P 1'
_cell_length_a   4.10647583
_cell_length_b   4.10647631
_cell_length_c   14.40343761
_cell_angle_alpha   90.00000000
_cell_angle_beta   90.00000000
_cell_angle_gamma   120.00000000
_symmetry_Int_Tables_number   1
_chemical_formula_structural   Tm2NiGe2
_chemical_formula_sum   'Tm4 Ni2 Ge4'
_cell_volume   210.34654356
_cell_formula_units_Z   2
loop_
 _symmetry_equiv_pos_site_id
 _symmetry_equiv_pos_as_xyz
  1  'x, y, z'
loop_
 _atom_site_type_symbol
 _atom_site_label
 _atom_site_symmetry_multiplicity
 _atom_site_fract_x
 _atom_site_fract_y
 _atom_site_fract_z
 _atom_site_occupancy
  Tm  Tm0  1  0.66666672  0.33333335  0.61707602  1
  Tm  Tm1  1  0.33333339  0.66666670  0.38292401  1
  Tm  Tm2  1  0.33333339  0.66666670  0.11707600  1
  Tm  Tm3  1  0.66666672  0.33333335  0.88292402  1
  Ni  Ni4  1  0.00000000  0.00000000  0.75000002  1
  Ni  Ni5  1  0.00000000  0.00000000  0.25000001  1
  Ge  Ge6  1  0.00000000  0.00000000  0.50000001  1
  Ge  Ge7  1  0.00000000  0.00000000  0.00000000  1
  Ge  Ge8  1  0.66666672  0.33333335  0.25000001  1
  Ge  Ge9  1  0.33333339  0.66666670  0.75000002  1
