# generated using pymatgen
data_Pm
_symmetry_space_group_name_H-M   'P 1'
_cell_length_a   5.81962204
_cell_length_b   7.44878197
_cell_length_c   7.44878244
_cell_angle_alpha   60.00000381
_cell_angle_beta   90.00000000
_cell_angle_gamma   90.00000000
_symmetry_Int_Tables_number   1
_chemical_formula_structural   Pm
_chemical_formula_sum   Pm8
_cell_volume   279.63786691
_cell_formula_units_Z   8
loop_
 _symmetry_equiv_pos_site_id
 _symmetry_equiv_pos_as_xyz
  1  'x, y, z'
loop_
 _atom_site_type_symbol
 _atom_site_label
 _atom_site_symmetry_multiplicity
 _atom_site_fract_x
 _atom_site_fract_y
 _atom_site_fract_z
 _atom_site_occupancy
  Pm  Pm0  1  0.74999999  0.64982199  0.17508902  1
  Pm  Pm1  1  0.74999999  0.17508900  0.17508901  1
  Pm  Pm2  1  0.74999999  0.17508900  0.64982201  1
  Pm  Pm3  1  0.25000000  0.35017800  0.82491102  1
  Pm  Pm4  1  0.25000000  0.82491099  0.82491103  1
  Pm  Pm5  1  0.25000000  0.82491099  0.35017803  1
  Pm  Pm6  1  0.25000000  0.33333333  0.33333335  1
  Pm  Pm7  1  0.74999999  0.66666666  0.66666669  1
