# generated using pymatgen
data_LiBiP2O7
_symmetry_space_group_name_H-M   'P 1'
_cell_length_a   4.60700512
_cell_length_b   5.49577045
_cell_length_c   5.49571371
_cell_angle_alpha   104.67690277
_cell_angle_beta   97.74121857
_cell_angle_gamma   97.73665619
_symmetry_Int_Tables_number   1
_chemical_formula_structural   LiBiP2O7
_chemical_formula_sum   'Li1 Bi1 P2 O7'
_cell_volume   131.29604257
_cell_formula_units_Z   1
loop_
 _symmetry_equiv_pos_site_id
 _symmetry_equiv_pos_as_xyz
  1  'x, y, z'
loop_
 _atom_site_type_symbol
 _atom_site_label
 _atom_site_symmetry_multiplicity
 _atom_site_fract_x
 _atom_site_fract_y
 _atom_site_fract_z
 _atom_site_occupancy
  Bi  Bi0  1  0.50000902  0.30969400  0.69034299  1
  Li  Li1  1  0.50000502  0.68877901  0.31121298  1
  P  P2  1  0.90743803  0.21298400  0.21740899  1
  P  P3  1  0.09256101  0.78258901  0.78700898  1
  O  O4  1  0.99999704  0.99206501  0.00793097  1
  O  O5  1  0.72497402  0.07781100  0.37542999  1
  O  O6  1  0.27502002  0.62456501  0.92218698  1
  O  O7  1  0.72545402  0.36651500  0.07665598  1
  O  O8  1  0.27454402  0.92334301  0.63348098  1
  O  O9  1  0.20555101  0.37156900  0.37251499  1
  O  O10  1  0.79444703  0.62748501  0.62842698  1
