# generated using pymatgen
data_RbNaMoO4
_symmetry_space_group_name_H-M   'P 1'
_cell_length_a   6.32551289
_cell_length_b   6.32551289
_cell_length_c   6.92707253
_cell_angle_alpha   76.00379181
_cell_angle_beta   76.00379181
_cell_angle_gamma   70.81385803
_symmetry_Int_Tables_number   1
_chemical_formula_structural   RbNaMoO4
_chemical_formula_sum   'Rb2 Na2 Mo2 O8'
_cell_volume   249.98143430
_cell_formula_units_Z   2
loop_
 _symmetry_equiv_pos_site_id
 _symmetry_equiv_pos_as_xyz
  1  'x, y, z'
loop_
 _atom_site_type_symbol
 _atom_site_label
 _atom_site_symmetry_multiplicity
 _atom_site_fract_x
 _atom_site_fract_y
 _atom_site_fract_z
 _atom_site_occupancy
  Na  Na0  1  0.22179198  0.22179199  0.88730799  1
  Na  Na1  1  0.77820794  0.77820798  0.11269204  1
  Mo  Mo2  1  0.63783595  0.63783598  0.73099402  1
  Mo  Mo3  1  0.36216397  0.36216399  0.26900601  1
  Rb  Rb4  1  0.98951293  0.98951297  0.76747904  1
  Rb  Rb5  1  0.01048700  0.01048700  0.23252100  1
  O  O6  1  0.50881995  0.89011298  0.84712102  1
  O  O7  1  0.89011295  0.50881999  0.84712102  1
  O  O8  1  0.70670395  0.70670398  0.46456803  1
  O  O9  1  0.10988698  0.49117999  0.15287901  1
  O  O10  1  0.29329598  0.29329599  0.53543200  1
  O  O11  1  0.49117998  0.10988700  0.15287901  1
  O  O12  1  0.45717097  0.45717099  0.79757201  1
  O  O13  1  0.54282896  0.54282899  0.20242802  1
