# generated using pymatgen
data_Bi3WO10
_symmetry_space_group_name_H-M   'P 1'
_cell_length_a   5.61159992
_cell_length_b   5.61159992
_cell_length_c   7.68024492
_cell_angle_alpha   69.88587189
_cell_angle_beta   69.88587189
_cell_angle_gamma   71.72849274
_symmetry_Int_Tables_number   1
_chemical_formula_structural   Bi3WO10
_chemical_formula_sum   'Bi3 W1 O10'
_cell_volume   207.95518607
_cell_formula_units_Z   1
loop_
 _symmetry_equiv_pos_site_id
 _symmetry_equiv_pos_as_xyz
  1  'x, y, z'
loop_
 _atom_site_type_symbol
 _atom_site_label
 _atom_site_symmetry_multiplicity
 _atom_site_fract_x
 _atom_site_fract_y
 _atom_site_fract_z
 _atom_site_occupancy
  Bi  Bi0  1  0.45789899  0.54210101  0.74999996  1
  Bi  Bi1  1  0.54210100  0.45789901  0.24999997  1
  Bi  Bi2  1  0.00000000  0.00000000  0.00000000  1
  W  W3  1  0.00000000  0.00000000  0.49999998  1
  O  O4  1  0.74780199  0.78961002  0.61945495  1
  O  O5  1  0.21039000  0.25219801  0.88054496  1
  O  O6  1  0.25219800  0.21039001  0.38054498  1
  O  O7  1  0.78960999  0.74780202  0.11945496  1
  O  O8  1  0.07696997  0.92303002  0.74999996  1
  O  O9  1  0.92303001  0.07697000  0.24999997  1
  O  O10  1  0.30522398  0.71771002  0.02860198  1
  O  O11  1  0.28228998  0.69477602  0.47139797  1
  O  O12  1  0.69477600  0.28229001  0.97139795  1
  O  O13  1  0.71771000  0.30522401  0.52860196  1
