# generated using pymatgen
data_Mg2O3
_symmetry_space_group_name_H-M   'P 1'
_cell_length_a   5.12846661
_cell_length_b   5.12846661
_cell_length_c   5.79126453
_cell_angle_alpha   63.71885681
_cell_angle_beta   63.71885681
_cell_angle_gamma   59.99999237
_symmetry_Int_Tables_number   1
_chemical_formula_structural   Mg2O3
_chemical_formula_sum   'Mg4 O6'
_cell_volume   113.36616389
_cell_formula_units_Z   2
loop_
 _symmetry_equiv_pos_site_id
 _symmetry_equiv_pos_as_xyz
  1  'x, y, z'
loop_
 _atom_site_type_symbol
 _atom_site_label
 _atom_site_symmetry_multiplicity
 _atom_site_fract_x
 _atom_site_fract_y
 _atom_site_fract_z
 _atom_site_occupancy
  O  O0  1  0.91991499  0.58008500  0.25000004  1
  O  O1  1  0.58008500  0.25000000  0.25000002  1
  O  O2  1  0.25000000  0.91991500  0.25000003  1
  O  O3  1  0.75000000  0.08008500  0.75000000  1
  O  O4  1  0.41991500  0.75000000  0.75000002  1
  O  O5  1  0.08008500  0.41991500  0.74999999  1
  Mg  Mg6  1  0.83773199  0.83773200  0.48680404  1
  Mg  Mg7  1  0.66226800  0.66226800  0.01319604  1
  Mg  Mg8  1  0.33773200  0.33773200  0.98680399  1
  Mg  Mg9  1  0.16226800  0.16226800  0.51319600  1
