# generated using pymatgen
data_ZnSeO3
_symmetry_space_group_name_H-M   'P 1'
_cell_length_a   4.63004017
_cell_length_b   4.63004017
_cell_length_c   4.63004065
_cell_angle_alpha   84.61646271
_cell_angle_beta   84.61646271
_cell_angle_gamma   84.61646271
_symmetry_Int_Tables_number   1
_chemical_formula_structural   ZnSeO3
_chemical_formula_sum   'Zn1 Se1 O3'
_cell_volume   98.01915312
_cell_formula_units_Z   1
loop_
 _symmetry_equiv_pos_site_id
 _symmetry_equiv_pos_as_xyz
  1  'x, y, z'
loop_
 _atom_site_type_symbol
 _atom_site_label
 _atom_site_symmetry_multiplicity
 _atom_site_fract_x
 _atom_site_fract_y
 _atom_site_fract_z
 _atom_site_occupancy
  Zn  Zn0  1  0.99554899  0.99554901  0.99554910  1
  Se  Se1  1  0.49818399  0.49818401  0.49818405  1
  O  O2  1  0.13287299  0.56369701  0.56369704  1
  O  O3  1  0.56369700  0.13287300  0.56369704  1
  O  O4  1  0.56369699  0.56369701  0.13287304  1
