# generated using pymatgen
data_Na5ZrO6
_symmetry_space_group_name_H-M   'P 1'
_cell_length_a   6.02392578
_cell_length_b   6.05015516
_cell_length_c   7.21209002
_cell_angle_alpha   90.00000000
_cell_angle_beta   90.00000000
_cell_angle_gamma   119.85668945
_symmetry_Int_Tables_number   1
_chemical_formula_structural   Na5ZrO6
_chemical_formula_sum   'Na5 Zr1 O6'
_cell_volume   227.96241390
_cell_formula_units_Z   1
loop_
 _symmetry_equiv_pos_site_id
 _symmetry_equiv_pos_as_xyz
  1  'x, y, z'
loop_
 _atom_site_type_symbol
 _atom_site_label
 _atom_site_symmetry_multiplicity
 _atom_site_fract_x
 _atom_site_fract_y
 _atom_site_fract_z
 _atom_site_occupancy
  Na  Na0  1  0.08267198  0.38494399  0.75474600  1
  Na  Na1  1  0.69772798  0.61505599  0.24525400  1
  Na  Na2  1  0.08267198  0.38494399  0.24525400  1
  Na  Na3  1  0.69772798  0.61505599  0.75474600  1
  Na  Na4  1  0.37500695  0.99999998  0.50000000  1
  Zr  Zr5  1  0.43881395  0.99999998  1.00000000  1
  O  O6  1  0.39763399  0.31953999  1.00000000  1
  O  O7  1  0.07809396  0.68045998  1.00000000  1
  O  O8  1  0.63709696  0.99999998  0.76645500  1
  O  O9  1  0.63709696  0.99999998  0.23354500  1
  O  O10  1  0.96410799  0.64657199  0.50000000  1
  O  O11  1  0.31753599  0.35342799  0.50000000  1
