# generated using pymatgen
data_Na4LiO9
_symmetry_space_group_name_H-M   'P 1'
_cell_length_a   5.00885391
_cell_length_b   6.54403639
_cell_length_c   6.54403639
_cell_angle_alpha   70.42809296
_cell_angle_beta   67.49874115
_cell_angle_gamma   67.49874115
_symmetry_Int_Tables_number   1
_chemical_formula_structural   Na4LiO9
_chemical_formula_sum   'Na4 Li1 O9'
_cell_volume   178.56299480
_cell_formula_units_Z   1
loop_
 _symmetry_equiv_pos_site_id
 _symmetry_equiv_pos_as_xyz
  1  'x, y, z'
loop_
 _atom_site_type_symbol
 _atom_site_label
 _atom_site_symmetry_multiplicity
 _atom_site_fract_x
 _atom_site_fract_y
 _atom_site_fract_z
 _atom_site_occupancy
  Na  Na0  1  0.85484902  0.79985700  0.49044593  1
  Na  Na1  1  0.14515100  0.20014300  0.50955398  1
  Na  Na2  1  0.64515202  0.50955300  0.20014296  1
  Na  Na3  1  0.35484801  0.49044700  0.79985695  1
  O  O4  1  0.75000002  0.00000000  -0.00000001  1
  Li  Li5  1  0.25000001  1.00000001  -0.00000006  1
  O  O6  1  0.57929301  0.09250500  0.74890798  1
  O  O7  1  0.42070701  0.90749501  0.25109194  1
  O  O8  1  0.92070602  0.25109300  0.90749496  1
  O  O9  1  0.07929400  0.74890700  0.09250495  1
  O  O10  1  0.62918302  0.21389800  0.52773697  1
  O  O11  1  0.37081701  0.78610200  0.47226294  1
  O  O12  1  0.12918201  0.52773800  0.21389796  1
  O  O13  1  0.87081802  0.47226200  0.78610195  1
