# generated using pymatgen
data_ZrTi9CoSn6
_symmetry_space_group_name_H-M   'P 1'
_cell_length_a   7.44574165
_cell_length_b   7.44574165
_cell_length_c   7.44574165
_cell_angle_alpha   109.47122192
_cell_angle_beta   109.47122192
_cell_angle_gamma   109.47122192
_symmetry_Int_Tables_number   1
_chemical_formula_structural   ZrTi9CoSn6
_chemical_formula_sum   'Zr1 Ti9 Co1 Sn6'
_cell_volume   317.76201334
_cell_formula_units_Z   1
loop_
 _symmetry_equiv_pos_site_id
 _symmetry_equiv_pos_as_xyz
  1  'x, y, z'
loop_
 _atom_site_type_symbol
 _atom_site_label
 _atom_site_symmetry_multiplicity
 _atom_site_fract_x
 _atom_site_fract_y
 _atom_site_fract_z
 _atom_site_occupancy
  Zr  Zr0  1  0.50000004  0.50000003  0.50000005  1
  Ti  Ti1  1  1.00000005  0.50000003  0.00000005  1
  Ti  Ti2  1  0.00000000  0.00000000  0.50000001  1
  Ti  Ti3  1  0.50000001  0.00000000  0.00000001  1
  Ti  Ti4  1  0.50000006  0.75000004  0.25000006  1
  Ti  Ti5  1  0.75000003  0.25000001  0.50000004  1
  Ti  Ti6  1  0.25000004  0.50000003  0.75000004  1
  Ti  Ti7  1  0.25000005  0.75000004  0.50000005  1
  Ti  Ti8  1  0.50000003  0.25000001  0.75000003  1
  Ti  Ti9  1  0.75000005  0.50000003  0.25000005  1
  Sn  Sn10  1  1.00000007  0.71836504  0.71836507  1
  Sn  Sn11  1  0.71836506  0.71836504  0.00000006  1
  Sn  Sn12  1  0.71836501  0.00000000  0.71836503  1
  Sn  Sn13  1  1.00000004  0.28163501  0.28163504  1
  Sn  Sn14  1  0.28163502  0.28163501  0.00000002  1
  Sn  Sn15  1  0.28163501  0.00000000  0.28163501  1
  Co  Co16  1  0.00000000  0.00000000  0.00000000  1
