# generated using pymatgen
data_Ce4Sn5Pd3
_symmetry_space_group_name_H-M   'P 1'
_cell_length_a   4.68138885
_cell_length_b   7.40474081
_cell_length_c   7.97810411
_cell_angle_alpha   90.00000000
_cell_angle_beta   90.00000000
_cell_angle_gamma   90.00000000
_symmetry_Int_Tables_number   1
_chemical_formula_structural   Ce4Sn5Pd3
_chemical_formula_sum   'Ce4 Sn5 Pd3'
_cell_volume   276.55675954
_cell_formula_units_Z   1
loop_
 _symmetry_equiv_pos_site_id
 _symmetry_equiv_pos_as_xyz
  1  'x, y, z'
loop_
 _atom_site_type_symbol
 _atom_site_label
 _atom_site_symmetry_multiplicity
 _atom_site_fract_x
 _atom_site_fract_y
 _atom_site_fract_z
 _atom_site_occupancy
  Ce  Ce0  1  0.25000001  0.49481701  0.20262900  1
  Ce  Ce1  1  0.75000002  0.50518301  0.79737099  1
  Ce  Ce2  1  0.75000002  0.00518300  0.70262899  1
  Ce  Ce3  1  0.25000001  0.99481703  0.29737100  1
  Sn  Sn4  1  0.25000001  0.80102302  0.90571399  1
  Pd  Pd5  1  0.75000002  0.19897701  0.09428600  1
  Pd  Pd6  1  0.75000002  0.69897702  0.40571399  1
  Pd  Pd7  1  0.25000001  0.30102301  0.59428599  1
  Sn  Sn8  1  0.25000001  0.68428602  0.57900799  1
  Sn  Sn9  1  0.75000002  0.31571401  0.42099199  1
  Sn  Sn10  1  0.75000002  0.81571402  0.07900800  1
  Sn  Sn11  1  0.25000001  0.18428600  0.92099199  1
