# generated using pymatgen
data_Tm2AlC5
_symmetry_space_group_name_H-M   'P 1'
_cell_length_a   3.20469594
_cell_length_b   3.20469594
_cell_length_c   11.26351070
_cell_angle_alpha   90.00000000
_cell_angle_beta   90.00000000
_cell_angle_gamma   120.00000000
_symmetry_Int_Tables_number   1
_chemical_formula_structural   Tm2AlC5
_chemical_formula_sum   'Tm2 Al1 C5'
_cell_volume   100.17931739
_cell_formula_units_Z   1
loop_
 _symmetry_equiv_pos_site_id
 _symmetry_equiv_pos_as_xyz
  1  'x, y, z'
loop_
 _atom_site_type_symbol
 _atom_site_label
 _atom_site_symmetry_multiplicity
 _atom_site_fract_x
 _atom_site_fract_y
 _atom_site_fract_z
 _atom_site_occupancy
  C  C0  1  0.66666667  0.33333332  0.59938602  1
  C  C1  1  0.33333332  0.66666664  0.09938600  1
  C  C2  1  0.33333332  0.66666664  0.40061401  1
  C  C3  1  0.66666667  0.33333332  0.90061402  1
  Al  Al4  1  0.00000000  0.00000000  0.50000001  1
  C  C5  1  0.00000000  0.00000000  0.00000000  1
  Tm  Tm6  1  0.33333332  0.66666664  0.75000002  1
  Tm  Tm7  1  0.66666667  0.33333332  0.25000001  1
