# generated using pymatgen
data_Ag2Te
_symmetry_space_group_name_H-M   'P 1'
_cell_length_a   3.46667194
_cell_length_b   3.46667194
_cell_length_c   4.95855904
_cell_angle_alpha   110.46067810
_cell_angle_beta   110.46067810
_cell_angle_gamma   90.00000000
_symmetry_Int_Tables_number   1
_chemical_formula_structural   Ag2Te
_chemical_formula_sum   'Ag2 Te1'
_cell_volume   51.79998659
_cell_formula_units_Z   1
loop_
 _symmetry_equiv_pos_site_id
 _symmetry_equiv_pos_as_xyz
  1  'x, y, z'
loop_
 _atom_site_type_symbol
 _atom_site_label
 _atom_site_symmetry_multiplicity
 _atom_site_fract_x
 _atom_site_fract_y
 _atom_site_fract_z
 _atom_site_occupancy
  Te  Te0  1  0.00000000  0.00000000  0.00000000  1
  Ag  Ag1  1  0.66418002  0.66418002  0.32836003  1
  Ag  Ag2  1  0.33582001  0.33582001  0.67164003  1
