# generated using pymatgen
data_AgO
_symmetry_space_group_name_H-M   'P 1'
_cell_length_a   3.10692596
_cell_length_b   4.99959803
_cell_length_c   11.02333164
_cell_angle_alpha   90.00000000
_cell_angle_beta   90.00000000
_cell_angle_gamma   90.00000000
_symmetry_Int_Tables_number   1
_chemical_formula_structural   AgO
_chemical_formula_sum   'Ag6 O6'
_cell_volume   171.22960940
_cell_formula_units_Z   6
loop_
 _symmetry_equiv_pos_site_id
 _symmetry_equiv_pos_as_xyz
  1  'x, y, z'
loop_
 _atom_site_type_symbol
 _atom_site_label
 _atom_site_symmetry_multiplicity
 _atom_site_fract_x
 _atom_site_fract_y
 _atom_site_fract_z
 _atom_site_occupancy
  Ag  Ag0  1  0.75000001  0.73408500  0.29663201  1
  O  O1  1  0.25000000  0.26591500  0.70336802  1
  Ag  Ag2  1  0.25000000  0.75395200  0.54557802  1
  O  O3  1  0.75000001  0.76591500  0.79663203  1
  Ag  Ag4  1  0.25000000  0.74604800  0.04557800  1
  O  O5  1  0.75000001  0.24604800  0.45442201  1
  O  O6  1  0.75000001  0.25395200  0.95442203  1
  Ag  Ag7  1  0.25000000  0.23408500  0.20336801  1
  O  O8  1  0.25000000  0.99093199  0.37513901  1
  Ag  Ag9  1  0.75000001  0.00906800  0.62486102  1
  Ag  Ag10  1  0.25000000  0.50906800  0.87513903  1
  O  O11  1  0.75000001  0.49093200  0.12486100  1
