# generated using pymatgen
data_ZrTi5Fe2Si4Sb
_symmetry_space_group_name_H-M   'P 1'
_cell_length_a   5.06293011
_cell_length_b   6.62483740
_cell_length_c   6.62483740
_cell_angle_alpha   80.86197662
_cell_angle_beta   67.53510284
_cell_angle_gamma   67.53510284
_symmetry_Int_Tables_number   1
_chemical_formula_structural   ZrTi5Fe2Si4Sb
_chemical_formula_sum   'Zr1 Ti5 Fe2 Si4 Sb1'
_cell_volume   189.73808676
_cell_formula_units_Z   1
loop_
 _symmetry_equiv_pos_site_id
 _symmetry_equiv_pos_as_xyz
  1  'x, y, z'
loop_
 _atom_site_type_symbol
 _atom_site_label
 _atom_site_symmetry_multiplicity
 _atom_site_fract_x
 _atom_site_fract_y
 _atom_site_fract_z
 _atom_site_occupancy
  Zr  Zr0  1  0.00000000  0.00000000  0.00000000  1
  Ti  Ti1  1  0.35024198  0.64975800  0.64975795  1
  Ti  Ti2  1  0.64975799  0.35024200  0.35024196  1
  Ti  Ti3  1  -0.00000001  0.65383000  0.34616997  1
  Ti  Ti4  1  -0.00000001  0.34617000  0.65382998  1
  Ti  Ti5  1  0.29387899  0.20612100  0.20612098  1
  Sb  Sb6  1  0.70612098  0.79387900  0.79387894  1
  Si  Si7  1  0.50000000  0.00000000  0.49999998  1
  Fe  Fe8  1  0.99999999  0.00000000  0.49999997  1
  Si  Si9  1  0.49999999  0.50000000  -0.00000003  1
  Fe  Fe10  1  0.99999998  0.50000000  0.99999994  1
  Si  Si11  1  0.49999999  0.22610300  0.77389697  1
  Si  Si12  1  0.49999998  0.77389700  0.22610295  1
