# generated using pymatgen
data_Sm2InPt3
_symmetry_space_group_name_H-M   'P 1'
_cell_length_a   4.10603189
_cell_length_b   4.10603189
_cell_length_c   8.95204544
_cell_angle_alpha   90.00000000
_cell_angle_beta   90.00000000
_cell_angle_gamma   90.00000000
_symmetry_Int_Tables_number   1
_chemical_formula_structural   Sm2InPt3
_chemical_formula_sum   'Sm2 In1 Pt3'
_cell_volume   150.92699149
_cell_formula_units_Z   1
loop_
 _symmetry_equiv_pos_site_id
 _symmetry_equiv_pos_as_xyz
  1  'x, y, z'
loop_
 _atom_site_type_symbol
 _atom_site_label
 _atom_site_symmetry_multiplicity
 _atom_site_fract_x
 _atom_site_fract_y
 _atom_site_fract_z
 _atom_site_occupancy
  Sm  Sm0  1  0.00000000  0.50000001  0.71595096  1
  Sm  Sm1  1  0.50000001  0.00000000  0.28404899  1
  Pt  Pt2  1  0.00000000  0.00000000  0.00000000  1
  In  In3  1  0.50000001  0.50000001  -0.00000000  1
  Pt  Pt4  1  0.00000000  0.50000001  0.36607598  1
  Pt  Pt5  1  0.50000001  0.00000000  0.63392397  1
