# generated using pymatgen
data_Cu2B
_symmetry_space_group_name_H-M   'P 1'
_cell_length_a   3.48182201
_cell_length_b   3.88098502
_cell_length_c   10.41383457
_cell_angle_alpha   90.00000000
_cell_angle_beta   90.00000000
_cell_angle_gamma   90.00000000
_symmetry_Int_Tables_number   1
_chemical_formula_structural   Cu2B
_chemical_formula_sum   'Cu8 B4'
_cell_volume   140.72109564
_cell_formula_units_Z   4
loop_
 _symmetry_equiv_pos_site_id
 _symmetry_equiv_pos_as_xyz
  1  'x, y, z'
loop_
 _atom_site_type_symbol
 _atom_site_label
 _atom_site_symmetry_multiplicity
 _atom_site_fract_x
 _atom_site_fract_y
 _atom_site_fract_z
 _atom_site_occupancy
  B  B0  1  0.75000000  0.74806700  0.88139004  1
  B  B1  1  0.75000000  0.75193300  0.38139002  1
  B  B2  1  0.25000000  0.25193300  0.11861000  1
  B  B3  1  0.25000000  0.24806700  0.61861003  1
  Cu  Cu4  1  0.75000000  0.43117700  0.21394501  1
  Cu  Cu5  1  0.75000000  0.06882300  0.71394503  1
  Cu  Cu6  1  0.75000000  0.26339600  0.47483202  1
  Cu  Cu7  1  0.75000000  0.23660400  0.97483204  1
  Cu  Cu8  1  0.25000000  0.73660400  0.52516802  1
  Cu  Cu9  1  0.25000000  0.76339600  0.02516800  1
  Cu  Cu10  1  0.25000000  0.56882300  0.78605503  1
  Cu  Cu11  1  0.25000000  0.93117699  0.28605501  1
