# generated using pymatgen
data_SmLu3Al11Re
_symmetry_space_group_name_H-M   'P 1'
_cell_length_a   5.80829716
_cell_length_b   7.10158300
_cell_length_c   7.69356489
_cell_angle_alpha   90.00000000
_cell_angle_beta   90.00000000
_cell_angle_gamma   90.00000000
_symmetry_Int_Tables_number   1
_chemical_formula_structural   SmLu3Al11Re
_chemical_formula_sum   'Sm1 Lu3 Al11 Re1'
_cell_volume   317.34496767
_cell_formula_units_Z   1
loop_
 _symmetry_equiv_pos_site_id
 _symmetry_equiv_pos_as_xyz
  1  'x, y, z'
loop_
 _atom_site_type_symbol
 _atom_site_label
 _atom_site_symmetry_multiplicity
 _atom_site_fract_x
 _atom_site_fract_y
 _atom_site_fract_z
 _atom_site_occupancy
  Sm  Sm0  1  0.35117599  0.75000000  0.03042200  1
  Lu  Lu1  1  0.14882400  0.75000000  0.53042201  1
  Lu  Lu2  1  0.64882398  0.25000000  0.96957801  1
  Lu  Lu3  1  0.85117598  0.25000000  0.46957801  1
  Al  Al4  1  0.64764798  0.75000000  0.37710701  1
  Al  Al5  1  0.85235198  0.75000000  0.87710701  1
  Al  Al6  1  0.35235199  0.25000000  0.62289301  1
  Re  Re7  1  0.14764800  0.25000000  0.12289300  1
  Al  Al8  1  0.91112898  0.55308800  0.17895500  1
  Al  Al9  1  0.58887098  0.94691200  0.67895501  1
  Al  Al10  1  0.08887100  0.05308800  0.82104501  1
  Al  Al11  1  0.41112899  0.44691200  0.32104500  1
  Al  Al12  1  0.08887100  0.44691200  0.82104501  1
  Al  Al13  1  0.41112899  0.05308800  0.32104500  1
  Al  Al14  1  0.91112898  0.94691200  0.17895500  1
  Al  Al15  1  0.58887098  0.55308800  0.67895501  1
