# generated using pymatgen
data_Li4Mn2F13
_symmetry_space_group_name_H-M   'P 1'
_cell_length_a   5.81291103
_cell_length_b   5.95587206
_cell_length_c   6.22542572
_cell_angle_alpha   99.74572754
_cell_angle_beta   100.08855438
_cell_angle_gamma   98.83568573
_symmetry_Int_Tables_number   1
_chemical_formula_structural   Li4Mn2F13
_chemical_formula_sum   'Li4 Mn2 F13'
_cell_volume   205.37193568
_cell_formula_units_Z   1
loop_
 _symmetry_equiv_pos_site_id
 _symmetry_equiv_pos_as_xyz
  1  'x, y, z'
loop_
 _atom_site_type_symbol
 _atom_site_label
 _atom_site_symmetry_multiplicity
 _atom_site_fract_x
 _atom_site_fract_y
 _atom_site_fract_z
 _atom_site_occupancy
  Li  Li0  1  0.68307099  0.42842399  0.87486107  1
  Li  Li1  1  0.14388099  0.34906899  0.60800504  1
  Li  Li2  1  0.87559098  0.66680299  0.39273407  1
  Li  Li3  1  0.30513998  0.57412599  0.12296504  1
  Mn  Mn4  1  0.60126100  0.15507600  0.34104504  1
  F  F5  1  0.97771197  0.99701498  0.98900111  1
  Mn  Mn6  1  0.40885297  0.84873999  0.67020407  1
  F  F7  1  0.66069200  0.00976300  0.86925005  1
  F  F8  1  0.08880499  0.29233700  0.94763804  1
  F  F9  1  0.38235600  0.15330700  0.55133103  1
  F  F10  1  0.92420400  0.13582800  0.28933804  1
  F  F11  1  0.40561798  0.57877199  0.82291506  1
  F  F12  1  0.80130399  0.39301399  0.58679006  1
  F  F13  1  0.21153498  0.60747099  0.41866005  1
  F  F14  1  0.58503299  0.40301299  0.18399204  1
  F  F15  1  0.07069197  0.86884599  0.71064807  1
  F  F16  1  0.62718797  0.85299299  0.42900807  1
  F  F17  1  0.91783998  0.70323799  0.06189406  1
  F  F18  1  0.32922197  0.98216198  0.12972306  1
