# generated using pymatgen
data_Ce5Ge9
_symmetry_space_group_name_H-M   'P 1'
_cell_length_a   4.04871321
_cell_length_b   5.72012806
_cell_length_c   14.30488491
_cell_angle_alpha   90.01071930
_cell_angle_beta   90.03319550
_cell_angle_gamma   69.31274414
_symmetry_Int_Tables_number   1
_chemical_formula_structural   Ce5Ge9
_chemical_formula_sum   'Ce5 Ge9'
_cell_volume   309.92838884
_cell_formula_units_Z   1
loop_
 _symmetry_equiv_pos_site_id
 _symmetry_equiv_pos_as_xyz
  1  'x, y, z'
loop_
 _atom_site_type_symbol
 _atom_site_label
 _atom_site_symmetry_multiplicity
 _atom_site_fract_x
 _atom_site_fract_y
 _atom_site_fract_z
 _atom_site_occupancy
  Ce  Ce0  1  0.33550501  0.32972699  0.09699600  1
  Ge  Ge1  1  0.66107503  0.67972698  0.90301498  1
  Ce  Ce2  1  0.34067901  0.32007999  0.40386499  1
  Ce  Ce3  1  0.65593503  0.68055298  0.59760699  1
  Ce  Ce4  1  0.05520500  0.89001097  0.25173600  1
  Ce  Ce5  1  0.94175804  0.11434700  0.74922699  1
  Ge  Ge6  1  0.78772003  0.43151699  0.25059400  1
  Ge  Ge7  1  0.21012301  0.57152298  0.75015399  1
  Ge  Ge8  1  0.62560603  0.74683498  0.11003000  1
  Ge  Ge9  1  0.99940305  0.00218200  0.00139800  1
  Ge  Ge10  1  0.63164103  0.73768898  0.39186900  1
  Ge  Ge11  1  0.37171402  0.26025699  0.89076698  1
  Ge  Ge12  1  0.00044399  0.99436897  0.49842899  1
  Ge  Ge13  1  0.36570302  0.26319499  0.60911699  1
