# generated using pymatgen
data_Rb2MgBr4
_symmetry_space_group_name_H-M   'P 1'
_cell_length_a   7.88800001
_cell_length_b   8.18371296
_cell_length_c   9.82743645
_cell_angle_alpha   90.00000000
_cell_angle_beta   71.78319550
_cell_angle_gamma   90.00000000
_symmetry_Int_Tables_number   1
_chemical_formula_structural   Rb2MgBr4
_chemical_formula_sum   'Rb4 Mg2 Br8'
_cell_volume   602.59630371
_cell_formula_units_Z   2
loop_
 _symmetry_equiv_pos_site_id
 _symmetry_equiv_pos_as_xyz
  1  'x, y, z'
loop_
 _atom_site_type_symbol
 _atom_site_label
 _atom_site_symmetry_multiplicity
 _atom_site_fract_x
 _atom_site_fract_y
 _atom_site_fract_z
 _atom_site_occupancy
  Rb  Rb0  1  0.21798600  0.25000000  0.44843897  1
  Rb  Rb1  1  0.78201401  0.75000000  0.55156094  1
  Rb  Rb2  1  0.26626800  0.25000000  0.93184795  1
  Rb  Rb3  1  0.73373201  0.75000000  0.06815197  1
  Mg  Mg4  1  0.77768101  0.25000000  0.29929496  1
  Mg  Mg5  1  0.22231900  0.75000000  0.70070496  1
  Br  Br6  1  0.60376001  0.25000000  0.57043695  1
  Br  Br7  1  0.39624001  0.75000000  0.42956296  1
  Br  Br8  1  0.00762800  0.99844200  0.75987696  1
  Br  Br9  1  0.99237201  0.00155800  0.24012295  1
  Br  Br10  1  0.99237201  0.49844200  0.24012295  1
  Br  Br11  1  0.00762800  0.50155800  0.75987696  1
  Br  Br12  1  0.58353901  0.25000000  0.12942797  1
  Br  Br13  1  0.41646101  0.75000000  0.87057194  1
