# generated using pymatgen
data_Li4O3
_symmetry_space_group_name_H-M   'P 1'
_cell_length_a   5.35636616
_cell_length_b   5.43397951
_cell_length_c   5.83879328
_cell_angle_alpha   90.84355164
_cell_angle_beta   115.95434570
_cell_angle_gamma   119.46456146
_symmetry_Int_Tables_number   1
_chemical_formula_structural   Li4O3
_chemical_formula_sum   'Li8 O6'
_cell_volume   127.17059144
_cell_formula_units_Z   2
loop_
 _symmetry_equiv_pos_site_id
 _symmetry_equiv_pos_as_xyz
  1  'x, y, z'
loop_
 _atom_site_type_symbol
 _atom_site_label
 _atom_site_symmetry_multiplicity
 _atom_site_fract_x
 _atom_site_fract_y
 _atom_site_fract_z
 _atom_site_occupancy
  Li  Li0  1  0.39186195  0.85772398  0.62582700  1
  Li  Li1  1  0.73375896  0.35569199  0.03623501  1
  Li  Li2  1  0.85472294  0.76161698  0.34662401  1
  Li  Li3  1  0.15061998  0.25420399  0.63192899  1
  Li  Li4  1  0.29323396  0.63560998  0.99820598  1
  Li  Li5  1  0.59556898  0.10491000  0.35763099  1
  Li  Li6  1  0.70486895  0.50808299  0.62079699  1
  Li  Li7  1  0.00637600  0.00958600  0.00514300  1
  O  O8  1  0.15327396  0.78210898  0.23074001  1
  O  O9  1  0.55401595  0.63303398  0.80246299  1
  O  O10  1  0.12115295  0.90190998  0.74689200  1
  O  O11  1  0.85867097  0.09077700  0.23666700  1
  O  O12  1  0.46636997  0.37095899  0.22304400  1
  O  O13  1  0.84250296  0.23178599  0.75980098  1
