# generated using pymatgen
data_Ba2MgCd8
_symmetry_space_group_name_H-M   'P 1'
_cell_length_a   3.93458200
_cell_length_b   9.38288116
_cell_length_c   9.38288116
_cell_angle_alpha   61.80731201
_cell_angle_beta   77.89709473
_cell_angle_gamma   77.89709473
_symmetry_Int_Tables_number   1
_chemical_formula_structural   Ba2MgCd8
_chemical_formula_sum   'Ba2 Mg1 Cd8'
_cell_volume   296.04435573
_cell_formula_units_Z   1
loop_
 _symmetry_equiv_pos_site_id
 _symmetry_equiv_pos_as_xyz
  1  'x, y, z'
loop_
 _atom_site_type_symbol
 _atom_site_label
 _atom_site_symmetry_multiplicity
 _atom_site_fract_x
 _atom_site_fract_y
 _atom_site_fract_z
 _atom_site_occupancy
  Mg  Mg0  1  0.12919099  0.28596799  0.45564999  1
  Cd  Cd1  1  0.87080899  0.54434997  0.71403198  1
  Cd  Cd2  1  0.31677199  0.30629399  0.06016300  1
  Cd  Cd3  1  0.68322897  0.93983596  0.69370599  1
  Ba  Ba4  1  0.35660497  0.90945096  0.37733901  1
  Ba  Ba5  1  0.64339498  0.62266097  0.09054901  1
  Cd  Cd6  1  -0.00000000  0.00033400  0.99966596  1
  Cd  Cd7  1  0.49999999  0.26328499  0.73671498  1
  Cd  Cd8  1  -0.00000002  0.66219797  0.33780201  1
  Cd  Cd9  1  0.23743598  0.69080597  0.83432299  1
  Cd  Cd10  1  0.76256500  0.16567599  0.30919399  1
