# generated using pymatgen
data_CsPCl2
_symmetry_space_group_name_H-M   'P 1'
_cell_length_a   5.61902905
_cell_length_b   6.90853405
_cell_length_c   6.90853405
_cell_angle_alpha   63.99615860
_cell_angle_beta   78.30443573
_cell_angle_gamma   101.69556427
_symmetry_Int_Tables_number   1
_chemical_formula_structural   CsPCl2
_chemical_formula_sum   'Cs2 P2 Cl4'
_cell_volume   222.69975823
_cell_formula_units_Z   2
loop_
 _symmetry_equiv_pos_site_id
 _symmetry_equiv_pos_as_xyz
  1  'x, y, z'
loop_
 _atom_site_type_symbol
 _atom_site_label
 _atom_site_symmetry_multiplicity
 _atom_site_fract_x
 _atom_site_fract_y
 _atom_site_fract_z
 _atom_site_occupancy
  Cs  Cs0  1  0.25000002  0.36192601  0.36192600  1
  Cs  Cs1  1  0.75000005  0.63807403  0.63807400  1
  P  P2  1  0.25000004  0.99809704  0.99809700  1
  P  P3  1  0.75000003  0.00190300  0.00190299  1
  Cl  Cl4  1  0.90054406  0.69099603  0.08340898  1
  Cl  Cl5  1  0.59945603  0.08340900  0.69099601  1
  Cl  Cl6  1  0.09945601  0.30900401  0.91659102  1
  Cl  Cl7  1  0.40054404  0.91659104  0.30900399  1
