# generated using pymatgen
data_La7Mg
_symmetry_space_group_name_H-M   'P 1'
_cell_length_a   6.05864000
_cell_length_b   7.35893583
_cell_length_c   7.35893536
_cell_angle_alpha   120.00000000
_cell_angle_beta   90.00000000
_cell_angle_gamma   90.00000000
_symmetry_Int_Tables_number   1
_chemical_formula_structural   La7Mg
_chemical_formula_sum   'La7 Mg1'
_cell_volume   284.14222945
_cell_formula_units_Z   1
loop_
 _symmetry_equiv_pos_site_id
 _symmetry_equiv_pos_as_xyz
  1  'x, y, z'
loop_
 _atom_site_type_symbol
 _atom_site_label
 _atom_site_symmetry_multiplicity
 _atom_site_fract_x
 _atom_site_fract_y
 _atom_site_fract_z
 _atom_site_occupancy
  La  La0  1  0.75000000  0.33333333  0.66666667  1
  Mg  Mg1  1  0.25000000  0.66666667  0.33333331  1
  La  La2  1  0.25000000  0.16673400  0.33346800  1
  La  La3  1  0.25000000  0.66653200  0.83326599  1
  La  La4  1  0.25000000  0.16673400  0.83326602  1
  La  La5  1  0.75000000  0.83326600  0.66653198  1
  La  La6  1  0.75000000  0.33346800  0.16673399  1
  La  La7  1  0.75000000  0.83326600  0.16673397  1
