# generated using pymatgen
data_KTl(I2O3)2
_symmetry_space_group_name_H-M   'P 1'
_cell_length_a   6.96795893
_cell_length_b   6.96795893
_cell_length_c   9.32863903
_cell_angle_alpha   90.00000000
_cell_angle_beta   90.00000000
_cell_angle_gamma   90.00000000
_symmetry_Int_Tables_number   1
_chemical_formula_structural   KTl(I2O3)2
_chemical_formula_sum   'K1 Tl1 I4 O6'
_cell_volume   452.92829512
_cell_formula_units_Z   1
loop_
 _symmetry_equiv_pos_site_id
 _symmetry_equiv_pos_as_xyz
  1  'x, y, z'
loop_
 _atom_site_type_symbol
 _atom_site_label
 _atom_site_symmetry_multiplicity
 _atom_site_fract_x
 _atom_site_fract_y
 _atom_site_fract_z
 _atom_site_occupancy
  K  K0  1  0.50000001  0.50000001  -0.00000000  1
  I  I1  1  0.00000000  0.00000000  0.00000000  1
  Tl  Tl2  1  0.50000001  0.50000001  0.50000000  1
  I  I3  1  0.00000000  0.00000000  0.50000000  1
  O  O4  1  0.35620100  0.85620101  0.29501300  1
  O  O5  1  0.14379900  0.35620100  0.29501300  1
  I  I6  1  0.85620101  0.64379901  0.29501300  1
  O  O7  1  0.35620100  0.14379900  0.70498700  1
  O  O8  1  0.64379901  0.85620101  0.70498700  1
  I  I9  1  0.64379901  0.14379900  0.29501300  1
  O  O10  1  0.85620101  0.35620100  0.70498700  1
  O  O11  1  0.14379900  0.64379901  0.70498700  1
