# generated using pymatgen
data_Cu3(SeO3)2
_symmetry_space_group_name_H-M   'P 1'
_cell_length_a   5.01974630
_cell_length_b   5.61573172
_cell_length_c   5.61573172
_cell_angle_alpha   83.88665009
_cell_angle_beta   74.97705841
_cell_angle_gamma   105.02294159
_symmetry_Int_Tables_number   1
_chemical_formula_structural   Cu3(SeO3)2
_chemical_formula_sum   'Cu3 Se2 O6'
_cell_volume   145.08654205
_cell_formula_units_Z   1
loop_
 _symmetry_equiv_pos_site_id
 _symmetry_equiv_pos_as_xyz
  1  'x, y, z'
loop_
 _atom_site_type_symbol
 _atom_site_label
 _atom_site_symmetry_multiplicity
 _atom_site_fract_x
 _atom_site_fract_y
 _atom_site_fract_z
 _atom_site_occupancy
  Cu  Cu0  1  0.49999996  0.68582599  0.68582607  1
  Cu  Cu1  1  0.49999999  0.31417400  0.31417404  1
  Se  Se2  1  0.90541500  0.20144200  0.79855805  1
  Se  Se3  1  0.09458495  0.79855799  0.20144206  1
  O  O4  1  0.71665099  0.37189100  0.96541306  1
  O  O5  1  0.28334894  0.96541299  0.37189107  1
  O  O6  1  0.28334896  0.62810899  0.03458705  1
  O  O7  1  0.71665101  0.03458700  0.62810903  1
  Cu  Cu8  1  0.00000000  0.00000000  0.00000000  1
  O  O9  1  0.23373998  0.39943400  0.60056604  1
  O  O10  1  0.76625997  0.60056599  0.39943407  1
