# generated using pymatgen
data_CeMg2Ni9
_symmetry_space_group_name_H-M   'P 1'
_cell_length_a   4.92990208
_cell_length_b   4.92990208
_cell_length_c   8.55002975
_cell_angle_alpha   73.24394989
_cell_angle_beta   73.24394989
_cell_angle_gamma   60.00000000
_symmetry_Int_Tables_number   1
_chemical_formula_structural   CeMg2Ni9
_chemical_formula_sum   'Ce1 Mg2 Ni9'
_cell_volume   169.69520188
_cell_formula_units_Z   1
loop_
 _symmetry_equiv_pos_site_id
 _symmetry_equiv_pos_as_xyz
  1  'x, y, z'
loop_
 _atom_site_type_symbol
 _atom_site_label
 _atom_site_symmetry_multiplicity
 _atom_site_fract_x
 _atom_site_fract_y
 _atom_site_fract_z
 _atom_site_occupancy
  Ce  Ce0  1  0.00000000  0.00000000  0.00000000  1
  Mg  Mg1  1  0.86139105  0.86139100  0.41582695  1
  Mg  Mg2  1  0.13860901  0.13860900  0.58417302  1
  Ni  Ni3  1  0.50000003  0.50000000  0.49999998  1
  Ni  Ni4  1  0.66688704  0.66688700  0.99933899  1
  Ni  Ni5  1  0.33311302  0.33311300  0.00066097  1
  Ni  Ni6  1  0.91929504  0.41694000  0.24682496  1
  Ni  Ni7  1  0.41694003  0.41694000  0.24682498  1
  Ni  Ni8  1  0.41694005  0.91929500  0.24682496  1
  Ni  Ni9  1  0.08070503  0.58306000  0.75317501  1
  Ni  Ni10  1  0.58306004  0.58306000  0.75317499  1
  Ni  Ni11  1  0.58306001  0.08070500  0.75317501  1
