# generated using pymatgen
data_LiF2
_symmetry_space_group_name_H-M   'P 1'
_cell_length_a   6.56039238
_cell_length_b   6.56039238
_cell_length_c   6.56039238
_cell_angle_alpha   60.00000000
_cell_angle_beta   60.00000000
_cell_angle_gamma   60.00000000
_symmetry_Int_Tables_number   1
_chemical_formula_structural   LiF2
_chemical_formula_sum   'Li5 F10'
_cell_volume   199.65236021
_cell_formula_units_Z   5
loop_
 _symmetry_equiv_pos_site_id
 _symmetry_equiv_pos_as_xyz
  1  'x, y, z'
loop_
 _atom_site_type_symbol
 _atom_site_label
 _atom_site_symmetry_multiplicity
 _atom_site_fract_x
 _atom_site_fract_y
 _atom_site_fract_z
 _atom_site_occupancy
  Li  Li0  1  0.00000000  0.00000000  0.00000000  1
  F  F1  1  0.00000000  0.00000000  0.50000001  1
  F  F2  1  -0.00000000  0.50000001  -0.00000000  1
  F  F3  1  -0.00000000  0.50000001  0.50000001  1
  F  F4  1  0.50000001  0.50000001  -0.00000000  1
  F  F5  1  0.50000001  0.00000000  0.50000001  1
  F  F6  1  0.50000001  0.00000000  -0.00000000  1
  F  F7  1  0.43574701  0.85475101  0.85475101  1
  Li  Li8  1  0.14524900  0.56425301  0.14524900  1
  F  F9  1  0.85475101  0.43574701  0.85475101  1
  Li  Li10  1  0.14524900  0.14524900  0.14524900  1
  F  F11  1  0.85475101  0.85475101  0.43574701  1
  F  F12  1  0.85475101  0.85475101  0.85475101  1
  Li  Li13  1  0.14524900  0.14524900  0.56425301  1
  Li  Li14  1  0.56425301  0.14524900  0.14524900  1
