# generated using pymatgen
data_Li3P3H3O10
_symmetry_space_group_name_H-M   'P 1'
_cell_length_a   5.08915854
_cell_length_b   5.48487139
_cell_length_c   7.69106150
_cell_angle_alpha   103.58144379
_cell_angle_beta   104.39579773
_cell_angle_gamma   99.42514801
_symmetry_Int_Tables_number   1
_chemical_formula_structural   Li3P3H3O10
_chemical_formula_sum   'Li3 P3 H3 O10'
_cell_volume   196.42151933
_cell_formula_units_Z   1
loop_
 _symmetry_equiv_pos_site_id
 _symmetry_equiv_pos_as_xyz
  1  'x, y, z'
loop_
 _atom_site_type_symbol
 _atom_site_label
 _atom_site_symmetry_multiplicity
 _atom_site_fract_x
 _atom_site_fract_y
 _atom_site_fract_z
 _atom_site_occupancy
  Li  Li0  1  0.09477700  0.38385000  0.92016104  1
  Li  Li1  1  0.99067096  0.49315300  0.49742205  1
  Li  Li2  1  0.51270198  0.00538300  0.00284901  1
  P  P3  1  0.41882798  0.56870300  0.25363804  1
  P  P4  1  0.57708298  0.44252800  0.74836205  1
  H  H5  1  0.88210997  0.94277300  0.30042907  1
  H  H6  1  0.07174800  0.13453000  0.21956601  1
  H  H7  1  0.11907300  0.02496000  0.68063302  1
  P  P8  1  0.92511396  0.85304700  0.77430007  1
  O  O9  1  0.33065799  0.71581600  0.10978204  1
  O  O10  1  0.29274499  0.63646400  0.41752204  1
  O  O11  1  0.68828997  0.30248200  0.89288304  1
  O  O12  1  0.68709597  0.35069400  0.57799904  1
  O  O13  1  0.74519397  0.64560900  0.33472405  1
  O  O14  1  0.30859899  0.27549000  0.14412002  1
  O  O15  1  0.24627599  0.35999900  0.68430004  1
  O  O16  1  0.67595797  0.73807800  0.83131806  1
  O  O17  1  0.10826600  0.88323600  0.73992906  1
  O  O18  1  0.89981296  0.10570500  0.26292002  1
