# generated using pymatgen
data_NaCeS2
_symmetry_space_group_name_H-M   'P 1'
_cell_length_a   4.55613518
_cell_length_b   5.57154989
_cell_length_c   7.04034901
_cell_angle_alpha   90.00000000
_cell_angle_beta   90.00000000
_cell_angle_gamma   90.00000000
_symmetry_Int_Tables_number   1
_chemical_formula_structural   NaCeS2
_chemical_formula_sum   'Na2 Ce2 S4'
_cell_volume   178.71739003
_cell_formula_units_Z   2
loop_
 _symmetry_equiv_pos_site_id
 _symmetry_equiv_pos_as_xyz
  1  'x, y, z'
loop_
 _atom_site_type_symbol
 _atom_site_label
 _atom_site_symmetry_multiplicity
 _atom_site_fract_x
 _atom_site_fract_y
 _atom_site_fract_z
 _atom_site_occupancy
  S  S0  1  0.24999999  0.36205201  0.68115800  1
  S  S1  1  0.24999999  0.13794800  0.18115800  1
  S  S2  1  0.74999997  0.63794801  0.31884200  1
  S  S3  1  0.74999997  0.86205202  0.81884200  1
  Na  Na4  1  0.24999999  0.84760402  0.54519400  1
  Ce  Ce5  1  0.24999999  0.65239601  0.04519400  1
  Ce  Ce6  1  0.74999997  0.15239600  0.45480600  1
  Na  Na7  1  0.74999997  0.34760401  0.95480600  1
