# generated using pymatgen
data_Ca4Mg2RuWO12
_symmetry_space_group_name_H-M   'P 1'
_cell_length_a   5.30308485
_cell_length_b   5.61004210
_cell_length_c   7.69535065
_cell_angle_alpha   90.00000000
_cell_angle_beta   90.53106689
_cell_angle_gamma   90.00000000
_symmetry_Int_Tables_number   1
_chemical_formula_structural   Ca4Mg2RuWO12
_chemical_formula_sum   'Ca4 Mg2 Ru1 W1 O12'
_cell_volume   228.93092018
_cell_formula_units_Z   1
loop_
 _symmetry_equiv_pos_site_id
 _symmetry_equiv_pos_as_xyz
  1  'x, y, z'
loop_
 _atom_site_type_symbol
 _atom_site_label
 _atom_site_symmetry_multiplicity
 _atom_site_fract_x
 _atom_site_fract_y
 _atom_site_fract_z
 _atom_site_occupancy
  Ca  Ca0  1  0.51804401  0.93592498  0.24517800  1
  Ca  Ca1  1  0.48195601  0.06407500  0.75482200  1
  Ca  Ca2  1  0.98195603  0.43592499  0.25482201  1
  Ca  Ca3  1  0.01804400  0.56407499  0.74517799  1
  Mg  Mg4  1  0.50000001  0.49999999  0.00000001  1
  Mg  Mg5  1  0.00000000  0.00000000  0.49999999  1
  Ru  Ru6  1  0.50000001  0.49999999  0.50000000  1
  W  W7  1  0.00000000  0.00000000  0.00000000  1
  O  O8  1  0.37974501  0.55241799  0.25789000  1
  O  O9  1  0.62025502  0.44758199  0.74211000  1
  O  O10  1  0.12025500  0.05241800  0.24211000  1
  O  O11  1  0.87974502  0.94758198  0.75789000  1
  O  O12  1  0.68369202  0.20466900  0.43119100  1
  O  O13  1  0.31630801  0.79533099  0.56880900  1
  O  O14  1  0.81630802  0.70466899  0.06880901  1
  O  O15  1  0.18369201  0.29533099  0.93119099  1
  O  O16  1  0.80246302  0.68700399  0.44535801  1
  O  O17  1  0.19753701  0.31299599  0.55464200  1
  O  O18  1  0.69753702  0.18700400  0.05464201  1
  O  O19  1  0.30246301  0.81299599  0.94535799  1
