# generated using pymatgen
data_Li2NiGe2Pt
_symmetry_space_group_name_H-M   'P 1'
_cell_length_a   4.09061813
_cell_length_b   4.12805033
_cell_length_c   5.73083687
_cell_angle_alpha   90.00000000
_cell_angle_beta   90.00000000
_cell_angle_gamma   119.70049286
_symmetry_Int_Tables_number   1
_chemical_formula_structural   Li2NiGe2Pt
_chemical_formula_sum   'Li2 Ni1 Ge2 Pt1'
_cell_volume   84.05923236
_cell_formula_units_Z   1
loop_
 _symmetry_equiv_pos_site_id
 _symmetry_equiv_pos_as_xyz
  1  'x, y, z'
loop_
 _atom_site_type_symbol
 _atom_site_label
 _atom_site_symmetry_multiplicity
 _atom_site_fract_x
 _atom_site_fract_y
 _atom_site_fract_z
 _atom_site_occupancy
  Ni  Ni0  1  0.66200499  0.32401000  0.25000001  1
  Pt  Pt1  1  0.33799501  0.67599000  0.75000002  1
  Ge  Ge2  1  0.33170301  0.66340600  0.25000001  1
  Ge  Ge3  1  0.66829699  0.33659400  0.75000002  1
  Li  Li4  1  0.00000000  0.00000000  0.50000001  1
  Li  Li5  1  0.00000000  0.00000000  0.00000000  1
