# generated using pymatgen
data_Na6TlFeO5
_symmetry_space_group_name_H-M   'P 1'
_cell_length_a   7.28689098
_cell_length_b   7.28689098
_cell_length_c   7.28689098
_cell_angle_alpha   60.00000000
_cell_angle_beta   60.00000000
_cell_angle_gamma   60.00000000
_symmetry_Int_Tables_number   1
_chemical_formula_structural   Na6TlFeO5
_chemical_formula_sum   'Na6 Tl1 Fe1 O5'
_cell_volume   273.59730738
_cell_formula_units_Z   1
loop_
 _symmetry_equiv_pos_site_id
 _symmetry_equiv_pos_as_xyz
  1  'x, y, z'
loop_
 _atom_site_type_symbol
 _atom_site_label
 _atom_site_symmetry_multiplicity
 _atom_site_fract_x
 _atom_site_fract_y
 _atom_site_fract_z
 _atom_site_occupancy
  Na  Na0  1  0.02323900  0.47676100  0.47676100  1
  Na  Na1  1  0.47676100  0.02323900  0.02323900  1
  Na  Na2  1  0.02323900  0.02323900  0.47676100  1
  Na  Na3  1  0.47676100  0.47676100  0.02323900  1
  Na  Na4  1  0.02323900  0.47676100  0.02323900  1
  Na  Na5  1  0.47676100  0.02323900  0.47676100  1
  Fe  Fe6  1  0.50000000  0.50000000  0.50000000  1
  O  O7  1  0.61515300  0.61515300  0.61515300  1
  O  O8  1  0.61515300  0.61515300  0.15454100  1
  O  O9  1  0.15454100  0.61515300  0.61515300  1
  O  O10  1  0.61515300  0.15454100  0.61515300  1
  O  O11  1  0.25000000  0.25000000  0.25000000  1
  Tl  Tl12  1  0.00000000  0.00000000  0.00000000  1
