# generated using pymatgen
data_CeCdPt
_symmetry_space_group_name_H-M   'P 1'
_cell_length_a   3.83941197
_cell_length_b   7.85047817
_cell_length_c   7.85047770
_cell_angle_alpha   120.00000000
_cell_angle_beta   90.00000000
_cell_angle_gamma   90.00000000
_symmetry_Int_Tables_number   1
_chemical_formula_structural   CeCdPt
_chemical_formula_sum   'Ce3 Cd3 Pt3'
_cell_volume   204.92150704
_cell_formula_units_Z   3
loop_
 _symmetry_equiv_pos_site_id
 _symmetry_equiv_pos_as_xyz
  1  'x, y, z'
loop_
 _atom_site_type_symbol
 _atom_site_label
 _atom_site_symmetry_multiplicity
 _atom_site_fract_x
 _atom_site_fract_y
 _atom_site_fract_z
 _atom_site_occupancy
  Ce  Ce0  1  0.50000000  0.60031098  -0.00000002  1
  Ce  Ce1  1  0.50000000  0.39968899  0.39968899  1
  Ce  Ce2  1  0.50000000  0.99999996  0.60031097  1
  Pt  Pt3  1  0.00000000  0.33333332  0.66666666  1
  Pt  Pt4  1  0.00000000  0.66666664  0.33333331  1
  Pt  Pt5  1  0.50000000  0.00000000  -0.00000000  1
  Cd  Cd6  1  -0.00000000  0.26683399  -0.00000001  1
  Cd  Cd7  1  1.00000001  0.73316597  0.73316598  1
  Cd  Cd8  1  0.00000000  0.99999996  0.26683397  1
