# generated using pymatgen
data_YbEuMgGaSi
_symmetry_space_group_name_H-M   'P 1'
_cell_length_a   4.16257381
_cell_length_b   4.16257429
_cell_length_c   8.91793346
_cell_angle_alpha   90.00000000
_cell_angle_beta   90.00000000
_cell_angle_gamma   120.00000000
_symmetry_Int_Tables_number   1
_chemical_formula_structural   YbEuMgGaSi
_chemical_formula_sum   'Yb1 Eu1 Mg1 Ga1 Si1'
_cell_volume   133.81931578
_cell_formula_units_Z   1
loop_
 _symmetry_equiv_pos_site_id
 _symmetry_equiv_pos_as_xyz
  1  'x, y, z'
loop_
 _atom_site_type_symbol
 _atom_site_label
 _atom_site_symmetry_multiplicity
 _atom_site_fract_x
 _atom_site_fract_y
 _atom_site_fract_z
 _atom_site_occupancy
  Eu  Eu0  1  0.00000000  0.00000000  0.78951496  1
  Yb  Yb1  1  0.00000000  0.00000000  0.21048499  1
  Ga  Ga2  1  0.66666670  0.33333333  -0.00000000  1
  Si  Si3  1  0.33333336  0.66666665  -0.00000000  1
  Mg  Mg4  1  0.33333336  0.66666665  0.49999997  1
