# generated using pymatgen
data_Pt
_symmetry_space_group_name_H-M   'P 1'
_cell_length_a   3.85048604
_cell_length_b   3.85048604
_cell_length_c   4.72709417
_cell_angle_alpha   114.03398132
_cell_angle_beta   114.03398132
_cell_angle_gamma   90.00000000
_symmetry_Int_Tables_number   1
_chemical_formula_structural   Pt
_chemical_formula_sum   Pt4
_cell_volume   57.29205525
_cell_formula_units_Z   4
loop_
 _symmetry_equiv_pos_site_id
 _symmetry_equiv_pos_as_xyz
  1  'x, y, z'
loop_
 _atom_site_type_symbol
 _atom_site_label
 _atom_site_symmetry_multiplicity
 _atom_site_fract_x
 _atom_site_fract_y
 _atom_site_fract_z
 _atom_site_occupancy
  Pt  Pt0  1  0.00000000  0.00000000  0.00000000  1
  Pt  Pt1  1  0.75000002  0.25000001  0.50000003  1
  Pt  Pt2  1  0.25000004  0.75000002  0.50000004  1
  Pt  Pt3  1  0.50000003  0.50000001  0.00000005  1
