# generated using pymatgen
data_Ti7CuS9
_symmetry_space_group_name_H-M   'P 1'
_cell_length_a   3.31832194
_cell_length_b   10.35573959
_cell_length_c   10.35573959
_cell_angle_alpha   120.00000000
_cell_angle_beta   90.00000000
_cell_angle_gamma   90.00000000
_symmetry_Int_Tables_number   1
_chemical_formula_structural   Ti7CuS9
_chemical_formula_sum   'Ti7 Cu1 S9'
_cell_volume   308.18492614
_cell_formula_units_Z   1
loop_
 _symmetry_equiv_pos_site_id
 _symmetry_equiv_pos_as_xyz
  1  'x, y, z'
loop_
 _atom_site_type_symbol
 _atom_site_label
 _atom_site_symmetry_multiplicity
 _atom_site_fract_x
 _atom_site_fract_y
 _atom_site_fract_z
 _atom_site_occupancy
  S  S0  1  0.50000001  0.53703501  0.79912094  1
  S  S1  1  0.00000000  0.45849201  0.99999994  1
  S  S2  1  0.50000001  0.20087900  0.73791396  1
  S  S3  1  0.50000001  0.79912101  0.53703494  1
  S  S4  1  0.50000001  0.46296501  0.26208597  1
  Ti  Ti5  1  0.50000001  0.73791401  0.20087895  1
  S  S6  1  1.00000002  0.54150801  0.54150795  1
  S  S7  1  0.50000001  0.26208600  0.46296497  1
  Ti  Ti8  1  0.00000000  1.00000001  0.45849193  1
  Cu  Cu9  1  0.00000000  0.66666668  0.33333329  1
  Ti  Ti10  1  1.00000002  0.33333334  0.66666662  1
  Ti  Ti11  1  1.00000002  0.29425900  0.29425897  1
  Ti  Ti12  1  0.50000001  0.72517401  0.72517394  1
  Ti  Ti13  1  0.50000001  0.27482600  0.99999995  1
  S  S14  1  0.50000001  1.00000001  0.27482594  1
  Ti  Ti15  1  0.00000000  1.00000001  0.70574092  1
  S  S16  1  1.00000002  0.70574101  -0.00000004  1
