# generated using pymatgen
data_Rb3TbV2(AgS3)3
_symmetry_space_group_name_H-M   'P 1'
_cell_length_a   7.75923586
_cell_length_b   8.66299915
_cell_length_c   7.75923586
_cell_angle_alpha   63.39495850
_cell_angle_beta   90.00000000
_cell_angle_gamma   116.60504150
_symmetry_Int_Tables_number   1
_chemical_formula_structural   Rb3TbV2(AgS3)3
_chemical_formula_sum   'Rb3 Tb1 V2 Ag3 S9'
_cell_volume   403.62406652
_cell_formula_units_Z   1
loop_
 _symmetry_equiv_pos_site_id
 _symmetry_equiv_pos_as_xyz
  1  'x, y, z'
loop_
 _atom_site_type_symbol
 _atom_site_label
 _atom_site_symmetry_multiplicity
 _atom_site_fract_x
 _atom_site_fract_y
 _atom_site_fract_z
 _atom_site_occupancy
  Rb  Rb0  1  0.75000001  0.49999997  0.25000001  1
  Rb  Rb1  1  0.25000000  0.49999997  0.75000002  1
  Tb  Tb2  1  0.83795601  0.00000000  0.66204401  1
  Ag  Ag3  1  0.66204401  0.99999895  0.16204501  1
  Ag  Ag4  1  0.33795601  0.00000100  0.83795501  1
  Ag  Ag5  1  0.16204400  0.99999995  0.33795601  1
  V  V6  1  0.25000000  0.49999997  0.25000001  1
  V  V7  1  0.75000001  0.49999997  0.75000002  1
  S  S8  1  0.98872902  0.26808899  0.22064001  1
  S  S9  1  0.72064001  0.73191096  0.48872901  1
  S  S10  1  0.01127100  0.73191096  0.77936002  1
  S  S11  1  0.51127100  0.73191096  0.98872902  1
  S  S12  1  0.22064000  0.73191096  0.27936001  1
  S  S13  1  0.48872901  0.26808899  0.01127100  1
  S  S14  1  0.77936001  0.26808899  0.72064001  1
  S  S15  1  0.27936000  0.26808899  0.51127101  1
  Rb  Rb16  1  0.00000000  0.00000000  0.00000000  1
  S  S17  1  0.50000001  0.00000000  0.50000001  1
