# generated using pymatgen
data_CeMn2As4S
_symmetry_space_group_name_H-M   'P 1'
_cell_length_a   3.94033098
_cell_length_b   4.02916813
_cell_length_c   10.65443611
_cell_angle_alpha   100.89933777
_cell_angle_beta   90.00000000
_cell_angle_gamma   90.00000000
_symmetry_Int_Tables_number   1
_chemical_formula_structural   CeMn2As4S
_chemical_formula_sum   'Ce1 Mn2 As4 S1'
_cell_volume   166.10119520
_cell_formula_units_Z   1
loop_
 _symmetry_equiv_pos_site_id
 _symmetry_equiv_pos_as_xyz
  1  'x, y, z'
loop_
 _atom_site_type_symbol
 _atom_site_label
 _atom_site_symmetry_multiplicity
 _atom_site_fract_x
 _atom_site_fract_y
 _atom_site_fract_z
 _atom_site_occupancy
  Ce  Ce0  1  0.75000000  0.91734398  0.83468804  1
  As  As1  1  0.25000000  0.08265600  0.16531201  1
  Mn  Mn2  1  0.75000000  0.19103400  0.38206801  1
  As  As3  1  0.25000000  0.80896598  0.61793203  1
  As  As4  1  0.75000000  0.31060499  0.62121002  1
  Mn  Mn5  1  0.25000000  0.68939498  0.37879002  1
  As  As6  1  0.75000000  0.53963699  0.07927401  1
  S  S7  1  0.25000000  0.46036299  0.92072603  1
