# generated using pymatgen
data_TmMg5Au3
_symmetry_space_group_name_H-M   'P 1'
_cell_length_a   4.14575386
_cell_length_b   7.45824194
_cell_length_c   7.45824194
_cell_angle_alpha   120.00000000
_cell_angle_beta   90.00000000
_cell_angle_gamma   90.00000000
_symmetry_Int_Tables_number   1
_chemical_formula_structural   TmMg5Au3
_chemical_formula_sum   'Tm1 Mg5 Au3'
_cell_volume   199.71334253
_cell_formula_units_Z   1
loop_
 _symmetry_equiv_pos_site_id
 _symmetry_equiv_pos_as_xyz
  1  'x, y, z'
loop_
 _atom_site_type_symbol
 _atom_site_label
 _atom_site_symmetry_multiplicity
 _atom_site_fract_x
 _atom_site_fract_y
 _atom_site_fract_z
 _atom_site_occupancy
  Tm  Tm0  1  1.00000003  0.40864600  0.40864600  1
  Mg  Mg1  1  0.00000000  1.00000001  0.59135400  1
  Mg  Mg2  1  0.00000000  0.59135400  -0.00000000  1
  Mg  Mg3  1  0.50000002  0.74816901  0.74816900  1
  Mg  Mg4  1  0.50000002  1.00000001  0.25183100  1
  Mg  Mg5  1  0.50000002  0.25183100  -0.00000000  1
  Au  Au6  1  0.50000002  0.66666667  0.33333333  1
  Au  Au7  1  0.50000002  0.33333334  0.66666667  1
  Au  Au8  1  0.00000000  0.00000000  0.00000000  1
