# generated using pymatgen
data_Ag5BiS5F
_symmetry_space_group_name_H-M   'P 1'
_cell_length_a   6.68711710
_cell_length_b   6.68711710
_cell_length_c   7.92357063
_cell_angle_alpha   101.51382446
_cell_angle_beta   101.51382446
_cell_angle_gamma   118.96903992
_symmetry_Int_Tables_number   1
_chemical_formula_structural   Ag5BiS5F
_chemical_formula_sum   'Ag5 Bi1 S5 F1'
_cell_volume   285.03484061
_cell_formula_units_Z   1
loop_
 _symmetry_equiv_pos_site_id
 _symmetry_equiv_pos_as_xyz
  1  'x, y, z'
loop_
 _atom_site_type_symbol
 _atom_site_label
 _atom_site_symmetry_multiplicity
 _atom_site_fract_x
 _atom_site_fract_y
 _atom_site_fract_z
 _atom_site_occupancy
  S  S0  1  0.96373300  0.02447300  0.24432496  1
  S  S1  1  0.02447293  0.96373296  0.74432493  1
  S  S2  1  0.27021295  0.65867097  0.20522295  1
  S  S3  1  0.65867098  0.27021299  0.70522295  1
  F  F4  1  0.61357897  0.33688799  0.21004395  1
  S  S5  1  0.33688795  0.61357897  0.71004394  1
  Ag  Ag6  1  0.22911693  0.99186596  0.06344393  1
  Ag  Ag7  1  0.99186598  0.22911699  0.56344394  1
  Ag  Ag8  1  0.25854194  0.81612697  0.52576794  1
  Ag  Ag9  1  0.59371296  0.56187798  0.58359594  1
  Ag  Ag10  1  0.56187795  0.59371297  0.08359594  1
  Bi  Bi11  1  0.81612698  0.25854199  0.02576795  1
