# generated using pymatgen
data_AgTe
_symmetry_space_group_name_H-M   'P 1'
_cell_length_a   3.73405194
_cell_length_b   4.70094109
_cell_length_c   5.84125710
_cell_angle_alpha   90.00000000
_cell_angle_beta   108.64039612
_cell_angle_gamma   90.00000000
_symmetry_Int_Tables_number   1
_chemical_formula_structural   AgTe
_chemical_formula_sum   'Ag2 Te2'
_cell_volume   97.15620603
_cell_formula_units_Z   2
loop_
 _symmetry_equiv_pos_site_id
 _symmetry_equiv_pos_as_xyz
  1  'x, y, z'
loop_
 _atom_site_type_symbol
 _atom_site_label
 _atom_site_symmetry_multiplicity
 _atom_site_fract_x
 _atom_site_fract_y
 _atom_site_fract_z
 _atom_site_occupancy
  Te  Te0  1  0.86097602  0.74999999  0.72195201  1
  Te  Te1  1  0.13902400  0.25000000  0.27804800  1
  Ag  Ag2  1  0.58702701  0.74999999  0.17405401  1
  Ag  Ag3  1  0.41297301  0.25000000  0.82594600  1
