# generated using pymatgen
data_Zr3Nb4Cr2InCu3
_symmetry_space_group_name_H-M   'P 1'
_cell_length_a   5.41244984
_cell_length_b   5.41244888
_cell_length_c   9.02801895
_cell_angle_alpha   90.00000000
_cell_angle_beta   90.00000000
_cell_angle_gamma   120.00000763
_symmetry_Int_Tables_number   1
_chemical_formula_structural   Zr3Nb4Cr2InCu3
_chemical_formula_sum   'Zr3 Nb4 Cr2 In1 Cu3'
_cell_volume   229.03969275
_cell_formula_units_Z   1
loop_
 _symmetry_equiv_pos_site_id
 _symmetry_equiv_pos_as_xyz
  1  'x, y, z'
loop_
 _atom_site_type_symbol
 _atom_site_label
 _atom_site_symmetry_multiplicity
 _atom_site_fract_x
 _atom_site_fract_y
 _atom_site_fract_z
 _atom_site_occupancy
  Zr  Zr0  1  0.66666670  0.33333334  1.00000001  1
  Nb  Nb1  1  0.66601004  0.83300502  0.24592300  1
  Cr  Cr2  1  0.16699501  0.33399001  0.24592300  1
  Cr  Cr3  1  0.16699503  0.83300502  0.24592300  1
  Cu  Cu4  1  0.66601004  0.83300502  0.75407700  1
  Cu  Cu5  1  0.16699501  0.33399001  0.75407700  1
  Cu  Cu6  1  0.16699503  0.83300502  0.75407700  1
  Nb  Nb7  1  0.00000000  0.00000000  0.50000000  1
  Nb  Nb8  1  0.33333336  0.66666668  -0.00000000  1
  Zr  Zr9  1  0.00000000  0.00000000  0.00000000  1
  Zr  Zr10  1  0.66666670  0.33333334  0.33308900  1
  In  In11  1  0.66666670  0.33333334  0.66691100  1
  Nb  Nb12  1  0.33333336  0.66666668  0.50000000  1
