# generated using pymatgen
data_LuB2Ru
_symmetry_space_group_name_H-M   'P 1'
_cell_length_a   5.33806515
_cell_length_b   5.92155218
_cell_length_c   6.40848207
_cell_angle_alpha   90.00000000
_cell_angle_beta   90.00000000
_cell_angle_gamma   90.00000000
_symmetry_Int_Tables_number   1
_chemical_formula_structural   LuB2Ru
_chemical_formula_sum   'Lu4 B8 Ru4'
_cell_volume   202.56975569
_cell_formula_units_Z   4
loop_
 _symmetry_equiv_pos_site_id
 _symmetry_equiv_pos_as_xyz
  1  'x, y, z'
loop_
 _atom_site_type_symbol
 _atom_site_label
 _atom_site_symmetry_multiplicity
 _atom_site_fract_x
 _atom_site_fract_y
 _atom_site_fract_z
 _atom_site_occupancy
  Lu  Lu0  1  0.74999998  0.98996197  0.66281099  1
  Lu  Lu1  1  0.74999998  0.48996199  0.83718899  1
  Lu  Lu2  1  0.24999999  0.01003800  0.33718900  1
  Lu  Lu3  1  0.24999999  0.51003798  0.16281100  1
  B  B4  1  0.91767897  0.63349698  0.45960899  1
  B  B5  1  0.58232098  0.13349700  0.04039100  1
  B  B6  1  0.41767899  0.36650299  0.54039099  1
  B  B7  1  0.08232100  0.86650297  0.95960899  1
  B  B8  1  0.08232100  0.36650299  0.54039099  1
  B  B9  1  0.41767899  0.86650297  0.95960899  1
  B  B10  1  0.58232098  0.63349698  0.45960899  1
  B  B11  1  0.91767897  0.13349700  0.04039100  1
  Ru  Ru12  1  0.74999998  0.82225797  0.18376100  1
  Ru  Ru13  1  0.74999998  0.32225799  0.31623900  1
  Ru  Ru14  1  0.24999999  0.17774199  0.81623899  1
  Ru  Ru15  1  0.24999999  0.67774198  0.68376099  1
