# generated using pymatgen
data_Mg5Zn
_symmetry_space_group_name_H-M   'P 1'
_cell_length_a   3.93440890
_cell_length_b   3.93440890
_cell_length_c   8.66758347
_cell_angle_alpha   90.00000000
_cell_angle_beta   90.00000000
_cell_angle_gamma   90.00000000
_symmetry_Int_Tables_number   1
_chemical_formula_structural   Mg5Zn
_chemical_formula_sum   'Mg5 Zn1'
_cell_volume   134.17049460
_cell_formula_units_Z   1
loop_
 _symmetry_equiv_pos_site_id
 _symmetry_equiv_pos_as_xyz
  1  'x, y, z'
loop_
 _atom_site_type_symbol
 _atom_site_label
 _atom_site_symmetry_multiplicity
 _atom_site_fract_x
 _atom_site_fract_y
 _atom_site_fract_z
 _atom_site_occupancy
  Mg  Mg0  1  0.00000000  0.50000001  0.73761196  1
  Mg  Mg1  1  0.50000001  0.00000000  0.26238799  1
  Zn  Zn2  1  0.00000000  0.00000000  0.00000000  1
  Mg  Mg3  1  0.50000001  0.50000001  -0.00000000  1
  Mg  Mg4  1  0.00000000  0.50000001  0.37862598  1
  Mg  Mg5  1  0.50000001  0.00000000  0.62137397  1
