# generated using pymatgen
data_Na3In4S5F3
_symmetry_space_group_name_H-M   'P 1'
_cell_length_a   7.28065300
_cell_length_b   7.28065300
_cell_length_c   7.28065300
_cell_angle_alpha   60.00000000
_cell_angle_beta   60.00000000
_cell_angle_gamma   60.00000000
_symmetry_Int_Tables_number   1
_chemical_formula_structural   Na3In4S5F3
_chemical_formula_sum   'Na3 In4 S5 F3'
_cell_volume   272.89526520
_cell_formula_units_Z   1
loop_
 _symmetry_equiv_pos_site_id
 _symmetry_equiv_pos_as_xyz
  1  'x, y, z'
loop_
 _atom_site_type_symbol
 _atom_site_label
 _atom_site_symmetry_multiplicity
 _atom_site_fract_x
 _atom_site_fract_y
 _atom_site_fract_z
 _atom_site_occupancy
  S  S0  1  -0.00000000  0.00000000  0.49999999  1
  S  S1  1  -0.00000000  0.49999999  0.00000000  1
  F  F2  1  0.49999999  0.00000000  0.49999999  1
  F  F3  1  0.49999999  0.49999999  -0.00000000  1
  S  S4  1  0.49999999  0.00000000  -0.00000000  1
  F  F5  1  -0.00000000  0.49999999  0.49999999  1
  In  In6  1  0.00000000  0.00000000  0.00000000  1
  In  In7  1  0.24999999  0.24999999  0.24999999  1
  Na  Na8  1  0.74999998  0.74999998  0.74999998  1
  In  In9  1  0.23744200  0.23744200  0.76255798  1
  S  S10  1  0.76255798  0.23744200  0.76255798  1
  Na  Na11  1  0.23744200  0.76255798  0.23744200  1
  S  S12  1  0.23744200  0.76255798  0.76255798  1
  Na  Na13  1  0.76255798  0.23744200  0.23744200  1
  In  In14  1  0.76255798  0.76255798  0.23744200  1
