# generated using pymatgen
data_Zn5WO12
_symmetry_space_group_name_H-M   'P 1'
_cell_length_a   5.30361080
_cell_length_b   5.30361080
_cell_length_c   9.28707790
_cell_angle_alpha   90.00000000
_cell_angle_beta   90.00000000
_cell_angle_gamma   90.00000000
_symmetry_Int_Tables_number   1
_chemical_formula_structural   Zn5WO12
_chemical_formula_sum   'Zn5 W1 O12'
_cell_volume   261.22959764
_cell_formula_units_Z   1
loop_
 _symmetry_equiv_pos_site_id
 _symmetry_equiv_pos_as_xyz
  1  'x, y, z'
loop_
 _atom_site_type_symbol
 _atom_site_label
 _atom_site_symmetry_multiplicity
 _atom_site_fract_x
 _atom_site_fract_y
 _atom_site_fract_z
 _atom_site_occupancy
  O  O0  1  0.00000000  0.00000000  0.00000000  1
  O  O1  1  0.50000002  0.50000002  -0.00000000  1
  Zn  Zn2  1  0.00000000  0.50000002  0.75583701  1
  O  O3  1  0.50000002  0.00000000  0.24416300  1
  W  W4  1  0.50000002  0.00000000  0.69139201  1
  O  O5  1  0.00000000  0.50000002  0.30860800  1
  O  O6  1  0.31419301  0.81419303  0.57910001  1
  O  O7  1  0.18580701  0.31419301  0.42090000  1
  O  O8  1  0.68580703  0.18580701  0.57910001  1
  O  O9  1  0.81419303  0.68580703  0.42090000  1
  O  O10  1  0.28148801  0.21851201  0.79378501  1
  Zn  Zn11  1  0.21851201  0.71851203  0.20621500  1
  O  O12  1  0.71851203  0.78148803  0.79378501  1
  Zn  Zn13  1  0.78148803  0.28148801  0.20621500  1
  O  O14  1  0.80812303  0.30812301  0.89296301  1
  Zn  Zn15  1  0.69187703  0.80812303  0.10703700  1
  O  O16  1  0.19187701  0.69187703  0.89296301  1
  Zn  Zn17  1  0.30812301  0.19187701  0.10703700  1
