# generated using pymatgen
data_BaSrTe3
_symmetry_space_group_name_H-M   'P 1'
_cell_length_a   3.81214523
_cell_length_b   3.81214523
_cell_length_c   12.21894932
_cell_angle_alpha   98.98235321
_cell_angle_beta   98.98235321
_cell_angle_gamma   89.94964600
_symmetry_Int_Tables_number   1
_chemical_formula_structural   BaSrTe3
_chemical_formula_sum   'Ba1 Sr1 Te3'
_cell_volume   173.19243650
_cell_formula_units_Z   1
loop_
 _symmetry_equiv_pos_site_id
 _symmetry_equiv_pos_as_xyz
  1  'x, y, z'
loop_
 _atom_site_type_symbol
 _atom_site_label
 _atom_site_symmetry_multiplicity
 _atom_site_fract_x
 _atom_site_fract_y
 _atom_site_fract_z
 _atom_site_occupancy
  Sr  Sr0  1  0.58841499  0.58841500  0.17682999  1
  Te  Te1  1  0.19386700  0.19386700  0.38773399  1
  Ba  Ba2  1  0.80613299  0.80613300  0.61226599  1
  Te  Te3  1  0.41158500  0.41158500  0.82316999  1
  Te  Te4  1  0.00000000  0.00000000  0.00000000  1
