# generated using pymatgen
data_Ce2Ni7
_symmetry_space_group_name_H-M   'P 1'
_cell_length_a   4.98853922
_cell_length_b   4.98853970
_cell_length_c   12.29302120
_cell_angle_alpha   78.29332733
_cell_angle_beta   78.29332733
_cell_angle_gamma   59.99999619
_symmetry_Int_Tables_number   1
_chemical_formula_structural   Ce2Ni7
_chemical_formula_sum   'Ce4 Ni14'
_cell_volume   257.55904375
_cell_formula_units_Z   2
loop_
 _symmetry_equiv_pos_site_id
 _symmetry_equiv_pos_as_xyz
  1  'x, y, z'
loop_
 _atom_site_type_symbol
 _atom_site_label
 _atom_site_symmetry_multiplicity
 _atom_site_fract_x
 _atom_site_fract_y
 _atom_site_fract_z
 _atom_site_occupancy
  Ce  Ce0  1  0.05140600  0.05140600  0.84578301  1
  Ce  Ce1  1  0.94859395  0.94859402  0.15421696  1
  Ce  Ce2  1  0.14816699  0.14816700  0.55549800  1
  Ce  Ce3  1  0.85183295  0.85183302  0.44450197  1
  Ni  Ni4  1  0.49999997  0.50000001  0.49999999  1
  Ni  Ni5  1  0.27821298  0.27821301  0.16536199  1
  Ni  Ni6  1  0.72178696  0.72178701  0.83463798  1
  Ni  Ni7  1  0.38773398  0.38773401  0.83679799  1
  Ni  Ni8  1  0.61226597  0.61226601  0.16320198  1
  Ni  Ni9  1  0.49999998  0.00000000  -0.00000001  1
  Ni  Ni10  1  -0.00000001  0.50000001  -0.00000001  1
  Ni  Ni11  1  0.49999997  0.50000001  0.99999999  1
  Ni  Ni12  1  0.60844697  0.60844701  0.67280798  1
  Ni  Ni13  1  0.60844698  0.11029700  0.67280800  1
  Ni  Ni14  1  0.11029698  0.60844701  0.67280799  1
  Ni  Ni15  1  0.39155298  0.39155301  0.32719199  1
  Ni  Ni16  1  0.39155297  0.88970302  0.32719198  1
  Ni  Ni17  1  0.88970296  0.39155301  0.32719198  1
