# generated using pymatgen
data_LiTb2Cu3Si2
_symmetry_space_group_name_H-M   'P 1'
_cell_length_a   3.79120994
_cell_length_b   3.79120994
_cell_length_c   10.85137081
_cell_angle_alpha   100.06050873
_cell_angle_beta   100.06050873
_cell_angle_gamma   90.00000000
_symmetry_Int_Tables_number   1
_chemical_formula_structural   LiTb2Cu3Si2
_chemical_formula_sum   'Li1 Tb2 Cu3 Si2'
_cell_volume   151.13522514
_cell_formula_units_Z   1
loop_
 _symmetry_equiv_pos_site_id
 _symmetry_equiv_pos_as_xyz
  1  'x, y, z'
loop_
 _atom_site_type_symbol
 _atom_site_label
 _atom_site_symmetry_multiplicity
 _atom_site_fract_x
 _atom_site_fract_y
 _atom_site_fract_z
 _atom_site_occupancy
  Cu  Cu0  1  0.00000000  0.00000000  0.00000000  1
  Si  Si1  1  0.31407501  0.31407501  0.62814999  1
  Si  Si2  1  0.68592503  0.68592502  0.37185001  1
  Tb  Tb3  1  0.12754600  0.12754600  0.25509199  1
  Tb  Tb4  1  0.87245403  0.87245402  0.74490800  1
  Li  Li5  1  0.50000002  0.50000001  0.00000001  1
  Cu  Cu6  1  0.75000002  0.25000001  0.50000000  1
  Cu  Cu7  1  0.25000002  0.75000002  0.50000000  1
