# generated using pymatgen
data_Ce2(CdAu)3
_symmetry_space_group_name_H-M   'P 1'
_cell_length_a   4.54812622
_cell_length_b   5.96965075
_cell_length_c   8.01490498
_cell_angle_alpha   90.00000000
_cell_angle_beta   90.00000000
_cell_angle_gamma   112.39175415
_symmetry_Int_Tables_number   1
_chemical_formula_structural   Ce2(CdAu)3
_chemical_formula_sum   'Ce2 Cd3 Au3'
_cell_volume   201.20283985
_cell_formula_units_Z   1
loop_
 _symmetry_equiv_pos_site_id
 _symmetry_equiv_pos_as_xyz
  1  'x, y, z'
loop_
 _atom_site_type_symbol
 _atom_site_label
 _atom_site_symmetry_multiplicity
 _atom_site_fract_x
 _atom_site_fract_y
 _atom_site_fract_z
 _atom_site_occupancy
  Ce  Ce0  1  0.06227499  0.12454999  0.25000000  1
  Ce  Ce1  1  0.93772488  0.87544996  0.75000000  1
  Cd  Cd2  1  0.34872592  0.69745197  0.05370300  1
  Cd  Cd3  1  0.34872592  0.69745197  0.44629700  1
  Au  Au4  1  0.65127394  0.30254799  0.94629700  1
  Cd  Cd5  1  0.65127394  0.30254799  0.55370300  1
  Au  Au6  1  0.78040292  0.56080597  0.25000000  1
  Au  Au7  1  0.21959695  0.43919398  0.75000000  1
