# generated using pymatgen
data_ScSiRu
_symmetry_space_group_name_H-M   'P 1'
_cell_length_a   3.94247890
_cell_length_b   6.54258299
_cell_length_c   7.31607914
_cell_angle_alpha   90.00000000
_cell_angle_beta   90.00000000
_cell_angle_gamma   90.00000000
_symmetry_Int_Tables_number   1
_chemical_formula_structural   ScSiRu
_chemical_formula_sum   'Sc4 Si4 Ru4'
_cell_volume   188.71091133
_cell_formula_units_Z   4
loop_
 _symmetry_equiv_pos_site_id
 _symmetry_equiv_pos_as_xyz
  1  'x, y, z'
loop_
 _atom_site_type_symbol
 _atom_site_label
 _atom_site_symmetry_multiplicity
 _atom_site_fract_x
 _atom_site_fract_y
 _atom_site_fract_z
 _atom_site_occupancy
  Sc  Sc0  1  0.25000001  0.50967100  0.69328799  1
  Sc  Sc1  1  0.75000002  0.49032900  0.30671199  1
  Sc  Sc2  1  0.25000001  0.00967100  0.80671198  1
  Sc  Sc3  1  0.75000002  0.99032900  0.19328800  1
  Ru  Ru4  1  0.75000002  0.83006300  0.57620199  1
  Ru  Ru5  1  0.25000001  0.16993700  0.42379799  1
  Ru  Ru6  1  0.75000002  0.33006300  0.92379798  1
  Ru  Ru7  1  0.25000001  0.66993700  0.07620200  1
  Si  Si8  1  0.25000001  0.27966700  0.10107900  1
  Si  Si9  1  0.75000002  0.72033300  0.89892098  1
  Si  Si10  1  0.25000001  0.77966700  0.39892099  1
  Si  Si11  1  0.75000002  0.22033300  0.60107899  1
