# generated using pymatgen
data_Al2SnPt9
_symmetry_space_group_name_H-M   'P 1'
_cell_length_a   6.52068615
_cell_length_b   6.84330750
_cell_length_c   6.52068615
_cell_angle_alpha   118.45236206
_cell_angle_beta   90.00000000
_cell_angle_gamma   118.45236206
_symmetry_Int_Tables_number   1
_chemical_formula_structural   Al2SnPt9
_chemical_formula_sum   'Al2 Sn1 Pt9'
_cell_volume   215.01167899
_cell_formula_units_Z   1
loop_
 _symmetry_equiv_pos_site_id
 _symmetry_equiv_pos_as_xyz
  1  'x, y, z'
loop_
 _atom_site_type_symbol
 _atom_site_label
 _atom_site_symmetry_multiplicity
 _atom_site_fract_x
 _atom_site_fract_y
 _atom_site_fract_z
 _atom_site_occupancy
  Al  Al0  1  0.00000000  0.00000000  0.00000000  1
  Pt  Pt1  1  0.49999999  0.00000000  0.49999999  1
  Pt  Pt2  1  0.21473094  0.72111796  0.00638695  1
  Al  Al3  1  0.71473093  0.72111796  0.21473094  1
  Pt  Pt4  1  0.00638695  0.72111796  0.50638694  1
  Pt  Pt5  1  0.28526897  0.27888199  0.78526896  1
  Pt  Pt6  1  0.99361296  0.27888199  0.49361297  1
  Pt  Pt7  1  0.49361297  0.27888199  0.28526897  1
  Pt  Pt8  1  0.78526896  0.27888199  0.99361296  1
  Sn  Sn9  1  0.50638694  0.72111796  0.71473093  1
  Pt  Pt10  1  0.74999995  0.49999998  0.74999995  1
  Pt  Pt11  1  0.24999996  0.49999998  0.24999996  1
