# generated using pymatgen
data_MgSc6Zn5Sb6
_symmetry_space_group_name_H-M   'P 1'
_cell_length_a   7.43038416
_cell_length_b   7.45325804
_cell_length_c   7.45325804
_cell_angle_alpha   60.00000000
_cell_angle_beta   90.00000000
_cell_angle_gamma   90.00000000
_symmetry_Int_Tables_number   1
_chemical_formula_structural   MgSc6Zn5Sb6
_chemical_formula_sum   'Mg1 Sc6 Zn5 Sb6'
_cell_volume   357.46556631
_cell_formula_units_Z   1
loop_
 _symmetry_equiv_pos_site_id
 _symmetry_equiv_pos_as_xyz
  1  'x, y, z'
loop_
 _atom_site_type_symbol
 _atom_site_label
 _atom_site_symmetry_multiplicity
 _atom_site_fract_x
 _atom_site_fract_y
 _atom_site_fract_z
 _atom_site_occupancy
  Sc  Sc0  1  0.74999998  0.98198800  0.61342800  1
  Sc  Sc1  1  0.74999998  0.40458400  0.98198801  1
  Mg  Mg2  1  0.74999998  0.61342800  0.40458400  1
  Sc  Sc3  1  0.24999999  0.01801200  0.59541601  1
  Sc  Sc4  1  0.24999999  0.38657200  0.01801199  1
  Sc  Sc5  1  0.24999999  0.59541600  0.38657200  1
  Sb  Sb6  1  0.00000000  0.72739400  -0.00000001  1
  Zn  Zn7  1  0.00000000  0.27260600  0.72739401  1
  Zn  Zn8  1  0.49999999  0.27260600  0.72739401  1
  Zn  Zn9  1  0.49999999  0.00000000  0.27260601  1
  Zn  Zn10  1  0.49999999  0.72739400  -0.00000001  1
  Sb  Sb11  1  0.00000000  0.00000000  0.27260601  1
  Zn  Zn12  1  0.24999999  0.00000000  -0.00000000  1
  Sb  Sb13  1  0.74999998  0.00000000  -0.00000000  1
  Sb  Sb14  1  0.03657600  0.66666667  0.66666667  1
  Sb  Sb15  1  0.53657599  0.33333333  0.33333333  1
  Sc  Sc16  1  0.96342398  0.33333333  0.33333333  1
  Sb  Sb17  1  0.46342399  0.66666667  0.66666667  1
