# generated using pymatgen
data_Ce3Ga7
_symmetry_space_group_name_H-M   'P 1'
_cell_length_a   8.87651920
_cell_length_b   8.87651920
_cell_length_c   8.87651920
_cell_angle_alpha   109.47122192
_cell_angle_beta   109.47122192
_cell_angle_gamma   109.47122192
_symmetry_Int_Tables_number   1
_chemical_formula_structural   Ce3Ga7
_chemical_formula_sum   'Ce6 Ga14'
_cell_volume   538.40139858
_cell_formula_units_Z   2
loop_
 _symmetry_equiv_pos_site_id
 _symmetry_equiv_pos_as_xyz
  1  'x, y, z'
loop_
 _atom_site_type_symbol
 _atom_site_label
 _atom_site_symmetry_multiplicity
 _atom_site_fract_x
 _atom_site_fract_y
 _atom_site_fract_z
 _atom_site_occupancy
  Ce  Ce0  1  0.87500006  0.12500001  0.75000006  1
  Ce  Ce1  1  0.62500006  0.37500003  0.25000005  1
  Ce  Ce2  1  0.12500002  0.25000002  0.37500003  1
  Ce  Ce3  1  0.37500007  0.75000007  0.12500006  1
  Ce  Ce4  1  0.75000008  0.62500005  0.87500009  1
  Ce  Ce5  1  0.25000007  0.87500008  0.62500008  1
  Ga  Ga6  1  1.00000009  0.50000004  0.67198408  1
  Ga  Ga7  1  0.32801604  0.32801603  0.82801607  1
  Ga  Ga8  1  0.50000004  0.17198402  0.50000005  1
  Ga  Ga9  1  0.17198401  0.00000000  0.00000000  1
  Ga  Ga10  1  0.82801610  0.82801607  0.32801608  1
  Ga  Ga11  1  0.00000003  0.50000004  0.17198404  1
  Ga  Ga12  1  0.50000007  0.67198406  0.50000007  1
  Ga  Ga13  1  0.67198410  1.00000009  0.00000007  1
  Ga  Ga14  1  0.37500006  0.62500005  0.75000008  1
  Ga  Ga15  1  0.12500006  0.87500008  0.25000006  1
  Ga  Ga16  1  0.62500005  0.25000002  0.87500007  1
  Ga  Ga17  1  0.87500010  0.75000007  0.62500009  1
  Ga  Ga18  1  0.75000005  0.12500001  0.37500004  1
  Ga  Ga19  1  0.25000004  0.37500003  0.12500003  1
