# generated using pymatgen
data_NaBe2H9
_symmetry_space_group_name_H-M   'P 1'
_cell_length_a   4.06915522
_cell_length_b   5.41090822
_cell_length_c   5.41090727
_cell_angle_alpha   120.00000763
_cell_angle_beta   90.00000000
_cell_angle_gamma   90.00000000
_symmetry_Int_Tables_number   1
_chemical_formula_structural   NaBe2H9
_chemical_formula_sum   'Na1 Be2 H9'
_cell_volume   103.17515102
_cell_formula_units_Z   1
loop_
 _symmetry_equiv_pos_site_id
 _symmetry_equiv_pos_as_xyz
  1  'x, y, z'
loop_
 _atom_site_type_symbol
 _atom_site_label
 _atom_site_symmetry_multiplicity
 _atom_site_fract_x
 _atom_site_fract_y
 _atom_site_fract_z
 _atom_site_occupancy
  H  H0  1  0.12117099  0.00000000  -0.00000000  1
  H  H1  1  0.00631600  0.33333333  0.66666670  1
  Na  Na2  1  0.00631600  0.66666666  0.33333338  1
  H  H3  1  0.49579097  0.50000000  0.00000003  1
  H  H4  1  0.49579097  0.99999999  0.50000007  1
  H  H5  1  0.49579097  0.50000000  0.50000004  1
  H  H6  1  0.70960796  0.20454000  0.40908002  1
  H  H7  1  0.70960796  0.59091900  0.79545905  1
  H  H8  1  0.70960796  0.20454000  0.79545902  1
  Be  Be9  1  0.70960796  0.79546000  0.59092006  1
  Be  Be10  1  0.70960796  0.79546000  0.20454106  1
  H  H11  1  0.70960796  0.40908100  0.20454103  1
