# generated using pymatgen
data_Zr5P3
_symmetry_space_group_name_H-M   'P 1'
_cell_length_a   6.67152023
_cell_length_b   7.67795753
_cell_length_c   6.67152023
_cell_angle_alpha   115.75089264
_cell_angle_beta   90.00000000
_cell_angle_gamma   115.75089264
_symmetry_Int_Tables_number   1
_chemical_formula_structural   Zr5P3
_chemical_formula_sum   'Zr10 P6'
_cell_volume   269.62589385
_cell_formula_units_Z   2
loop_
 _symmetry_equiv_pos_site_id
 _symmetry_equiv_pos_as_xyz
  1  'x, y, z'
loop_
 _atom_site_type_symbol
 _atom_site_label
 _atom_site_symmetry_multiplicity
 _atom_site_fract_x
 _atom_site_fract_y
 _atom_site_fract_z
 _atom_site_occupancy
  Zr  Zr0  1  0.99380097  0.30877101  0.49380098  1
  Zr  Zr1  1  0.49380098  0.30877201  0.31497099  1
  Zr  Zr2  1  0.81496997  0.30877001  0.99379997  1
  Zr  Zr3  1  0.50619899  0.69122801  0.68502898  1
  Zr  Zr4  1  0.31496999  0.30877101  0.81496997  1
  Zr  Zr5  1  0.00619900  0.69122901  0.50619899  1
  Zr  Zr6  1  0.68502998  0.69122901  0.18503000  1
  Zr  Zr7  1  0.18503000  0.69123001  0.00620000  1
  Zr  Zr8  1  0.49999998  0.00000000  0.49999998  1
  Zr  Zr9  1  0.00000000  0.00000000  0.00000000  1
  P  P10  1  0.86364297  0.00000100  0.63635798  1
  P  P11  1  0.36364299  1.00000002  0.86364298  1
  P  P12  1  0.63635698  0.00000000  0.13635700  1
  P  P13  1  0.13635700  0.99999902  0.36364199  1
  P  P14  1  0.24999999  0.50000001  0.24999999  1
  P  P15  1  0.74999998  0.50000001  0.74999998  1
