# generated using pymatgen
data_NaNbO3
_symmetry_space_group_name_H-M   'P 1'
_cell_length_a   5.43839979
_cell_length_b   5.48246813
_cell_length_c   7.59391212
_cell_angle_alpha   90.00000000
_cell_angle_beta   90.62532043
_cell_angle_gamma   90.00000000
_symmetry_Int_Tables_number   1
_chemical_formula_structural   NaNbO3
_chemical_formula_sum   'Na4 Nb4 O12'
_cell_volume   226.40548699
_cell_formula_units_Z   4
loop_
 _symmetry_equiv_pos_site_id
 _symmetry_equiv_pos_as_xyz
  1  'x, y, z'
loop_
 _atom_site_type_symbol
 _atom_site_label
 _atom_site_symmetry_multiplicity
 _atom_site_fract_x
 _atom_site_fract_y
 _atom_site_fract_z
 _atom_site_occupancy
  Na  Na0  1  0.51284902  0.20662200  0.75153199  1
  Na  Na1  1  0.01284900  0.79337798  0.25153200  1
  Na  Na2  1  0.99276304  0.71014398  0.75262897  1
  Na  Na3  1  0.49276302  0.28985599  0.25262898  1
  Nb  Nb4  1  0.99952204  0.24898299  0.99978698  1
  Nb  Nb5  1  0.99932304  0.24819899  0.50028197  1
  Nb  Nb6  1  0.49952202  0.75101698  0.49978699  1
  Nb  Nb7  1  0.49932302  0.75180098  0.00028198  1
  O  O8  1  0.92970504  0.23353099  0.25387097  1
  O  O9  1  0.79345103  0.97565698  0.96108198  1
  O  O10  1  0.78512103  0.96578798  0.53722898  1
  O  O11  1  0.70282803  0.47150699  0.53903898  1
  O  O12  1  0.72204003  0.45710599  0.95681799  1
  O  O13  1  0.57408102  0.73532598  0.23896798  1
  O  O14  1  0.42970502  0.76646898  0.75387100  1
  O  O15  1  0.28512101  0.03421200  0.03722899  1
  O  O16  1  0.29345101  0.02434300  0.46108200  1
  O  O17  1  0.20282801  0.52849299  0.03903899  1
  O  O18  1  0.22204001  0.54289399  0.45681800  1
  O  O19  1  0.07408100  0.26467399  0.73896801  1
