# generated using pymatgen
data_CeAl5Si2
_symmetry_space_group_name_H-M   'P 1'
_cell_length_a   4.68210411
_cell_length_b   4.68210411
_cell_length_c   8.32967758
_cell_angle_alpha   90.00000000
_cell_angle_beta   90.00000000
_cell_angle_gamma   120.00000000
_symmetry_Int_Tables_number   1
_chemical_formula_structural   CeAl5Si2
_chemical_formula_sum   'Ce1 Al5 Si2'
_cell_volume   158.13971650
_cell_formula_units_Z   1
loop_
 _symmetry_equiv_pos_site_id
 _symmetry_equiv_pos_as_xyz
  1  'x, y, z'
loop_
 _atom_site_type_symbol
 _atom_site_label
 _atom_site_symmetry_multiplicity
 _atom_site_fract_x
 _atom_site_fract_y
 _atom_site_fract_z
 _atom_site_occupancy
  Al  Al0  1  0.00000000  0.00000000  0.75000004  1
  Al  Al1  1  0.00000000  0.00000000  0.25000001  1
  Ce  Ce2  1  0.66666665  0.33333332  0.07631900  1
  Al  Al3  1  0.33333332  0.66666665  0.92368105  1
  Al  Al4  1  0.33333332  0.66666665  0.57631903  1
  Si  Si5  1  0.66666665  0.33333332  0.42368102  1
  Al  Al6  1  0.66666665  0.33333332  0.75000004  1
  Si  Si7  1  0.33333332  0.66666665  0.25000001  1
