# generated using pymatgen
data_Ce5CS3
_symmetry_space_group_name_H-M   'P 1'
_cell_length_a   5.89961720
_cell_length_b   8.73189831
_cell_length_c   8.73189735
_cell_angle_alpha   120.00000000
_cell_angle_beta   90.00000000
_cell_angle_gamma   90.00000000
_symmetry_Int_Tables_number   1
_chemical_formula_structural   Ce5CS3
_chemical_formula_sum   'Ce10 C2 S6'
_cell_volume   389.55766634
_cell_formula_units_Z   2
loop_
 _symmetry_equiv_pos_site_id
 _symmetry_equiv_pos_as_xyz
  1  'x, y, z'
loop_
 _atom_site_type_symbol
 _atom_site_label
 _atom_site_symmetry_multiplicity
 _atom_site_fract_x
 _atom_site_fract_y
 _atom_site_fract_z
 _atom_site_occupancy
  Ce  Ce0  1  0.49999998  0.33333332  0.66666667  1
  Ce  Ce1  1  0.49999998  0.66666663  0.33333332  1
  Ce  Ce2  1  0.00000000  0.66666663  0.33333332  1
  Ce  Ce3  1  0.00000000  0.33333332  0.66666667  1
  Ce  Ce4  1  0.74999998  0.25589799  -0.00000001  1
  Ce  Ce5  1  0.74999998  0.74410196  0.74410199  1
  Ce  Ce6  1  0.74999998  0.00000000  0.25589801  1
  Ce  Ce7  1  0.24999999  0.74410196  -0.00000002  1
  Ce  Ce8  1  0.24999999  0.25589799  0.25589800  1
  Ce  Ce9  1  0.24999999  0.00000000  0.74410202  1
  S  S10  1  0.74999998  0.60636397  1.00000001  1
  S  S11  1  0.74999998  0.39363598  0.39363600  1
  S  S12  1  0.74999998  0.00000000  0.60636401  1
  S  S13  1  0.24999999  0.39363598  -0.00000001  1
  S  S14  1  0.24999999  0.60636397  0.60636400  1
  S  S15  1  0.24999999  0.00000000  0.39363601  1
  C  C16  1  0.49999998  0.00000000  -0.00000000  1
  C  C17  1  0.00000000  0.00000000  0.00000000  1
