# generated using pymatgen
data_Mn3Si2
_symmetry_space_group_name_H-M   'P 1'
_cell_length_a   5.92948484
_cell_length_b   5.92948484
_cell_length_c   6.89760399
_cell_angle_alpha   90.00000000
_cell_angle_beta   90.00000000
_cell_angle_gamma   90.00000000
_symmetry_Int_Tables_number   1
_chemical_formula_structural   Mn3Si2
_chemical_formula_sum   'Mn12 Si8'
_cell_volume   242.51141371
_cell_formula_units_Z   4
loop_
 _symmetry_equiv_pos_site_id
 _symmetry_equiv_pos_as_xyz
  1  'x, y, z'
loop_
 _atom_site_type_symbol
 _atom_site_label
 _atom_site_symmetry_multiplicity
 _atom_site_fract_x
 _atom_site_fract_y
 _atom_site_fract_z
 _atom_site_occupancy
  Mn  Mn0  1  0.66425602  0.81436902  0.50000000  1
  Mn  Mn1  1  0.33574401  0.18563100  0.50000000  1
  Mn  Mn2  1  0.83574402  0.31436901  -0.00000000  1
  Mn  Mn3  1  0.16425600  0.68563102  -0.00000000  1
  Mn  Mn4  1  0.81436902  0.33574401  0.50000000  1
  Mn  Mn5  1  0.18563100  0.66425602  0.50000000  1
  Mn  Mn6  1  0.31436901  0.16425600  -0.00000000  1
  Mn  Mn7  1  0.68563102  0.83574402  -0.00000000  1
  Si  Si8  1  0.38687801  0.88687802  0.25000000  1
  Si  Si9  1  0.61312202  0.11312200  0.25000000  1
  Si  Si10  1  0.11312200  0.38687801  0.75000000  1
  Si  Si11  1  0.88687802  0.61312202  0.75000000  1
  Si  Si12  1  0.88687802  0.61312202  0.25000000  1
  Si  Si13  1  0.11312200  0.38687801  0.25000000  1
  Si  Si14  1  0.38687801  0.88687802  0.75000000  1
  Si  Si15  1  0.61312202  0.11312200  0.75000000  1
  Mn  Mn16  1  0.50000001  0.50000001  0.22103600  1
  Mn  Mn17  1  0.00000000  0.00000000  0.72103600  1
  Mn  Mn18  1  0.50000001  0.50000001  0.77896400  1
  Mn  Mn19  1  0.00000000  0.00000000  0.27896400  1
