# generated using pymatgen
data_DySi2Ni
_symmetry_space_group_name_H-M   'P 1'
_cell_length_a   4.10150623
_cell_length_b   4.16261387
_cell_length_c   8.48478985
_cell_angle_alpha   90.00000000
_cell_angle_beta   103.98675537
_cell_angle_gamma   90.00000000
_symmetry_Int_Tables_number   1
_chemical_formula_structural   DySi2Ni
_chemical_formula_sum   'Dy2 Si4 Ni2'
_cell_volume   140.56581979
_cell_formula_units_Z   2
loop_
 _symmetry_equiv_pos_site_id
 _symmetry_equiv_pos_as_xyz
  1  'x, y, z'
loop_
 _atom_site_type_symbol
 _atom_site_label
 _atom_site_symmetry_multiplicity
 _atom_site_fract_x
 _atom_site_fract_y
 _atom_site_fract_z
 _atom_site_occupancy
  Dy  Dy0  1  0.89164296  0.25000001  0.78328605  1
  Dy  Dy1  1  0.10835699  0.75000002  0.21671401  1
  Ni  Ni2  1  0.68113997  0.25000001  0.36228003  1
  Ni  Ni3  1  0.31885999  0.75000002  0.63772003  1
  Si  Si4  1  0.54460997  0.25000001  0.08922002  1
  Si  Si5  1  0.45538998  0.75000002  0.91078004  1
  Si  Si6  1  0.25141699  0.25000001  0.50283402  1
  Si  Si7  1  0.74858297  0.75000002  0.49716603  1
