# generated using pymatgen
data_Dy3Ge5Pd3
_symmetry_space_group_name_H-M   'P 1'
_cell_length_a   4.15059805
_cell_length_b   7.04117584
_cell_length_c   8.01295567
_cell_angle_alpha   116.06317902
_cell_angle_beta   105.01031494
_cell_angle_gamma   90.00000000
_symmetry_Int_Tables_number   1
_chemical_formula_structural   Dy3Ge5Pd3
_chemical_formula_sum   'Dy3 Ge5 Pd3'
_cell_volume   201.43287184
_cell_formula_units_Z   1
loop_
 _symmetry_equiv_pos_site_id
 _symmetry_equiv_pos_as_xyz
  1  'x, y, z'
loop_
 _atom_site_type_symbol
 _atom_site_label
 _atom_site_symmetry_multiplicity
 _atom_site_fract_x
 _atom_site_fract_y
 _atom_site_fract_z
 _atom_site_occupancy
  Dy  Dy0  1  0.87560200  0.87560203  0.75120406  1
  Dy  Dy1  1  0.00000001  0.50000002  0.00000001  1
  Dy  Dy2  1  0.12439800  0.12439800  0.24879602  1
  Pd  Pd3  1  0.32358000  0.51263802  0.64716005  1
  Pd  Pd4  1  0.67642100  0.86547903  0.35284104  1
  Ge  Ge5  1  0.32357900  0.13452100  0.64715904  1
  Pd  Pd6  1  0.67642000  0.48736202  0.35284003  1
  Ge  Ge7  1  0.22020901  0.72020902  0.44041804  1
  Ge  Ge8  1  0.50000001  0.80241203  1.00000007  1
  Ge  Ge9  1  0.50000000  0.19758801  0.00000001  1
  Ge  Ge10  1  0.77979100  0.27979101  0.55958204  1
