# generated using pymatgen
data_ZrAl7
_symmetry_space_group_name_H-M   'P 1'
_cell_length_a   3.97798610
_cell_length_b   3.97798610
_cell_length_c   17.60720634
_cell_angle_alpha   90.00000000
_cell_angle_beta   90.00000000
_cell_angle_gamma   90.00000000
_symmetry_Int_Tables_number   1
_chemical_formula_structural   ZrAl7
_chemical_formula_sum   'Zr2 Al14'
_cell_volume   278.62300756
_cell_formula_units_Z   2
loop_
 _symmetry_equiv_pos_site_id
 _symmetry_equiv_pos_as_xyz
  1  'x, y, z'
loop_
 _atom_site_type_symbol
 _atom_site_label
 _atom_site_symmetry_multiplicity
 _atom_site_fract_x
 _atom_site_fract_y
 _atom_site_fract_z
 _atom_site_occupancy
  Al  Al0  1  0.00000000  0.00000000  0.88133603  1
  Al  Al1  1  0.00000000  0.00000000  0.11760700  1
  Zr  Zr2  1  0.49999999  0.49999999  0.61981802  1
  Al  Al3  1  0.49999999  0.49999999  0.38093301  1
  Al  Al4  1  0.49999999  0.00000000  0.00003400  1
  Al  Al5  1  0.00000000  0.49999999  0.49994702  1
  Al  Al6  1  0.49999999  0.00000000  0.49994702  1
  Al  Al7  1  0.00000000  0.49999999  0.00003400  1
  Al  Al8  1  0.49999999  0.49999999  0.12666000  1
  Al  Al9  1  0.00000000  0.00000000  0.62317002  1
  Al  Al10  1  0.00000000  0.00000000  0.37590301  1
  Al  Al11  1  0.49999999  0.49999999  0.87531503  1
  Al  Al12  1  0.00000000  0.49999999  0.24969401  1
  Al  Al13  1  0.49999999  0.00000000  0.74995403  1
  Zr  Zr14  1  0.49999999  0.00000000  0.24969401  1
  Al  Al15  1  0.00000000  0.49999999  0.74995403  1
