# generated using pymatgen
data_VO2
_symmetry_space_group_name_H-M   'P 1'
_cell_length_a   4.34744501
_cell_length_b   4.74632502
_cell_length_c   5.46840000
_cell_angle_alpha   90.00000000
_cell_angle_beta   90.00000000
_cell_angle_gamma   90.00000000
_symmetry_Int_Tables_number   1
_chemical_formula_structural   VO2
_chemical_formula_sum   'V4 O8'
_cell_volume   112.83708197
_cell_formula_units_Z   4
loop_
 _symmetry_equiv_pos_site_id
 _symmetry_equiv_pos_as_xyz
  1  'x, y, z'
loop_
 _atom_site_type_symbol
 _atom_site_label
 _atom_site_symmetry_multiplicity
 _atom_site_fract_x
 _atom_site_fract_y
 _atom_site_fract_z
 _atom_site_occupancy
  O  O0  1  0.25081800  0.08465700  0.87343400  1
  O  O1  1  0.75081800  0.91534300  0.62656600  1
  O  O2  1  0.24918200  0.58465700  0.62656600  1
  O  O3  1  0.74918200  0.41534300  0.87343400  1
  O  O4  1  0.25081800  0.58465700  0.12656600  1
  O  O5  1  0.75081800  0.41534300  0.37343400  1
  O  O6  1  0.24918200  0.08465700  0.37343400  1
  O  O7  1  0.74918200  0.91534300  0.12656600  1
  V  V8  1  0.50000000  0.75000000  0.86506600  1
  V  V9  1  0.00000000  0.25000000  0.63493400  1
  V  V10  1  0.50000000  0.25000000  0.13493400  1
  V  V11  1  0.00000000  0.75000000  0.36506600  1
