# generated using pymatgen
data_NaLa5O8
_symmetry_space_group_name_H-M   'P 1'
_cell_length_a   7.27709532
_cell_length_b   7.27764225
_cell_length_c   7.27847862
_cell_angle_alpha   60.01821136
_cell_angle_beta   60.01403427
_cell_angle_gamma   60.01326370
_symmetry_Int_Tables_number   1
_chemical_formula_structural   NaLa5O8
_chemical_formula_sum   'Na1 La5 O8'
_cell_volume   272.66142958
_cell_formula_units_Z   1
loop_
 _symmetry_equiv_pos_site_id
 _symmetry_equiv_pos_as_xyz
  1  'x, y, z'
loop_
 _atom_site_type_symbol
 _atom_site_label
 _atom_site_symmetry_multiplicity
 _atom_site_fract_x
 _atom_site_fract_y
 _atom_site_fract_z
 _atom_site_occupancy
  Na  Na0  1  0.12569700  0.12568900  0.62565301  1
  La  La1  1  0.87426999  0.87427498  0.37437099  1
  La  La2  1  0.50021999  0.49992399  0.49998900  1
  La  La3  1  0.00001799  0.50001099  0.99994302  1
  La  La4  1  0.49996898  0.99999197  0.00001200  1
  La  La5  1  0.49994099  0.50011499  -0.00000001  1
  O  O6  1  0.26509100  0.26498699  0.21348600  1
  O  O7  1  0.28653498  0.73493898  0.23495201  1
  O  O8  1  0.73743899  0.73760898  0.23756399  1
  O  O9  1  0.73485400  0.28653299  0.23499998  1
  O  O10  1  0.26254400  0.26240399  0.76242600  1
  O  O11  1  0.26512298  0.71345998  0.76498701  1
  O  O12  1  0.73485899  0.73502598  0.78652000  1
  O  O13  1  0.71343900  0.26503399  0.76509499  1
