# generated using pymatgen
data_Ce(NiGe)2
_symmetry_space_group_name_H-M   'P 1'
_cell_length_a   4.21552181
_cell_length_b   4.21552181
_cell_length_c   5.77525759
_cell_angle_alpha   111.40536499
_cell_angle_beta   111.40536499
_cell_angle_gamma   90.00000000
_symmetry_Int_Tables_number   1
_chemical_formula_structural   Ce(NiGe)2
_chemical_formula_sum   'Ce1 Ni2 Ge2'
_cell_volume   87.90315743
_cell_formula_units_Z   1
loop_
 _symmetry_equiv_pos_site_id
 _symmetry_equiv_pos_as_xyz
  1  'x, y, z'
loop_
 _atom_site_type_symbol
 _atom_site_label
 _atom_site_symmetry_multiplicity
 _atom_site_fract_x
 _atom_site_fract_y
 _atom_site_fract_z
 _atom_site_occupancy
  Ce  Ce0  1  0.00000000  0.00000000  0.00000000  1
  Ge  Ge1  1  0.36768901  0.36768901  0.73537799  1
  Ge  Ge2  1  0.63231101  0.63231102  0.26462198  1
  Ni  Ni3  1  0.25000000  0.75000003  0.49999999  1
  Ni  Ni4  1  0.75000002  0.25000001  0.49999999  1
