# generated using pymatgen
data_K(CuTe)2
_symmetry_space_group_name_H-M   'P 1'
_cell_length_a   4.02458191
_cell_length_b   4.02458191
_cell_length_c   7.70326138
_cell_angle_alpha   105.14281464
_cell_angle_beta   105.14281464
_cell_angle_gamma   90.00000000
_symmetry_Int_Tables_number   1
_chemical_formula_structural   K(CuTe)2
_chemical_formula_sum   'K1 Cu2 Te2'
_cell_volume   115.94523243
_cell_formula_units_Z   1
loop_
 _symmetry_equiv_pos_site_id
 _symmetry_equiv_pos_as_xyz
  1  'x, y, z'
loop_
 _atom_site_type_symbol
 _atom_site_label
 _atom_site_symmetry_multiplicity
 _atom_site_fract_x
 _atom_site_fract_y
 _atom_site_fract_z
 _atom_site_occupancy
  Cu  Cu0  1  0.75000003  0.25000001  0.50000001  1
  K  K1  1  0.00000000  0.00000000  0.00000000  1
  Cu  Cu2  1  0.25000002  0.75000003  0.50000001  1
  Te  Te3  1  0.64150303  0.64150302  0.28300602  1
  Te  Te4  1  0.35849702  0.35849701  0.71699400  1
