# generated using pymatgen
data_Sc4Mn3Ge5
_symmetry_space_group_name_H-M   'P 1'
_cell_length_a   4.12022018
_cell_length_b   6.76058197
_cell_length_c   7.07397604
_cell_angle_alpha   90.00000000
_cell_angle_beta   90.00000000
_cell_angle_gamma   90.00000000
_symmetry_Int_Tables_number   1
_chemical_formula_structural   Sc4Mn3Ge5
_chemical_formula_sum   'Sc4 Mn3 Ge5'
_cell_volume   197.04621301
_cell_formula_units_Z   1
loop_
 _symmetry_equiv_pos_site_id
 _symmetry_equiv_pos_as_xyz
  1  'x, y, z'
loop_
 _atom_site_type_symbol
 _atom_site_label
 _atom_site_symmetry_multiplicity
 _atom_site_fract_x
 _atom_site_fract_y
 _atom_site_fract_z
 _atom_site_occupancy
  Sc  Sc0  1  0.24999999  0.48975300  0.19963100  1
  Sc  Sc1  1  0.74999997  0.51024700  0.80036900  1
  Sc  Sc2  1  0.74999997  0.01024700  0.69963100  1
  Sc  Sc3  1  0.24999999  0.98975300  0.30036900  1
  Ge  Ge4  1  0.24999999  0.80914300  0.90696199  1
  Mn  Mn5  1  0.74999997  0.19085700  0.09303800  1
  Mn  Mn6  1  0.74999997  0.69085700  0.40696200  1
  Mn  Mn7  1  0.24999999  0.30914300  0.59303800  1
  Ge  Ge8  1  0.24999999  0.68429800  0.57913900  1
  Ge  Ge9  1  0.74999997  0.31570200  0.42086100  1
  Ge  Ge10  1  0.74999997  0.81570200  0.07913900  1
  Ge  Ge11  1  0.24999999  0.18429800  0.92086099  1
