# generated using pymatgen
data_CrCo2Te11
_symmetry_space_group_name_H-M   'P 1'
_cell_length_a   7.86490822
_cell_length_b   7.86490822
_cell_length_c   7.86490822
_cell_angle_alpha   60.00000000
_cell_angle_beta   60.00000000
_cell_angle_gamma   60.00000000
_symmetry_Int_Tables_number   1
_chemical_formula_structural   CrCo2Te11
_chemical_formula_sum   'Cr1 Co2 Te11'
_cell_volume   344.00596941
_cell_formula_units_Z   1
loop_
 _symmetry_equiv_pos_site_id
 _symmetry_equiv_pos_as_xyz
  1  'x, y, z'
loop_
 _atom_site_type_symbol
 _atom_site_label
 _atom_site_symmetry_multiplicity
 _atom_site_fract_x
 _atom_site_fract_y
 _atom_site_fract_z
 _atom_site_occupancy
  Te  Te0  1  0.87500001  0.37500000  0.87500001  1
  Te  Te1  1  0.87500001  0.87500001  0.87500001  1
  Te  Te2  1  0.87500001  0.87500001  0.37500000  1
  Te  Te3  1  0.37500000  0.87500001  0.87500001  1
  Co  Co4  1  0.25000000  0.25000000  0.25000000  1
  Co  Co5  1  0.50000001  0.50000001  0.50000001  1
  Te  Te6  1  0.11628400  0.11628500  0.11628500  1
  Te  Te7  1  0.63371601  0.09885400  0.63371501  1
  Te  Te8  1  0.09885500  0.63371501  0.63371501  1
  Te  Te9  1  0.63371601  0.63371501  0.09885400  1
  Te  Te10  1  0.65114501  0.11628500  0.11628500  1
  Te  Te11  1  0.11628400  0.11628500  0.65114601  1
  Cr  Cr12  1  0.63371601  0.63371501  0.63371501  1
  Te  Te13  1  0.11628400  0.65114601  0.11628500  1
