# generated using pymatgen
data_ScSiIr
_symmetry_space_group_name_H-M   'P 1'
_cell_length_a   3.98954606
_cell_length_b   6.59133291
_cell_length_c   7.45097589
_cell_angle_alpha   90.00000000
_cell_angle_beta   90.00000000
_cell_angle_gamma   90.00000000
_symmetry_Int_Tables_number   1
_chemical_formula_structural   ScSiIr
_chemical_formula_sum   'Sc4 Si4 Ir4'
_cell_volume   195.93403815
_cell_formula_units_Z   4
loop_
 _symmetry_equiv_pos_site_id
 _symmetry_equiv_pos_as_xyz
  1  'x, y, z'
loop_
 _atom_site_type_symbol
 _atom_site_label
 _atom_site_symmetry_multiplicity
 _atom_site_fract_x
 _atom_site_fract_y
 _atom_site_fract_z
 _atom_site_occupancy
  Sc  Sc0  1  0.25000000  0.01858300  0.31793500  1
  Sc  Sc1  1  0.25000000  0.51858301  0.18206500  1
  Sc  Sc2  1  0.74999999  0.98141701  0.68206501  1
  Sc  Sc3  1  0.74999999  0.48141701  0.81793501  1
  Si  Si4  1  0.25000000  0.27860300  0.61840601  1
  Si  Si5  1  0.25000000  0.77860301  0.88159401  1
  Si  Si6  1  0.74999999  0.72139701  0.38159401  1
  Si  Si7  1  0.74999999  0.22139700  0.11840600  1
  Ir  Ir8  1  0.25000000  0.15197500  0.93495301  1
  Ir  Ir9  1  0.25000000  0.65197501  0.56504701  1
  Ir  Ir10  1  0.74999999  0.84802501  0.06504700  1
  Ir  Ir11  1  0.74999999  0.34802500  0.43495301  1
