# generated using pymatgen
data_RbMnZn2Te3
_symmetry_space_group_name_H-M   'P 1'
_cell_length_a   4.58070230
_cell_length_b   4.58070230
_cell_length_c   9.11344433
_cell_angle_alpha   75.44461060
_cell_angle_beta   75.44461060
_cell_angle_gamma   59.99999619
_symmetry_Int_Tables_number   1
_chemical_formula_structural   RbMnZn2Te3
_chemical_formula_sum   'Rb1 Mn1 Zn2 Te3'
_cell_volume   158.48003868
_cell_formula_units_Z   1
loop_
 _symmetry_equiv_pos_site_id
 _symmetry_equiv_pos_as_xyz
  1  'x, y, z'
loop_
 _atom_site_type_symbol
 _atom_site_label
 _atom_site_symmetry_multiplicity
 _atom_site_fract_x
 _atom_site_fract_y
 _atom_site_fract_z
 _atom_site_occupancy
  Rb  Rb0  1  0.00000000  0.00000000  0.00000000  1
  Te  Te1  1  0.42955600  0.42955600  0.71133194  1
  Zn  Zn2  1  0.57044400  0.57044400  0.28866796  1
  Mn  Mn3  1  0.13567800  0.13567800  0.59296596  1
  Te  Te4  1  0.86432200  0.86432199  0.40703393  1
  Te  Te5  1  0.24210100  0.24210100  0.27369697  1
  Zn  Zn6  1  0.75789900  0.75789899  0.72630292  1
