# generated using pymatgen
data_LiCr3O4
_symmetry_space_group_name_H-M   'P 1'
_cell_length_a   3.09930205
_cell_length_b   6.01822138
_cell_length_c   6.08781958
_cell_angle_alpha   63.56322861
_cell_angle_beta   85.69866943
_cell_angle_gamma   87.33221436
_symmetry_Int_Tables_number   1
_chemical_formula_structural   LiCr3O4
_chemical_formula_sum   'Li1 Cr3 O4'
_cell_volume   101.37982867
_cell_formula_units_Z   1
loop_
 _symmetry_equiv_pos_site_id
 _symmetry_equiv_pos_as_xyz
  1  'x, y, z'
loop_
 _atom_site_type_symbol
 _atom_site_label
 _atom_site_symmetry_multiplicity
 _atom_site_fract_x
 _atom_site_fract_y
 _atom_site_fract_z
 _atom_site_occupancy
  Li  Li0  1  0.09998801  0.10009700  0.40042499  1
  Cr  Cr1  1  0.59998106  0.59996700  0.89980596  1
  Cr  Cr2  1  0.10003901  0.09977500  0.90041598  1
  Cr  Cr3  1  0.59978306  0.60011400  0.39995496  1
  O  O4  1  0.60237609  0.85399000  0.53892995  1
  O  O5  1  0.60237209  0.85365100  0.03895296  1
  O  O6  1  0.59766703  0.34603100  0.76082596  1
  O  O7  1  0.59758903  0.34637400  0.26079397  1
