# generated using pymatgen
data_La3Ni3Te4
_symmetry_space_group_name_H-M   'P 1'
_cell_length_a   4.07097578
_cell_length_b   4.07097626
_cell_length_c   18.22854233
_cell_angle_alpha   90.00000000
_cell_angle_beta   90.00000000
_cell_angle_gamma   120.00000000
_symmetry_Int_Tables_number   1
_chemical_formula_structural   La3Ni3Te4
_chemical_formula_sum   'La3 Ni3 Te4'
_cell_volume   261.62525273
_cell_formula_units_Z   1
loop_
 _symmetry_equiv_pos_site_id
 _symmetry_equiv_pos_as_xyz
  1  'x, y, z'
loop_
 _atom_site_type_symbol
 _atom_site_label
 _atom_site_symmetry_multiplicity
 _atom_site_fract_x
 _atom_site_fract_y
 _atom_site_fract_z
 _atom_site_occupancy
  La  La0  1  0.00000000  0.00000000  0.89433403  1
  La  La1  1  0.00000000  0.00000000  0.39433401  1
  Te  Te2  1  0.00000000  0.00000000  0.10566600  1
  La  La3  1  0.00000000  0.00000000  0.60566602  1
  Te  Te4  1  0.33333339  0.66666669  0.00179300  1
  Ni  Ni5  1  0.66666672  0.33333335  0.50179302  1
  Ni  Ni6  1  0.66666672  0.33333335  0.99820704  1
  Ni  Ni7  1  0.33333339  0.66666669  0.49820702  1
  Te  Te8  1  0.33333339  0.66666669  0.75000003  1
  Te  Te9  1  0.66666672  0.33333335  0.25000001  1
