# generated using pymatgen
data_CaAlO3
_symmetry_space_group_name_H-M   'P 1'
_cell_length_a   5.63352394
_cell_length_b   7.62494946
_cell_length_c   7.62494946
_cell_angle_alpha   87.94429016
_cell_angle_beta   77.52005768
_cell_angle_gamma   77.52005768
_symmetry_Int_Tables_number   1
_chemical_formula_structural   CaAlO3
_chemical_formula_sum   'Ca4 Al4 O12'
_cell_volume   312.21693184
_cell_formula_units_Z   4
loop_
 _symmetry_equiv_pos_site_id
 _symmetry_equiv_pos_as_xyz
  1  'x, y, z'
loop_
 _atom_site_type_symbol
 _atom_site_label
 _atom_site_symmetry_multiplicity
 _atom_site_fract_x
 _atom_site_fract_y
 _atom_site_fract_z
 _atom_site_occupancy
  Al  Al0  1  0.73017198  0.11298700  0.27854197  1
  Al  Al1  1  0.76982793  0.72145802  0.88701295  1
  Al  Al2  1  0.26982793  0.88701303  0.72145797  1
  Al  Al3  1  0.23017198  0.27854201  0.11298698  1
  Ca  Ca4  1  0.74999997  0.24115701  0.75884297  1
  Ca  Ca5  1  0.24999994  0.75884302  0.24115697  1
  Ca  Ca6  1  0.74999994  0.59401302  0.40598695  1
  Ca  Ca7  1  0.24999997  0.40598701  0.59401298  1
  O  O8  1  0.95668197  0.19171201  0.10368295  1
  O  O9  1  0.54331793  0.89631703  0.80828796  1
  O  O10  1  0.04331794  0.80828802  0.89631698  1
  O  O11  1  0.45668198  0.10368300  0.19171198  1
  O  O12  1  0.85683492  0.90840703  0.34929394  1
  O  O13  1  0.64316494  0.65070602  0.09159295  1
  O  O14  1  0.14316499  0.09159300  0.65070600  1
  O  O15  1  0.35683497  0.34929401  0.90840699  1
  O  O16  1  0.14580697  0.45016501  0.26675198  1
  O  O17  1  0.35419294  0.73324802  0.54983497  1
  O  O18  1  0.85419294  0.54983502  0.73324795  1
  O  O19  1  0.64580697  0.26675201  0.45016497  1
