# generated using pymatgen
data_Zr4Mn5SiC5
_symmetry_space_group_name_H-M   'P 1'
_cell_length_a   3.83508611
_cell_length_b   3.83508611
_cell_length_c   15.68822384
_cell_angle_alpha   82.97929382
_cell_angle_beta   82.97929382
_cell_angle_gamma   60.00000000
_symmetry_Int_Tables_number   1
_chemical_formula_structural   Zr4Mn5SiC5
_chemical_formula_sum   'Zr4 Mn5 Si1 C5'
_cell_volume   197.82697131
_cell_formula_units_Z   1
loop_
 _symmetry_equiv_pos_site_id
 _symmetry_equiv_pos_as_xyz
  1  'x, y, z'
loop_
 _atom_site_type_symbol
 _atom_site_label
 _atom_site_symmetry_multiplicity
 _atom_site_fract_x
 _atom_site_fract_y
 _atom_site_fract_z
 _atom_site_occupancy
  Mn  Mn0  1  0.60277500  0.60277499  0.19167500  1
  Si  Si1  1  0.20081100  0.20081100  0.39756701  1
  C  C2  1  0.79918900  0.79918898  0.60243301  1
  C  C3  1  0.39722500  0.39722499  0.80832502  1
  C  C4  1  0.00000000  0.00000000  0.00000000  1
  C  C5  1  0.04647700  0.04647700  0.86056902  1
  Zr  Zr6  1  0.44880200  0.44880199  0.65359402  1
  Zr  Zr7  1  0.85023400  0.85023398  0.44929801  1
  Mn  Mn8  1  0.65286800  0.65286798  0.04139600  1
  Mn  Mn9  1  0.25240900  0.25240899  0.24277301  1
  Zr  Zr10  1  0.34713200  0.34713199  0.95860403  1
  Zr  Zr11  1  0.74759100  0.74759098  0.75722702  1
  C  C12  1  0.14976600  0.14976600  0.55070201  1
  Mn  Mn13  1  0.95352300  0.95352298  0.13943100  1
  Mn  Mn14  1  0.55119800  0.55119799  0.34640601  1
