# generated using pymatgen
data_La3Mg
_symmetry_space_group_name_H-M   'P 1'
_cell_length_a   5.15400982
_cell_length_b   5.15400982
_cell_length_c   6.33852100
_cell_angle_alpha   113.98908234
_cell_angle_beta   113.98908234
_cell_angle_gamma   90.00000000
_symmetry_Int_Tables_number   1
_chemical_formula_structural   La3Mg
_chemical_formula_sum   'La3 Mg1'
_cell_volume   137.76082580
_cell_formula_units_Z   1
loop_
 _symmetry_equiv_pos_site_id
 _symmetry_equiv_pos_as_xyz
  1  'x, y, z'
loop_
 _atom_site_type_symbol
 _atom_site_label
 _atom_site_symmetry_multiplicity
 _atom_site_fract_x
 _atom_site_fract_y
 _atom_site_fract_z
 _atom_site_occupancy
  La  La0  1  0.75000006  0.25000002  0.50000005  1
  La  La1  1  0.25000006  0.75000005  0.50000006  1
  Mg  Mg2  1  0.50000006  0.50000004  0.00000006  1
  La  La3  1  0.00000000  0.00000000  0.00000000  1
