# generated using pymatgen
data_NaS
_symmetry_space_group_name_H-M   'P 1'
_cell_length_a   3.96916604
_cell_length_b   3.96916556
_cell_length_c   17.22114372
_cell_angle_alpha   90.00000000
_cell_angle_beta   90.00000000
_cell_angle_gamma   120.00000763
_symmetry_Int_Tables_number   1
_chemical_formula_structural   NaS
_chemical_formula_sum   'Na5 S5'
_cell_volume   234.95845148
_cell_formula_units_Z   5
loop_
 _symmetry_equiv_pos_site_id
 _symmetry_equiv_pos_as_xyz
  1  'x, y, z'
loop_
 _atom_site_type_symbol
 _atom_site_label
 _atom_site_symmetry_multiplicity
 _atom_site_fract_x
 _atom_site_fract_y
 _atom_site_fract_z
 _atom_site_occupancy
  Na  Na0  1  0.00000000  0.00000000  0.89663096  1
  S  S1  1  0.00000000  0.00000000  0.10336900  1
  Na  Na2  1  0.00000000  0.00000000  0.39663098  1
  Na  Na3  1  0.00000000  0.00000000  0.60336897  1
  S  S4  1  0.66666668  0.33333334  0.49843998  1
  S  S5  1  0.33333338  0.66666668  0.50155998  1
  S  S6  1  0.33333338  0.66666668  0.99843996  1
  Na  Na7  1  0.66666668  0.33333334  0.00156000  1
  Na  Na8  1  0.66666668  0.33333334  0.74999997  1
  S  S9  1  0.33333338  0.66666668  0.24999999  1
