# generated using pymatgen
data_Lu3GaAu5
_symmetry_space_group_name_H-M   'P 1'
_cell_length_a   4.15237904
_cell_length_b   7.02722406
_cell_length_c   7.02722359
_cell_angle_alpha   120.00000000
_cell_angle_beta   90.00000000
_cell_angle_gamma   90.00000000
_symmetry_Int_Tables_number   1
_chemical_formula_structural   Lu3GaAu5
_chemical_formula_sum   'Lu3 Ga1 Au5'
_cell_volume   177.58046733
_cell_formula_units_Z   1
loop_
 _symmetry_equiv_pos_site_id
 _symmetry_equiv_pos_as_xyz
  1  'x, y, z'
loop_
 _atom_site_type_symbol
 _atom_site_label
 _atom_site_symmetry_multiplicity
 _atom_site_fract_x
 _atom_site_fract_y
 _atom_site_fract_z
 _atom_site_occupancy
  Lu  Lu0  1  0.50000000  0.58061898  0.58061897  1
  Lu  Lu1  1  0.50000000  0.99999997  0.41938096  1
  Lu  Lu2  1  0.50000000  0.41938099  -0.00000002  1
  Au  Au3  1  0.99999999  0.66666665  0.33333331  1
  Au  Au4  1  0.00000000  0.33333332  0.66666665  1
  Au  Au5  1  0.50000000  0.00000000  -0.00000000  1
  Ga  Ga6  1  0.00000000  0.25004899  0.25004899  1
  Au  Au7  1  0.99999999  0.00000000  0.74995100  1
  Au  Au8  1  0.00000000  0.74995098  -0.00000003  1
