# generated using pymatgen
data_CaMg3I2
_symmetry_space_group_name_H-M   'P 1'
_cell_length_a   3.32812810
_cell_length_b   3.32812762
_cell_length_c   16.00103378
_cell_angle_alpha   90.00000000
_cell_angle_beta   90.00000000
_cell_angle_gamma   120.00000000
_symmetry_Int_Tables_number   1
_chemical_formula_structural   CaMg3I2
_chemical_formula_sum   'Ca1 Mg3 I2'
_cell_volume   153.48950285
_cell_formula_units_Z   1
loop_
 _symmetry_equiv_pos_site_id
 _symmetry_equiv_pos_as_xyz
  1  'x, y, z'
loop_
 _atom_site_type_symbol
 _atom_site_label
 _atom_site_symmetry_multiplicity
 _atom_site_fract_x
 _atom_site_fract_y
 _atom_site_fract_z
 _atom_site_occupancy
  Mg  Mg0  1  0.33333328  0.66666665  0.66030101  1
  I  I1  1  0.33333328  0.66666665  0.33969900  1
  Ca  Ca2  1  0.00000000  0.00000000  0.18098700  1
  I  I3  1  0.33333328  0.66666665  -0.00000000  1
  Mg  Mg4  1  0.00000000  0.00000000  0.81901301  1
  Mg  Mg5  1  0.00000000  0.00000000  0.50000001  1
