# generated using pymatgen
data_Tm3Ni6B2P
_symmetry_space_group_name_H-M   'P 1'
_cell_length_a   4.99243546
_cell_length_b   4.99395990
_cell_length_c   6.82815695
_cell_angle_alpha   90.00000000
_cell_angle_beta   90.00000000
_cell_angle_gamma   119.98989868
_symmetry_Int_Tables_number   1
_chemical_formula_structural   Tm3Ni6B2P
_chemical_formula_sum   'Tm3 Ni6 B2 P1'
_cell_volume   147.44696357
_cell_formula_units_Z   1
loop_
 _symmetry_equiv_pos_site_id
 _symmetry_equiv_pos_as_xyz
  1  'x, y, z'
loop_
 _atom_site_type_symbol
 _atom_site_label
 _atom_site_symmetry_multiplicity
 _atom_site_fract_x
 _atom_site_fract_y
 _atom_site_fract_z
 _atom_site_occupancy
  Tm  Tm0  1  0.99999004  0.00000000  -0.00000000  1
  Tm  Tm1  1  0.99999604  0.00000000  0.50000000  1
  Tm  Tm2  1  0.33325698  0.66666664  0.00000000  1
  Ni  Ni3  1  0.66666668  0.33339999  0.00000000  1
  Ni  Ni4  1  0.49999902  0.00000000  0.28835200  1
  P  P5  1  0.49999499  0.50000398  0.28840000  1
  Ni  Ni6  1  0.99999101  0.49999598  0.28840000  1
  Ni  Ni7  1  0.49999902  0.00000000  0.71164801  1
  Ni  Ni8  1  0.49999499  0.50000398  0.71160001  1
  Ni  Ni9  1  0.99999101  0.49999598  0.71160001  1
  B  B10  1  0.33325898  0.66658797  0.50000000  1
  B  B11  1  0.66666668  0.33341199  0.50000000  1
