# generated using pymatgen
data_Ca2SiN4
_symmetry_space_group_name_H-M   'P 1'
_cell_length_a   5.03143692
_cell_length_b   5.03143692
_cell_length_c   5.03143692
_cell_angle_alpha   95.80344391
_cell_angle_beta   116.70788574
_cell_angle_gamma   116.70788574
_symmetry_Int_Tables_number   1
_chemical_formula_structural   Ca2SiN4
_chemical_formula_sum   'Ca2 Si1 N4'
_cell_volume   94.02557815
_cell_formula_units_Z   1
loop_
 _symmetry_equiv_pos_site_id
 _symmetry_equiv_pos_as_xyz
  1  'x, y, z'
loop_
 _atom_site_type_symbol
 _atom_site_label
 _atom_site_symmetry_multiplicity
 _atom_site_fract_x
 _atom_site_fract_y
 _atom_site_fract_z
 _atom_site_occupancy
  Ca  Ca0  1  0.50000000  0.75000000  0.24999999  1
  Ca  Ca1  1  0.50000000  0.25000000  0.75000000  1
  N  N2  1  0.55593400  0.77796700  0.77796699  1
  N  N3  1  0.44406600  0.22203300  0.22203300  1
  N  N4  1  0.00000000  0.77796700  0.22203299  1
  N  N5  1  0.00000000  0.22203300  0.77796699  1
  Si  Si6  1  0.00000000  0.00000000  0.00000000  1
