# generated using pymatgen
data_V3Zn3(OF)4
_symmetry_space_group_name_H-M   'P 1'
_cell_length_a   5.62605906
_cell_length_b   6.78433514
_cell_length_c   6.78433514
_cell_angle_alpha   90.00000000
_cell_angle_beta   90.00000000
_cell_angle_gamma   90.00000000
_symmetry_Int_Tables_number   1
_chemical_formula_structural   V3Zn3(OF)4
_chemical_formula_sum   'V3 Zn3 O4 F4'
_cell_volume   258.95176360
_cell_formula_units_Z   1
loop_
 _symmetry_equiv_pos_site_id
 _symmetry_equiv_pos_as_xyz
  1  'x, y, z'
loop_
 _atom_site_type_symbol
 _atom_site_label
 _atom_site_symmetry_multiplicity
 _atom_site_fract_x
 _atom_site_fract_y
 _atom_site_fract_z
 _atom_site_occupancy
  Zn  Zn0  1  0.73246099  0.74999998  0.74999998  1
  V  V1  1  0.26753900  0.24999999  0.24999999  1
  V  V2  1  0.00000000  0.74999998  0.24999999  1
  V  V3  1  0.00000000  0.24999999  0.74999998  1
  F  F4  1  0.66448799  0.24999999  0.24999999  1
  F  F5  1  0.33551200  0.74999998  0.74999998  1
  O  O6  1  0.18515500  0.96512298  0.24999999  1
  O  O7  1  0.18515500  0.53487699  0.24999999  1
  O  O8  1  0.18515500  0.24999999  0.53487699  1
  O  O9  1  0.18515500  0.24999999  0.96512298  1
  F  F10  1  0.81484499  0.74999998  0.46512299  1
  Zn  Zn11  1  0.81484499  0.03487700  0.74999998  1
  Zn  Zn12  1  0.81484499  0.74999998  0.03487700  1
  F  F13  1  0.81484499  0.46512299  0.74999998  1
