# generated using pymatgen
data_Ce4NiS8
_symmetry_space_group_name_H-M   'P 1'
_cell_length_a   3.96816707
_cell_length_b   4.08307695
_cell_length_c   16.02800941
_cell_angle_alpha   90.00000000
_cell_angle_beta   90.00000000
_cell_angle_gamma   90.00000000
_symmetry_Int_Tables_number   1
_chemical_formula_structural   Ce4NiS8
_chemical_formula_sum   'Ce4 Ni1 S8'
_cell_volume   259.69112180
_cell_formula_units_Z   1
loop_
 _symmetry_equiv_pos_site_id
 _symmetry_equiv_pos_as_xyz
  1  'x, y, z'
loop_
 _atom_site_type_symbol
 _atom_site_label
 _atom_site_symmetry_multiplicity
 _atom_site_fract_x
 _atom_site_fract_y
 _atom_site_fract_z
 _atom_site_occupancy
  Ce  Ce0  1  0.25000000  0.00000000  0.09693100  1
  Ce  Ce1  1  0.25000000  0.50000001  0.61004698  1
  Ce  Ce2  1  0.74999999  0.50000001  0.39941699  1
  Ce  Ce3  1  0.74999999  0.00000000  0.89485198  1
  S  S4  1  0.25000000  0.00000000  0.46761799  1
  S  S5  1  0.25000000  0.50000001  0.94024198  1
  S  S6  1  0.74999999  0.50000001  0.04785000  1
  S  S7  1  0.74999999  0.00000000  0.57097699  1
  S  S8  1  0.25000000  0.50000001  0.22887499  1
  S  S9  1  0.25000000  0.00000000  0.75031898  1
  S  S10  1  0.74999999  0.00000000  0.22724199  1
  S  S11  1  0.74999999  0.50000001  0.75513898  1
  Ni  Ni12  1  0.25000000  0.00000000  0.31749199  1
