# generated using pymatgen
data_CeSe2
_symmetry_space_group_name_H-M   'P 1'
_cell_length_a   4.04202080
_cell_length_b   7.40061235
_cell_length_c   7.40061188
_cell_angle_alpha   119.99999237
_cell_angle_beta   90.00000000
_cell_angle_gamma   90.00000000
_symmetry_Int_Tables_number   1
_chemical_formula_structural   CeSe2
_chemical_formula_sum   'Ce3 Se6'
_cell_volume   191.71870801
_cell_formula_units_Z   3
loop_
 _symmetry_equiv_pos_site_id
 _symmetry_equiv_pos_as_xyz
  1  'x, y, z'
loop_
 _atom_site_type_symbol
 _atom_site_label
 _atom_site_symmetry_multiplicity
 _atom_site_fract_x
 _atom_site_fract_y
 _atom_site_fract_z
 _atom_site_occupancy
  Ce  Ce0  1  0.50000003  0.00000000  0.58598101  1
  Ce  Ce1  1  0.50000003  0.41401900  0.41401900  1
  Ce  Ce2  1  0.50000003  0.58598101  1.00000001  1
  Se  Se3  1  0.00000000  0.00000000  0.25425300  1
  Se  Se4  1  0.00000000  0.25425300  1.00000001  1
  Se  Se5  1  0.00000000  0.74574701  0.74574700  1
  Se  Se6  1  -0.00000000  0.66666667  0.33333333  1
  Se  Se7  1  0.50000003  0.00000000  -0.00000000  1
  Se  Se8  1  1.00000005  0.33333334  0.66666667  1
