# generated using pymatgen
data_GaCu3Se4
_symmetry_space_group_name_H-M   'P 1'
_cell_length_a   5.64267588
_cell_length_b   5.64267588
_cell_length_c   6.85276318
_cell_angle_alpha   114.31217957
_cell_angle_beta   114.31217957
_cell_angle_gamma   90.00000000
_symmetry_Int_Tables_number   1
_chemical_formula_structural   GaCu3Se4
_chemical_formula_sum   'Ga1 Cu3 Se4'
_cell_volume   177.39212204
_cell_formula_units_Z   1
loop_
 _symmetry_equiv_pos_site_id
 _symmetry_equiv_pos_as_xyz
  1  'x, y, z'
loop_
 _atom_site_type_symbol
 _atom_site_label
 _atom_site_symmetry_multiplicity
 _atom_site_fract_x
 _atom_site_fract_y
 _atom_site_fract_z
 _atom_site_occupancy
  Se  Se0  1  0.50000001  0.50000001  -0.00000001  1
  Se  Se1  1  0.25000000  0.75000001  0.49999998  1
  Se  Se2  1  0.00000000  0.00000000  0.00000000  1
  Se  Se3  1  0.75000001  0.25000000  0.49999998  1
  Cu  Cu4  1  0.12683700  0.62500001  0.74999997  1
  Cu  Cu5  1  0.87500001  0.87316302  0.24999998  1
  Ga  Ga6  1  0.37500000  0.37683701  0.24999999  1
  Cu  Cu7  1  0.62316301  0.12500000  0.74999998  1
