# generated using pymatgen
data_RbSi2Pt3
_symmetry_space_group_name_H-M   'P 1'
_cell_length_a   4.24824810
_cell_length_b   4.24824810
_cell_length_c   7.71592522
_cell_angle_alpha   90.00000000
_cell_angle_beta   90.00000000
_cell_angle_gamma   120.00000000
_symmetry_Int_Tables_number   1
_chemical_formula_structural   RbSi2Pt3
_chemical_formula_sum   'Rb1 Si2 Pt3'
_cell_volume   120.59752230
_cell_formula_units_Z   1
loop_
 _symmetry_equiv_pos_site_id
 _symmetry_equiv_pos_as_xyz
  1  'x, y, z'
loop_
 _atom_site_type_symbol
 _atom_site_label
 _atom_site_symmetry_multiplicity
 _atom_site_fract_x
 _atom_site_fract_y
 _atom_site_fract_z
 _atom_site_occupancy
  Si  Si0  1  0.33333335  0.66666671  0.32132199  1
  Si  Si1  1  0.66666667  0.33333335  0.67867798  1
  Pt  Pt2  1  0.00000000  0.00000000  0.49999999  1
  Pt  Pt3  1  0.33333335  0.66666671  0.64146998  1
  Pt  Pt4  1  0.66666667  0.33333335  0.35852999  1
  Rb  Rb5  1  0.00000000  0.00000000  0.00000000  1
