# generated using pymatgen
data_Re3Cl7O10
_symmetry_space_group_name_H-M   'P 1'
_cell_length_a   5.39978695
_cell_length_b   5.92029762
_cell_length_c   10.77904797
_cell_angle_alpha   90.57691193
_cell_angle_beta   93.60527039
_cell_angle_gamma   93.71774292
_symmetry_Int_Tables_number   1
_chemical_formula_structural   Re3Cl7O10
_chemical_formula_sum   'Re3 Cl7 O10'
_cell_volume   343.14803219
_cell_formula_units_Z   1
loop_
 _symmetry_equiv_pos_site_id
 _symmetry_equiv_pos_as_xyz
  1  'x, y, z'
loop_
 _atom_site_type_symbol
 _atom_site_label
 _atom_site_symmetry_multiplicity
 _atom_site_fract_x
 _atom_site_fract_y
 _atom_site_fract_z
 _atom_site_occupancy
  O  O0  1  0.00000000  0.00000000  0.49999998  1
  Re  Re1  1  0.00000000  0.00000000  0.00000000  1
  Re  Re2  1  0.41045601  0.38470101  0.74863999  1
  Re  Re3  1  0.58954401  0.61529901  0.25136001  1
  Cl  Cl4  1  0.84879001  0.18527400  0.36133801  1
  Cl  Cl5  1  0.15121000  0.81472602  0.63866199  1
  Cl  Cl6  1  0.70887701  0.04929900  0.60477300  1
  Cl  Cl7  1  0.29112300  0.95070102  0.39522700  1
  O  O8  1  0.42469401  0.54705601  0.12359601  1
  O  O9  1  0.57530601  0.45294401  0.87640399  1
  O  O10  1  0.40192901  0.47849301  0.34051800  1
  O  O11  1  0.59807101  0.52150701  0.65948200  1
  O  O12  1  0.88872801  0.28027001  0.08390302  1
  O  O13  1  0.11127200  0.71973002  0.91609698  1
  O  O14  1  0.32741300  0.03690200  0.10318500  1
  O  O15  1  0.67258701  0.96309802  0.89681499  1
  Cl  Cl16  1  0.86249301  0.79256702  0.14270703  1
  O  O17  1  0.13750700  0.20743300  0.85729297  1
  Cl  Cl18  1  0.81626601  0.69972102  0.42172801  1
  Cl  Cl19  1  0.18373400  0.30027901  0.57827199  1
