# generated using pymatgen
data_CeSbAsPd2
_symmetry_space_group_name_H-M   'P 1'
_cell_length_a   4.47230816
_cell_length_b   4.47230816
_cell_length_c   5.97319317
_cell_angle_alpha   111.98506927
_cell_angle_beta   111.98506927
_cell_angle_gamma   90.00000000
_symmetry_Int_Tables_number   1
_chemical_formula_structural   CeSbAsPd2
_chemical_formula_sum   'Ce1 Sb1 As1 Pd2'
_cell_volume   101.35525683
_cell_formula_units_Z   1
loop_
 _symmetry_equiv_pos_site_id
 _symmetry_equiv_pos_as_xyz
  1  'x, y, z'
loop_
 _atom_site_type_symbol
 _atom_site_label
 _atom_site_symmetry_multiplicity
 _atom_site_fract_x
 _atom_site_fract_y
 _atom_site_fract_z
 _atom_site_occupancy
  Ce  Ce0  1  0.00035100  0.00035100  0.00070200  1
  Pd  Pd1  1  0.24507604  0.74507600  0.49015207  1
  Pd  Pd2  1  0.74507600  0.24507600  0.49015206  1
  Sb  Sb3  1  0.58438102  0.58438100  0.16876207  1
  As  As4  1  0.34771601  0.34771600  0.69543206  1
