# generated using pymatgen
data_Na2C4O5
_symmetry_space_group_name_H-M   'P 1'
_cell_length_a   3.92772794
_cell_length_b   5.31056738
_cell_length_c   7.61573553
_cell_angle_alpha   96.10816956
_cell_angle_beta   104.94367218
_cell_angle_gamma   90.00000000
_symmetry_Int_Tables_number   1
_chemical_formula_structural   Na2C4O5
_chemical_formula_sum   'Na2 C4 O5'
_cell_volume   152.54652204
_cell_formula_units_Z   1
loop_
 _symmetry_equiv_pos_site_id
 _symmetry_equiv_pos_as_xyz
  1  'x, y, z'
loop_
 _atom_site_type_symbol
 _atom_site_label
 _atom_site_symmetry_multiplicity
 _atom_site_fract_x
 _atom_site_fract_y
 _atom_site_fract_z
 _atom_site_occupancy
  Na  Na0  1  0.13452701  0.07114200  0.26905401  1
  Na  Na1  1  0.86547306  0.92885801  0.73094607  1
  C  C2  1  0.67205404  0.59386501  0.34410805  1
  C  C3  1  0.32794602  0.40613501  0.65589203  1
  O  O4  1  0.00000002  0.50000001  0.00000002  1
  C  C5  1  0.01091303  0.73350501  0.02182604  1
  O  O6  1  0.31047202  0.17048700  0.62094402  1
  O  O7  1  0.34243503  0.63673101  0.68487004  1
  C  C8  1  0.98908704  0.26649500  0.97817405  1
  O  O9  1  0.68952805  0.82951301  0.37905606  1
  O  O10  1  0.65756503  0.36326900  0.31513004  1
