# generated using pymatgen
data_Zr2Sn4Pd3
_symmetry_space_group_name_H-M   'P 1'
_cell_length_a   3.90908289
_cell_length_b   7.49844980
_cell_length_c   7.49845076
_cell_angle_alpha   120.00000000
_cell_angle_beta   90.00000000
_cell_angle_gamma   90.00000000
_symmetry_Int_Tables_number   1
_chemical_formula_structural   Zr2Sn4Pd3
_chemical_formula_sum   'Zr2 Sn4 Pd3'
_cell_volume   190.34809876
_cell_formula_units_Z   1
loop_
 _symmetry_equiv_pos_site_id
 _symmetry_equiv_pos_as_xyz
  1  'x, y, z'
loop_
 _atom_site_type_symbol
 _atom_site_label
 _atom_site_symmetry_multiplicity
 _atom_site_fract_x
 _atom_site_fract_y
 _atom_site_fract_z
 _atom_site_occupancy
  Zr  Zr0  1  0.50000001  0.58945403  0.58945403  1
  Sn  Sn1  1  0.50000001  1.00000006  0.41054606  1
  Zr  Zr2  1  0.50000001  0.41054602  0.00000003  1
  Sn  Sn3  1  -0.00000000  0.25330201  0.25330201  1
  Sn  Sn4  1  1.00000003  0.00000000  0.74669799  1
  Sn  Sn5  1  -0.00000000  0.74669804  0.00000005  1
  Pd  Pd6  1  0.50000001  0.00000000  -0.00000000  1
  Pd  Pd7  1  -0.00000000  0.66666670  0.33333337  1
  Pd  Pd8  1  -0.00000000  0.33333335  0.66666668  1
