# generated using pymatgen
data_AlNi5(P2Pd)2
_symmetry_space_group_name_H-M   'P 1'
_cell_length_a   3.77855897
_cell_length_b   6.16658401
_cell_length_c   6.98658991
_cell_angle_alpha   90.00000000
_cell_angle_beta   90.00000000
_cell_angle_gamma   90.00000000
_symmetry_Int_Tables_number   1
_chemical_formula_structural   AlNi5(P2Pd)2
_chemical_formula_sum   'Al1 Ni5 P4 Pd2'
_cell_volume   162.79314351
_cell_formula_units_Z   1
loop_
 _symmetry_equiv_pos_site_id
 _symmetry_equiv_pos_as_xyz
  1  'x, y, z'
loop_
 _atom_site_type_symbol
 _atom_site_label
 _atom_site_symmetry_multiplicity
 _atom_site_fract_x
 _atom_site_fract_y
 _atom_site_fract_z
 _atom_site_occupancy
  Al  Al0  1  0.75000001  0.97688100  0.67906901  1
  Pd  Pd1  1  0.75000001  0.47688100  0.82093101  1
  Ni  Ni2  1  0.25000000  0.02311900  0.32093100  1
  Pd  Pd3  1  0.25000000  0.52311900  0.17906900  1
  Ni  Ni4  1  0.75000001  0.85768500  0.05841900  1
  Ni  Ni5  1  0.75000001  0.35768500  0.44158101  1
  Ni  Ni6  1  0.25000000  0.14231500  0.94158101  1
  Ni  Ni7  1  0.25000000  0.64231500  0.55841901  1
  P  P8  1  0.75000001  0.74172100  0.37665400  1
  P  P9  1  0.75000001  0.24172100  0.12334600  1
  P  P10  1  0.25000000  0.25827900  0.62334601  1
  P  P11  1  0.25000000  0.75827900  0.87665401  1
