# generated using pymatgen
data_CeU3Te4
_symmetry_space_group_name_H-M   'P 1'
_cell_length_a   4.40918493
_cell_length_b   5.93129206
_cell_length_c   7.76431799
_cell_angle_alpha   90.00000000
_cell_angle_beta   90.00000000
_cell_angle_gamma   90.00000000
_symmetry_Int_Tables_number   1
_chemical_formula_structural   CeU3Te4
_chemical_formula_sum   'Ce1 U3 Te4'
_cell_volume   203.05371406
_cell_formula_units_Z   1
loop_
 _symmetry_equiv_pos_site_id
 _symmetry_equiv_pos_as_xyz
  1  'x, y, z'
loop_
 _atom_site_type_symbol
 _atom_site_label
 _atom_site_symmetry_multiplicity
 _atom_site_fract_x
 _atom_site_fract_y
 _atom_site_fract_z
 _atom_site_occupancy
  Ce  Ce0  1  0.25000000  0.36953900  0.68125600  1
  U  U1  1  0.25000000  0.13046100  0.18125600  1
  U  U2  1  0.75000001  0.63046099  0.31874400  1
  U  U3  1  0.75000001  0.86953899  0.81874400  1
  Te  Te4  1  0.25000000  0.89573399  0.52969800  1
  Te  Te5  1  0.25000000  0.60426599  0.02969800  1
  Te  Te6  1  0.75000001  0.10426600  0.47030200  1
  Te  Te7  1  0.75000001  0.39573400  0.97030200  1
