# generated using pymatgen
data_CsAgCl3
_symmetry_space_group_name_H-M   'P 1'
_cell_length_a   5.40651703
_cell_length_b   5.40737200
_cell_length_c   5.40737200
_cell_angle_alpha   89.97828674
_cell_angle_beta   90.00395966
_cell_angle_gamma   89.99604034
_symmetry_Int_Tables_number   1
_chemical_formula_structural   CsAgCl3
_chemical_formula_sum   'Cs1 Ag1 Cl3'
_cell_volume   158.08477206
_cell_formula_units_Z   1
loop_
 _symmetry_equiv_pos_site_id
 _symmetry_equiv_pos_as_xyz
  1  'x, y, z'
loop_
 _atom_site_type_symbol
 _atom_site_label
 _atom_site_symmetry_multiplicity
 _atom_site_fract_x
 _atom_site_fract_y
 _atom_site_fract_z
 _atom_site_occupancy
  Cs  Cs0  1  0.99998500  0.00195300  0.99804711  1
  Ag  Ag1  1  0.48521297  0.50210602  0.49789405  1
  Cl  Cl2  1  0.48277600  0.00057900  0.49552305  1
  Cl  Cl3  1  0.98514097  0.49271102  0.50728908  1
  Cl  Cl4  1  0.48277597  0.50447702  0.99942107  1
