# generated using pymatgen
data_LiV5O8
_symmetry_space_group_name_H-M   'P 1'
_cell_length_a   5.93356991
_cell_length_b   5.96829128
_cell_length_c   5.96829128
_cell_angle_alpha   60.16344833
_cell_angle_beta   60.19226074
_cell_angle_gamma   60.19226074
_symmetry_Int_Tables_number   1
_chemical_formula_structural   LiV5O8
_chemical_formula_sum   'Li1 V5 O8'
_cell_volume   150.06995855
_cell_formula_units_Z   1
loop_
 _symmetry_equiv_pos_site_id
 _symmetry_equiv_pos_as_xyz
  1  'x, y, z'
loop_
 _atom_site_type_symbol
 _atom_site_label
 _atom_site_symmetry_multiplicity
 _atom_site_fract_x
 _atom_site_fract_y
 _atom_site_fract_z
 _atom_site_occupancy
  Li  Li0  1  0.87636403  0.87363598  0.37363599  1
  V  V1  1  0.12363600  0.12636400  0.62636399  1
  V  V2  1  0.50000002  0.49999999  -0.00000000  1
  V  V3  1  1.00000002  0.49999999  0.00000002  1
  V  V4  1  0.50000000  0.00000000  0.00000002  1
  V  V5  1  0.50000002  0.49999999  0.49999999  1
  O  O6  1  0.25356201  0.27713600  0.21573899  1
  O  O7  1  0.25356303  0.71573799  0.77713597  1
  O  O8  1  0.26031401  0.26623700  0.76623698  1
  O  O9  1  0.70721201  0.26623700  0.76623700  1
  O  O10  1  0.29278803  0.73376299  0.23376298  1
  O  O11  1  0.73968603  0.73376299  0.23376299  1
  O  O12  1  0.74643701  0.28426200  0.22286401  1
  O  O13  1  0.74643803  0.72286399  0.78426098  1
