# generated using pymatgen
data_Li3Mn2O5
_symmetry_space_group_name_H-M   'P 1'
_cell_length_a   5.17042351
_cell_length_b   6.11480141
_cell_length_c   6.92372799
_cell_angle_alpha   104.76177216
_cell_angle_beta   98.73178864
_cell_angle_gamma   106.17568207
_symmetry_Int_Tables_number   1
_chemical_formula_structural   Li3Mn2O5
_chemical_formula_sum   'Li6 Mn4 O10'
_cell_volume   197.35994673
_cell_formula_units_Z   2
loop_
 _symmetry_equiv_pos_site_id
 _symmetry_equiv_pos_as_xyz
  1  'x, y, z'
loop_
 _atom_site_type_symbol
 _atom_site_label
 _atom_site_symmetry_multiplicity
 _atom_site_fract_x
 _atom_site_fract_y
 _atom_site_fract_z
 _atom_site_occupancy
  Li  Li0  1  0.80053802  0.09918000  0.60540503  1
  Li  Li1  1  0.59946206  0.70082003  0.19459504  1
  Li  Li2  1  0.40670703  0.30320101  0.80613703  1
  Li  Li3  1  0.99329305  0.49679902  0.99386305  1
  Mn  Mn4  1  0.80052506  0.60238803  0.59349705  1
  Li  Li5  1  0.59947503  0.19761201  0.20650302  1
  Mn  Mn6  1  0.40278407  0.80037403  0.79373105  1
  Mn  Mn7  1  0.20000003  0.40000002  0.40000003  1
  Li  Li8  1  0.20000007  0.90000004  0.40000005  1
  Mn  Mn9  1  0.99721609  0.99962604  0.00626906  1
  O  O10  1  0.93428202  0.08478600  0.30898403  1
  O  O11  1  0.92278306  0.53301702  0.31901205  1
  O  O12  1  0.69407002  0.10873600  0.91961803  1
  O  O13  1  0.70593006  0.69126403  0.88038205  1
  O  O14  1  0.47721703  0.26698301  0.48098803  1
  O  O15  1  0.46571806  0.71521403  0.49101605  1
  O  O16  1  0.27092303  0.31825601  0.12798202  1
  O  O17  1  0.27658907  0.87530604  0.10058604  1
  O  O18  1  0.12907704  0.48174402  0.67201803  1
  O  O19  1  0.12341107  0.92469404  0.69941405  1
