# generated using pymatgen
data_Rb3CdInBr5
_symmetry_space_group_name_H-M   'P 1'
_cell_length_a   4.74820185
_cell_length_b   8.80595779
_cell_length_c   11.00904942
_cell_angle_alpha   67.82200623
_cell_angle_beta   77.54634094
_cell_angle_gamma   74.35943604
_symmetry_Int_Tables_number   1
_chemical_formula_structural   Rb3CdInBr5
_chemical_formula_sum   'Rb3 Cd1 In1 Br5'
_cell_volume   407.11481650
_cell_formula_units_Z   1
loop_
 _symmetry_equiv_pos_site_id
 _symmetry_equiv_pos_as_xyz
  1  'x, y, z'
loop_
 _atom_site_type_symbol
 _atom_site_label
 _atom_site_symmetry_multiplicity
 _atom_site_fract_x
 _atom_site_fract_y
 _atom_site_fract_z
 _atom_site_occupancy
  Rb  Rb0  1  0.31269801  0.14202400  0.23258001  1
  Rb  Rb1  1  0.68730205  0.85797598  0.76742002  1
  Rb  Rb2  1  0.50000003  0.49999999  0.50000001  1
  In  In3  1  0.05030603  0.69603898  0.20334900  1
  Cd  Cd4  1  0.94969403  0.30396099  0.79665102  1
  Br  Br5  1  0.00000000  0.00000000  0.00000000  1
  Br  Br6  1  0.09938401  0.23622699  0.56500500  1
  Br  Br7  1  0.90061605  0.76377298  0.43499502  1
  Br  Br8  1  0.63604004  0.52341999  0.20450001  1
  Br  Br9  1  0.36396003  0.47657999  0.79550001  1
