# generated using pymatgen
data_ScNiB2
_symmetry_space_group_name_H-M   'P 1'
_cell_length_a   3.43963194
_cell_length_b   5.45250607
_cell_length_c   5.45250607
_cell_angle_alpha   120.00000000
_cell_angle_beta   90.00000000
_cell_angle_gamma   90.00000000
_symmetry_Int_Tables_number   1
_chemical_formula_structural   ScNiB2
_chemical_formula_sum   'Sc2 Ni2 B4'
_cell_volume   88.55945177
_cell_formula_units_Z   2
loop_
 _symmetry_equiv_pos_site_id
 _symmetry_equiv_pos_as_xyz
  1  'x, y, z'
loop_
 _atom_site_type_symbol
 _atom_site_label
 _atom_site_symmetry_multiplicity
 _atom_site_fract_x
 _atom_site_fract_y
 _atom_site_fract_z
 _atom_site_occupancy
  Sc  Sc0  1  0.75000001  0.33333333  0.66666670  1
  Sc  Sc1  1  0.25000000  0.66666667  0.33333337  1
  B  B2  1  0.25000000  0.11259500  0.22519001  1
  B  B3  1  0.25000000  0.77481100  0.88740605  1
  B  B4  1  0.25000000  0.11259500  0.88740603  1
  Ni  Ni5  1  0.75000001  0.88740500  0.77481005  1
  Ni  Ni6  1  0.75000001  0.22518900  0.11259401  1
  B  B7  1  0.75000001  0.88740500  0.11259403  1
