# generated using pymatgen
data_Ce(NiGe)2
_symmetry_space_group_name_H-M   'P 1'
_cell_length_a   4.14408779
_cell_length_b   4.14408779
_cell_length_c   5.89288282
_cell_angle_alpha   110.58631897
_cell_angle_beta   110.58631897
_cell_angle_gamma   90.00000000
_symmetry_Int_Tables_number   1
_chemical_formula_structural   Ce(NiGe)2
_chemical_formula_sum   'Ce1 Ni2 Ge2'
_cell_volume   87.80214693
_cell_formula_units_Z   1
loop_
 _symmetry_equiv_pos_site_id
 _symmetry_equiv_pos_as_xyz
  1  'x, y, z'
loop_
 _atom_site_type_symbol
 _atom_site_label
 _atom_site_symmetry_multiplicity
 _atom_site_fract_x
 _atom_site_fract_y
 _atom_site_fract_z
 _atom_site_occupancy
  Ce  Ce0  1  0.00000000  0.00000000  0.00000000  1
  Ni  Ni1  1  0.75000007  0.25000002  0.50000004  1
  Ge  Ge2  1  0.62967308  0.62967305  0.25934606  1
  Ge  Ge3  1  0.37032705  0.37032703  0.74065402  1
  Ni  Ni4  1  0.25000006  0.75000006  0.50000005  1
