# generated using pymatgen
data_Zn2HgCl5
_symmetry_space_group_name_H-M   'P 1'
_cell_length_a   6.43510389
_cell_length_b   6.67009020
_cell_length_c   6.67009020
_cell_angle_alpha   76.54418945
_cell_angle_beta   61.15870667
_cell_angle_gamma   61.15870667
_symmetry_Int_Tables_number   1
_chemical_formula_structural   Zn2HgCl5
_chemical_formula_sum   'Zn2 Hg1 Cl5'
_cell_volume   219.67810982
_cell_formula_units_Z   1
loop_
 _symmetry_equiv_pos_site_id
 _symmetry_equiv_pos_as_xyz
  1  'x, y, z'
loop_
 _atom_site_type_symbol
 _atom_site_label
 _atom_site_symmetry_multiplicity
 _atom_site_fract_x
 _atom_site_fract_y
 _atom_site_fract_z
 _atom_site_occupancy
  Zn  Zn0  1  0.75000000  0.50000000  0.49999999  1
  Zn  Zn1  1  0.24999999  0.50000000  0.50000001  1
  Hg  Hg2  1  0.75000002  0.00000000  -0.00000002  1
  Cl  Cl3  1  0.25000001  0.00000000  -0.00000001  1
  Cl  Cl4  1  0.65687400  0.50000000  0.18625200  1
  Cl  Cl5  1  0.15687300  0.18625300  0.50000000  1
  Cl  Cl6  1  0.34312599  0.50000000  0.81374800  1
  Cl  Cl7  1  0.84312699  0.81374699  0.50000000  1
