# generated using pymatgen
data_CeNd2(InPt)3
_symmetry_space_group_name_H-M   'P 1'
_cell_length_a   3.86695004
_cell_length_b   8.03831768
_cell_length_c   8.03831768
_cell_angle_alpha   120.00000000
_cell_angle_beta   90.00000000
_cell_angle_gamma   90.00000000
_symmetry_Int_Tables_number   1
_chemical_formula_structural   CeNd2(InPt)3
_chemical_formula_sum   'Ce1 Nd2 In3 Pt3'
_cell_volume   216.38618192
_cell_formula_units_Z   1
loop_
 _symmetry_equiv_pos_site_id
 _symmetry_equiv_pos_as_xyz
  1  'x, y, z'
loop_
 _atom_site_type_symbol
 _atom_site_label
 _atom_site_symmetry_multiplicity
 _atom_site_fract_x
 _atom_site_fract_y
 _atom_site_fract_z
 _atom_site_occupancy
  Ce  Ce0  1  0.50000000  0.60096901  -0.00000003  1
  Nd  Nd1  1  0.50000000  1.00000002  0.60096894  1
  Nd  Nd2  1  0.50000000  0.39903101  0.39903097  1
  Pt  Pt3  1  0.50000000  0.00000000  -0.00000000  1
  Pt  Pt4  1  0.99999999  0.33333334  0.66666664  1
  Pt  Pt5  1  0.00000000  0.66666668  0.33333330  1
  In  In6  1  0.99999999  0.72957001  0.72956995  1
  In  In7  1  0.99999999  0.27043001  -0.00000001  1
  In  In8  1  0.00000000  0.00000000  0.27042999  1
