# generated using pymatgen
data_Li3Ni7B3O2
_symmetry_space_group_name_H-M   'P 1'
_cell_length_a   5.74921465
_cell_length_b   5.74921465
_cell_length_c   6.07721758
_cell_angle_alpha   61.76989365
_cell_angle_beta   61.76989365
_cell_angle_gamma   59.99999237
_symmetry_Int_Tables_number   1
_chemical_formula_structural   Li3Ni7B3O2
_chemical_formula_sum   'Li3 Ni7 B3 O2'
_cell_volume   145.72066509
_cell_formula_units_Z   1
loop_
 _symmetry_equiv_pos_site_id
 _symmetry_equiv_pos_as_xyz
  1  'x, y, z'
loop_
 _atom_site_type_symbol
 _atom_site_label
 _atom_site_symmetry_multiplicity
 _atom_site_fract_x
 _atom_site_fract_y
 _atom_site_fract_z
 _atom_site_occupancy
  Li  Li0  1  0.00000000  0.00000000  0.00000000  1
  B  B1  1  0.35796500  0.35796500  0.92610501  1
  B  B2  1  0.50000000  0.50000000  0.50000002  1
  B  B3  1  0.64203500  0.64203500  0.07389502  1
  O  O4  1  -0.00000000  0.50000000  0.50000001  1
  Ni  Ni5  1  0.00000000  0.00000000  0.50000000  1
  O  O6  1  0.50000000  0.00000000  0.50000001  1
  Ni  Ni7  1  0.23297800  0.23297800  0.30106601  1
  Li  Li8  1  0.74411900  0.21922900  0.29253302  1
  Ni  Ni9  1  0.74411900  0.74411900  0.29253303  1
  Li  Li10  1  0.21922900  0.74411900  0.29253302  1
  Ni  Ni11  1  0.76702200  0.76702200  0.69893403  1
  Ni  Ni12  1  0.25588100  0.78077100  0.70746702  1
  Ni  Ni13  1  0.25588100  0.25588100  0.70746701  1
  Ni  Ni14  1  0.78077100  0.25588100  0.70746702  1
