# generated using pymatgen
data_Y2Mn8Fe2Si7C
_symmetry_space_group_name_H-M   'P 1'
_cell_length_a   6.27876139
_cell_length_b   6.33219147
_cell_length_c   6.33219147
_cell_angle_alpha   83.44972229
_cell_angle_beta   83.43587494
_cell_angle_gamma   83.43587494
_symmetry_Int_Tables_number   1
_chemical_formula_structural   Y2Mn8Fe2Si7C
_chemical_formula_sum   'Y2 Mn8 Fe2 Si7 C1'
_cell_volume   247.16263922
_cell_formula_units_Z   1
loop_
 _symmetry_equiv_pos_site_id
 _symmetry_equiv_pos_as_xyz
  1  'x, y, z'
loop_
 _atom_site_type_symbol
 _atom_site_label
 _atom_site_symmetry_multiplicity
 _atom_site_fract_x
 _atom_site_fract_y
 _atom_site_fract_z
 _atom_site_occupancy
  Y  Y0  1  0.35430699  0.33994601  0.33994602  1
  Y  Y1  1  0.64569298  0.66005401  0.66005405  1
  Si  Si2  1  0.09788500  0.09565400  0.09565401  1
  Mn  Mn3  1  0.90211497  0.90434602  0.90434606  1
  Mn  Mn4  1  0.14673099  0.65418801  0.65418805  1
  Si  Si5  1  0.65044799  0.14234300  0.65506002  1
  Si  Si6  1  0.65044798  0.65506001  0.14234303  1
  Mn  Mn7  1  0.85326898  0.34581201  0.34581202  1
  Si  Si8  1  0.34955198  0.85765702  0.34494005  1
  Si  Si9  1  0.34955199  0.34494001  0.85765704  1
  Mn  Mn10  1  -0.00000000  0.28175201  0.71824803  1
  Si  Si11  1  0.71291399  0.00112200  0.28549800  1
  Si  Si12  1  0.28708598  0.71450201  0.99887806  1
  Fe  Fe13  1  0.28708598  0.99887802  0.71450207  1
  Fe  Fe14  1  0.71291398  0.28549801  0.00112201  1
  Mn  Mn15  1  -0.00000001  0.71824801  0.28175205  1
  Mn  Mn16  1  0.49999998  1.00000002  1.00000007  1
  Mn  Mn17  1  -0.00000001  0.50000001  0.00000003  1
  Mn  Mn18  1  0.00000000  0.00000000  0.50000001  1
  C  C19  1  -0.00000001  0.50000001  0.50000004  1
