# generated using pymatgen
data_CeGe2
_symmetry_space_group_name_H-M   'P 1'
_cell_length_a   4.27036619
_cell_length_b   4.27036619
_cell_length_c   8.31324959
_cell_angle_alpha   104.88269806
_cell_angle_beta   104.88269806
_cell_angle_gamma   90.00000000
_symmetry_Int_Tables_number   1
_chemical_formula_structural   CeGe2
_chemical_formula_sum   'Ce2 Ge4'
_cell_volume   141.24636818
_cell_formula_units_Z   2
loop_
 _symmetry_equiv_pos_site_id
 _symmetry_equiv_pos_as_xyz
  1  'x, y, z'
loop_
 _atom_site_type_symbol
 _atom_site_label
 _atom_site_symmetry_multiplicity
 _atom_site_fract_x
 _atom_site_fract_y
 _atom_site_fract_z
 _atom_site_occupancy
  Ce  Ce0  1  0.74999997  0.24999999  0.49999999  1
  Ce  Ce1  1  0.00000000  0.00000000  0.00000000  1
  Ge  Ge2  1  0.16734299  0.66734297  0.33468599  1
  Ge  Ge3  1  0.58265697  0.58265697  0.16531400  1
  Ge  Ge4  1  0.33265698  0.83265696  0.66531399  1
  Ge  Ge5  1  0.41734298  0.41734298  0.83468599  1
