# generated using pymatgen
data_La(GeAu)2
_symmetry_space_group_name_H-M   'P 1'
_cell_length_a   4.33960390
_cell_length_b   4.33960390
_cell_length_c   6.16281462
_cell_angle_alpha   110.61457062
_cell_angle_beta   110.61457062
_cell_angle_gamma   90.00000000
_symmetry_Int_Tables_number   1
_chemical_formula_structural   La(GeAu)2
_chemical_formula_sum   'La1 Ge2 Au2'
_cell_volume   100.64941303
_cell_formula_units_Z   1
loop_
 _symmetry_equiv_pos_site_id
 _symmetry_equiv_pos_as_xyz
  1  'x, y, z'
loop_
 _atom_site_type_symbol
 _atom_site_label
 _atom_site_symmetry_multiplicity
 _atom_site_fract_x
 _atom_site_fract_y
 _atom_site_fract_z
 _atom_site_occupancy
  La  La0  1  0.00000000  0.00000000  0.00000000  1
  Ge  Ge1  1  0.61868199  0.61868201  0.23736398  1
  Ge  Ge2  1  0.38131800  0.38131800  0.76263600  1
  Au  Au3  1  0.75000000  0.25000000  0.49999999  1
  Au  Au4  1  0.24999999  0.75000001  0.49999998  1
