# generated using pymatgen
data_HoThAl11Pd
_symmetry_space_group_name_H-M   'P 1'
_cell_length_a   5.98257685
_cell_length_b   5.98257685
_cell_length_c   7.61682081
_cell_angle_alpha   90.00000000
_cell_angle_beta   90.00000000
_cell_angle_gamma   90.00000000
_symmetry_Int_Tables_number   1
_chemical_formula_structural   HoThAl11Pd
_chemical_formula_sum   'Ho1 Th1 Al11 Pd1'
_cell_volume   272.61535304
_cell_formula_units_Z   1
loop_
 _symmetry_equiv_pos_site_id
 _symmetry_equiv_pos_as_xyz
  1  'x, y, z'
loop_
 _atom_site_type_symbol
 _atom_site_label
 _atom_site_symmetry_multiplicity
 _atom_site_fract_x
 _atom_site_fract_y
 _atom_site_fract_z
 _atom_site_occupancy
  Ho  Ho0  1  0.00000000  0.50000001  -0.00000000  1
  Th  Th1  1  0.50000001  0.00000000  0.00000000  1
  Al  Al2  1  0.00000000  0.00000000  0.16025900  1
  Al  Al3  1  0.00000000  0.00000000  0.83974102  1
  Pd  Pd4  1  0.50000001  0.50000001  0.83974102  1
  Al  Al5  1  0.50000001  0.50000001  0.16025900  1
  Al  Al6  1  0.68301202  0.18301200  0.34954801  1
  Al  Al7  1  0.81698802  0.68301202  0.34954801  1
  Al  Al8  1  0.18301200  0.31698801  0.34954801  1
  Al  Al9  1  0.68301202  0.81698802  0.65045202  1
  Al  Al10  1  0.31698801  0.18301200  0.65045202  1
  Al  Al11  1  0.31698801  0.81698802  0.34954801  1
  Al  Al12  1  0.18301200  0.68301202  0.65045202  1
  Al  Al13  1  0.81698802  0.31698801  0.65045202  1
