# generated using pymatgen
data_Ce8GaSi5
_symmetry_space_group_name_H-M   'P 1'
_cell_length_a   7.44643450
_cell_length_b   7.44643450
_cell_length_c   7.44643450
_cell_angle_alpha   109.47122192
_cell_angle_beta   109.47122192
_cell_angle_gamma   109.47122192
_symmetry_Int_Tables_number   1
_chemical_formula_structural   Ce8GaSi5
_chemical_formula_sum   'Ce8 Ga1 Si5'
_cell_volume   317.85072718
_cell_formula_units_Z   1
loop_
 _symmetry_equiv_pos_site_id
 _symmetry_equiv_pos_as_xyz
  1  'x, y, z'
loop_
 _atom_site_type_symbol
 _atom_site_label
 _atom_site_symmetry_multiplicity
 _atom_site_fract_x
 _atom_site_fract_y
 _atom_site_fract_z
 _atom_site_occupancy
  Ga  Ga0  1  0.87500002  0.12500001  0.75000003  1
  Si  Si1  1  0.62500003  0.37500002  0.25000004  1
  Si  Si2  1  0.12500002  0.25000001  0.37500002  1
  Si  Si3  1  0.37500005  0.75000004  0.12500005  1
  Si  Si4  1  0.75000005  0.62500003  0.87500006  1
  Si  Si5  1  0.25000006  0.87500004  0.62500006  1
  Ce  Ce6  1  1.00000005  0.50000002  0.64538906  1
  Ce  Ce7  1  0.35461103  0.35461102  0.85461104  1
  Ce  Ce8  1  0.50000002  0.14538901  0.50000002  1
  Ce  Ce9  1  0.14538907  1.00000005  1.00000007  1
  Ce  Ce10  1  0.85461107  0.85461104  0.35461107  1
  Ce  Ce11  1  1.00000005  0.50000002  0.14538905  1
  Ce  Ce12  1  0.50000005  0.64538903  0.50000005  1
  Ce  Ce13  1  0.64538907  1.00000005  1.00000008  1
