# generated using pymatgen
data_Ca4Mn3CrO8
_symmetry_space_group_name_H-M   'P 1'
_cell_length_a   5.74489927
_cell_length_b   5.83070183
_cell_length_c   6.55343533
_cell_angle_alpha   63.59336472
_cell_angle_beta   69.43457031
_cell_angle_gamma   89.99503326
_symmetry_Int_Tables_number   1
_chemical_formula_structural   Ca4Mn3CrO8
_chemical_formula_sum   'Ca4 Mn3 Cr1 O8'
_cell_volume   180.86546939
_cell_formula_units_Z   1
loop_
 _symmetry_equiv_pos_site_id
 _symmetry_equiv_pos_as_xyz
  1  'x, y, z'
loop_
 _atom_site_type_symbol
 _atom_site_label
 _atom_site_symmetry_multiplicity
 _atom_site_fract_x
 _atom_site_fract_y
 _atom_site_fract_z
 _atom_site_occupancy
  Ca  Ca0  1  0.49978401  0.75097298  0.49955399  1
  Ca  Ca1  1  0.99987201  0.49940798  0.49952799  1
  Ca  Ca2  1  0.50012100  0.25057099  0.50047699  1
  Ca  Ca3  1  0.00021701  0.99905997  0.50044798  1
  Mn  Mn4  1  0.99991301  0.50114398  0.00001800  1
  Mn  Mn5  1  0.50006600  0.24885899  0.99995898  1
  Cr  Cr6  1  0.99998600  0.00147900  0.00007501  1
  Mn  Mn7  1  0.50003401  0.74851298  0.99994998  1
  O  O8  1  0.29349300  0.39646499  0.20521999  1
  O  O9  1  0.79341100  0.14836200  0.20524700  1
  O  O10  1  0.29365401  0.89635997  0.20538199  1
  O  O11  1  0.79361301  0.64832498  0.20548600  1
  O  O12  1  0.70636900  0.10170000  0.79449799  1
  O  O13  1  0.20634201  0.85361897  0.79461698  1
  O  O14  1  0.70660501  0.60165698  0.79475498  1
  O  O15  1  0.20652000  0.35350599  0.79478598  1
