# generated using pymatgen
data_CaMnO3
_symmetry_space_group_name_H-M   'P 1'
_cell_length_a   5.37699509
_cell_length_b   5.49718285
_cell_length_c   7.67187214
_cell_angle_alpha   90.00000000
_cell_angle_beta   90.00000000
_cell_angle_gamma   90.00000000
_symmetry_Int_Tables_number   1
_chemical_formula_structural   CaMnO3
_chemical_formula_sum   'Ca4 Mn4 O12'
_cell_volume   226.76769122
_cell_formula_units_Z   4
loop_
 _symmetry_equiv_pos_site_id
 _symmetry_equiv_pos_as_xyz
  1  'x, y, z'
loop_
 _atom_site_type_symbol
 _atom_site_label
 _atom_site_symmetry_multiplicity
 _atom_site_fract_x
 _atom_site_fract_y
 _atom_site_fract_z
 _atom_site_occupancy
  Ca  Ca0  1  0.49549699  0.72272702  0.49999999  1
  Ca  Ca1  1  0.99549698  0.27727301  0.00000000  1
  Ca  Ca2  1  0.01337300  0.19477201  0.49999999  1
  Ca  Ca3  1  0.51337299  0.80522802  -0.00000000  1
  Mn  Mn4  1  0.50493699  0.26170601  0.74801299  1
  Mn  Mn5  1  0.00493700  0.73829402  0.24801300  1
  Mn  Mn6  1  0.50493699  0.26170601  0.25198700  1
  Mn  Mn7  1  0.00493700  0.73829402  0.75198699  1
  O  O8  1  0.94115498  0.76708202  0.49999999  1
  O  O9  1  0.57676199  0.26587501  0.49999999  1
  O  O10  1  0.07676200  0.73412502  -0.00000000  1
  O  O11  1  0.44115499  0.23291801  -0.00000000  1
  O  O12  1  0.20309500  0.45714501  0.70702799  1
  O  O13  1  0.27857400  0.97088603  0.27866599  1
  O  O14  1  0.77857399  0.02911400  0.22133400  1
  O  O15  1  0.70309499  0.54285502  0.79297199  1
  O  O16  1  0.77857399  0.02911400  0.77866599  1
  O  O17  1  0.70309499  0.54285502  0.20702800  1
  O  O18  1  0.20309500  0.45714501  0.29297199  1
  O  O19  1  0.27857400  0.97088603  0.72133399  1
