# generated using pymatgen
data_Al3Cr
_symmetry_space_group_name_H-M   'P 1'
_cell_length_a   4.93109179
_cell_length_b   7.22297716
_cell_length_c   7.22297716
_cell_angle_alpha   83.30879974
_cell_angle_beta   70.04100037
_cell_angle_gamma   70.04100037
_symmetry_Int_Tables_number   1
_chemical_formula_structural   Al3Cr
_chemical_formula_sum   'Al12 Cr4'
_cell_volume   227.28625782
_cell_formula_units_Z   4
loop_
 _symmetry_equiv_pos_site_id
 _symmetry_equiv_pos_as_xyz
  1  'x, y, z'
loop_
 _atom_site_type_symbol
 _atom_site_label
 _atom_site_symmetry_multiplicity
 _atom_site_fract_x
 _atom_site_fract_y
 _atom_site_fract_z
 _atom_site_occupancy
  Al  Al0  1  0.93204604  0.99999999  0.67890898  1
  Al  Al1  1  0.61095502  0.99999999  0.32109099  1
  Cr  Cr2  1  0.38904501  0.67890899  -0.00000000  1
  Cr  Cr3  1  0.06795400  0.32109100  -0.00000000  1
  Cr  Cr4  1  0.50000002  0.50000000  0.49999999  1
  Cr  Cr5  1  -0.00000000  0.50000000  0.49999999  1
  Al  Al6  1  0.00000000  0.00000000  0.00000000  1
  Al  Al7  1  0.82648003  0.64655899  0.19759099  1
  Al  Al8  1  0.67063003  0.35344100  0.80240899  1
  Al  Al9  1  0.32937001  0.19759100  0.64655899  1
  Al  Al10  1  0.17352000  0.80240899  0.35344099  1
  Al  Al11  1  0.52696102  0.80240899  0.64655899  1
  Al  Al12  1  0.97592904  0.19759100  0.35344099  1
  Al  Al13  1  0.47303902  0.35344100  0.19759099  1
  Al  Al14  1  0.02407100  0.64655899  0.80240899  1
  Al  Al15  1  0.50000002  0.99999999  -0.00000001  1
