# generated using pymatgen
data_AlGa2Te7
_symmetry_space_group_name_H-M   'P 1'
_cell_length_a   6.05378389
_cell_length_b   6.05378342
_cell_length_c   13.12580299
_cell_angle_alpha   90.00000000
_cell_angle_beta   90.00000000
_cell_angle_gamma   120.00000000
_symmetry_Int_Tables_number   1
_chemical_formula_structural   AlGa2Te7
_chemical_formula_sum   'Al2 Ga4 Te14'
_cell_volume   416.59140574
_cell_formula_units_Z   2
loop_
 _symmetry_equiv_pos_site_id
 _symmetry_equiv_pos_as_xyz
  1  'x, y, z'
loop_
 _atom_site_type_symbol
 _atom_site_label
 _atom_site_symmetry_multiplicity
 _atom_site_fract_x
 _atom_site_fract_y
 _atom_site_fract_z
 _atom_site_occupancy
  Te  Te0  1  0.66666666  0.33333332  0.75000000  1
  Te  Te1  1  0.33333329  0.66666664  0.25000000  1
  Te  Te2  1  0.00000000  0.00000000  0.50000000  1
  Te  Te3  1  0.00000000  0.00000000  0.00000000  1
  Te  Te4  1  0.66666666  0.33333332  0.99983200  1
  Te  Te5  1  0.33333329  0.66666664  0.00016800  1
  Te  Te6  1  0.33333329  0.66666664  0.49983200  1
  Te  Te7  1  0.66666666  0.33333332  0.50016800  1
  Te  Te8  1  0.66679294  0.99633196  0.62840800  1
  Al  Al9  1  0.32953898  0.33320699  0.62840800  1
  Te  Te10  1  0.00366795  0.67046097  0.62840800  1
  Ga  Ga11  1  0.67046101  0.00366800  0.37159200  1
  Ga  Ga12  1  0.99633197  0.66679297  0.37159200  1
  Ga  Ga13  1  0.33320698  0.32953899  0.37159200  1
  Te  Te14  1  0.33320701  0.00366800  0.12840800  1
  Ga  Ga15  1  0.67046097  0.66679297  0.12840800  1
  Te  Te16  1  0.99633200  0.32953899  0.12840800  1
  Te  Te17  1  0.32953894  0.99633196  0.87159200  1
  Te  Te18  1  0.00366798  0.33320699  0.87159200  1
  Al  Al19  1  0.66679297  0.67046097  0.87159200  1
