# generated using pymatgen
data_CeAu2
_symmetry_space_group_name_H-M   'P 1'
_cell_length_a   4.57884407
_cell_length_b   7.25056696
_cell_length_c   8.07081985
_cell_angle_alpha   90.00000000
_cell_angle_beta   90.00000000
_cell_angle_gamma   90.00000000
_symmetry_Int_Tables_number   1
_chemical_formula_structural   CeAu2
_chemical_formula_sum   'Ce4 Au8'
_cell_volume   267.94488786
_cell_formula_units_Z   4
loop_
 _symmetry_equiv_pos_site_id
 _symmetry_equiv_pos_as_xyz
  1  'x, y, z'
loop_
 _atom_site_type_symbol
 _atom_site_label
 _atom_site_symmetry_multiplicity
 _atom_site_fract_x
 _atom_site_fract_y
 _atom_site_fract_z
 _atom_site_occupancy
  Ce  Ce0  1  0.74999999  0.48939900  0.80320201  1
  Ce  Ce1  1  0.25000000  0.01060100  0.30320201  1
  Ce  Ce2  1  0.74999999  0.98939901  0.69679801  1
  Ce  Ce3  1  0.25000000  0.51060100  0.19679800  1
  Au  Au4  1  0.25000000  0.67961900  0.58449501  1
  Au  Au5  1  0.25000000  0.17961900  0.91550502  1
  Au  Au6  1  0.74999999  0.32038100  0.41550501  1
  Au  Au7  1  0.74999999  0.82038100  0.08449500  1
  Au  Au8  1  0.25000000  0.78388000  0.90952302  1
  Au  Au9  1  0.25000000  0.28388000  0.59047701  1
  Au  Au10  1  0.74999999  0.71612000  0.40952301  1
  Au  Au11  1  0.74999999  0.21612000  0.09047700  1
