# generated using pymatgen
data_Al2O3
_symmetry_space_group_name_H-M   'P 1'
_cell_length_a   3.09382010
_cell_length_b   5.10995817
_cell_length_c   8.91044331
_cell_angle_alpha   90.00000000
_cell_angle_beta   99.99756622
_cell_angle_gamma   90.00000000
_symmetry_Int_Tables_number   1
_chemical_formula_structural   Al2O3
_chemical_formula_sum   'Al4 O6'
_cell_volume   138.72873425
_cell_formula_units_Z   2
loop_
 _symmetry_equiv_pos_site_id
 _symmetry_equiv_pos_as_xyz
  1  'x, y, z'
loop_
 _atom_site_type_symbol
 _atom_site_label
 _atom_site_symmetry_multiplicity
 _atom_site_fract_x
 _atom_site_fract_y
 _atom_site_fract_z
 _atom_site_occupancy
  Al  Al0  1  0.05740100  0.62799298  0.11480200  1
  O  O1  1  0.28225199  0.11714000  0.56450398  1
  Al  Al2  1  0.71774797  0.61713998  0.43549597  1
  O  O3  1  0.94259896  0.12799300  0.88519795  1
  Al  Al4  1  0.38732898  0.06545800  0.77465797  1
  O  O5  1  0.25751399  0.47366098  0.51502798  1
  O  O6  1  0.74248597  0.97366097  0.48497197  1
  O  O7  1  0.61267097  0.56545798  0.22534198  1
  O  O8  1  0.03113900  0.96574897  0.06227800  1
  Al  Al9  1  0.96886096  0.46574898  0.93772195  1
