# generated using pymatgen
data_Ce3Se4
_symmetry_space_group_name_H-M   'P 1'
_cell_length_a   7.69828796
_cell_length_b   7.69828796
_cell_length_c   7.69828796
_cell_angle_alpha   109.94050598
_cell_angle_beta   109.23709106
_cell_angle_gamma   109.23709106
_symmetry_Int_Tables_number   1
_chemical_formula_structural   Ce3Se4
_chemical_formula_sum   'Ce6 Se8'
_cell_volume   351.18719293
_cell_formula_units_Z   2
loop_
 _symmetry_equiv_pos_site_id
 _symmetry_equiv_pos_as_xyz
  1  'x, y, z'
loop_
 _atom_site_type_symbol
 _atom_site_label
 _atom_site_symmetry_multiplicity
 _atom_site_fract_x
 _atom_site_fract_y
 _atom_site_fract_z
 _atom_site_occupancy
  Ce  Ce0  1  0.87287506  0.74787503  0.37500007  1
  Ce  Ce1  1  0.37287505  0.62500002  0.49787504  1
  Ce  Ce2  1  0.12712504  0.50212502  0.87500003  1
  Ce  Ce3  1  0.62712501  0.12500000  0.25212503  1
  Ce  Ce4  1  0.50000002  0.25000001  0.75000003  1
  Ce  Ce5  1  0.00000000  0.00000000  0.00000000  1
  Se  Se6  1  0.24836807  0.87907903  0.27783905  1
  Se  Se7  1  0.25163207  0.88071103  0.77947005  1
  Se  Se8  1  0.74836805  0.52783902  0.62907905  1
  Se  Se9  1  0.39875903  0.36928801  0.12092103  1
  Se  Se10  1  0.10124102  0.22053001  0.47216201  1
  Se  Se11  1  0.75163201  0.02947000  0.63071102  1
  Se  Se12  1  0.60124106  0.72216203  0.97053005  1
  Se  Se13  1  0.89875903  0.37092101  0.11928805  1
