# generated using pymatgen
data_VP2O7
_symmetry_space_group_name_H-M   'P 1'
_cell_length_a   4.56061077
_cell_length_b   5.23566961
_cell_length_c   5.23566961
_cell_angle_alpha   78.76977539
_cell_angle_beta   83.15122986
_cell_angle_gamma   96.84877014
_symmetry_Int_Tables_number   1
_chemical_formula_structural   VP2O7
_chemical_formula_sum   'V1 P2 O7'
_cell_volume   120.43785823
_cell_formula_units_Z   1
loop_
 _symmetry_equiv_pos_site_id
 _symmetry_equiv_pos_as_xyz
  1  'x, y, z'
loop_
 _atom_site_type_symbol
 _atom_site_label
 _atom_site_symmetry_multiplicity
 _atom_site_fract_x
 _atom_site_fract_y
 _atom_site_fract_z
 _atom_site_occupancy
  V  V0  1  0.49999997  0.06176100  0.06176101  1
  P  P1  1  0.91120493  0.60909099  0.19741302  1
  P  P2  1  0.08879499  0.19741300  0.60909099  1
  O  O3  1  -0.00000002  0.48024499  0.48024499  1
  O  O4  1  0.20158096  0.75360399  0.02913500  1
  O  O5  1  0.79841896  0.02913500  0.75360401  1
  O  O6  1  0.76052894  0.39305899  0.08212302  1
  O  O7  1  0.30075197  0.26790799  0.80063499  1
  O  O8  1  0.23947098  0.08212300  0.39305900  1
  O  O9  1  0.69924793  0.80063498  0.26790801  1
