# generated using pymatgen
data_Lu(Mn2C)6
_symmetry_space_group_name_H-M   'P 1'
_cell_length_a   6.06933212
_cell_length_b   6.06933212
_cell_length_c   6.06933165
_cell_angle_alpha   104.33974457
_cell_angle_beta   104.33974457
_cell_angle_gamma   104.33975983
_symmetry_Int_Tables_number   1
_chemical_formula_structural   Lu(Mn2C)6
_chemical_formula_sum   'Lu1 Mn12 C6'
_cell_volume   198.16238710
_cell_formula_units_Z   1
loop_
 _symmetry_equiv_pos_site_id
 _symmetry_equiv_pos_as_xyz
  1  'x, y, z'
loop_
 _atom_site_type_symbol
 _atom_site_label
 _atom_site_symmetry_multiplicity
 _atom_site_fract_x
 _atom_site_fract_y
 _atom_site_fract_z
 _atom_site_occupancy
  Lu  Lu0  1  0.00000000  0.00000000  0.00000000  1
  Mn  Mn1  1  0.86914199  0.13085800  0.49999997  1
  Mn  Mn2  1  0.81213597  0.54401299  0.54401295  1
  Mn  Mn3  1  0.54401297  0.54401299  0.81213597  1
  Mn  Mn4  1  0.54401296  0.81213598  0.54401295  1
  Mn  Mn5  1  0.49999996  0.86914198  0.13085794  1
  Mn  Mn6  1  0.13085798  0.49999999  0.86914199  1
  Mn  Mn7  1  0.45598699  0.18786400  0.45598698  1
  Mn  Mn8  1  0.13085796  0.86914198  0.49999996  1
  Mn  Mn9  1  0.49999999  0.13085800  0.86914199  1
  Mn  Mn10  1  0.86914197  0.49999999  0.13085795  1
  Mn  Mn11  1  0.45598698  0.45598699  0.18786396  1
  Mn  Mn12  1  0.18786398  0.45598699  0.45598698  1
  C  C13  1  0.76932396  0.76932398  0.31529194  1
  C  C14  1  0.23067597  0.68470798  0.23067596  1
  C  C15  1  0.68470798  0.23067599  0.23067597  1
  C  C16  1  0.76932398  0.31529199  0.76932397  1
  C  C17  1  0.23067599  0.23067599  0.68470799  1
  C  C18  1  0.31529197  0.76932398  0.76932396  1
