# generated using pymatgen
data_Rb2AsAu2Se
_symmetry_space_group_name_H-M   'P 1'
_cell_length_a   4.40141010
_cell_length_b   4.40141010
_cell_length_c   20.47163773
_cell_angle_alpha   90.00000000
_cell_angle_beta   90.00000000
_cell_angle_gamma   120.00000000
_symmetry_Int_Tables_number   1
_chemical_formula_structural   Rb2AsAu2Se
_chemical_formula_sum   'Rb4 As2 Au4 Se2'
_cell_volume   343.45266544
_cell_formula_units_Z   2
loop_
 _symmetry_equiv_pos_site_id
 _symmetry_equiv_pos_as_xyz
  1  'x, y, z'
loop_
 _atom_site_type_symbol
 _atom_site_label
 _atom_site_symmetry_multiplicity
 _atom_site_fract_x
 _atom_site_fract_y
 _atom_site_fract_z
 _atom_site_occupancy
  Rb  Rb0  1  0.00000000  0.00000000  0.49999998  1
  Rb  Rb1  1  0.00000000  0.00000000  0.00000000  1
  Rb  Rb2  1  0.00000000  0.00000000  0.74999997  1
  Rb  Rb3  1  0.00000000  0.00000000  0.24999999  1
  Au  Au4  1  0.66666666  0.33333334  0.63499898  1
  Au  Au5  1  0.33333334  0.66666667  0.36500099  1
  Au  Au6  1  0.33333334  0.66666667  0.13499900  1
  Au  Au7  1  0.66666666  0.33333334  0.86500097  1
  As  As8  1  0.66666666  0.33333334  0.11628100  1
  As  As9  1  0.33333334  0.66666667  0.88371897  1
  Se  Se10  1  0.33333334  0.66666667  0.61628098  1
  Se  Se11  1  0.66666666  0.33333334  0.38371899  1
