# generated using pymatgen
data_BeB2HO4
_symmetry_space_group_name_H-M   'P 1'
_cell_length_a   3.76366210
_cell_length_b   3.76366210
_cell_length_c   4.39133883
_cell_angle_alpha   115.37445831
_cell_angle_beta   115.37445831
_cell_angle_gamma   90.00000000
_symmetry_Int_Tables_number   1
_chemical_formula_structural   BeB2HO4
_chemical_formula_sum   'Be1 B2 H1 O4'
_cell_volume   49.47934823
_cell_formula_units_Z   1
loop_
 _symmetry_equiv_pos_site_id
 _symmetry_equiv_pos_as_xyz
  1  'x, y, z'
loop_
 _atom_site_type_symbol
 _atom_site_label
 _atom_site_symmetry_multiplicity
 _atom_site_fract_x
 _atom_site_fract_y
 _atom_site_fract_z
 _atom_site_occupancy
  Be  Be0  1  0.74999996  0.24999999  0.49999995  1
  H  H1  1  0.00000000  0.00000000  0.00000000  1
  B  B2  1  0.24999996  0.74999996  0.49999994  1
  B  B3  1  0.49999996  0.49999998  -0.00000004  1
  O  O4  1  0.17038597  0.62499997  0.74999994  1
  O  O5  1  0.87499994  0.82961396  0.24999993  1
  O  O6  1  0.37499997  0.42038598  0.24999996  1
  O  O7  1  0.57961397  0.12499999  0.74999995  1
