# generated using pymatgen
data_Mg3Pb5
_symmetry_space_group_name_H-M   'P 1'
_cell_length_a   5.38126278
_cell_length_b   6.84541178
_cell_length_c   6.84541130
_cell_angle_alpha   120.00000000
_cell_angle_beta   90.00000000
_cell_angle_gamma   90.00000000
_symmetry_Int_Tables_number   1
_chemical_formula_structural   Mg3Pb5
_chemical_formula_sum   'Mg3 Pb5'
_cell_volume   218.38055079
_cell_formula_units_Z   1
loop_
 _symmetry_equiv_pos_site_id
 _symmetry_equiv_pos_as_xyz
  1  'x, y, z'
loop_
 _atom_site_type_symbol
 _atom_site_label
 _atom_site_symmetry_multiplicity
 _atom_site_fract_x
 _atom_site_fract_y
 _atom_site_fract_z
 _atom_site_occupancy
  Mg  Mg0  1  0.75000003  0.83367700  0.16632295  1
  Pb  Pb1  1  0.75000003  0.33264600  0.16632298  1
  Pb  Pb2  1  0.75000003  0.83367700  0.66735396  1
  Pb  Pb3  1  0.25000001  0.16632300  0.83367700  1
  Mg  Mg4  1  0.25000001  0.66735400  0.83367697  1
  Mg  Mg5  1  0.25000001  0.16632300  0.33264600  1
  Pb  Pb6  1  0.25000001  0.66666667  0.33333330  1
  Pb  Pb7  1  0.75000003  0.33333333  0.66666666  1
