# generated using pymatgen
data_Rb3Tb(PO4)2
_symmetry_space_group_name_H-M   'P 1'
_cell_length_a   5.62273979
_cell_length_b   5.62273932
_cell_length_c   7.13822317
_cell_angle_alpha   90.00000000
_cell_angle_beta   90.00000000
_cell_angle_gamma   120.00000000
_symmetry_Int_Tables_number   1
_chemical_formula_structural   Rb3Tb(PO4)2
_chemical_formula_sum   'Rb3 Tb1 P2 O8'
_cell_volume   195.44145544
_cell_formula_units_Z   1
loop_
 _symmetry_equiv_pos_site_id
 _symmetry_equiv_pos_as_xyz
  1  'x, y, z'
loop_
 _atom_site_type_symbol
 _atom_site_label
 _atom_site_symmetry_multiplicity
 _atom_site_fract_x
 _atom_site_fract_y
 _atom_site_fract_z
 _atom_site_occupancy
  Rb  Rb0  1  0.00000000  0.00000000  0.00000000  1
  Rb  Rb1  1  0.66666667  0.33333333  0.33112899  1
  Rb  Rb2  1  0.33333330  0.66666665  0.66887098  1
  Tb  Tb3  1  0.00000000  0.00000000  0.49999999  1
  P  P4  1  0.66666667  0.33333333  0.77928098  1
  P  P5  1  0.33333330  0.66666665  0.22071899  1
  O  O6  1  0.66666667  0.33333333  0.99645298  1
  O  O7  1  0.33333330  0.66666665  0.00354700  1
  O  O8  1  0.81594399  0.63188799  0.70216598  1
  O  O9  1  0.18405598  0.36811199  0.29783399  1
  O  O10  1  0.81594402  0.18405600  0.70216598  1
  O  O11  1  0.18405595  0.81594399  0.29783399  1
  O  O12  1  0.36811200  0.18405600  0.70216598  1
  O  O13  1  0.63188797  0.81594399  0.29783399  1
