# generated using pymatgen
data_Cs2USbF13
_symmetry_space_group_name_H-M   'P 1'
_cell_length_a   6.86361599
_cell_length_b   8.71683598
_cell_length_c   9.23611641
_cell_angle_alpha   80.80233002
_cell_angle_beta   88.93386841
_cell_angle_gamma   74.75918579
_symmetry_Int_Tables_number   1
_chemical_formula_structural   Cs2USbF13
_chemical_formula_sum   'Cs2 U1 Sb1 F13'
_cell_volume   526.13904338
_cell_formula_units_Z   1
loop_
 _symmetry_equiv_pos_site_id
 _symmetry_equiv_pos_as_xyz
  1  'x, y, z'
loop_
 _atom_site_type_symbol
 _atom_site_label
 _atom_site_symmetry_multiplicity
 _atom_site_fract_x
 _atom_site_fract_y
 _atom_site_fract_z
 _atom_site_occupancy
  Sb  Sb0  1  0.51290605  0.64277898  0.63485799  1
  U  U1  1  0.48709403  0.35722099  0.36514199  1
  Cs  Cs2  1  0.18430706  0.90407597  0.16501296  1
  F  F3  1  0.08257501  0.19570199  0.98813503  1
  F  F4  1  0.91742506  0.80429797  0.01186494  1
  Cs  Cs5  1  0.81569301  0.09592400  0.83498702  1
  F  F6  1  0.45653901  0.17252399  0.18948299  1
  F  F7  1  0.38591503  0.48322498  0.82949501  1
  F  F8  1  0.81794902  0.19930499  0.42505600  1
  F  F9  1  0.14761804  0.52222498  0.28466498  1
  F  F10  1  0.61408504  0.51677498  0.17050497  1
  F  F11  1  0.34300101  0.20187799  0.54593901  1
  F  F12  1  0.85238203  0.47777498  0.71533500  1
  F  F13  1  0.65699906  0.79812197  0.45406097  1
  F  F14  1  0.18205106  0.80069497  0.57494398  1
  F  F15  1  0.54346106  0.82747597  0.81051699  1
  F  F16  1  0.50000004  0.49999998  0.49999999  1
