# generated using pymatgen
data_LiV2OF8
_symmetry_space_group_name_H-M   'P 1'
_cell_length_a   3.06659007
_cell_length_b   6.66559219
_cell_length_c   6.66569185
_cell_angle_alpha   90.00013733
_cell_angle_beta   89.99997711
_cell_angle_gamma   89.99997711
_symmetry_Int_Tables_number   1
_chemical_formula_structural   LiV2OF8
_chemical_formula_sum   'Li1 V2 O1 F8'
_cell_volume   136.25099975
_cell_formula_units_Z   1
loop_
 _symmetry_equiv_pos_site_id
 _symmetry_equiv_pos_as_xyz
  1  'x, y, z'
loop_
 _atom_site_type_symbol
 _atom_site_label
 _atom_site_symmetry_multiplicity
 _atom_site_fract_x
 _atom_site_fract_y
 _atom_site_fract_z
 _atom_site_occupancy
  O  O0  1  0.49999997  0.47845001  0.98485299  1
  F  F1  1  0.49999999  0.02155100  0.51514500  1
  F  F2  1  -0.00000000  0.01515400  0.97844102  1
  F  F3  1  0.99999896  0.48484701  0.52156498  1
  Li  Li4  1  0.49999997  0.50776601  0.69879999  1
  V  V5  1  0.00000099  0.19879300  0.49222800  1
  F  F6  1  -0.00000001  0.30121200  0.00777199  1
  F  F7  1  0.49999995  0.99223101  0.80119997  1
  F  F8  1  0.49999995  0.98812001  0.19634596  1
  F  F9  1  -0.00000003  0.69635101  0.01187897  1
  F  F10  1  -0.00000003  0.80364901  0.48812097  1
  V  V11  1  0.49999997  0.51187701  0.30365198  1
