# generated using pymatgen
data_Li3V(TeO4)2
_symmetry_space_group_name_H-M   'P 1'
_cell_length_a   6.10370302
_cell_length_b   6.10519218
_cell_length_c   6.23943996
_cell_angle_alpha   60.71949005
_cell_angle_beta   60.71959305
_cell_angle_gamma   60.01302719
_symmetry_Int_Tables_number   1
_chemical_formula_structural   Li3V(TeO4)2
_chemical_formula_sum   'Li3 V1 Te2 O8'
_cell_volume   166.19030195
_cell_formula_units_Z   1
loop_
 _symmetry_equiv_pos_site_id
 _symmetry_equiv_pos_as_xyz
  1  'x, y, z'
loop_
 _atom_site_type_symbol
 _atom_site_label
 _atom_site_symmetry_multiplicity
 _atom_site_fract_x
 _atom_site_fract_y
 _atom_site_fract_z
 _atom_site_occupancy
  Li  Li0  1  0.13967399  0.13967801  0.58097799  1
  Li  Li1  1  0.86032695  0.86032403  0.41902400  1
  Te  Te2  1  0.50000797  0.49999802  0.00000501  1
  Li  Li3  1  0.49999099  0.00000800  0.99999098  1
  V  V4  1  0.99999596  0.49998402  0.99999299  1
  Te  Te5  1  0.49999997  0.50000102  0.50000100  1
  O  O6  1  0.27340098  0.27337201  0.17981800  1
  O  O7  1  0.72278297  0.27424701  0.72871399  1
  O  O8  1  0.27424297  0.72280203  0.72871301  1
  O  O9  1  0.27426098  0.27425001  0.72871399  1
  O  O10  1  0.72574096  0.72575203  0.27128700  1
  O  O11  1  0.72575797  0.27720001  0.27128899  1
  O  O12  1  0.27721797  0.72575503  0.27128901  1
  O  O13  1  0.72660096  0.72663003  0.82018300  1
