# generated using pymatgen
data_SrMnO3
_symmetry_space_group_name_H-M   'P 1'
_cell_length_a   5.63910866
_cell_length_b   5.66653252
_cell_length_c   9.79535484
_cell_angle_alpha   73.78819275
_cell_angle_beta   73.31246185
_cell_angle_gamma   60.18386078
_symmetry_Int_Tables_number   1
_chemical_formula_structural   SrMnO3
_chemical_formula_sum   'Sr4 Mn4 O12'
_cell_volume   256.60391010
_cell_formula_units_Z   4
loop_
 _symmetry_equiv_pos_site_id
 _symmetry_equiv_pos_as_xyz
  1  'x, y, z'
loop_
 _atom_site_type_symbol
 _atom_site_label
 _atom_site_symmetry_multiplicity
 _atom_site_fract_x
 _atom_site_fract_y
 _atom_site_fract_z
 _atom_site_occupancy
  Sr  Sr0  1  0.87472098  0.87548295  0.37493602  1
  Sr  Sr1  1  0.37549899  0.37463198  0.87456600  1
  Sr  Sr2  1  0.62440598  0.62554996  0.12543101  1
  Sr  Sr3  1  0.12527300  0.12440599  0.62515000  1
  Mn  Mn4  1  0.25038299  0.24942899  0.24997000  1
  Mn  Mn5  1  0.74963798  0.75049896  0.75010201  1
  Mn  Mn6  1  0.50015799  0.49988497  0.49983801  1
  Mn  Mn7  1  0.00014801  0.99998494  0.99980702  1
  O  O8  1  0.12086100  0.63533996  0.12231002  1
  O  O9  1  0.62368998  0.13118199  0.62250300  1
  O  O10  1  0.37626600  0.86870195  0.37755902  1
  O  O11  1  0.87908297  0.36478198  0.87772700  1
  O  O12  1  0.63688098  0.12151499  0.12113300  1
  O  O13  1  0.13953700  0.61888496  0.62077001  1
  O  O14  1  0.86038797  0.38103898  0.37925301  1
  O  O15  1  0.36303800  0.87861295  0.87891402  1
  O  O16  1  0.11961300  0.12146499  0.12088800  1
  O  O17  1  0.62152898  0.61888696  0.62063001  1
  O  O18  1  0.37847099  0.38099498  0.37944701  1
  O  O19  1  0.88041598  0.87872595  0.87906602  1
