# generated using pymatgen
data_BaSrSb5Pd3
_symmetry_space_group_name_H-M   'P 1'
_cell_length_a   4.68299294
_cell_length_b   4.68299294
_cell_length_c   10.85396862
_cell_angle_alpha   90.00000000
_cell_angle_beta   90.00000000
_cell_angle_gamma   90.00000000
_symmetry_Int_Tables_number   1
_chemical_formula_structural   BaSrSb5Pd3
_chemical_formula_sum   'Ba1 Sr1 Sb5 Pd3'
_cell_volume   238.03212124
_cell_formula_units_Z   1
loop_
 _symmetry_equiv_pos_site_id
 _symmetry_equiv_pos_as_xyz
  1  'x, y, z'
loop_
 _atom_site_type_symbol
 _atom_site_label
 _atom_site_symmetry_multiplicity
 _atom_site_fract_x
 _atom_site_fract_y
 _atom_site_fract_z
 _atom_site_occupancy
  Ba  Ba0  1  0.00000000  0.50000001  0.76122903  1
  Sr  Sr1  1  0.50000001  0.00000000  0.23877101  1
  Sb  Sb2  1  0.00000000  0.00000000  0.00000000  1
  Sb  Sb3  1  0.50000001  0.50000001  -0.00000000  1
  Pd  Pd4  1  0.00000000  0.50000001  0.36944701  1
  Pd  Pd5  1  0.50000001  0.00000000  0.63055302  1
  Sb  Sb6  1  0.00000000  0.00000000  0.50000002  1
  Sb  Sb7  1  0.50000001  0.50000001  0.50000002  1
  Pd  Pd8  1  0.00000000  0.50000001  0.12551200  1
  Sb  Sb9  1  0.50000001  0.00000000  0.87448803  1
