# generated using pymatgen
data_Zn2GaTe5
_symmetry_space_group_name_H-M   'P 1'
_cell_length_a   3.99622798
_cell_length_b   4.59551334
_cell_length_c   11.48213577
_cell_angle_alpha   89.95274353
_cell_angle_beta   90.00000000
_cell_angle_gamma   90.00000000
_symmetry_Int_Tables_number   1
_chemical_formula_structural   Zn2GaTe5
_chemical_formula_sum   'Zn2 Ga1 Te5'
_cell_volume   210.86612533
_cell_formula_units_Z   1
loop_
 _symmetry_equiv_pos_site_id
 _symmetry_equiv_pos_as_xyz
  1  'x, y, z'
loop_
 _atom_site_type_symbol
 _atom_site_label
 _atom_site_symmetry_multiplicity
 _atom_site_fract_x
 _atom_site_fract_y
 _atom_site_fract_z
 _atom_site_occupancy
  Te  Te0  1  0.25000000  0.12678000  0.12575600  1
  Te  Te1  1  0.75000000  0.62606801  0.36889000  1
  Ga  Ga2  1  0.75000000  0.87822601  0.87497800  1
  Te  Te3  1  0.25000000  0.40828300  0.61251400  1
  Te  Te4  1  0.25000000  0.50934601  0.86218901  1
  Zn  Zn5  1  0.25000000  0.98950801  0.34776299  1
  Zn  Zn6  1  0.75000000  0.49307100  0.15343399  1
  Te  Te7  1  0.75000000  0.96871801  0.65447600  1
