# generated using pymatgen
data_Eu4Mg4Ge3P
_symmetry_space_group_name_H-M   'P 1'
_cell_length_a   4.38844585
_cell_length_b   4.38844585
_cell_length_c   14.57332802
_cell_angle_alpha   90.00000000
_cell_angle_beta   90.00000000
_cell_angle_gamma   90.00000000
_symmetry_Int_Tables_number   1
_chemical_formula_structural   Eu4Mg4Ge3P
_chemical_formula_sum   'Eu4 Mg4 Ge3 P1'
_cell_volume   280.65981121
_cell_formula_units_Z   1
loop_
 _symmetry_equiv_pos_site_id
 _symmetry_equiv_pos_as_xyz
  1  'x, y, z'
loop_
 _atom_site_type_symbol
 _atom_site_label
 _atom_site_symmetry_multiplicity
 _atom_site_fract_x
 _atom_site_fract_y
 _atom_site_fract_z
 _atom_site_occupancy
  Ge  Ge0  1  0.50000002  0.50000002  0.89644700  1
  Ge  Ge1  1  0.00000000  0.00000000  0.10792100  1
  Ge  Ge2  1  0.00000000  0.00000000  0.59804400  1
  P  P3  1  0.50000002  0.50000002  0.40077600  1
  Eu  Eu4  1  0.50000002  0.50000002  0.18618800  1
  Eu  Eu5  1  0.50000002  0.50000002  0.67235800  1
  Eu  Eu6  1  0.00000000  0.00000000  0.32864000  1
  Eu  Eu7  1  0.00000000  0.00000000  0.82023700  1
  Mg  Mg8  1  0.50000002  0.00000000  0.00177400  1
  Mg  Mg9  1  0.50000002  0.00000000  0.49292000  1
  Mg  Mg10  1  0.00000000  0.50000002  0.00177400  1
  Mg  Mg11  1  0.00000000  0.50000002  0.49292000  1
