# generated using pymatgen
data_Ce2(CdAu)3
_symmetry_space_group_name_H-M   'P 1'
_cell_length_a   4.42684221
_cell_length_b   5.94454288
_cell_length_c   8.08933163
_cell_angle_alpha   90.00000000
_cell_angle_beta   90.00000000
_cell_angle_gamma   111.86031342
_symmetry_Int_Tables_number   1
_chemical_formula_structural   Ce2(CdAu)3
_chemical_formula_sum   'Ce2 Cd3 Au3'
_cell_volume   197.56831342
_cell_formula_units_Z   1
loop_
 _symmetry_equiv_pos_site_id
 _symmetry_equiv_pos_as_xyz
  1  'x, y, z'
loop_
 _atom_site_type_symbol
 _atom_site_label
 _atom_site_symmetry_multiplicity
 _atom_site_fract_x
 _atom_site_fract_y
 _atom_site_fract_z
 _atom_site_occupancy
  Ce  Ce0  1  0.05953000  0.11906000  0.25000001  1
  Ce  Ce1  1  0.94046995  0.88094002  0.75000003  1
  Cd  Cd2  1  0.34521998  0.69044002  0.05382200  1
  Au  Au3  1  0.65477997  0.30956001  0.94617804  1
  Cd  Cd4  1  0.65477997  0.30956001  0.55382203  1
  Cd  Cd5  1  0.34521998  0.69044002  0.44617802  1
  Au  Au6  1  0.78176996  0.56354001  0.25000001  1
  Au  Au7  1  0.21822999  0.43646001  0.75000003  1
