# generated using pymatgen
data_SrEuNb2TeSeNO2
_symmetry_space_group_name_H-M   'P 1'
_cell_length_a   4.12482405
_cell_length_b   4.12482405
_cell_length_c   11.41281128
_cell_angle_alpha   100.41113281
_cell_angle_beta   100.41113281
_cell_angle_gamma   90.00000000
_symmetry_Int_Tables_number   1
_chemical_formula_structural   SrEuNb2TeSeNO2
_chemical_formula_sum   'Sr1 Eu1 Nb2 Te1 Se1 N1 O2'
_cell_volume   187.73131986
_cell_formula_units_Z   1
loop_
 _symmetry_equiv_pos_site_id
 _symmetry_equiv_pos_as_xyz
  1  'x, y, z'
loop_
 _atom_site_type_symbol
 _atom_site_label
 _atom_site_symmetry_multiplicity
 _atom_site_fract_x
 _atom_site_fract_y
 _atom_site_fract_z
 _atom_site_occupancy
  Sr  Sr0  1  0.31443700  0.31443700  0.62887402  1
  Eu  Eu1  1  0.68556299  0.68556299  0.37112602  1
  Nb  Nb2  1  0.49999999  0.00000000  0.00000000  1
  Nb  Nb3  1  0.00000000  0.50000000  0.00000000  1
  Se  Se4  1  0.90270599  0.90270599  0.80541203  1
  Te  Te5  1  0.09729400  0.09729400  0.19458801  1
  N  N6  1  0.50000000  0.50000000  0.00000000  1
  O  O7  1  0.25000000  0.74999999  0.50000002  1
  O  O8  1  0.74999999  0.25000000  0.50000002  1
