# generated using pymatgen
data_YCd(GaAu)2
_symmetry_space_group_name_H-M   'P 1'
_cell_length_a   4.49809217
_cell_length_b   5.66669083
_cell_length_c   5.73303127
_cell_angle_alpha   75.98223114
_cell_angle_beta   66.90255737
_cell_angle_gamma   66.61617279
_symmetry_Int_Tables_number   1
_chemical_formula_structural   YCd(GaAu)2
_chemical_formula_sum   'Y1 Cd1 Ga2 Au2'
_cell_volume   122.72722923
_cell_formula_units_Z   1
loop_
 _symmetry_equiv_pos_site_id
 _symmetry_equiv_pos_as_xyz
  1  'x, y, z'
loop_
 _atom_site_type_symbol
 _atom_site_label
 _atom_site_symmetry_multiplicity
 _atom_site_fract_x
 _atom_site_fract_y
 _atom_site_fract_z
 _atom_site_occupancy
  Y  Y0  1  0.46374288  0.77669403  0.29582009  1
  Cd  Cd1  1  0.53625694  0.22330601  0.70418007  1
  Au  Au2  1  0.15798289  0.79257403  0.89146009  1
  Ga  Ga3  1  0.84201692  0.20742601  0.10854007  1
  Ga  Ga4  1  0.82194687  0.64057703  0.71552912  1
  Au  Au5  1  0.17805295  0.35942301  0.28447105  1
