# generated using pymatgen
data_RbSeBr12
_symmetry_space_group_name_H-M   'P 1'
_cell_length_a   4.91948414
_cell_length_b   9.49659443
_cell_length_c   11.26340485
_cell_angle_alpha   81.94387054
_cell_angle_beta   77.38589478
_cell_angle_gamma   74.98849487
_symmetry_Int_Tables_number   1
_chemical_formula_structural   RbSeBr12
_chemical_formula_sum   'Rb1 Se1 Br12'
_cell_volume   494.02882566
_cell_formula_units_Z   1
loop_
 _symmetry_equiv_pos_site_id
 _symmetry_equiv_pos_as_xyz
  1  'x, y, z'
loop_
 _atom_site_type_symbol
 _atom_site_label
 _atom_site_symmetry_multiplicity
 _atom_site_fract_x
 _atom_site_fract_y
 _atom_site_fract_z
 _atom_site_occupancy
  Rb  Rb0  1  0.26407001  0.13443300  0.33742699  1
  Br  Br1  1  0.73593010  0.86556700  0.66257296  1
  Br  Br2  1  0.39806602  0.25967000  0.94419798  1
  Br  Br3  1  0.60193408  0.74033000  0.05580197  1
  Se  Se4  1  0.04120803  0.22814000  0.68944398  1
  Br  Br5  1  0.95879207  0.77186000  0.31055597  1
  Br  Br6  1  0.40875806  0.52843900  0.65404497  1
  Br  Br7  1  0.59124205  0.47156100  0.34595498  1
  Br  Br8  1  0.07993113  0.96457200  0.87556594  1
  Br  Br9  1  0.92006897  0.03542800  0.12443401  1
  Br  Br10  1  0.15577306  0.49322100  0.19523298  1
  Br  Br11  1  0.84422704  0.50677900  0.80476698  1
  Br  Br12  1  0.38670209  0.76819800  0.45839796  1
  Br  Br13  1  0.61329801  0.23180200  0.54160199  1
