# generated using pymatgen
data_Ce4Al9Pd5
_symmetry_space_group_name_H-M   'P 1'
_cell_length_a   5.32641602
_cell_length_b   5.32641602
_cell_length_c   13.55807781
_cell_angle_alpha   78.67176056
_cell_angle_beta   78.67176056
_cell_angle_gamma   60.00000000
_symmetry_Int_Tables_number   1
_chemical_formula_structural   Ce4Al9Pd5
_chemical_formula_sum   'Ce4 Al9 Pd5'
_cell_volume   324.43667638
_cell_formula_units_Z   1
loop_
 _symmetry_equiv_pos_site_id
 _symmetry_equiv_pos_as_xyz
  1  'x, y, z'
loop_
 _atom_site_type_symbol
 _atom_site_label
 _atom_site_symmetry_multiplicity
 _atom_site_fract_x
 _atom_site_fract_y
 _atom_site_fract_z
 _atom_site_occupancy
  Ce  Ce0  1  0.94970494  0.94970499  0.15088500  1
  Ce  Ce1  1  0.05029500  0.05029500  0.84911498  1
  Ce  Ce2  1  0.85286794  0.85286799  0.44139599  1
  Ce  Ce3  1  0.14713199  0.14713200  0.55860399  1
  Pd  Pd4  1  0.49999997  0.49999999  0.49999999  1
  Pd  Pd5  1  0.72217795  0.72217799  0.83346598  1
  Al  Al6  1  0.27782198  0.27782200  0.16653400  1
  Al  Al7  1  0.61086096  0.61086099  0.16741700  1
  Pd  Pd8  1  0.38913897  0.38913900  0.83258298  1
  Al  Al9  1  0.49999997  0.49999999  0.00000000  1
  Al  Al10  1  0.49999995  0.99999999  0.00000000  1
  Al  Al11  1  -0.00000002  0.49999999  0.00000000  1
  Al  Al12  1  0.89171496  0.38843800  0.33140899  1
  Pd  Pd13  1  0.38843797  0.38843800  0.33140899  1
  Al  Al14  1  0.38843796  0.89171499  0.33140899  1
  Al  Al15  1  0.10828497  0.61156199  0.66859099  1
  Pd  Pd16  1  0.61156196  0.61156199  0.66859099  1
  Al  Al17  1  0.61156198  0.10828500  0.66859099  1
