# generated using pymatgen
data_TlAgO6
_symmetry_space_group_name_H-M   'P 1'
_cell_length_a   4.40859985
_cell_length_b   5.35588598
_cell_length_c   5.35588598
_cell_angle_alpha   97.33264923
_cell_angle_beta   90.00000000
_cell_angle_gamma   90.00000000
_symmetry_Int_Tables_number   1
_chemical_formula_structural   TlAgO6
_chemical_formula_sum   'Tl1 Ag1 O6'
_cell_volume   125.42872592
_cell_formula_units_Z   1
loop_
 _symmetry_equiv_pos_site_id
 _symmetry_equiv_pos_as_xyz
  1  'x, y, z'
loop_
 _atom_site_type_symbol
 _atom_site_label
 _atom_site_symmetry_multiplicity
 _atom_site_fract_x
 _atom_site_fract_y
 _atom_site_fract_z
 _atom_site_occupancy
  O  O0  1  -0.00000000  0.28175201  0.28175199  1
  O  O1  1  0.50000002  0.71824802  0.71824798  1
  O  O2  1  0.28851401  0.20795001  0.96876703  1
  O  O3  1  0.78851403  0.79205003  0.03123295  1
  O  O4  1  0.21148601  0.03123300  0.79205003  1
  O  O5  1  0.71148602  0.96876703  0.20794995  1
  Tl  Tl6  1  0.75000002  0.37802401  0.62197600  1
  Ag  Ag7  1  0.25000001  0.62197602  0.37802398  1
