# generated using pymatgen
data_TbLu(CoO2)2
_symmetry_space_group_name_H-M   'P 1'
_cell_length_a   3.21739888
_cell_length_b   6.32150793
_cell_length_c   6.70744562
_cell_angle_alpha   118.11421204
_cell_angle_beta   90.00000000
_cell_angle_gamma   90.00000000
_symmetry_Int_Tables_number   1
_chemical_formula_structural   TbLu(CoO2)2
_chemical_formula_sum   'Tb1 Lu1 Co2 O4'
_cell_volume   120.32510965
_cell_formula_units_Z   1
loop_
 _symmetry_equiv_pos_site_id
 _symmetry_equiv_pos_as_xyz
  1  'x, y, z'
loop_
 _atom_site_type_symbol
 _atom_site_label
 _atom_site_symmetry_multiplicity
 _atom_site_fract_x
 _atom_site_fract_y
 _atom_site_fract_z
 _atom_site_occupancy
  Lu  Lu0  1  0.50000002  0.00000000  0.49999999  1
  Tb  Tb1  1  0.50000002  0.50000001  0.49999999  1
  Co  Co2  1  0.00000000  0.00000000  0.00000000  1
  Co  Co3  1  0.00000000  0.50000001  0.99999997  1
  O  O4  1  0.00000000  0.17707500  0.35414999  1
  O  O5  1  0.00000000  0.82292501  0.64584999  1
  O  O6  1  0.50000002  0.39104101  0.78208198  1
  O  O7  1  0.50000002  0.60895901  0.21791800  1
