# generated using pymatgen
data_Ba(HoSi)2
_symmetry_space_group_name_H-M   'P 1'
_cell_length_a   4.69455194
_cell_length_b   4.69455194
_cell_length_c   7.30621195
_cell_angle_alpha   108.73982239
_cell_angle_beta   108.73982239
_cell_angle_gamma   90.00000000
_symmetry_Int_Tables_number   1
_chemical_formula_structural   Ba(HoSi)2
_chemical_formula_sum   'Ba1 Ho2 Si2'
_cell_volume   143.44092108
_cell_formula_units_Z   1
loop_
 _symmetry_equiv_pos_site_id
 _symmetry_equiv_pos_as_xyz
  1  'x, y, z'
loop_
 _atom_site_type_symbol
 _atom_site_label
 _atom_site_symmetry_multiplicity
 _atom_site_fract_x
 _atom_site_fract_y
 _atom_site_fract_z
 _atom_site_occupancy
  Ba  Ba0  1  0.00000000  0.00000000  0.00000000  1
  Ho  Ho1  1  0.75000001  0.25000000  0.50000001  1
  Ho  Ho2  1  0.25000000  0.75000001  0.50000001  1
  Si  Si3  1  0.38970800  0.38970800  0.77941602  1
  Si  Si4  1  0.61029200  0.61029201  0.22058400  1
