# generated using pymatgen
data_AlTl2Te5
_symmetry_space_group_name_H-M   'P 1'
_cell_length_a   4.04941607
_cell_length_b   4.04941607
_cell_length_c   16.05115891
_cell_angle_alpha   90.00000000
_cell_angle_beta   90.00000000
_cell_angle_gamma   120.00000000
_symmetry_Int_Tables_number   1
_chemical_formula_structural   AlTl2Te5
_chemical_formula_sum   'Al1 Tl2 Te5'
_cell_volume   227.94067444
_cell_formula_units_Z   1
loop_
 _symmetry_equiv_pos_site_id
 _symmetry_equiv_pos_as_xyz
  1  'x, y, z'
loop_
 _atom_site_type_symbol
 _atom_site_label
 _atom_site_symmetry_multiplicity
 _atom_site_fract_x
 _atom_site_fract_y
 _atom_site_fract_z
 _atom_site_occupancy
  Tl  Tl0  1  0.66666665  0.33333332  0.75000000  1
  Tl  Tl1  1  0.33333332  0.66666663  0.25000000  1
  Al  Al2  1  0.00000000  0.00000000  0.50000000  1
  Te  Te3  1  0.00000000  0.00000000  0.00000000  1
  Te  Te4  1  0.66666665  0.33333332  0.08978600  1
  Te  Te5  1  0.33333332  0.66666663  0.91021401  1
  Te  Te6  1  0.33333332  0.66666663  0.58978600  1
  Te  Te7  1  0.66666665  0.33333332  0.41021400  1
