# generated using pymatgen
data_Ce2Ti2Si4Ru3
_symmetry_space_group_name_H-M   'P 1'
_cell_length_a   4.07600880
_cell_length_b   7.64938211
_cell_length_c   7.64938259
_cell_angle_alpha   120.00000000
_cell_angle_beta   90.00000000
_cell_angle_gamma   90.00000000
_symmetry_Int_Tables_number   1
_chemical_formula_structural   Ce2Ti2Si4Ru3
_chemical_formula_sum   'Ce2 Ti2 Si4 Ru3'
_cell_volume   206.54680598
_cell_formula_units_Z   1
loop_
 _symmetry_equiv_pos_site_id
 _symmetry_equiv_pos_as_xyz
  1  'x, y, z'
loop_
 _atom_site_type_symbol
 _atom_site_label
 _atom_site_symmetry_multiplicity
 _atom_site_fract_x
 _atom_site_fract_y
 _atom_site_fract_z
 _atom_site_occupancy
  Ce  Ce0  1  0.00000000  0.33333334  0.66666670  1
  Ce  Ce1  1  -0.00000000  0.66666668  0.33333338  1
  Ti  Ti2  1  0.50000002  0.28613101  0.28613102  1
  Ti  Ti3  1  0.50000002  1.00000002  0.71386908  1
  Si  Si4  1  0.00000000  0.80950601  0.80950607  1
  Ru  Ru5  1  0.00000000  0.19049400  0.00000001  1
  Ru  Ru6  1  0.50000002  0.71386901  0.00000005  1
  Ru  Ru7  1  1.00000005  0.00000000  0.19049400  1
  Si  Si8  1  0.50000002  0.61423901  0.61423905  1
  Si  Si9  1  0.50000002  0.38576101  0.00000003  1
  Si  Si10  1  0.50000002  0.00000000  0.38576101  1
