# generated using pymatgen
data_K2LuP3O11
_symmetry_space_group_name_H-M   'P 1'
_cell_length_a   5.67656422
_cell_length_b   7.39157391
_cell_length_c   7.56581450
_cell_angle_alpha   118.34723663
_cell_angle_beta   112.03330994
_cell_angle_gamma   90.00000000
_symmetry_Int_Tables_number   1
_chemical_formula_structural   K2LuP3O11
_chemical_formula_sum   'K2 Lu1 P3 O11'
_cell_volume   252.73203169
_cell_formula_units_Z   1
loop_
 _symmetry_equiv_pos_site_id
 _symmetry_equiv_pos_as_xyz
  1  'x, y, z'
loop_
 _atom_site_type_symbol
 _atom_site_label
 _atom_site_symmetry_multiplicity
 _atom_site_fract_x
 _atom_site_fract_y
 _atom_site_fract_z
 _atom_site_occupancy
  K  K0  1  0.00270900  0.00560000  0.00541800  1
  K  K1  1  0.39899495  0.42818897  0.79798994  1
  Lu  Lu2  1  0.70021090  0.94418094  0.40042189  1
  P  P3  1  0.70806494  0.36411798  0.41612994  1
  P  P4  1  0.08782295  0.62524996  0.17564594  1
  P  P5  1  0.33022192  0.88980494  0.66044391  1
  O  O6  1  0.47751596  0.22734199  0.39412696  1
  O  O7  1  0.91661093  0.22734199  0.39412695  1
  O  O8  1  0.85374990  0.73323895  0.14914691  1
  O  O9  1  0.29539693  0.73323895  0.14914692  1
  O  O10  1  0.11160399  0.01337700  0.66871799  1
  O  O11  1  0.55711397  0.01337700  0.66871798  1
  O  O12  1  0.42082892  0.83462795  0.84165791  1
  O  O13  1  0.00946797  0.38920498  0.01893596  1
  O  O14  1  0.82299092  0.56961196  0.64598192  1
  O  O15  1  0.61527994  0.41839897  0.23055994  1
  O  O16  1  0.21341394  0.66659796  0.42682793  1
