# generated using pymatgen
data_DySiPt2
_symmetry_space_group_name_H-M   'P 1'
_cell_length_a   4.14861393
_cell_length_b   5.51597023
_cell_length_c   6.86975622
_cell_angle_alpha   90.00000000
_cell_angle_beta   90.00000000
_cell_angle_gamma   112.08951569
_symmetry_Int_Tables_number   1
_chemical_formula_structural   DySiPt2
_chemical_formula_sum   'Dy2 Si2 Pt4'
_cell_volume   145.66572202
_cell_formula_units_Z   2
loop_
 _symmetry_equiv_pos_site_id
 _symmetry_equiv_pos_as_xyz
  1  'x, y, z'
loop_
 _atom_site_type_symbol
 _atom_site_label
 _atom_site_symmetry_multiplicity
 _atom_site_fract_x
 _atom_site_fract_y
 _atom_site_fract_z
 _atom_site_occupancy
  Dy  Dy0  1  0.43792893  0.87585800  0.74999998  1
  Dy  Dy1  1  0.56207100  0.12414200  0.24999999  1
  Pt  Pt2  1  0.15564497  0.31129000  0.94584597  1
  Pt  Pt3  1  0.84435495  0.68871000  0.05415400  1
  Pt  Pt4  1  0.84435495  0.68871000  0.44584599  1
  Pt  Pt5  1  0.15564497  0.31129000  0.55415398  1
  Si  Si6  1  0.71444997  0.42890000  0.74999998  1
  Si  Si7  1  0.28554995  0.57110000  0.24999999  1
