# generated using pymatgen
data_Rb3Cl4
_symmetry_space_group_name_H-M   'P 1'
_cell_length_a   5.59908676
_cell_length_b   5.59908676
_cell_length_c   9.02812099
_cell_angle_alpha   71.93525696
_cell_angle_beta   71.93525696
_cell_angle_gamma   60.00001526
_symmetry_Int_Tables_number   1
_chemical_formula_structural   Rb3Cl4
_chemical_formula_sum   'Rb3 Cl4'
_cell_volume   228.85934956
_cell_formula_units_Z   1
loop_
 _symmetry_equiv_pos_site_id
 _symmetry_equiv_pos_as_xyz
  1  'x, y, z'
loop_
 _atom_site_type_symbol
 _atom_site_label
 _atom_site_symmetry_multiplicity
 _atom_site_fract_x
 _atom_site_fract_y
 _atom_site_fract_z
 _atom_site_occupancy
  Rb  Rb0  1  0.62312401  0.62312400  0.13062803  1
  Cl  Cl1  1  0.37687601  0.37687600  0.86937202  1
  Rb  Rb2  1  0.79140102  0.79140100  0.62579705  1
  Cl  Cl3  1  0.20859900  0.20859900  0.37420301  1
  Cl  Cl4  1  0.00000000  0.00000000  0.00000000  1
  Cl  Cl5  1  0.92109002  0.92109000  0.23673005  1
  Rb  Rb6  1  0.07891000  0.07891000  0.76327001  1
