# generated using pymatgen
data_CrO
_symmetry_space_group_name_H-M   'P 1'
_cell_length_a   4.07963610
_cell_length_b   5.40146732
_cell_length_c   5.85106850
_cell_angle_alpha   112.77728271
_cell_angle_beta   110.40312195
_cell_angle_gamma   90.00000000
_symmetry_Int_Tables_number   1
_chemical_formula_structural   CrO
_chemical_formula_sum   'Cr4 O4'
_cell_volume   110.05404754
_cell_formula_units_Z   4
loop_
 _symmetry_equiv_pos_site_id
 _symmetry_equiv_pos_as_xyz
  1  'x, y, z'
loop_
 _atom_site_type_symbol
 _atom_site_label
 _atom_site_symmetry_multiplicity
 _atom_site_fract_x
 _atom_site_fract_y
 _atom_site_fract_z
 _atom_site_occupancy
  Cr  Cr0  1  0.37228799  0.25000000  0.00000000  1
  Cr  Cr1  1  0.62771198  0.75000001  0.00000002  1
  Cr  Cr2  1  0.49999998  0.00000000  0.49999999  1
  Cr  Cr3  1  0.00000000  0.50000001  0.50000003  1
  O  O4  1  0.59419098  0.63232801  0.27959602  1
  O  O5  1  0.68540497  0.13232800  0.27959599  1
  O  O6  1  0.31459499  0.86767201  0.72040405  1
  O  O7  1  0.40580899  0.36767201  0.72040402  1
