# generated using pymatgen
data_CuO
_symmetry_space_group_name_H-M   'P 1'
_cell_length_a   3.09476471
_cell_length_b   3.09476471
_cell_length_c   12.78008938
_cell_angle_alpha   83.04570007
_cell_angle_beta   83.04570007
_cell_angle_gamma   59.99998474
_symmetry_Int_Tables_number   1
_chemical_formula_structural   CuO
_chemical_formula_sum   'Cu5 O5'
_cell_volume   104.96227931
_cell_formula_units_Z   5
loop_
 _symmetry_equiv_pos_site_id
 _symmetry_equiv_pos_as_xyz
  1  'x, y, z'
loop_
 _atom_site_type_symbol
 _atom_site_label
 _atom_site_symmetry_multiplicity
 _atom_site_fract_x
 _atom_site_fract_y
 _atom_site_fract_z
 _atom_site_occupancy
  Cu  Cu0  1  0.91665803  0.91665800  0.25002598  1
  Cu  Cu1  1  0.65000902  0.65000900  0.04997298  1
  Cu  Cu2  1  0.45004501  0.45004500  0.64986499  1
  Cu  Cu3  1  0.18340501  0.18340500  0.44978500  1
  O  O4  1  0.05004200  0.05004200  0.84987400  1
  O  O5  1  0.86664502  0.86664500  0.40006498  1
  O  O6  1  0.59985202  0.59985200  0.20044398  1
  O  O7  1  0.39989601  0.39989600  0.80031199  1
  O  O8  1  0.13340100  0.13340100  0.59979700  1
  Cu  Cu9  1  0.00004800  0.00004800  0.99985601  1
