# generated using pymatgen
data_LiMn3O6
_symmetry_space_group_name_H-M   'P 1'
_cell_length_a   5.26002979
_cell_length_b   5.45300102
_cell_length_c   7.37585020
_cell_angle_alpha   90.00000000
_cell_angle_beta   90.00000000
_cell_angle_gamma   90.00000000
_symmetry_Int_Tables_number   1
_chemical_formula_structural   LiMn3O6
_chemical_formula_sum   'Li2 Mn6 O12'
_cell_volume   211.56112656
_cell_formula_units_Z   2
loop_
 _symmetry_equiv_pos_site_id
 _symmetry_equiv_pos_as_xyz
  1  'x, y, z'
loop_
 _atom_site_type_symbol
 _atom_site_label
 _atom_site_symmetry_multiplicity
 _atom_site_fract_x
 _atom_site_fract_y
 _atom_site_fract_z
 _atom_site_occupancy
  Li  Li0  1  0.74968203  0.03009200  0.10731300  1
  Mn  Mn1  1  0.74968203  0.46990800  0.89268698  1
  Mn  Mn2  1  0.75031803  0.53009200  0.39268699  1
  Mn  Mn3  1  0.75031803  0.96990800  0.60731298  1
  Li  Li4  1  0.25031801  0.96990800  0.89268698  1
  Mn  Mn5  1  0.25031801  0.53009200  0.10731300  1
  Mn  Mn6  1  0.24968201  0.46990800  0.60731298  1
  Mn  Mn7  1  0.24968201  0.03009200  0.39268699  1
  O  O8  1  0.05012000  0.25000000  -0.00000000  1
  O  O9  1  0.44988002  0.75000000  0.49999999  1
  O  O10  1  0.94988004  0.75000000  -0.00000000  1
  O  O11  1  0.55012002  0.25000000  0.49999999  1
  O  O12  1  0.60722302  0.11204600  0.84891298  1
  O  O13  1  0.60722302  0.38795400  0.15108700  1
  O  O14  1  0.89277704  0.61204600  0.65108698  1
  O  O15  1  0.89277704  0.88795400  0.34891299  1
  O  O16  1  0.39277702  0.88795400  0.15108700  1
  O  O17  1  0.39277702  0.61204600  0.84891298  1
  O  O18  1  0.10722300  0.38795400  0.34891299  1
  O  O19  1  0.10722300  0.11204600  0.65108698  1
