# generated using pymatgen
data_Li3Sb
_symmetry_space_group_name_H-M   'P 1'
_cell_length_a   2.80085301
_cell_length_b   4.58811617
_cell_length_c   4.91535378
_cell_angle_alpha   90.00000000
_cell_angle_beta   90.00000000
_cell_angle_gamma   90.00000000
_symmetry_Int_Tables_number   1
_chemical_formula_structural   Li3Sb
_chemical_formula_sum   'Li3 Sb1'
_cell_volume   63.16543692
_cell_formula_units_Z   1
loop_
 _symmetry_equiv_pos_site_id
 _symmetry_equiv_pos_as_xyz
  1  'x, y, z'
loop_
 _atom_site_type_symbol
 _atom_site_label
 _atom_site_symmetry_multiplicity
 _atom_site_fract_x
 _atom_site_fract_y
 _atom_site_fract_z
 _atom_site_occupancy
  Li  Li0  1  0.00000000  0.24999999  0.70208503  1
  Sb  Sb1  1  0.00000000  0.74999997  0.29791501  1
  Li  Li2  1  0.50000000  0.24999999  0.18691701  1
  Li  Li3  1  0.50000000  0.74999997  0.81308304  1
