# generated using pymatgen
data_TmFeSi
_symmetry_space_group_name_H-M   'P 1'
_cell_length_a   4.00042295
_cell_length_b   4.00042295
_cell_length_c   6.82777786
_cell_angle_alpha   90.00000000
_cell_angle_beta   90.00000000
_cell_angle_gamma   90.00000000
_symmetry_Int_Tables_number   1
_chemical_formula_structural   TmFeSi
_chemical_formula_sum   'Tm2 Fe2 Si2'
_cell_volume   109.26754974
_cell_formula_units_Z   2
loop_
 _symmetry_equiv_pos_site_id
 _symmetry_equiv_pos_as_xyz
  1  'x, y, z'
loop_
 _atom_site_type_symbol
 _atom_site_label
 _atom_site_symmetry_multiplicity
 _atom_site_fract_x
 _atom_site_fract_y
 _atom_site_fract_z
 _atom_site_occupancy
  Tm  Tm0  1  0.00000000  0.50000001  0.32292601  1
  Tm  Tm1  1  0.50000001  0.00000000  0.67707401  1
  Fe  Fe2  1  0.00000000  0.00000000  0.00000000  1
  Fe  Fe3  1  0.50000001  0.50000001  -0.00000000  1
  Si  Si4  1  0.00000000  0.50000001  0.82382102  1
  Si  Si5  1  0.50000001  0.00000000  0.17617900  1
