# generated using pymatgen
data_ScSiPd
_symmetry_space_group_name_H-M   'P 1'
_cell_length_a   3.96121097
_cell_length_b   6.49608803
_cell_length_c   6.49608803
_cell_angle_alpha   120.00000000
_cell_angle_beta   90.00000000
_cell_angle_gamma   90.00000000
_symmetry_Int_Tables_number   1
_chemical_formula_structural   ScSiPd
_chemical_formula_sum   'Sc3 Si3 Pd3'
_cell_volume   144.76461080
_cell_formula_units_Z   3
loop_
 _symmetry_equiv_pos_site_id
 _symmetry_equiv_pos_as_xyz
  1  'x, y, z'
loop_
 _atom_site_type_symbol
 _atom_site_label
 _atom_site_symmetry_multiplicity
 _atom_site_fract_x
 _atom_site_fract_y
 _atom_site_fract_z
 _atom_site_occupancy
  Sc  Sc0  1  0.50000000  0.42182499  0.42182498  1
  Sc  Sc1  1  0.50000000  0.57817499  0.99999995  1
  Sc  Sc2  1  0.50000000  0.00000000  0.57817498  1
  Pd  Pd3  1  -0.00000000  0.77246799  0.77246796  1
  Pd  Pd4  1  1.00000001  0.22753200  0.99999996  1
  Pd  Pd5  1  1.00000001  0.00000000  0.22753199  1
  Si  Si6  1  0.50000000  0.00000000  -0.00000000  1
  Si  Si7  1  1.00000001  0.66666666  0.33333331  1
  Si  Si8  1  0.00000000  0.33333333  0.66666664  1
