# generated using pymatgen
data_In7TeS5
_symmetry_space_group_name_H-M   'P 1'
_cell_length_a   4.23542786
_cell_length_b   4.23542786
_cell_length_c   16.93883514
_cell_angle_alpha   82.81800842
_cell_angle_beta   82.81800842
_cell_angle_gamma   60.00000381
_symmetry_Int_Tables_number   1
_chemical_formula_structural   In7TeS5
_chemical_formula_sum   'In7 Te1 S5'
_cell_volume   260.39671134
_cell_formula_units_Z   1
loop_
 _symmetry_equiv_pos_site_id
 _symmetry_equiv_pos_as_xyz
  1  'x, y, z'
loop_
 _atom_site_type_symbol
 _atom_site_label
 _atom_site_symmetry_multiplicity
 _atom_site_fract_x
 _atom_site_fract_y
 _atom_site_fract_z
 _atom_site_occupancy
  Te  Te0  1  0.56561595  0.56561598  0.30315202  1
  In  In1  1  0.43438396  0.43438399  0.69684803  1
  In  In2  1  0.18540798  0.18540799  0.44377602  1
  S  S3  1  0.05240800  0.05240800  0.84277603  1
  S  S4  1  0.81459193  0.81459197  0.55622403  1
  In  In5  1  0.94759192  0.94759197  0.15722401  1
  S  S6  1  0.68330594  0.68330598  0.95008204  1
  S  S7  1  0.31669397  0.31669399  0.04991800  1
  In  In8  1  0.73387494  0.73387498  0.79837504  1
  In  In9  1  0.26612498  0.26612499  0.20162501  1
  S  S10  1  0.13543299  0.13543300  0.59370102  1
  In  In11  1  0.86456692  0.86456697  0.40629902  1
  In  In12  1  0.00000000  0.00000000  0.00000000  1
