# generated using pymatgen
data_W4IO15
_symmetry_space_group_name_H-M   'P 1'
_cell_length_a   5.59999609
_cell_length_b   6.79096651
_cell_length_c   8.57982540
_cell_angle_alpha   76.58840179
_cell_angle_beta   71.24962616
_cell_angle_gamma   89.28382111
_symmetry_Int_Tables_number   1
_chemical_formula_structural   W4IO15
_chemical_formula_sum   'W4 I1 O15'
_cell_volume   299.86007876
_cell_formula_units_Z   1
loop_
 _symmetry_equiv_pos_site_id
 _symmetry_equiv_pos_as_xyz
  1  'x, y, z'
loop_
 _atom_site_type_symbol
 _atom_site_label
 _atom_site_symmetry_multiplicity
 _atom_site_fract_x
 _atom_site_fract_y
 _atom_site_fract_z
 _atom_site_occupancy
  I  I0  1  0.04932100  0.01269800  0.99604799  1
  W  W1  1  0.62934499  0.38618600  0.80417501  1
  W  W2  1  0.15807103  0.80575500  0.59922699  1
  W  W3  1  0.74527598  0.18633800  0.40681103  1
  W  W4  1  0.39964601  0.59909400  0.19880101  1
  O  O5  1  0.31327200  0.19926300  0.89998600  1
  O  O6  1  0.81836198  0.20610600  0.89613303  1
  O  O7  1  0.90652999  0.60434000  0.69606902  1
  O  O8  1  0.10293804  0.90168800  0.79794298  1
  O  O9  1  0.48870703  0.99465100  0.49909000  1
  O  O10  1  0.98753701  0.99390000  0.50135502  1
  O  O11  1  0.70333599  0.29463400  0.59350902  1
  O  O12  1  0.30103202  0.69912300  0.39850100  1
  O  O13  1  0.59125900  0.38769500  0.30374602  1
  O  O14  1  0.20672903  0.80889300  0.09541299  1
  O  O15  1  0.90113897  0.09857100  0.19878804  1
  O  O16  1  0.50183300  0.50403800  0.00307601  1
  O  O17  1  0.40214301  0.59646100  0.70028300  1
  O  O18  1  0.09019901  0.39817900  0.29878999  1
  O  O19  1  0.71095601  0.80204300  0.09869302  1
