# generated using pymatgen
data_KMn3O4
_symmetry_space_group_name_H-M   'P 1'
_cell_length_a   5.65265608
_cell_length_b   5.89636660
_cell_length_c   7.98233891
_cell_angle_alpha   109.10175323
_cell_angle_beta   90.00000000
_cell_angle_gamma   118.64189911
_symmetry_Int_Tables_number   1
_chemical_formula_structural   KMn3O4
_chemical_formula_sum   'K2 Mn6 O8'
_cell_volume   216.65696135
_cell_formula_units_Z   2
loop_
 _symmetry_equiv_pos_site_id
 _symmetry_equiv_pos_as_xyz
  1  'x, y, z'
loop_
 _atom_site_type_symbol
 _atom_site_label
 _atom_site_symmetry_multiplicity
 _atom_site_fract_x
 _atom_site_fract_y
 _atom_site_fract_z
 _atom_site_occupancy
  K  K0  1  0.66754597  0.33509200  0.26756200  1
  K  K1  1  0.33245396  0.66490800  0.73243801  1
  Mn  Mn2  1  0.99932693  0.99865401  0.69021502  1
  Mn  Mn3  1  0.39194895  0.78389801  0.32829802  1
  Mn  Mn4  1  0.00067300  0.00134600  0.30978500  1
  Mn  Mn5  1  0.60805098  0.21610200  0.67170200  1
  Mn  Mn6  1  0.20529898  0.41059800  0.03674201  1
  Mn  Mn7  1  0.79470096  0.58940200  0.96325800  1
  O  O8  1  0.25035700  0.00000000  0.49999999  1
  O  O9  1  0.87015198  0.24081300  0.86490899  1
  O  O10  1  0.74964299  0.00000000  0.49999999  1
  O  O11  1  0.18912498  0.37825000  0.27768001  1
  O  O12  1  0.62933895  0.75918700  0.13509102  1
  O  O13  1  0.81087496  0.62175000  0.72232001  1
  O  O14  1  0.37066098  0.24081300  0.86490899  1
  O  O15  1  0.12984796  0.75918700  0.13509102  1
