# generated using pymatgen
data_KMnCl2
_symmetry_space_group_name_H-M   'P 1'
_cell_length_a   5.73698378
_cell_length_b   6.38890266
_cell_length_c   6.38890266
_cell_angle_alpha   115.02885437
_cell_angle_beta   90.00000000
_cell_angle_gamma   90.00000000
_symmetry_Int_Tables_number   1
_chemical_formula_structural   KMnCl2
_chemical_formula_sum   'K2 Mn2 Cl4'
_cell_volume   212.18262708
_cell_formula_units_Z   2
loop_
 _symmetry_equiv_pos_site_id
 _symmetry_equiv_pos_as_xyz
  1  'x, y, z'
loop_
 _atom_site_type_symbol
 _atom_site_label
 _atom_site_symmetry_multiplicity
 _atom_site_fract_x
 _atom_site_fract_y
 _atom_site_fract_z
 _atom_site_occupancy
  K  K0  1  0.25000001  0.34857800  0.65142200  1
  K  K1  1  0.75000003  0.65142200  0.34857801  1
  Mn  Mn2  1  0.50000002  0.00000000  -0.00000000  1
  Mn  Mn3  1  0.00000000  0.00000000  0.00000000  1
  Cl  Cl4  1  0.25000001  0.32952000  0.14168400  1
  Cl  Cl5  1  0.75000003  0.67048000  0.85831600  1
  Cl  Cl6  1  0.25000001  0.85831600  0.67048001  1
  Cl  Cl7  1  0.75000003  0.14168400  0.32952000  1
