# generated using pymatgen
data_LaMgO3
_symmetry_space_group_name_H-M   'P 1'
_cell_length_a   5.69209003
_cell_length_b   5.76956987
_cell_length_c   8.08573723
_cell_angle_alpha   90.00000000
_cell_angle_beta   90.00000000
_cell_angle_gamma   90.00000000
_symmetry_Int_Tables_number   1
_chemical_formula_structural   LaMgO3
_chemical_formula_sum   'La4 Mg4 O12'
_cell_volume   265.54297816
_cell_formula_units_Z   4
loop_
 _symmetry_equiv_pos_site_id
 _symmetry_equiv_pos_as_xyz
  1  'x, y, z'
loop_
 _atom_site_type_symbol
 _atom_site_label
 _atom_site_symmetry_multiplicity
 _atom_site_fract_x
 _atom_site_fract_y
 _atom_site_fract_z
 _atom_site_occupancy
  La  La0  1  0.50559300  0.54319701  0.24999999  1
  La  La1  1  0.99440699  0.04319700  0.24999999  1
  La  La2  1  0.49440700  0.45680301  0.74999998  1
  La  La3  1  0.00559300  0.95680302  0.74999998  1
  Mg  Mg4  1  0.00000000  0.50000001  -0.00000000  1
  Mg  Mg5  1  0.50000000  0.00000000  0.49999999  1
  Mg  Mg6  1  0.00000000  0.50000001  0.49999999  1
  Mg  Mg7  1  0.50000000  0.00000000  0.00000000  1
  O  O8  1  0.40959900  0.97826102  0.24999999  1
  O  O9  1  0.09040100  0.47826101  0.24999999  1
  O  O10  1  0.59040100  0.02173900  0.74999998  1
  O  O11  1  0.90959899  0.52173901  0.74999998  1
  O  O12  1  0.79939200  0.80084702  0.04713500  1
  O  O13  1  0.70060800  0.30084701  0.45286499  1
  O  O14  1  0.20060800  0.19915300  0.54713498  1
  O  O15  1  0.29939200  0.69915302  0.95286497  1
  O  O16  1  0.20060800  0.19915300  0.95286497  1
  O  O17  1  0.29939200  0.69915302  0.54713498  1
  O  O18  1  0.79939200  0.80084702  0.45286499  1
  O  O19  1  0.70060800  0.30084701  0.04713500  1
