# generated using pymatgen
data_MgAl7C4
_symmetry_space_group_name_H-M   'P 1'
_cell_length_a   3.07510209
_cell_length_b   3.07510257
_cell_length_c   17.73591232
_cell_angle_alpha   90.00000000
_cell_angle_beta   90.00000000
_cell_angle_gamma   119.99999237
_symmetry_Int_Tables_number   1
_chemical_formula_structural   MgAl7C4
_chemical_formula_sum   'Mg1 Al7 C4'
_cell_volume   145.24571966
_cell_formula_units_Z   1
loop_
 _symmetry_equiv_pos_site_id
 _symmetry_equiv_pos_as_xyz
  1  'x, y, z'
loop_
 _atom_site_type_symbol
 _atom_site_label
 _atom_site_symmetry_multiplicity
 _atom_site_fract_x
 _atom_site_fract_y
 _atom_site_fract_z
 _atom_site_occupancy
  Mg  Mg0  1  0.00000000  0.00000000  0.50000002  1
  Al  Al1  1  0.00000000  0.00000000  0.00000000  1
  Al  Al2  1  0.33333329  0.66666663  0.63489102  1
  Al  Al3  1  0.66666663  0.33333332  0.36510901  1
  Al  Al4  1  0.66666663  0.33333332  0.13489101  1
  C  C5  1  0.33333329  0.66666663  0.86510903  1
  Al  Al6  1  0.00000000  0.00000000  0.75000003  1
  Al  Al7  1  0.00000000  0.00000000  0.25000001  1
  C  C8  1  0.33333329  0.66666663  0.07229400  1
  Al  Al9  1  0.66666663  0.33333332  0.92770604  1
  C  C10  1  0.66666663  0.33333332  0.57229402  1
  C  C11  1  0.33333329  0.66666663  0.42770602  1
