# generated using pymatgen
data_Ta4Si5Ir3
_symmetry_space_group_name_H-M   'P 1'
_cell_length_a   4.79398394
_cell_length_b   4.91615629
_cell_length_c   7.88458490
_cell_angle_alpha   90.00000000
_cell_angle_beta   90.00000000
_cell_angle_gamma   119.18127441
_symmetry_Int_Tables_number   1
_chemical_formula_structural   Ta4Si5Ir3
_chemical_formula_sum   'Ta4 Si5 Ir3'
_cell_volume   162.23922502
_cell_formula_units_Z   1
loop_
 _symmetry_equiv_pos_site_id
 _symmetry_equiv_pos_as_xyz
  1  'x, y, z'
loop_
 _atom_site_type_symbol
 _atom_site_label
 _atom_site_symmetry_multiplicity
 _atom_site_fract_x
 _atom_site_fract_y
 _atom_site_fract_z
 _atom_site_occupancy
  Ta  Ta0  1  0.66285999  0.32572000  0.81125001  1
  Ta  Ta1  1  0.33643696  0.67287400  0.68951401  1
  Ta  Ta2  1  0.33643696  0.67287400  0.31048600  1
  Ta  Ta3  1  0.66285999  0.32572000  0.18875000  1
  Si  Si4  1  0.99889795  0.99779600  0.75125701  1
  Si  Si5  1  0.99889795  0.99779600  0.24874300  1
  Ir  Ir6  1  0.16560695  0.83290800  -0.00000000  1
  Ir  Ir7  1  0.66730095  0.83290800  1.00000001  1
  Si  Si8  1  0.17398698  0.34797400  -0.00000000  1
  Si  Si9  1  0.83043600  0.16586500  0.50000001  1
  Si  Si10  1  0.33542899  0.16586500  0.50000001  1
  Ir  Ir11  1  0.83069697  0.66139400  0.50000001  1
