# generated using pymatgen
data_LiMn3F6
_symmetry_space_group_name_H-M   'P 1'
_cell_length_a   5.40807915
_cell_length_b   5.73359966
_cell_length_c   9.35795689
_cell_angle_alpha   72.59210968
_cell_angle_beta   89.12548065
_cell_angle_gamma   63.06976700
_symmetry_Int_Tables_number   1
_chemical_formula_structural   LiMn3F6
_chemical_formula_sum   'Li2 Mn6 F12'
_cell_volume   244.37629324
_cell_formula_units_Z   2
loop_
 _symmetry_equiv_pos_site_id
 _symmetry_equiv_pos_as_xyz
  1  'x, y, z'
loop_
 _atom_site_type_symbol
 _atom_site_label
 _atom_site_symmetry_multiplicity
 _atom_site_fract_x
 _atom_site_fract_y
 _atom_site_fract_z
 _atom_site_occupancy
  Li  Li0  1  0.54022797  0.92405703  0.17953898  1
  Mn  Mn1  1  0.95973501  0.07596400  0.32046702  1
  Mn  Mn2  1  0.04184396  0.92299903  0.67999895  1
  Mn  Mn3  1  0.45811301  0.07683100  0.82015498  1
  Mn  Mn4  1  0.22394698  0.55128502  0.07523599  1
  Mn  Mn5  1  0.72498999  0.55002602  0.57527299  1
  Li  Li6  1  0.27603799  0.44879102  0.42482498  1
  Mn  Mn7  1  0.77506400  0.44989502  0.92470898  1
  F  F8  1  0.93621499  0.74235403  0.88017098  1
  F  F9  1  0.43746198  0.74170103  0.38043098  1
  F  F10  1  0.56373400  0.25763301  0.61978999  1
  F  F11  1  0.06256899  0.25837601  0.11946399  1
  F  F12  1  0.97394399  0.74469903  0.51851199  1
  F  F13  1  0.47237998  0.74674703  0.01811699  1
  F  F14  1  0.52615300  0.25511901  0.98159597  1
  F  F15  1  0.02758899  0.25322601  0.48178998  1
  F  F16  1  0.00937399  0.26090301  0.77866196  1
  F  F17  1  0.50936400  0.26119001  0.27815500  1
  F  F18  1  0.49064198  0.73903703  0.72129397  1
  F  F19  1  0.99062099  0.73916903  0.22181600  1
