# generated using pymatgen
data_SiO2
_symmetry_space_group_name_H-M   'P 1'
_cell_length_a   5.03445578
_cell_length_b   7.48573971
_cell_length_c   7.52768326
_cell_angle_alpha   73.06298828
_cell_angle_beta   70.46417999
_cell_angle_gamma   70.35022736
_symmetry_Int_Tables_number   1
_chemical_formula_structural   SiO2
_chemical_formula_sum   'Si6 O12'
_cell_volume   246.62544445
_cell_formula_units_Z   6
loop_
 _symmetry_equiv_pos_site_id
 _symmetry_equiv_pos_as_xyz
  1  'x, y, z'
loop_
 _atom_site_type_symbol
 _atom_site_label
 _atom_site_symmetry_multiplicity
 _atom_site_fract_x
 _atom_site_fract_y
 _atom_site_fract_z
 _atom_site_occupancy
  Si  Si0  1  0.59924897  0.67536801  0.65856704  1
  Si  Si1  1  0.93318397  0.82463201  0.84143305  1
  Si  Si2  1  0.40075099  0.32463200  0.34143302  1
  Si  Si3  1  0.06681599  0.17536800  0.15856701  1
  Si  Si4  1  0.02065894  0.75000001  0.25000005  1
  Si  Si5  1  0.97934102  0.25000000  0.75000001  1
  O  O6  1  0.28074196  0.55947801  0.29818403  1
  O  O7  1  0.13840392  0.94052201  0.20181606  1
  O  O8  1  0.71925799  0.44052200  0.70181602  1
  O  O9  1  0.86159603  0.05947800  0.79818399  1
  O  O10  1  0.73439897  0.76300601  0.43362805  1
  O  O11  1  0.93103298  0.73699401  0.06637205  1
  O  O12  1  0.75406701  0.26711100  0.29983502  1
  O  O13  1  0.32101299  0.23288900  0.20016501  1
  O  O14  1  0.24593295  0.73288901  0.70016504  1
  O  O15  1  0.67898696  0.76711101  0.79983504  1
  O  O16  1  0.06896698  0.26300600  0.93362800  1
  O  O17  1  0.26560099  0.23699400  0.56637201  1
