# generated using pymatgen
data_In7S13
_symmetry_space_group_name_H-M   'P 1'
_cell_length_a   6.05617619
_cell_length_b   6.05617666
_cell_length_c   12.64023495
_cell_angle_alpha   90.00000000
_cell_angle_beta   90.00000000
_cell_angle_gamma   120.00000000
_symmetry_Int_Tables_number   1
_chemical_formula_structural   In7S13
_chemical_formula_sum   'In7 S13'
_cell_volume   401.49747143
_cell_formula_units_Z   1
loop_
 _symmetry_equiv_pos_site_id
 _symmetry_equiv_pos_as_xyz
  1  'x, y, z'
loop_
 _atom_site_type_symbol
 _atom_site_label
 _atom_site_symmetry_multiplicity
 _atom_site_fract_x
 _atom_site_fract_y
 _atom_site_fract_z
 _atom_site_occupancy
  In  In0  1  0.00000000  0.00000000  0.50000000  1
  S  S1  1  0.00000000  0.00000000  0.00000000  1
  In  In2  1  0.66666667  0.33333334  0.99891900  1
  In  In3  1  0.33333337  0.66666669  0.00108100  1
  In  In4  1  0.33333337  0.66666669  0.49891900  1
  In  In5  1  0.66666667  0.33333334  0.50108100  1
  In  In6  1  0.66666667  0.33333334  0.75000000  1
  In  In7  1  0.33333337  0.66666669  0.25000000  1
  S  S8  1  0.66704905  0.99616503  0.63320500  1
  S  S9  1  0.32911601  0.33295101  0.63320500  1
  S  S10  1  0.00383505  0.67088402  0.63320500  1
  S  S11  1  0.67088398  0.00383500  0.36679500  1
  S  S12  1  0.99616502  0.66704902  0.36679500  1
  S  S13  1  0.33295101  0.32911601  0.36679500  1
  S  S14  1  0.33295099  0.00383500  0.13320500  1
  S  S15  1  0.67088403  0.66704902  0.13320500  1
  S  S16  1  0.99616499  0.32911601  0.13320500  1
  S  S17  1  0.32911606  0.99616503  0.86679500  1
  S  S18  1  0.00383502  0.33295101  0.86679500  1
  S  S19  1  0.66704903  0.67088402  0.86679500  1
