# generated using pymatgen
data_AlNi10
_symmetry_space_group_name_H-M   'P 1'
_cell_length_a   3.98980808
_cell_length_b   3.98980784
_cell_length_c   9.91480827
_cell_angle_alpha   90.00000000
_cell_angle_beta   90.00000000
_cell_angle_gamma   120.00000000
_symmetry_Int_Tables_number   1
_chemical_formula_structural   AlNi10
_chemical_formula_sum   'Al1 Ni10'
_cell_volume   136.68439595
_cell_formula_units_Z   1
loop_
 _symmetry_equiv_pos_site_id
 _symmetry_equiv_pos_as_xyz
  1  'x, y, z'
loop_
 _atom_site_type_symbol
 _atom_site_label
 _atom_site_symmetry_multiplicity
 _atom_site_fract_x
 _atom_site_fract_y
 _atom_site_fract_z
 _atom_site_occupancy
  Ni  Ni0  1  0.00000000  0.00000000  0.11997000  1
  Ni  Ni1  1  0.00000000  0.00000000  0.62569998  1
  Ni  Ni2  1  0.00000000  0.00000000  0.88002998  1
  Al  Al3  1  0.00000000  0.00000000  0.37429999  1
  Ni  Ni4  1  0.33333332  0.66666668  0.49999999  1
  Ni  Ni5  1  0.66666665  0.33333334  0.24362099  1
  Ni  Ni6  1  0.66666665  0.33333334  0.75637898  1
  Ni  Ni7  1  0.33333332  0.66666668  0.24933399  1
  Ni  Ni8  1  0.33333332  0.66666668  0.75066598  1
  Ni  Ni9  1  0.66666665  0.33333334  0.99999997  1
  Ni  Ni10  1  0.66666665  0.33333334  0.49999999  1
