# generated using pymatgen
data_TmBMoC3
_symmetry_space_group_name_H-M   'P 1'
_cell_length_a   3.06960607
_cell_length_b   3.06960630
_cell_length_c   6.53396177
_cell_angle_alpha   90.00000000
_cell_angle_beta   90.00000000
_cell_angle_gamma   120.00000000
_symmetry_Int_Tables_number   1
_chemical_formula_structural   TmBMoC3
_chemical_formula_sum   'Tm1 B1 Mo1 C3'
_cell_volume   53.31783956
_cell_formula_units_Z   1
loop_
 _symmetry_equiv_pos_site_id
 _symmetry_equiv_pos_as_xyz
  1  'x, y, z'
loop_
 _atom_site_type_symbol
 _atom_site_label
 _atom_site_symmetry_multiplicity
 _atom_site_fract_x
 _atom_site_fract_y
 _atom_site_fract_z
 _atom_site_occupancy
  Tm  Tm0  1  0.00000000  0.00000000  0.00000000  1
  Mo  Mo1  1  0.00000000  0.00000000  0.50000002  1
  B  B2  1  0.33333335  0.66666666  0.25685101  1
  C  C3  1  0.33333335  0.66666666  0.74314903  1
  C  C4  1  0.66666667  0.33333333  0.25685101  1
  C  C5  1  0.66666667  0.33333333  0.74314903  1
