# generated using pymatgen
data_Zr2Ni5Sn
_symmetry_space_group_name_H-M   'P 1'
_cell_length_a   3.79563498
_cell_length_b   3.79563498
_cell_length_c   9.12872219
_cell_angle_alpha   90.00000000
_cell_angle_beta   90.00000000
_cell_angle_gamma   90.00000000
_symmetry_Int_Tables_number   1
_chemical_formula_structural   Zr2Ni5Sn
_chemical_formula_sum   'Zr2 Ni5 Sn1'
_cell_volume   131.51608510
_cell_formula_units_Z   1
loop_
 _symmetry_equiv_pos_site_id
 _symmetry_equiv_pos_as_xyz
  1  'x, y, z'
loop_
 _atom_site_type_symbol
 _atom_site_label
 _atom_site_symmetry_multiplicity
 _atom_site_fract_x
 _atom_site_fract_y
 _atom_site_fract_z
 _atom_site_occupancy
  Zr  Zr0  1  0.00000000  0.50000000  0.76272598  1
  Zr  Zr1  1  0.50000000  0.00000000  0.23727400  1
  Ni  Ni2  1  0.50000000  0.50000000  0.49999999  1
  Ni  Ni3  1  0.00000000  0.00000000  0.49999999  1
  Ni  Ni4  1  0.50000000  0.50000000  0.00000000  1
  Sn  Sn5  1  0.00000000  0.00000000  0.00000000  1
  Ni  Ni6  1  0.00000000  0.50000000  0.32258199  1
  Ni  Ni7  1  0.50000000  0.00000000  0.67741799  1
