# generated using pymatgen
data_CeGaAu
_symmetry_space_group_name_H-M   'P 1'
_cell_length_a   4.58930779
_cell_length_b   5.72439098
_cell_length_c   5.82260370
_cell_angle_alpha   77.19917297
_cell_angle_beta   66.79051208
_cell_angle_gamma   66.36832428
_symmetry_Int_Tables_number   1
_chemical_formula_structural   CeGaAu
_chemical_formula_sum   'Ce2 Ga2 Au2'
_cell_volume   128.42890650
_cell_formula_units_Z   2
loop_
 _symmetry_equiv_pos_site_id
 _symmetry_equiv_pos_as_xyz
  1  'x, y, z'
loop_
 _atom_site_type_symbol
 _atom_site_label
 _atom_site_symmetry_multiplicity
 _atom_site_fract_x
 _atom_site_fract_y
 _atom_site_fract_z
 _atom_site_occupancy
  Ce  Ce0  1  0.53553801  0.21975901  0.70916505  1
  Ce  Ce1  1  0.46446196  0.78024103  0.29083507  1
  Au  Au2  1  0.84039602  0.20390601  0.11530203  1
  Ga  Ga3  1  0.15960395  0.79609403  0.88469809  1
  Ga  Ga4  1  0.17330298  0.37552702  0.27786704  1
  Au  Au5  1  0.82669699  0.62447303  0.72213308  1
