# generated using pymatgen
data_CeGe2
_symmetry_space_group_name_H-M   'P 1'
_cell_length_a   4.33625793
_cell_length_b   4.33625793
_cell_length_c   7.87528658
_cell_angle_alpha   105.98036957
_cell_angle_beta   105.98036957
_cell_angle_gamma   90.00000000
_symmetry_Int_Tables_number   1
_chemical_formula_structural   CeGe2
_chemical_formula_sum   'Ce2 Ge4'
_cell_volume   136.39540216
_cell_formula_units_Z   2
loop_
 _symmetry_equiv_pos_site_id
 _symmetry_equiv_pos_as_xyz
  1  'x, y, z'
loop_
 _atom_site_type_symbol
 _atom_site_label
 _atom_site_symmetry_multiplicity
 _atom_site_fract_x
 _atom_site_fract_y
 _atom_site_fract_z
 _atom_site_occupancy
  Ce  Ce0  1  0.74868903  0.24868901  0.49737803  1
  Ce  Ce1  1  0.99868906  0.99868903  0.99737806  1
  Ge  Ge2  1  0.16518202  0.66518202  0.33036403  1
  Ge  Ge3  1  0.41518202  0.41518201  0.83036403  1
  Ge  Ge4  1  0.33412903  0.83412903  0.66825804  1
  Ge  Ge5  1  0.58412903  0.58412902  0.16825804  1
