# generated using pymatgen
data_Li2Cu(PO4)2
_symmetry_space_group_name_H-M   'P 1'
_cell_length_a   4.90924883
_cell_length_b   5.61087894
_cell_length_c   6.25041962
_cell_angle_alpha   73.46721649
_cell_angle_beta   87.18385315
_cell_angle_gamma   67.60700226
_symmetry_Int_Tables_number   1
_chemical_formula_structural   Li2Cu(PO4)2
_chemical_formula_sum   'Li2 Cu1 P2 O8'
_cell_volume   152.26339287
_cell_formula_units_Z   1
loop_
 _symmetry_equiv_pos_site_id
 _symmetry_equiv_pos_as_xyz
  1  'x, y, z'
loop_
 _atom_site_type_symbol
 _atom_site_label
 _atom_site_symmetry_multiplicity
 _atom_site_fract_x
 _atom_site_fract_y
 _atom_site_fract_z
 _atom_site_occupancy
  Li  Li0  1  0.73280507  0.78986997  0.67895405  1
  Li  Li1  1  0.26719502  0.21012999  0.32104601  1
  Cu  Cu2  1  0.00000000  0.00000000  0.00000000  1
  P  P3  1  0.64295306  0.66770697  0.21583904  1
  P  P4  1  0.35704703  0.33229299  0.78416102  1
  O  O5  1  0.62267307  0.86388896  0.35983005  1
  O  O6  1  0.37732702  0.13611099  0.64017001  1
  O  O7  1  0.77995807  0.77947397  0.99348704  1
  O  O8  1  0.22004202  0.22052599  0.00651301  1
  O  O9  1  0.66344804  0.32501999  0.83905902  1
  O  O10  1  0.84551605  0.38076098  0.34024303  1
  O  O11  1  0.15448404  0.61923897  0.65975703  1
  O  O12  1  0.33655205  0.67497997  0.16094104  1
