# generated using pymatgen
data_KBPN
_symmetry_space_group_name_H-M   'P 1'
_cell_length_a   3.53976989
_cell_length_b   3.74503183
_cell_length_c   3.74503183
_cell_angle_alpha   106.06716919
_cell_angle_beta   90.00000000
_cell_angle_gamma   90.00000000
_symmetry_Int_Tables_number   1
_chemical_formula_structural   KBPN
_chemical_formula_sum   'K1 B1 P1 N1'
_cell_volume   47.70692011
_cell_formula_units_Z   1
loop_
 _symmetry_equiv_pos_site_id
 _symmetry_equiv_pos_as_xyz
  1  'x, y, z'
loop_
 _atom_site_type_symbol
 _atom_site_label
 _atom_site_symmetry_multiplicity
 _atom_site_fract_x
 _atom_site_fract_y
 _atom_site_fract_z
 _atom_site_occupancy
  K  K0  1  1.00000003  0.99889804  0.00110206  1
  B  B1  1  0.50000002  0.61584502  0.38415504  1
  N  N2  1  0.50000002  0.15195901  0.54170302  1
  P  P3  1  0.50000002  0.45829702  0.84804104  1
