# generated using pymatgen
data_Nb3B4Ir3
_symmetry_space_group_name_H-M   'P 1'
_cell_length_a   3.25741506
_cell_length_b   7.41216087
_cell_length_c   9.45572281
_cell_angle_alpha   90.00000000
_cell_angle_beta   90.00000000
_cell_angle_gamma   90.00000000
_symmetry_Int_Tables_number   1
_chemical_formula_structural   Nb3B4Ir3
_chemical_formula_sum   'Nb6 B8 Ir6'
_cell_volume   228.30355212
_cell_formula_units_Z   2
loop_
 _symmetry_equiv_pos_site_id
 _symmetry_equiv_pos_as_xyz
  1  'x, y, z'
loop_
 _atom_site_type_symbol
 _atom_site_label
 _atom_site_symmetry_multiplicity
 _atom_site_fract_x
 _atom_site_fract_y
 _atom_site_fract_z
 _atom_site_occupancy
  B  B0  1  0.49999999  0.12456000  0.26294801  1
  B  B1  1  0.00000000  0.61623801  0.04025400  1
  B  B2  1  0.00000000  0.38376201  0.95974602  1
  B  B3  1  0.00000000  0.37544001  0.76294802  1
  B  B4  1  0.49999999  0.11623800  0.45974601  1
  B  B5  1  0.00000000  0.62456001  0.23705200  1
  B  B6  1  0.49999999  0.87544001  0.73705201  1
  B  B7  1  0.49999999  0.88376202  0.54025401  1
  Nb  Nb8  1  0.49999999  0.42785901  0.13797800  1
  Nb  Nb9  1  0.00000000  0.07214100  0.63797801  1
  Ir  Ir10  1  0.00000000  0.68999201  0.63050001  1
  Nb  Nb11  1  0.49999999  0.81000801  0.13050000  1
  Ir  Ir12  1  0.49999999  0.18999200  0.86950002  1
  Nb  Nb13  1  0.00000000  0.31000801  0.36950001  1
  Ir  Ir14  1  0.49999999  0.57214101  0.86202202  1
  Nb  Nb15  1  0.00000000  0.92785902  0.36202201  1
  Ir  Ir16  1  0.49999999  0.62081001  0.38883401  1
  Ir  Ir17  1  0.00000000  0.12081000  0.11116600  1
  Ir  Ir18  1  0.00000000  0.87919002  0.88883402  1
  Nb  Nb19  1  0.49999999  0.37919001  0.61116601  1
