# generated using pymatgen
data_Mg
_symmetry_space_group_name_H-M   'P 1'
_cell_length_a   3.25014806
_cell_length_b   6.77742338
_cell_length_c   7.15941858
_cell_angle_alpha   103.22855377
_cell_angle_beta   103.11957550
_cell_angle_gamma   90.00000000
_symmetry_Int_Tables_number   1
_chemical_formula_structural   Mg
_chemical_formula_sum   Mg6
_cell_volume   149.28863171
_cell_formula_units_Z   6
loop_
 _symmetry_equiv_pos_site_id
 _symmetry_equiv_pos_as_xyz
  1  'x, y, z'
loop_
 _atom_site_type_symbol
 _atom_site_label
 _atom_site_symmetry_multiplicity
 _atom_site_fract_x
 _atom_site_fract_y
 _atom_site_fract_z
 _atom_site_occupancy
  Mg  Mg0  1  0.49999999  0.50000001  -0.00000000  1
  Mg  Mg1  1  0.82670598  0.67381402  0.65341201  1
  Mg  Mg2  1  0.16982599  0.84499302  0.33965201  1
  Mg  Mg3  1  0.49999999  0.00000000  -0.00000000  1
  Mg  Mg4  1  0.83017398  0.15500700  0.66034801  1
  Mg  Mg5  1  0.17329400  0.32618601  0.34658801  1
