# generated using pymatgen
data_KLaTi2O6
_symmetry_space_group_name_H-M   'P 1'
_cell_length_a   5.57073975
_cell_length_b   5.57073975
_cell_length_c   7.80752802
_cell_angle_alpha   90.00000000
_cell_angle_beta   90.00000000
_cell_angle_gamma   91.04492188
_symmetry_Int_Tables_number   1
_chemical_formula_structural   KLaTi2O6
_chemical_formula_sum   'K2 La2 Ti4 O12'
_cell_volume   242.25182829
_cell_formula_units_Z   2
loop_
 _symmetry_equiv_pos_site_id
 _symmetry_equiv_pos_as_xyz
  1  'x, y, z'
loop_
 _atom_site_type_symbol
 _atom_site_label
 _atom_site_symmetry_multiplicity
 _atom_site_fract_x
 _atom_site_fract_y
 _atom_site_fract_z
 _atom_site_occupancy
  K  K0  1  0.24573696  0.75426298  -0.00000000  1
  K  K1  1  0.75426297  0.24573699  -0.00000000  1
  La  La2  1  0.23467996  0.76531998  0.50000000  1
  La  La3  1  0.76531997  0.23467999  0.50000000  1
  Ti  Ti4  1  0.74859995  0.74859998  0.74169400  1
  Ti  Ti5  1  0.25139998  0.25139999  0.74169400  1
  Ti  Ti6  1  0.25139998  0.25139999  0.25830600  1
  Ti  Ti7  1  0.74859995  0.74859998  0.25830600  1
  O  O8  1  0.49999994  0.99999998  0.71318600  1
  O  O9  1  0.27174498  0.27174499  1.00000000  1
  O  O10  1  0.19001499  0.19001500  0.50000000  1
  O  O11  1  0.49999996  0.49999999  0.68688200  1
  O  O12  1  0.80998494  0.80998498  0.50000000  1
  O  O13  1  -0.00000003  0.49999999  0.71318600  1
  O  O14  1  0.49999996  0.49999999  0.31311800  1
  O  O15  1  0.00000000  0.00000000  0.23859800  1
  O  O16  1  0.49999994  0.99999998  0.28681400  1
  O  O17  1  0.72825495  0.72825498  1.00000000  1
  O  O18  1  0.00000000  0.00000000  0.76140200  1
  O  O19  1  -0.00000003  0.49999999  0.28681400  1
