# generated using pymatgen
data_Mg3Pt2
_symmetry_space_group_name_H-M   'P 1'
_cell_length_a   3.71117806
_cell_length_b   7.23625422
_cell_length_c   7.23625422
_cell_angle_alpha   90.00000000
_cell_angle_beta   90.00000000
_cell_angle_gamma   90.00000000
_symmetry_Int_Tables_number   1
_chemical_formula_structural   Mg3Pt2
_chemical_formula_sum   'Mg6 Pt4'
_cell_volume   194.32980893
_cell_formula_units_Z   2
loop_
 _symmetry_equiv_pos_site_id
 _symmetry_equiv_pos_as_xyz
  1  'x, y, z'
loop_
 _atom_site_type_symbol
 _atom_site_label
 _atom_site_symmetry_multiplicity
 _atom_site_fract_x
 _atom_site_fract_y
 _atom_site_fract_z
 _atom_site_occupancy
  Mg  Mg0  1  0.49999999  0.67397198  0.17397199  1
  Mg  Mg1  1  0.49999999  0.32602799  0.82602798  1
  Mg  Mg2  1  0.49999999  0.17397199  0.32602799  1
  Mg  Mg3  1  0.49999999  0.82602798  0.67397198  1
  Mg  Mg4  1  0.00000000  0.00000000  0.00000000  1
  Mg  Mg5  1  0.99999998  0.49999999  0.49999999  1
  Pt  Pt6  1  0.00000000  0.11933700  0.61933698  1
  Pt  Pt7  1  0.99999998  0.88066297  0.38066299  1
  Pt  Pt8  1  0.00000000  0.61933698  0.88066297  1
  Pt  Pt9  1  0.00000000  0.38066299  0.11933700  1
