# generated using pymatgen
data_LaInCoCuI6
_symmetry_space_group_name_H-M   'P 1'
_cell_length_a   7.08209515
_cell_length_b   7.08209515
_cell_length_c   7.08209515
_cell_angle_alpha   107.58358765
_cell_angle_beta   107.58358765
_cell_angle_gamma   113.31626892
_symmetry_Int_Tables_number   1
_chemical_formula_structural   LaInCoCuI6
_chemical_formula_sum   'La1 In1 Co1 Cu1 I6'
_cell_volume   272.51068818
_cell_formula_units_Z   1
loop_
 _symmetry_equiv_pos_site_id
 _symmetry_equiv_pos_as_xyz
  1  'x, y, z'
loop_
 _atom_site_type_symbol
 _atom_site_label
 _atom_site_symmetry_multiplicity
 _atom_site_fract_x
 _atom_site_fract_y
 _atom_site_fract_z
 _atom_site_occupancy
  Co  Co0  1  0.74999999  0.25000000  0.49999998  1
  Cu  Cu1  1  0.00000000  0.00000000  0.00000000  1
  I  I2  1  0.06617899  0.37689699  0.31071799  1
  La  La3  1  0.12689599  0.31617800  0.81071699  1
  In  In4  1  0.62310397  0.93382199  0.68928295  1
  I  I5  1  0.68382097  0.87310299  0.18928195  1
  I  I6  1  0.68382099  0.49453899  0.81071697  1
  I  I7  1  0.24453897  0.93382099  0.31071796  1
  I  I8  1  0.06617897  0.75546099  0.68928297  1
  I  I9  1  0.50546099  0.31617900  0.18928198  1
