# generated using pymatgen
data_ZrAl18Si
_symmetry_space_group_name_H-M   'P 1'
_cell_length_a   4.39904308
_cell_length_b   7.53028822
_cell_length_c   10.40321732
_cell_angle_alpha   90.60531616
_cell_angle_beta   90.00000000
_cell_angle_gamma   90.00000000
_symmetry_Int_Tables_number   1
_chemical_formula_structural   ZrAl18Si
_chemical_formula_sum   'Zr1 Al18 Si1'
_cell_volume   344.59839306
_cell_formula_units_Z   1
loop_
 _symmetry_equiv_pos_site_id
 _symmetry_equiv_pos_as_xyz
  1  'x, y, z'
loop_
 _atom_site_type_symbol
 _atom_site_label
 _atom_site_symmetry_multiplicity
 _atom_site_fract_x
 _atom_site_fract_y
 _atom_site_fract_z
 _atom_site_occupancy
  Zr  Zr0  1  0.99999998  0.30602899  0.85940403  1
  Al  Al1  1  0.00000000  0.69397098  0.14059603  1
  Al  Al2  1  0.49999999  0.80180398  0.34199303  1
  Al  Al3  1  0.49999999  0.19819599  0.65800702  1
  Al  Al4  1  0.99999998  0.61493598  0.62331003  1
  Al  Al5  1  0.00000000  0.38506399  0.37669002  1
  Al  Al6  1  0.49999999  0.14059000  0.11173401  1
  Al  Al7  1  0.49999999  0.85940998  0.88826605  1
  Al  Al8  1  0.00000000  0.00000000  0.50000001  1
  Al  Al9  1  0.00000000  0.00000000  0.00000000  1
  Al  Al10  1  0.49999999  0.49999999  0.50000003  1
  Al  Al11  1  0.99999998  0.97024297  0.75076905  1
  Al  Al12  1  0.00000000  0.02975700  0.24923101  1
  Al  Al13  1  0.49999999  0.47315499  0.23701602  1
  Al  Al14  1  0.49999999  0.52684498  0.76298403  1
  Si  Si15  1  0.99999998  0.65817798  0.88494304  1
  Al  Al16  1  0.99999998  0.34182199  0.11505701  1
  Al  Al17  1  0.49999999  0.17314700  0.38028001  1
  Al  Al18  1  0.49999999  0.82685298  0.61972004  1
  Al  Al19  1  0.49999999  0.49999999  1.00000004  1
