# generated using pymatgen
data_HfCu2F10
_symmetry_space_group_name_H-M   'P 1'
_cell_length_a   5.50739002
_cell_length_b   5.50739050
_cell_length_c   6.74291897
_cell_angle_alpha   90.00000000
_cell_angle_beta   90.00000000
_cell_angle_gamma   120.00000000
_symmetry_Int_Tables_number   1
_chemical_formula_structural   HfCu2F10
_chemical_formula_sum   'Hf1 Cu2 F10'
_cell_volume   177.12109026
_cell_formula_units_Z   1
loop_
 _symmetry_equiv_pos_site_id
 _symmetry_equiv_pos_as_xyz
  1  'x, y, z'
loop_
 _atom_site_type_symbol
 _atom_site_label
 _atom_site_symmetry_multiplicity
 _atom_site_fract_x
 _atom_site_fract_y
 _atom_site_fract_z
 _atom_site_occupancy
  F  F0  1  0.00000000  0.00000000  0.00000000  1
  Hf  Hf1  1  0.00000000  0.00000000  0.50000000  1
  Cu  Cu2  1  0.33333336  0.66666665  0.17063500  1
  Cu  Cu3  1  0.66666668  0.33333333  0.82936500  1
  F  F4  1  0.16560701  0.33121399  0.33140200  1
  F  F5  1  0.50000003  0.99999998  -0.00000000  1
  F  F6  1  0.83439302  0.66878599  0.66859800  1
  F  F7  1  0.33121400  0.16560700  0.66859800  1
  F  F8  1  0.66878603  0.83439299  0.33140200  1
  F  F9  1  0.00000002  0.49999999  -0.00000000  1
  F  F10  1  0.16560703  0.83439299  0.33140200  1
  F  F11  1  0.50000002  0.49999999  1.00000000  1
  F  F12  1  0.83439300  0.16560700  0.66859800  1
