# generated using pymatgen
data_Hf2Cu2P
_symmetry_space_group_name_H-M   'P 1'
_cell_length_a   5.31480694
_cell_length_b   5.31480694
_cell_length_c   5.76239681
_cell_angle_alpha   90.00000000
_cell_angle_beta   90.00000000
_cell_angle_gamma   90.00000000
_symmetry_Int_Tables_number   1
_chemical_formula_structural   Hf2Cu2P
_chemical_formula_sum   'Hf4 Cu4 P2'
_cell_volume   162.77141845
_cell_formula_units_Z   2
loop_
 _symmetry_equiv_pos_site_id
 _symmetry_equiv_pos_as_xyz
  1  'x, y, z'
loop_
 _atom_site_type_symbol
 _atom_site_label
 _atom_site_symmetry_multiplicity
 _atom_site_fract_x
 _atom_site_fract_y
 _atom_site_fract_z
 _atom_site_occupancy
  Hf  Hf0  1  0.76759101  0.37229400  0.84551903  1
  Cu  Cu1  1  0.87229401  0.26759100  0.34551901  1
  Cu  Cu2  1  0.12770600  0.73240901  0.34551901  1
  Hf  Hf3  1  0.62770601  0.76759101  0.15448101  1
  Cu  Cu4  1  0.26759100  0.12770600  0.65448102  1
  Cu  Cu5  1  0.73240901  0.87229401  0.65448102  1
  Hf  Hf6  1  0.23240900  0.62770601  0.84551903  1
  Hf  Hf7  1  0.37229400  0.23240900  0.15448101  1
  P  P8  1  0.50000001  0.50000001  0.50000002  1
  P  P9  1  0.00000000  0.00000000  0.00000000  1
