# generated using pymatgen
data_Si4HO13
_symmetry_space_group_name_H-M   'P 1'
_cell_length_a   5.22221613
_cell_length_b   5.72320604
_cell_length_c   8.97063732
_cell_angle_alpha   71.39774323
_cell_angle_beta   76.15780640
_cell_angle_gamma   90.00000000
_symmetry_Int_Tables_number   1
_chemical_formula_structural   Si4HO13
_chemical_formula_sum   'Si4 H1 O13'
_cell_volume   245.87583548
_cell_formula_units_Z   1
loop_
 _symmetry_equiv_pos_site_id
 _symmetry_equiv_pos_as_xyz
  1  'x, y, z'
loop_
 _atom_site_type_symbol
 _atom_site_label
 _atom_site_symmetry_multiplicity
 _atom_site_fract_x
 _atom_site_fract_y
 _atom_site_fract_z
 _atom_site_occupancy
  Si  Si0  1  0.52564899  0.18150400  0.31588799  1
  Si  Si1  1  0.37237900  0.80996000  0.68649199  1
  Si  Si2  1  0.87237899  0.50354800  0.68649199  1
  Si  Si3  1  0.02564900  0.50260800  0.31588799  1
  O  O4  1  0.72781700  0.94243700  0.17306998  1
  O  O5  1  0.17637100  0.01905900  0.84669000  1
  O  O6  1  0.67637099  0.13425100  0.84668999  1
  H  H7  1  0.22781700  0.88449300  0.17306999  1
  O  O8  1  0.47249800  0.97902200  0.49642798  1
  O  O9  1  0.97249799  0.52455000  0.49642799  1
  O  O10  1  0.27278600  0.33691300  0.28882199  1
  O  O11  1  0.08181800  0.67105900  0.72466099  1
  O  O12  1  0.58181800  0.60428000  0.72466099  1
  O  O13  1  0.77278599  0.37426500  0.28882199  1
  O  O14  1  0.57082199  0.03734900  0.18106200  1
  O  O15  1  0.35658600  0.97629800  0.80658798  1
  O  O16  1  0.85658599  0.21711400  0.80658799  1
  O  O17  1  0.07082201  0.78158900  0.18106199  1
