# generated using pymatgen
data_In11Au3
_symmetry_space_group_name_H-M   'P 1'
_cell_length_a   5.52916384
_cell_length_b   7.04512072
_cell_length_c   10.10841274
_cell_angle_alpha   88.74842834
_cell_angle_beta   74.12776184
_cell_angle_gamma   85.41925049
_symmetry_Int_Tables_number   1
_chemical_formula_structural   In11Au3
_chemical_formula_sum   'In11 Au3'
_cell_volume   377.53703884
_cell_formula_units_Z   1
loop_
 _symmetry_equiv_pos_site_id
 _symmetry_equiv_pos_as_xyz
  1  'x, y, z'
loop_
 _atom_site_type_symbol
 _atom_site_label
 _atom_site_symmetry_multiplicity
 _atom_site_fract_x
 _atom_site_fract_y
 _atom_site_fract_z
 _atom_site_occupancy
  In  In0  1  0.32222707  0.75000000  0.35554598  1
  In  In1  1  0.67777304  0.25000000  0.64445400  1
  Au  Au2  1  0.07876306  0.75000000  0.84247399  1
  Au  Au3  1  0.92123705  0.25000000  0.15752599  1
  In  In4  1  0.71287007  0.60849700  0.07878598  1
  In  In5  1  0.19505605  0.49238300  0.60897299  1
  In  In6  1  0.37013903  0.25000000  0.25972199  1
  In  In7  1  0.19597101  0.00761700  0.60897301  1
  Au  Au8  1  0.79165603  0.10849700  0.92121401  1
  In  In9  1  0.20834408  0.89150300  0.07878597  1
  In  In10  1  0.80402911  0.99238301  0.39102697  1
  In  In11  1  0.62986108  0.75000000  0.74027799  1
  In  In12  1  0.80494407  0.50761700  0.39102699  1
  In  In13  1  0.28713004  0.39150300  0.92121400  1
