# generated using pymatgen
data_LaOF3
_symmetry_space_group_name_H-M   'P 1'
_cell_length_a   6.32372379
_cell_length_b   6.91605234
_cell_length_c   7.94315910
_cell_angle_alpha   90.00000000
_cell_angle_beta   90.00000000
_cell_angle_gamma   107.92937469
_symmetry_Int_Tables_number   1
_chemical_formula_structural   LaOF3
_chemical_formula_sum   'La2 O2 F6'
_cell_volume   330.52500919
_cell_formula_units_Z   2
loop_
 _symmetry_equiv_pos_site_id
 _symmetry_equiv_pos_as_xyz
  1  'x, y, z'
loop_
 _atom_site_type_symbol
 _atom_site_label
 _atom_site_symmetry_multiplicity
 _atom_site_fract_x
 _atom_site_fract_y
 _atom_site_fract_z
 _atom_site_occupancy
  La  La0  1  0.75000005  0.50000000  0.65261299  1
  La  La1  1  0.25000003  0.50000000  0.34738700  1
  F  F2  1  0.50498003  0.29445300  0.39977399  1
  F  F3  1  0.99502006  0.70554700  0.39977399  1
  F  F4  1  0.03610701  0.26416900  0.15946700  1
  F  F5  1  0.46389305  0.73583100  0.15946700  1
  O  O6  1  0.96389307  0.73583100  0.84053299  1
  O  O7  1  0.53610703  0.26416900  0.84053299  1
  F  F8  1  0.00498001  0.29445300  0.60022599  1
  F  F9  1  0.49502005  0.70554700  0.60022599  1
