# generated using pymatgen
data_Li2Ni6AgO8F
_symmetry_space_group_name_H-M   'P 1'
_cell_length_a   4.97848320
_cell_length_b   4.97848320
_cell_length_c   6.92144203
_cell_angle_alpha   90.00000000
_cell_angle_beta   90.00000000
_cell_angle_gamma   90.00000000
_symmetry_Int_Tables_number   1
_chemical_formula_structural   Li2Ni6AgO8F
_chemical_formula_sum   'Li2 Ni6 Ag1 O8 F1'
_cell_volume   171.54998240
_cell_formula_units_Z   1
loop_
 _symmetry_equiv_pos_site_id
 _symmetry_equiv_pos_as_xyz
  1  'x, y, z'
loop_
 _atom_site_type_symbol
 _atom_site_label
 _atom_site_symmetry_multiplicity
 _atom_site_fract_x
 _atom_site_fract_y
 _atom_site_fract_z
 _atom_site_occupancy
  F  F0  1  0.00000000  0.00000000  0.00000000  1
  Ag  Ag1  1  0.49999998  0.49999998  0.50000000  1
  Ni  Ni2  1  0.25332799  0.49999998  0.86153300  1
  Ni  Ni3  1  0.74667197  0.49999998  0.86153300  1
  Li  Li4  1  0.00000000  0.75332797  0.36153300  1
  Li  Li5  1  0.00000000  0.24667199  0.36153300  1
  Ni  Ni6  1  0.24667199  0.00000000  0.63846700  1
  Ni  Ni7  1  0.75332797  0.00000000  0.63846700  1
  Ni  Ni8  1  0.49999998  0.74667197  0.13846700  1
  Ni  Ni9  1  0.49999998  0.25332799  0.13846700  1
  O  O10  1  0.82501997  0.49999998  0.15707000  1
  O  O11  1  0.17497999  0.49999998  0.15707000  1
  O  O12  1  0.00000000  0.32501999  0.65707000  1
  O  O13  1  0.00000000  0.67497997  0.65707000  1
  O  O14  1  0.67497997  0.00000000  0.34293000  1
  O  O15  1  0.32501999  0.00000000  0.34293000  1
  O  O16  1  0.49999998  0.17497999  0.84293000  1
  O  O17  1  0.49999998  0.82501997  0.84293000  1
