# generated using pymatgen
data_Mn4CO5
_symmetry_space_group_name_H-M   'P 1'
_cell_length_a   2.94198799
_cell_length_b   2.94198775
_cell_length_c   12.92562294
_cell_angle_alpha   90.00000000
_cell_angle_beta   90.00000000
_cell_angle_gamma   120.00000000
_symmetry_Int_Tables_number   1
_chemical_formula_structural   Mn4CO5
_chemical_formula_sum   'Mn4 C1 O5'
_cell_volume   96.88663457
_cell_formula_units_Z   1
loop_
 _symmetry_equiv_pos_site_id
 _symmetry_equiv_pos_as_xyz
  1  'x, y, z'
loop_
 _atom_site_type_symbol
 _atom_site_label
 _atom_site_symmetry_multiplicity
 _atom_site_fract_x
 _atom_site_fract_y
 _atom_site_fract_z
 _atom_site_occupancy
  O  O0  1  0.66666665  0.33333332  0.46932100  1
  C  C1  1  0.33333329  0.66666663  0.53067900  1
  O  O2  1  0.33333329  0.66666663  0.96932100  1
  O  O3  1  0.66666665  0.33333332  0.03067900  1
  O  O4  1  0.66666665  0.33333332  0.25000000  1
  O  O5  1  0.33333329  0.66666663  0.75000000  1
  Mn  Mn6  1  0.66666665  0.33333332  0.63994500  1
  Mn  Mn7  1  0.33333329  0.66666663  0.36005500  1
  Mn  Mn8  1  0.33333329  0.66666663  0.13994500  1
  Mn  Mn9  1  0.66666665  0.33333332  0.86005500  1
