# generated using pymatgen
data_LiV2F4
_symmetry_space_group_name_H-M   'P 1'
_cell_length_a   3.17777395
_cell_length_b   5.28409863
_cell_length_c   9.18157482
_cell_angle_alpha   90.00000000
_cell_angle_beta   90.00000000
_cell_angle_gamma   105.58261871
_symmetry_Int_Tables_number   1
_chemical_formula_structural   LiV2F4
_chemical_formula_sum   'Li2 V4 F8'
_cell_volume   148.50718024
_cell_formula_units_Z   2
loop_
 _symmetry_equiv_pos_site_id
 _symmetry_equiv_pos_as_xyz
  1  'x, y, z'
loop_
 _atom_site_type_symbol
 _atom_site_label
 _atom_site_symmetry_multiplicity
 _atom_site_fract_x
 _atom_site_fract_y
 _atom_site_fract_z
 _atom_site_occupancy
  Li  Li0  1  0.60322798  0.93372203  0.33170701  1
  V  V1  1  0.39677199  0.56627802  0.83170702  1
  V  V2  1  0.60322799  0.43372201  0.16829300  1
  Li  Li3  1  0.39677200  0.06627800  0.66829301  1
  V  V4  1  -0.00000002  0.50000002  0.50000001  1
  V  V5  1  0.00000000  0.00000000  0.00000000  1
  F  F6  1  0.99004699  0.69103002  0.31828901  1
  F  F7  1  0.99004701  0.19103001  0.18171100  1
  F  F8  1  0.49973898  0.76763002  0.56230401  1
  F  F9  1  0.50026098  0.73237002  0.06230400  1
  F  F10  1  0.49973900  0.26763001  0.93769602  1
  F  F11  1  0.50026100  0.23237001  0.43769601  1
  F  F12  1  0.00995297  0.80897003  0.81828902  1
  F  F13  1  0.00995299  0.30897001  0.68171101  1
