# generated using pymatgen
data_Na2BeBO4
_symmetry_space_group_name_H-M   'P 1'
_cell_length_a   3.53534508
_cell_length_b   3.53534508
_cell_length_c   7.62418222
_cell_angle_alpha   90.00000000
_cell_angle_beta   90.00000000
_cell_angle_gamma   90.00000000
_symmetry_Int_Tables_number   1
_chemical_formula_structural   Na2BeBO4
_chemical_formula_sum   'Na2 Be1 B1 O4'
_cell_volume   95.29209813
_cell_formula_units_Z   1
loop_
 _symmetry_equiv_pos_site_id
 _symmetry_equiv_pos_as_xyz
  1  'x, y, z'
loop_
 _atom_site_type_symbol
 _atom_site_label
 _atom_site_symmetry_multiplicity
 _atom_site_fract_x
 _atom_site_fract_y
 _atom_site_fract_z
 _atom_site_occupancy
  Na  Na0  1  0.00000000  0.49999999  0.34124099  1
  Na  Na1  1  0.49999999  0.00000000  0.65875898  1
  O  O2  1  0.00000000  0.00000000  0.00000000  1
  O  O3  1  0.49999999  0.49999999  -0.00000000  1
  B  B4  1  0.00000000  0.49999999  0.84595798  1
  Be  Be5  1  0.49999999  0.00000000  0.15404200  1
  O  O6  1  0.00000000  0.49999999  0.66343798  1
  O  O7  1  0.49999999  0.00000000  0.33656199  1
