# generated using pymatgen
data_LiCr2O8
_symmetry_space_group_name_H-M   'P 1'
_cell_length_a   5.26048517
_cell_length_b   5.26046371
_cell_length_c   6.88150692
_cell_angle_alpha   88.31754303
_cell_angle_beta   88.31800079
_cell_angle_gamma   62.36648178
_symmetry_Int_Tables_number   1
_chemical_formula_structural   LiCr2O8
_chemical_formula_sum   'Li1 Cr2 O8'
_cell_volume   168.60798313
_cell_formula_units_Z   1
loop_
 _symmetry_equiv_pos_site_id
 _symmetry_equiv_pos_as_xyz
  1  'x, y, z'
loop_
 _atom_site_type_symbol
 _atom_site_label
 _atom_site_symmetry_multiplicity
 _atom_site_fract_x
 _atom_site_fract_y
 _atom_site_fract_z
 _atom_site_occupancy
  Cr  Cr0  1  0.63985402  0.63984801  0.72818903  1
  Li  Li1  1  0.99992703  0.99992801  0.49999803  1
  Cr  Cr2  1  0.36004201  0.36004900  0.27190301  1
  O  O3  1  0.72159102  0.21187600  0.30981102  1
  O  O4  1  0.78628902  0.78628501  0.57344603  1
  O  O5  1  0.27850401  0.78811801  0.69020702  1
  O  O6  1  0.31002301  0.31002200  0.05235001  1
  O  O7  1  0.21186401  0.72160001  0.30980402  1
  O  O8  1  0.69004402  0.69004501  0.94763503  1
  O  O9  1  0.78813002  0.27849500  0.69021402  1
  O  O10  1  0.21373201  0.21373600  0.42644401  1
