# generated using pymatgen
data_Zr11Se8
_symmetry_space_group_name_H-M   'P 1'
_cell_length_a   3.99133205
_cell_length_b   11.14878368
_cell_length_c   11.14878273
_cell_angle_alpha   120.00000000
_cell_angle_beta   90.00000000
_cell_angle_gamma   90.00000000
_symmetry_Int_Tables_number   1
_chemical_formula_structural   Zr11Se8
_chemical_formula_sum   'Zr11 Se8'
_cell_volume   429.63873834
_cell_formula_units_Z   1
loop_
 _symmetry_equiv_pos_site_id
 _symmetry_equiv_pos_as_xyz
  1  'x, y, z'
loop_
 _atom_site_type_symbol
 _atom_site_label
 _atom_site_symmetry_multiplicity
 _atom_site_fract_x
 _atom_site_fract_y
 _atom_site_fract_z
 _atom_site_occupancy
  Zr  Zr0  1  0.00000000  0.00000000  0.00000000  1
  Zr  Zr1  1  -0.00000000  0.43279400  0.28359898  1
  Zr  Zr2  1  0.99999999  0.71640200  0.14919596  1
  Se  Se3  1  0.00000000  0.85080500  0.56720696  1
  Se  Se4  1  0.49999999  0.56050500  0.71364898  1
  Se  Se5  1  0.49999999  0.28635100  0.84685600  1
  Zr  Zr6  1  0.49999999  0.15314400  0.43949500  1
  Zr  Zr7  1  0.99999999  0.14034200  0.62646501  1
  Se  Se8  1  -0.00000000  0.37353600  0.51387799  1
  Zr  Zr9  1  0.00000000  0.48612300  0.85965899  1
  Zr  Zr10  1  0.49999999  0.85833100  0.38114196  1
  Zr  Zr11  1  0.49999999  0.61885700  0.47718797  1
  Se  Se12  1  0.49999999  0.52281100  0.14166797  1
  Zr  Zr13  1  0.99999999  0.24870600  0.99615301  1
  Se  Se14  1  0.00000000  0.00384800  0.25255401  1
  Zr  Zr15  1  -0.00000000  0.74744700  0.75129497  1
  Se  Se16  1  0.49999999  0.79177300  0.00523295  1
  Zr  Zr17  1  0.49999999  0.99476700  0.78653996  1
  Se  Se18  1  0.49999999  0.21346000  0.20822699  1
