# generated using pymatgen
data_Ce5O9
_symmetry_space_group_name_H-M   'P 1'
_cell_length_a   3.82150793
_cell_length_b   5.52485609
_cell_length_c   10.33852100
_cell_angle_alpha   105.49757385
_cell_angle_beta   100.65057373
_cell_angle_gamma   90.00000000
_symmetry_Int_Tables_number   1
_chemical_formula_structural   Ce5O9
_chemical_formula_sum   'Ce5 O9'
_cell_volume   206.43891176
_cell_formula_units_Z   1
loop_
 _symmetry_equiv_pos_site_id
 _symmetry_equiv_pos_as_xyz
  1  'x, y, z'
loop_
 _atom_site_type_symbol
 _atom_site_label
 _atom_site_symmetry_multiplicity
 _atom_site_fract_x
 _atom_site_fract_y
 _atom_site_fract_z
 _atom_site_occupancy
  Ce  Ce0  1  0.80138801  0.79769198  0.60277598  1
  Ce  Ce1  1  0.60574101  0.59464798  0.21148199  1
  Ce  Ce2  1  0.39425900  0.38316599  0.78851799  1
  Ce  Ce3  1  0.19861300  0.19491700  0.39722499  1
  Ce  Ce4  1  -0.00000000  0.04879400  -0.00000000  1
  O  O5  1  0.69651600  0.93942798  0.39303198  1
  O  O6  1  0.08274399  0.83047998  0.16548798  1
  O  O7  1  0.91725601  0.66499198  0.83451198  1
  O  O8  1  0.70228301  0.44638599  0.40456599  1
  O  O9  1  0.30348400  0.54639599  0.60696799  1
  O  O10  1  0.10457600  0.35699199  0.20915199  1
  O  O11  1  0.50000001  0.25644699  -0.00000000  1
  O  O12  1  0.29771601  0.04181900  0.59543300  1
  O  O13  1  0.89542402  0.14784000  0.79084799  1
