# generated using pymatgen
data_Lu2O3
_symmetry_space_group_name_H-M   'P 1'
_cell_length_a   4.86651278
_cell_length_b   7.51702976
_cell_length_c   7.51703024
_cell_angle_alpha   120.00000000
_cell_angle_beta   90.00000000
_cell_angle_gamma   90.00000000
_symmetry_Int_Tables_number   1
_chemical_formula_structural   Lu2O3
_chemical_formula_sum   'Lu8 O12'
_cell_volume   238.14478006
_cell_formula_units_Z   4
loop_
 _symmetry_equiv_pos_site_id
 _symmetry_equiv_pos_as_xyz
  1  'x, y, z'
loop_
 _atom_site_type_symbol
 _atom_site_label
 _atom_site_symmetry_multiplicity
 _atom_site_fract_x
 _atom_site_fract_y
 _atom_site_fract_z
 _atom_site_occupancy
  O  O0  1  0.95108504  0.45435302  0.90870598  1
  O  O1  1  0.45108502  0.54564702  0.09129400  1
  O  O2  1  0.95108504  0.45435302  0.54564599  1
  O  O3  1  0.95108504  0.09129300  0.54564599  1
  O  O4  1  0.45108502  0.90870703  0.45435399  1
  O  O5  1  0.45108502  0.54564702  0.45435399  1
  O  O6  1  0.74568503  0.87635903  0.75271799  1
  O  O7  1  0.24568501  0.12364100  0.24728199  1
  Lu  Lu8  1  0.74568503  0.87635903  0.12364100  1
  O  O9  1  0.74568503  0.24728201  0.12364100  1
  O  O10  1  0.24568501  0.75271803  0.87635898  1
  O  O11  1  0.24568501  0.12364100  0.87635898  1
  Lu  Lu12  1  0.91717104  0.66666669  0.33333333  1
  O  O13  1  0.41717102  0.33333334  0.66666665  1
  Lu  Lu14  1  0.66018003  0.18944201  0.81055798  1
  Lu  Lu15  1  0.16018001  0.81055803  0.62111599  1
  Lu  Lu16  1  0.66018003  0.18944201  0.37888399  1
  Lu  Lu17  1  0.66018003  0.62111602  0.81055798  1
  Lu  Lu18  1  0.16018001  0.37888401  0.18944200  1
  Lu  Lu19  1  0.16018001  0.81055803  0.18944200  1
