# generated using pymatgen
data_MgBe17Nb
_symmetry_space_group_name_H-M   'P 1'
_cell_length_a   5.55553055
_cell_length_b   5.55553055
_cell_length_c   5.55553150
_cell_angle_alpha   82.88539124
_cell_angle_beta   82.88539124
_cell_angle_gamma   82.88539886
_symmetry_Int_Tables_number   1
_chemical_formula_structural   MgBe17Nb
_chemical_formula_sum   'Mg1 Be17 Nb1'
_cell_volume   167.80681375
_cell_formula_units_Z   1
loop_
 _symmetry_equiv_pos_site_id
 _symmetry_equiv_pos_as_xyz
  1  'x, y, z'
loop_
 _atom_site_type_symbol
 _atom_site_label
 _atom_site_symmetry_multiplicity
 _atom_site_fract_x
 _atom_site_fract_y
 _atom_site_fract_z
 _atom_site_occupancy
  Mg  Mg0  1  0.15949301  0.15949301  0.15949299  1
  Nb  Nb1  1  0.84050705  0.84050703  0.84050694  1
  Be  Be2  1  0.40083402  0.40083402  0.40083397  1
  Be  Be3  1  0.59916603  0.59916602  0.59916596  1
  Be  Be4  1  0.50000003  0.50000002  -0.00000002  1
  Be  Be5  1  0.50000002  0.00000000  0.49999997  1
  Be  Be6  1  0.00000001  0.50000002  0.49999997  1
  Be  Be7  1  0.50000003  0.79531803  0.20468197  1
  Be  Be8  1  0.79531804  0.20468201  0.49999996  1
  Be  Be9  1  0.20468202  0.50000002  0.79531796  1
  Be  Be10  1  0.50000002  0.20468201  0.79531796  1
  Be  Be11  1  0.20468202  0.79531803  0.49999996  1
  Be  Be12  1  0.79531804  0.50000002  0.20468197  1
  Be  Be13  1  0.66206703  0.15345101  0.15345098  1
  Be  Be14  1  0.15345101  0.15345101  0.66206697  1
  Be  Be15  1  0.15345102  0.66206703  0.15345098  1
  Be  Be16  1  0.33793303  0.84654903  0.84654895  1
  Be  Be17  1  0.84654905  0.84654903  0.33793295  1
  Be  Be18  1  0.84654904  0.33793301  0.84654895  1
