# generated using pymatgen
data_LiAl2NiBrN2
_symmetry_space_group_name_H-M   'P 1'
_cell_length_a   3.55236197
_cell_length_b   5.39741945
_cell_length_c   5.54121542
_cell_angle_alpha   104.68599701
_cell_angle_beta   90.00000000
_cell_angle_gamma   109.21292114
_symmetry_Int_Tables_number   1
_chemical_formula_structural   LiAl2NiBrN2
_chemical_formula_sum   'Li1 Al2 Ni1 Br1 N2'
_cell_volume   96.64401177
_cell_formula_units_Z   1
loop_
 _symmetry_equiv_pos_site_id
 _symmetry_equiv_pos_as_xyz
  1  'x, y, z'
loop_
 _atom_site_type_symbol
 _atom_site_label
 _atom_site_symmetry_multiplicity
 _atom_site_fract_x
 _atom_site_fract_y
 _atom_site_fract_z
 _atom_site_occupancy
  Li  Li0  1  0.40078594  0.80157200  0.18497900  1
  Br  Br1  1  0.59921399  0.19842800  0.81502103  1
  N  N2  1  0.15824897  0.31649800  0.40255801  1
  N  N3  1  0.84175095  0.68350200  0.59744201  1
  Ni  Ni4  1  0.00000000  0.00000000  0.50000002  1
  Al  Al5  1  0.68911197  0.37822400  0.29329900  1
  Al  Al6  1  0.31088795  0.62177600  0.70670102  1
