# generated using pymatgen
data_Lu3MgNi4
_symmetry_space_group_name_H-M   'P 1'
_cell_length_a   4.02688980
_cell_length_b   5.04366684
_cell_length_c   7.16322088
_cell_angle_alpha   90.00000000
_cell_angle_beta   90.00000000
_cell_angle_gamma   90.00000000
_symmetry_Int_Tables_number   1
_chemical_formula_structural   Lu3MgNi4
_chemical_formula_sum   'Lu3 Mg1 Ni4'
_cell_volume   145.48709744
_cell_formula_units_Z   1
loop_
 _symmetry_equiv_pos_site_id
 _symmetry_equiv_pos_as_xyz
  1  'x, y, z'
loop_
 _atom_site_type_symbol
 _atom_site_label
 _atom_site_symmetry_multiplicity
 _atom_site_fract_x
 _atom_site_fract_y
 _atom_site_fract_z
 _atom_site_occupancy
  Lu  Lu0  1  0.50000002  0.75000002  0.27881600  1
  Lu  Lu1  1  0.50000002  0.25000001  0.72118401  1
  Lu  Lu2  1  0.00000000  0.75000002  0.65143501  1
  Mg  Mg3  1  0.00000000  0.25000001  0.34856501  1
  Ni  Ni4  1  0.50000002  0.25000001  0.08930400  1
  Ni  Ni5  1  0.50000002  0.75000002  0.91069601  1
  Ni  Ni6  1  0.00000000  0.50000002  -0.00000000  1
  Ni  Ni7  1  0.00000000  0.00000000  0.00000000  1
