# generated using pymatgen
data_La3In4Pt3
_symmetry_space_group_name_H-M   'P 1'
_cell_length_a   8.81897545
_cell_length_b   8.81897545
_cell_length_c   8.81897545
_cell_angle_alpha   109.47122192
_cell_angle_beta   109.47122192
_cell_angle_gamma   109.47122192
_symmetry_Int_Tables_number   1
_chemical_formula_structural   La3In4Pt3
_chemical_formula_sum   'La6 In8 Pt6'
_cell_volume   527.99825740
_cell_formula_units_Z   2
loop_
 _symmetry_equiv_pos_site_id
 _symmetry_equiv_pos_as_xyz
  1  'x, y, z'
loop_
 _atom_site_type_symbol
 _atom_site_label
 _atom_site_symmetry_multiplicity
 _atom_site_fract_x
 _atom_site_fract_y
 _atom_site_fract_z
 _atom_site_occupancy
  La  La0  1  0.75000007  0.62500004  0.87500008  1
  La  La1  1  0.25000007  0.87500006  0.62500007  1
  La  La2  1  0.87500004  0.12500001  0.75000005  1
  La  La3  1  0.62500005  0.37500003  0.25000004  1
  La  La4  1  0.12500002  0.25000002  0.37500003  1
  La  La5  1  0.37500006  0.75000005  0.12500005  1
  In  In6  1  0.67357803  0.00000000  0.00000002  1
  In  In7  1  0.00000003  0.50000003  0.17357803  1
  In  In8  1  0.50000006  0.67357805  0.50000006  1
  In  In9  1  0.17357801  0.00000000  0.00000000  1
  In  In10  1  0.82642208  0.82642206  0.32642208  1
  In  In11  1  0.00000003  0.50000003  0.67357805  1
  In  In12  1  0.32642203  0.32642202  0.82642205  1
  In  In13  1  0.50000003  0.17357801  0.50000004  1
  Pt  Pt14  1  0.75000004  0.12500001  0.37500004  1
  Pt  Pt15  1  0.25000003  0.37500003  0.12500003  1
  Pt  Pt16  1  0.37500005  0.62500004  0.75000007  1
  Pt  Pt17  1  0.12500006  0.87500006  0.25000006  1
  Pt  Pt18  1  0.62500004  0.25000002  0.87500005  1
  Pt  Pt19  1  0.87500008  0.75000005  0.62500008  1
