# generated using pymatgen
data_Zr5Nb5AlSi5
_symmetry_space_group_name_H-M   'P 1'
_cell_length_a   5.36358595
_cell_length_b   7.70846796
_cell_length_c   7.70846891
_cell_angle_alpha   120.00000000
_cell_angle_beta   90.00000000
_cell_angle_gamma   90.00000000
_symmetry_Int_Tables_number   1
_chemical_formula_structural   Zr5Nb5AlSi5
_chemical_formula_sum   'Zr5 Nb5 Al1 Si5'
_cell_volume   276.00825608
_cell_formula_units_Z   1
loop_
 _symmetry_equiv_pos_site_id
 _symmetry_equiv_pos_as_xyz
  1  'x, y, z'
loop_
 _atom_site_type_symbol
 _atom_site_label
 _atom_site_symmetry_multiplicity
 _atom_site_fract_x
 _atom_site_fract_y
 _atom_site_fract_z
 _atom_site_occupancy
  Zr  Zr0  1  0.25000000  0.00000000  0.75110399  1
  Nb  Nb1  1  0.75000001  1.00000004  0.24889606  1
  Zr  Zr2  1  0.75000001  0.24889601  0.00000002  1
  Zr  Zr3  1  0.25000000  0.24889601  0.24889601  1
  Zr  Zr4  1  0.25000000  0.75110403  0.00000005  1
  Zr  Zr5  1  0.75000001  0.75110403  0.75110404  1
  Nb  Nb6  1  0.00000000  0.66666669  0.33333337  1
  Nb  Nb7  1  0.50000000  0.33333335  0.66666668  1
  Nb  Nb8  1  1.00000001  0.33333335  0.66666668  1
  Nb  Nb9  1  0.50000000  0.66666669  0.33333337  1
  Al  Al10  1  0.25000000  0.60836802  0.60836803  1
  Si  Si11  1  0.75000001  0.60836802  1.00000002  1
  Si  Si12  1  0.75000001  0.00000000  0.60836799  1
  Si  Si13  1  0.25000000  0.00000000  0.39163199  1
  Si  Si14  1  0.25000000  0.39163202  1.00000001  1
  Si  Si15  1  0.75000001  0.39163202  0.39163202  1
