# generated using pymatgen
data_CeAl3
_symmetry_space_group_name_H-M   'P 1'
_cell_length_a   5.38004923
_cell_length_b   5.38004923
_cell_length_c   9.48292446
_cell_angle_alpha   73.52062225
_cell_angle_beta   73.52062225
_cell_angle_gamma   60.00001144
_symmetry_Int_Tables_number   1
_chemical_formula_structural   CeAl3
_chemical_formula_sum   'Ce3 Al9'
_cell_volume   224.59508547
_cell_formula_units_Z   3
loop_
 _symmetry_equiv_pos_site_id
 _symmetry_equiv_pos_as_xyz
  1  'x, y, z'
loop_
 _atom_site_type_symbol
 _atom_site_label
 _atom_site_symmetry_multiplicity
 _atom_site_fract_x
 _atom_site_fract_y
 _atom_site_fract_z
 _atom_site_occupancy
  Ce  Ce0  1  0.13850099  0.13850099  0.58449702  1
  Ce  Ce1  1  0.00000000  0.00000000  0.00000000  1
  Ce  Ce2  1  0.86149893  0.86149897  0.41550306  1
  Al  Al3  1  0.41945396  0.41945398  0.24369403  1
  Al  Al4  1  0.91739794  0.41945398  0.24369404  1
  Al  Al5  1  0.58054597  0.08260200  0.75630603  1
  Al  Al6  1  0.58054595  0.58054598  0.75630605  1
  Al  Al7  1  0.41945395  0.91739796  0.24369405  1
  Al  Al8  1  0.08260198  0.58054598  0.75630603  1
  Al  Al9  1  0.33238197  0.33238199  0.00285402  1
  Al  Al10  1  0.66761794  0.66761797  0.99714606  1
  Al  Al11  1  0.49999996  0.49999998  0.50000004  1
