# generated using pymatgen
data_Mg3Cd
_symmetry_space_group_name_H-M   'P 1'
_cell_length_a   4.54635191
_cell_length_b   4.54635191
_cell_length_c   5.32268858
_cell_angle_alpha   115.28194427
_cell_angle_beta   115.28194427
_cell_angle_gamma   90.00000000
_symmetry_Int_Tables_number   1
_chemical_formula_structural   Mg3Cd
_chemical_formula_sum   'Mg3 Cd1'
_cell_volume   87.68359611
_cell_formula_units_Z   1
loop_
 _symmetry_equiv_pos_site_id
 _symmetry_equiv_pos_as_xyz
  1  'x, y, z'
loop_
 _atom_site_type_symbol
 _atom_site_label
 _atom_site_symmetry_multiplicity
 _atom_site_fract_x
 _atom_site_fract_y
 _atom_site_fract_z
 _atom_site_occupancy
  Mg  Mg0  1  0.00000000  0.00000000  0.00000000  1
  Cd  Cd1  1  0.50000004  0.50000002  1.00000003  1
  Mg  Mg2  1  0.25000005  0.75000004  0.50000004  1
  Mg  Mg3  1  0.75000004  0.25000001  0.50000003  1
