# generated using pymatgen
data_TbInRh4
_symmetry_space_group_name_H-M   'P 1'
_cell_length_a   5.26905203
_cell_length_b   5.26905203
_cell_length_c   5.26905298
_cell_angle_alpha   60.24079895
_cell_angle_beta   60.24079895
_cell_angle_gamma   60.24079514
_symmetry_Int_Tables_number   1
_chemical_formula_structural   TbInRh4
_chemical_formula_sum   'Tb1 In1 Rh4'
_cell_volume   104.00243587
_cell_formula_units_Z   1
loop_
 _symmetry_equiv_pos_site_id
 _symmetry_equiv_pos_as_xyz
  1  'x, y, z'
loop_
 _atom_site_type_symbol
 _atom_site_label
 _atom_site_symmetry_multiplicity
 _atom_site_fract_x
 _atom_site_fract_y
 _atom_site_fract_z
 _atom_site_occupancy
  Tb  Tb0  1  0.37510899  0.37510902  0.37510903  1
  In  In1  1  0.62489099  0.62489103  0.62489105  1
  Rh  Rh2  1  0.00000000  0.00000000  0.00000000  1
  Rh  Rh3  1  0.50000001  0.00000000  0.00000002  1
  Rh  Rh4  1  -0.00000002  0.50000002  0.00000003  1
  Rh  Rh5  1  0.00000000  0.00000000  0.50000000  1
