# generated using pymatgen
data_Hf3TaSi2Ni11
_symmetry_space_group_name_H-M   'P 1'
_cell_length_a   6.63364220
_cell_length_b   6.63364220
_cell_length_c   6.63364220
_cell_angle_alpha   109.47122192
_cell_angle_beta   109.47122192
_cell_angle_gamma   109.47122192
_symmetry_Int_Tables_number   1
_chemical_formula_structural   Hf3TaSi2Ni11
_chemical_formula_sum   'Hf3 Ta1 Si2 Ni11'
_cell_volume   224.71611473
_cell_formula_units_Z   1
loop_
 _symmetry_equiv_pos_site_id
 _symmetry_equiv_pos_as_xyz
  1  'x, y, z'
loop_
 _atom_site_type_symbol
 _atom_site_label
 _atom_site_symmetry_multiplicity
 _atom_site_fract_x
 _atom_site_fract_y
 _atom_site_fract_z
 _atom_site_occupancy
  Ta  Ta0  1  0.50000002  0.50000001  0.50000003  1
  Hf  Hf1  1  0.00000000  0.00000000  0.49999999  1
  Hf  Hf2  1  0.00000003  0.50000001  0.00000003  1
  Hf  Hf3  1  0.50000005  1.00000001  0.00000007  1
  Si  Si4  1  0.00000000  0.00000000  0.00000000  1
  Ni  Ni5  1  0.25000004  0.75000001  0.50000003  1
  Ni  Ni6  1  0.75000000  0.25000000  0.50000002  1
  Ni  Ni7  1  0.75000002  0.50000001  0.25000004  1
  Ni  Ni8  1  0.25000003  0.50000001  0.75000001  1
  Ni  Ni9  1  0.50000004  0.75000001  0.25000005  1
  Ni  Ni10  1  0.50000001  0.25000000  0.75000000  1
  Si  Si11  1  0.31265001  0.31265000  1.00000000  1
  Ni  Ni12  1  0.68735003  0.68735001  1.00000003  1
  Ni  Ni13  1  0.31265006  1.00000001  0.31265005  1
  Ni  Ni14  1  0.68735005  1.00000001  0.68735005  1
  Ni  Ni15  1  1.00000002  0.68735001  0.68735004  1
  Ni  Ni16  1  0.00000002  0.31265000  0.31265001  1
