# generated using pymatgen
data_Ag2S
_symmetry_space_group_name_H-M   'P 1'
_cell_length_a   3.34209991
_cell_length_b   3.34256625
_cell_length_c   11.61378574
_cell_angle_alpha   85.87500763
_cell_angle_beta   81.72727966
_cell_angle_gamma   60.00461578
_symmetry_Int_Tables_number   1
_chemical_formula_structural   Ag2S
_chemical_formula_sum   'Ag2 S1'
_cell_volume   111.19399241
_cell_formula_units_Z   1
loop_
 _symmetry_equiv_pos_site_id
 _symmetry_equiv_pos_as_xyz
  1  'x, y, z'
loop_
 _atom_site_type_symbol
 _atom_site_label
 _atom_site_symmetry_multiplicity
 _atom_site_fract_x
 _atom_site_fract_y
 _atom_site_fract_z
 _atom_site_occupancy
  S  S0  1  0.92445703  0.15108600  -0.00000000  1
  Ag  Ag1  1  0.32578802  0.48445601  0.86396796  1
  Ag  Ag2  1  0.18975601  0.48445601  0.13603199  1
