# generated using pymatgen
data_DyTm3B16
_symmetry_space_group_name_H-M   'P 1'
_cell_length_a   3.96821308
_cell_length_b   7.02686977
_cell_length_c   7.02686977
_cell_angle_alpha   90.00000000
_cell_angle_beta   90.00000000
_cell_angle_gamma   90.00000000
_symmetry_Int_Tables_number   1
_chemical_formula_structural   DyTm3B16
_chemical_formula_sum   'Dy1 Tm3 B16'
_cell_volume   195.93805581
_cell_formula_units_Z   1
loop_
 _symmetry_equiv_pos_site_id
 _symmetry_equiv_pos_as_xyz
  1  'x, y, z'
loop_
 _atom_site_type_symbol
 _atom_site_label
 _atom_site_symmetry_multiplicity
 _atom_site_fract_x
 _atom_site_fract_y
 _atom_site_fract_z
 _atom_site_occupancy
  Dy  Dy0  1  0.99999998  0.31825301  0.81825303  1
  Tm  Tm1  1  0.00000000  0.81825303  0.68174702  1
  Tm  Tm2  1  0.99999998  0.68174702  0.18174701  1
  Tm  Tm3  1  0.99999998  0.18174701  0.31825301  1
  B  B4  1  0.49999999  0.82290303  0.96147103  1
  B  B5  1  0.49999999  0.41339401  0.08660600  1
  B  B6  1  0.49999999  0.53852902  0.67709702  1
  B  B7  1  0.49999999  0.91339403  0.41339401  1
  B  B8  1  0.49999999  0.32290301  0.53852902  1
  B  B9  1  0.49999999  0.08660600  0.58660602  1
  B  B10  1  0.49999999  0.67709702  0.46147101  1
  B  B11  1  0.49999999  0.03852900  0.82290303  1
  B  B12  1  0.20238900  0.00000000  0.00000000  1
  B  B13  1  0.20238900  0.50000002  0.50000002  1
  B  B14  1  0.79761098  0.00000000  0.00000000  1
  B  B15  1  0.49999999  0.96147103  0.17709701  1
  B  B16  1  0.49999999  0.17709701  0.03852900  1
  B  B17  1  0.49999999  0.58660602  0.91339403  1
  B  B18  1  0.79761098  0.50000002  0.50000002  1
  B  B19  1  0.49999999  0.46147101  0.32290301  1
