# generated using pymatgen
data_Na5CoSCl7
_symmetry_space_group_name_H-M   'P 1'
_cell_length_a   7.67891836
_cell_length_b   7.67891836
_cell_length_c   7.67891836
_cell_angle_alpha   72.46220398
_cell_angle_beta   69.55350494
_cell_angle_gamma   110.44649506
_symmetry_Int_Tables_number   1
_chemical_formula_structural   Na5CoSCl7
_chemical_formula_sum   'Na5 Co1 S1 Cl7'
_cell_volume   348.26415681
_cell_formula_units_Z   1
loop_
 _symmetry_equiv_pos_site_id
 _symmetry_equiv_pos_as_xyz
  1  'x, y, z'
loop_
 _atom_site_type_symbol
 _atom_site_label
 _atom_site_symmetry_multiplicity
 _atom_site_fract_x
 _atom_site_fract_y
 _atom_site_fract_z
 _atom_site_occupancy
  Na  Na0  1  0.62225496  0.38283000  0.49387006  1
  Na  Na1  1  0.49999993  0.74999999  0.75000005  1
  Na  Na2  1  0.37774491  0.88387499  0.23942503  1
  Na  Na3  1  0.12329998  0.23942500  0.38283002  1
  Na  Na4  1  0.87669995  0.49387000  0.88387508  1
  Co  Co5  1  0.00000000  0.00000000  0.00000000  1
  Cl  Cl6  1  0.26087495  0.49708000  0.60361503  1
  Cl  Cl7  1  0.89930493  0.76379499  0.49708007  1
  S  S8  1  0.75789799  0.10598700  0.26474406  1
  Cl  Cl9  1  0.10069494  0.60361599  0.13551001  1
  Cl  Cl10  1  0.37073097  0.26474400  0.97735805  1
  Cl  Cl11  1  0.73912499  0.13551000  0.76379607  1
  Cl  Cl12  1  0.62926894  0.65191099  0.10598705  1
  Cl  Cl13  1  0.24210190  0.97735799  0.65191103  1
