# generated using pymatgen
data_Ce3(InPd2)2
_symmetry_space_group_name_H-M   'P 1'
_cell_length_a   3.96501398
_cell_length_b   7.64594412
_cell_length_c   7.64594412
_cell_angle_alpha   120.00000000
_cell_angle_beta   90.00000000
_cell_angle_gamma   90.00000000
_symmetry_Int_Tables_number   1
_chemical_formula_structural   Ce3(InPd2)2
_chemical_formula_sum   'Ce3 In2 Pd4'
_cell_volume   200.74169824
_cell_formula_units_Z   1
loop_
 _symmetry_equiv_pos_site_id
 _symmetry_equiv_pos_as_xyz
  1  'x, y, z'
loop_
 _atom_site_type_symbol
 _atom_site_label
 _atom_site_symmetry_multiplicity
 _atom_site_fract_x
 _atom_site_fract_y
 _atom_site_fract_z
 _atom_site_occupancy
  Ce  Ce0  1  0.50000000  0.58677100  0.00000001  1
  Ce  Ce1  1  0.50000000  0.41322900  0.41322901  1
  Ce  Ce2  1  0.50000000  0.99999999  0.58677103  1
  Pd  Pd3  1  0.00000000  0.24894800  0.00000000  1
  In  In4  1  -0.00000000  0.75105200  0.75105203  1
  In  In5  1  -0.00000000  0.99999999  0.24894802  1
  Pd  Pd6  1  -0.00000000  0.33333333  0.66666668  1
  Pd  Pd7  1  1.00000000  0.66666666  0.33333335  1
  Pd  Pd8  1  0.50000000  0.00000000  -0.00000000  1
