# generated using pymatgen
data_NaSm4Sb3
_symmetry_space_group_name_H-M   'P 1'
_cell_length_a   6.46138287
_cell_length_b   9.43807030
_cell_length_c   9.43806934
_cell_angle_alpha   120.00000000
_cell_angle_beta   90.00000000
_cell_angle_gamma   90.00000000
_symmetry_Int_Tables_number   1
_chemical_formula_structural   NaSm4Sb3
_chemical_formula_sum   'Na2 Sm8 Sb6'
_cell_volume   498.45100850
_cell_formula_units_Z   2
loop_
 _symmetry_equiv_pos_site_id
 _symmetry_equiv_pos_as_xyz
  1  'x, y, z'
loop_
 _atom_site_type_symbol
 _atom_site_label
 _atom_site_symmetry_multiplicity
 _atom_site_fract_x
 _atom_site_fract_y
 _atom_site_fract_z
 _atom_site_occupancy
  Na  Na0  1  0.00000000  0.66666664  0.33333333  1
  Sm  Sm1  1  0.50000001  0.33333332  0.66666668  1
  Sm  Sm2  1  1.00000002  0.33333332  0.66666668  1
  Na  Na3  1  0.50000001  0.66666664  0.33333333  1
  Sm  Sm4  1  0.75000002  0.74741497  0.74741501  1
  Sm  Sm5  1  0.25000001  0.74741497  1.00000002  1
  Sm  Sm6  1  0.25000001  0.99999996  0.74741500  1
  Sm  Sm7  1  0.75000002  0.99999996  0.25258499  1
  Sm  Sm8  1  0.75000002  0.25258499  -0.00000001  1
  Sm  Sm9  1  0.25000001  0.25258499  0.25258500  1
  Sb  Sb10  1  0.75000002  0.38868498  0.38868500  1
  Sb  Sb11  1  0.25000001  0.38868498  -0.00000001  1
  Sb  Sb12  1  0.25000001  0.99999996  0.38868499  1
  Sb  Sb13  1  0.75000002  0.99999996  0.61131500  1
  Sb  Sb14  1  0.75000002  0.61131497  -0.00000001  1
  Sb  Sb15  1  0.25000001  0.61131497  0.61131501  1
