# generated using pymatgen
data_Sc3GaNi2
_symmetry_space_group_name_H-M   'P 1'
_cell_length_a   4.04090214
_cell_length_b   4.04090214
_cell_length_c   6.57986307
_cell_angle_alpha   90.00000000
_cell_angle_beta   90.00000000
_cell_angle_gamma   90.00000000
_symmetry_Int_Tables_number   1
_chemical_formula_structural   Sc3GaNi2
_chemical_formula_sum   'Sc3 Ga1 Ni2'
_cell_volume   107.44186088
_cell_formula_units_Z   1
loop_
 _symmetry_equiv_pos_site_id
 _symmetry_equiv_pos_as_xyz
  1  'x, y, z'
loop_
 _atom_site_type_symbol
 _atom_site_label
 _atom_site_symmetry_multiplicity
 _atom_site_fract_x
 _atom_site_fract_y
 _atom_site_fract_z
 _atom_site_occupancy
  Sc  Sc0  1  0.00000000  0.49999998  0.31416700  1
  Sc  Sc1  1  0.49999998  0.00000000  0.68583299  1
  Ni  Ni2  1  0.00000000  0.00000000  0.00000000  1
  Ni  Ni3  1  0.49999998  0.49999998  -0.00000000  1
  Sc  Sc4  1  0.00000000  0.49999998  0.82420799  1
  Ga  Ga5  1  0.49999998  0.00000000  0.17579200  1
