# generated using pymatgen
data_In2GaCuTe8
_symmetry_space_group_name_H-M   'P 1'
_cell_length_a   6.53689623
_cell_length_b   6.53689623
_cell_length_c   6.53689623
_cell_angle_alpha   90.00000000
_cell_angle_beta   90.00000000
_cell_angle_gamma   90.00000000
_symmetry_Int_Tables_number   1
_chemical_formula_structural   In2GaCuTe8
_chemical_formula_sum   'In2 Ga1 Cu1 Te8'
_cell_volume   279.32819320
_cell_formula_units_Z   1
loop_
 _symmetry_equiv_pos_site_id
 _symmetry_equiv_pos_as_xyz
  1  'x, y, z'
loop_
 _atom_site_type_symbol
 _atom_site_label
 _atom_site_symmetry_multiplicity
 _atom_site_fract_x
 _atom_site_fract_y
 _atom_site_fract_z
 _atom_site_occupancy
  Te  Te0  1  0.12583000  0.62582998  0.87416997  1
  Te  Te1  1  0.62582998  0.87416997  0.12583000  1
  Te  Te2  1  0.87416997  0.12583000  0.62582998  1
  In  In3  1  0.37416999  0.37416999  0.37416999  1
  Cu  Cu4  1  0.49008098  0.99008097  0.50991898  1
  Ga  Ga5  1  0.99008097  0.50991898  0.49008098  1
  In  In6  1  0.50991898  0.49008098  0.99008097  1
  Te  Te7  1  0.00991900  0.00991900  0.00991900  1
  Te  Te8  1  0.87811497  0.37811499  0.12188500  1
  Te  Te9  1  0.37811499  0.12188500  0.87811497  1
  Te  Te10  1  0.12188500  0.87811497  0.37811499  1
  Te  Te11  1  0.62188498  0.62188498  0.62188498  1
