# generated using pymatgen
data_Rb2La3(SbS4)3
_symmetry_space_group_name_H-M   'P 1'
_cell_length_a   6.21455908
_cell_length_b   9.82636833
_cell_length_c   9.82636833
_cell_angle_alpha   120.00000000
_cell_angle_beta   90.00000000
_cell_angle_gamma   90.00000000
_symmetry_Int_Tables_number   1
_chemical_formula_structural   Rb2La3(SbS4)3
_chemical_formula_sum   'Rb2 La3 Sb3 S12'
_cell_volume   519.66926398
_cell_formula_units_Z   1
loop_
 _symmetry_equiv_pos_site_id
 _symmetry_equiv_pos_as_xyz
  1  'x, y, z'
loop_
 _atom_site_type_symbol
 _atom_site_label
 _atom_site_symmetry_multiplicity
 _atom_site_fract_x
 _atom_site_fract_y
 _atom_site_fract_z
 _atom_site_occupancy
  Rb  Rb0  1  0.92965299  0.66666666  0.33333337  1
  Rb  Rb1  1  0.42965299  0.33333333  0.66666670  1
  S  S2  1  0.75898599  0.87303999  0.74608005  1
  S  S3  1  0.25898600  0.74608099  0.87304105  1
  S  S4  1  0.25898600  0.12696000  0.87304103  1
  S  S5  1  0.75898599  0.87303999  0.12695904  1
  S  S6  1  0.75898599  0.25391900  0.12695901  1
  S  S7  1  0.25898600  0.12696000  0.25392001  1
  S  S8  1  0.96138599  0.45566499  0.91133004  1
  S  S9  1  0.46138599  0.91132999  0.45566505  1
  S  S10  1  0.46138599  0.54433499  0.45566503  1
  S  S11  1  0.96138599  0.45566499  0.54433503  1
  S  S12  1  0.96138599  0.08867000  0.54433502  1
  S  S13  1  0.46138599  0.54433499  0.08867002  1
  Sb  Sb14  1  0.69307599  0.18644200  0.37288402  1
  La  La15  1  0.19307600  0.37288499  0.18644302  1
  La  La16  1  0.19307600  0.81355799  0.18644304  1
  Sb  Sb17  1  0.69307599  0.18644200  0.81355703  1
  Sb  Sb18  1  0.69307599  0.62711499  0.81355705  1
  La  La19  1  0.19307600  0.81355799  0.62711605  1
