# generated using pymatgen
data_Ca2MgSb5O8
_symmetry_space_group_name_H-M   'P 1'
_cell_length_a   5.84410620
_cell_length_b   5.84410620
_cell_length_c   5.84410620
_cell_angle_alpha   90.00000000
_cell_angle_beta   90.00000000
_cell_angle_gamma   90.00000000
_symmetry_Int_Tables_number   1
_chemical_formula_structural   Ca2MgSb5O8
_chemical_formula_sum   'Ca2 Mg1 Sb5 O8'
_cell_volume   199.59713245
_cell_formula_units_Z   1
loop_
 _symmetry_equiv_pos_site_id
 _symmetry_equiv_pos_as_xyz
  1  'x, y, z'
loop_
 _atom_site_type_symbol
 _atom_site_label
 _atom_site_symmetry_multiplicity
 _atom_site_fract_x
 _atom_site_fract_y
 _atom_site_fract_z
 _atom_site_occupancy
  Ca  Ca0  1  0.49999998  0.49999998  0.49999998  1
  Ca  Ca1  1  0.00000000  0.00000000  0.00000000  1
  Sb  Sb2  1  0.74999997  0.00000000  0.49999998  1
  Sb  Sb3  1  0.49999998  0.74999997  -0.00000000  1
  Sb  Sb4  1  0.00000000  0.49999998  0.74999997  1
  Sb  Sb5  1  0.00000000  0.49999998  0.24999999  1
  Mg  Mg6  1  0.24999999  0.00000000  0.49999998  1
  Sb  Sb7  1  0.49999998  0.24999999  -0.00000000  1
  O  O8  1  0.74999997  0.24999999  0.24999999  1
  O  O9  1  0.24999999  0.24999999  0.74999997  1
  O  O10  1  0.24999999  0.74999997  0.24999999  1
  O  O11  1  0.74999997  0.74999997  0.74999997  1
  O  O12  1  0.24999999  0.74999997  0.74999997  1
  O  O13  1  0.74999997  0.74999997  0.24999999  1
  O  O14  1  0.24999999  0.24999999  0.24999999  1
  O  O15  1  0.74999997  0.24999999  0.74999997  1
