# generated using pymatgen
data_SrCa3W2O7
_symmetry_space_group_name_H-M   'P 1'
_cell_length_a   6.55985308
_cell_length_b   6.55985308
_cell_length_c   7.90477753
_cell_angle_alpha   65.48510742
_cell_angle_beta   65.48510742
_cell_angle_gamma   59.99998856
_symmetry_Int_Tables_number   1
_chemical_formula_structural   SrCa3W2O7
_chemical_formula_sum   'Sr1 Ca3 W2 O7'
_cell_volume   258.57058500
_cell_formula_units_Z   1
loop_
 _symmetry_equiv_pos_site_id
 _symmetry_equiv_pos_as_xyz
  1  'x, y, z'
loop_
 _atom_site_type_symbol
 _atom_site_label
 _atom_site_symmetry_multiplicity
 _atom_site_fract_x
 _atom_site_fract_y
 _atom_site_fract_z
 _atom_site_occupancy
  Sr  Sr0  1  0.50000001  0.50000001  0.49999997  1
  Ca  Ca1  1  0.50000001  0.00000000  0.99999996  1
  Ca  Ca2  1  0.00000000  0.50000001  0.99999996  1
  Ca  Ca3  1  0.50000001  0.50000001  -0.00000002  1
  W  W4  1  0.00000000  0.00000000  0.00000000  1
  O  O5  1  0.76571501  0.26024700  0.20832297  1
  O  O6  1  0.23428501  0.23428500  0.79167697  1
  O  O7  1  0.23428501  0.73975301  0.79167696  1
  O  O8  1  0.73975301  0.23428500  0.79167696  1
  O  O9  1  0.26485601  0.26485600  0.20543198  1
  W  W10  1  0.73514402  0.73514401  0.79456795  1
  O  O11  1  0.26024701  0.76571501  0.20832297  1
  O  O12  1  0.76571502  0.76571501  0.20832296  1
