# generated using pymatgen
data_Lu(PRh2)2
_symmetry_space_group_name_H-M   'P 1'
_cell_length_a   3.74345112
_cell_length_b   7.09549284
_cell_length_c   7.09549284
_cell_angle_alpha   90.00000000
_cell_angle_beta   90.00000000
_cell_angle_gamma   90.00000000
_symmetry_Int_Tables_number   1
_chemical_formula_structural   Lu(PRh2)2
_chemical_formula_sum   'Lu2 P4 Rh8'
_cell_volume   188.46785979
_cell_formula_units_Z   2
loop_
 _symmetry_equiv_pos_site_id
 _symmetry_equiv_pos_as_xyz
  1  'x, y, z'
loop_
 _atom_site_type_symbol
 _atom_site_label
 _atom_site_symmetry_multiplicity
 _atom_site_fract_x
 _atom_site_fract_y
 _atom_site_fract_z
 _atom_site_occupancy
  Lu  Lu0  1  0.49999998  0.50000001  0.50000001  1
  Lu  Lu1  1  0.00000000  0.00000000  0.00000000  1
  Rh  Rh2  1  0.49999998  0.64673601  0.91488102  1
  Rh  Rh3  1  0.49999998  0.35326401  0.08511900  1
  Rh  Rh4  1  0.00000000  0.14673600  0.58511901  1
  Rh  Rh5  1  0.99999997  0.85326402  0.41488101  1
  Rh  Rh6  1  0.49999998  0.91488102  0.64673601  1
  Rh  Rh7  1  0.49999998  0.08511900  0.35326401  1
  Rh  Rh8  1  0.00000000  0.58511901  0.14673600  1
  Rh  Rh9  1  0.00000000  0.41488101  0.85326402  1
  P  P10  1  0.49999998  0.78079702  0.21920300  1
  P  P11  1  0.49999998  0.21920300  0.78079702  1
  P  P12  1  0.00000000  0.28079701  0.28079701  1
  P  P13  1  0.00000000  0.71920302  0.71920302  1
