# generated using pymatgen
data_CeGaAu
_symmetry_space_group_name_H-M   'P 1'
_cell_length_a   4.38843203
_cell_length_b   7.10266876
_cell_length_c   8.05688572
_cell_angle_alpha   90.00000000
_cell_angle_beta   90.00000000
_cell_angle_gamma   90.00000000
_symmetry_Int_Tables_number   1
_chemical_formula_structural   CeGaAu
_chemical_formula_sum   'Ce4 Ga4 Au4'
_cell_volume   251.12973645
_cell_formula_units_Z   4
loop_
 _symmetry_equiv_pos_site_id
 _symmetry_equiv_pos_as_xyz
  1  'x, y, z'
loop_
 _atom_site_type_symbol
 _atom_site_label
 _atom_site_symmetry_multiplicity
 _atom_site_fract_x
 _atom_site_fract_y
 _atom_site_fract_z
 _atom_site_occupancy
  Ce  Ce0  1  0.25000000  0.51259702  0.18806601  1
  Ce  Ce1  1  0.75000000  0.48740302  0.81193403  1
  Ce  Ce2  1  0.75000000  0.98740303  0.68806602  1
  Ce  Ce3  1  0.25000000  0.01259700  0.31193401  1
  Au  Au4  1  0.25000000  0.76646603  0.89520403  1
  Au  Au5  1  0.75000000  0.23353401  0.10479600  1
  Au  Au6  1  0.75000000  0.73353402  0.39520401  1
  Au  Au7  1  0.25000000  0.26646601  0.60479602  1
  Ga  Ga8  1  0.25000000  0.67324802  0.57493002  1
  Ga  Ga9  1  0.75000000  0.32675201  0.42507001  1
  Ga  Ga10  1  0.75000000  0.82675203  0.07493000  1
  Ga  Ga11  1  0.25000000  0.17324801  0.92507003  1
