# generated using pymatgen
data_FeCoB3Os
_symmetry_space_group_name_H-M   'P 1'
_cell_length_a   4.20000505
_cell_length_b   4.20000505
_cell_length_c   4.20000505
_cell_angle_alpha   60.00000000
_cell_angle_beta   60.00000000
_cell_angle_gamma   60.00000000
_symmetry_Int_Tables_number   1
_chemical_formula_structural   FeCoB3Os
_chemical_formula_sum   'Fe1 Co1 B3 Os1'
_cell_volume   52.38831634
_cell_formula_units_Z   1
loop_
 _symmetry_equiv_pos_site_id
 _symmetry_equiv_pos_as_xyz
  1  'x, y, z'
loop_
 _atom_site_type_symbol
 _atom_site_label
 _atom_site_symmetry_multiplicity
 _atom_site_fract_x
 _atom_site_fract_y
 _atom_site_fract_z
 _atom_site_occupancy
  Fe  Fe0  1  0.37558299  0.87324898  0.37558399  1
  B  B1  1  0.37558299  0.37558399  0.37558399  1
  Co  Co2  1  0.37558299  0.37558399  0.87324898  1
  B  B3  1  0.87324798  0.37558399  0.37558399  1
  B  B4  1  0.00000000  0.00000000  0.00000000  1
  Os  Os5  1  0.74999999  0.74999999  0.74999999  1
