# generated using pymatgen
data_NaMn7O12
_symmetry_space_group_name_H-M   'P 1'
_cell_length_a   6.30363417
_cell_length_b   6.30363417
_cell_length_c   6.30363417
_cell_angle_alpha   109.47122192
_cell_angle_beta   109.47122192
_cell_angle_gamma   109.47122192
_symmetry_Int_Tables_number   1
_chemical_formula_structural   NaMn7O12
_chemical_formula_sum   'Na1 Mn7 O12'
_cell_volume   192.81956152
_cell_formula_units_Z   1
loop_
 _symmetry_equiv_pos_site_id
 _symmetry_equiv_pos_as_xyz
  1  'x, y, z'
loop_
 _atom_site_type_symbol
 _atom_site_label
 _atom_site_symmetry_multiplicity
 _atom_site_fract_x
 _atom_site_fract_y
 _atom_site_fract_z
 _atom_site_occupancy
  Na  Na0  1  0.00000000  0.00000000  0.00000000  1
  Mn  Mn1  1  0.50000005  0.50000004  0.50000006  1
  Mn  Mn2  1  0.00000003  0.50000004  0.00000003  1
  Mn  Mn3  1  1.00000010  1.00000007  0.50000010  1
  Mn  Mn4  1  0.50000002  0.00000000  0.00000001  1
  Mn  Mn5  1  0.50000002  0.00000000  0.50000003  1
  Mn  Mn6  1  0.50000005  0.50000004  0.00000004  1
  Mn  Mn7  1  0.00000003  0.50000004  0.50000004  1
  O  O8  1  0.17015303  0.30554502  0.47569804  1
  O  O9  1  0.82984708  0.69445505  0.52430208  1
  O  O10  1  0.17015305  0.69445505  0.86460807  1
  O  O11  1  0.69445508  0.86460806  0.17015307  1
  O  O12  1  0.52430207  0.82984706  0.69445508  1
  O  O13  1  0.86460805  0.17015301  0.69445505  1
  O  O14  1  0.30554504  0.47569803  0.17015304  1
  O  O15  1  0.47569803  0.17015301  0.30554503  1
  O  O16  1  0.82984705  0.30554502  0.13539204  1
  O  O17  1  0.30554502  0.13539201  0.82984704  1
  O  O18  1  0.13539206  0.82984706  0.30554506  1
  O  O19  1  0.69445506  0.52430204  0.82984707  1
