# generated using pymatgen
data_SrCuGeBr3O2
_symmetry_space_group_name_H-M   'P 1'
_cell_length_a   3.68155098
_cell_length_b   3.68155098
_cell_length_c   12.82812405
_cell_angle_alpha   90.00000000
_cell_angle_beta   90.00000000
_cell_angle_gamma   90.00000000
_symmetry_Int_Tables_number   1
_chemical_formula_structural   SrCuGeBr3O2
_chemical_formula_sum   'Sr1 Cu1 Ge1 Br3 O2'
_cell_volume   173.87005367
_cell_formula_units_Z   1
loop_
 _symmetry_equiv_pos_site_id
 _symmetry_equiv_pos_as_xyz
  1  'x, y, z'
loop_
 _atom_site_type_symbol
 _atom_site_label
 _atom_site_symmetry_multiplicity
 _atom_site_fract_x
 _atom_site_fract_y
 _atom_site_fract_z
 _atom_site_occupancy
  O  O0  1  0.50000000  0.00000000  0.00300400  1
  Ge  Ge1  1  0.50000000  0.00000000  0.48637300  1
  O  O2  1  0.00000000  0.50000000  0.00300400  1
  Cu  Cu3  1  0.00000000  0.50000000  0.48637300  1
  Br  Br4  1  0.50000000  0.50000000  0.86161400  1
  Sr  Sr5  1  0.00000000  0.00000000  0.14413400  1
  Br  Br6  1  0.00000000  0.00000000  0.61539200  1
  Br  Br7  1  0.50000000  0.50000000  0.40010600  1
