# generated using pymatgen
data_Ho4Al5Ni9
_symmetry_space_group_name_H-M   'P 1'
_cell_length_a   5.03505230
_cell_length_b   5.03505230
_cell_length_c   12.77026749
_cell_angle_alpha   78.63024902
_cell_angle_beta   78.63024902
_cell_angle_gamma   59.99999237
_symmetry_Int_Tables_number   1
_chemical_formula_structural   Ho4Al5Ni9
_chemical_formula_sum   'Ho4 Al5 Ni9'
_cell_volume   273.01357196
_cell_formula_units_Z   1
loop_
 _symmetry_equiv_pos_site_id
 _symmetry_equiv_pos_as_xyz
  1  'x, y, z'
loop_
 _atom_site_type_symbol
 _atom_site_label
 _atom_site_symmetry_multiplicity
 _atom_site_fract_x
 _atom_site_fract_y
 _atom_site_fract_z
 _atom_site_occupancy
  Ho  Ho0  1  0.85428501  0.85428500  0.43714501  1
  Ho  Ho1  1  0.14571500  0.14571500  0.56285501  1
  Ho  Ho2  1  0.94299301  0.94299300  0.17102101  1
  Ho  Ho3  1  0.05700700  0.05700700  0.82897901  1
  Ni  Ni4  1  0.50000001  0.50000000  0.00000000  1
  Ni  Ni5  1  0.50000000  0.00000000  -0.00000000  1
  Al  Al6  1  0.00000000  0.50000000  0.00000000  1
  Ni  Ni7  1  0.50000001  0.50000000  0.50000001  1
  Ni  Ni8  1  0.38917600  0.38917600  0.33060901  1
  Al  Al9  1  0.38939900  0.38939900  0.83180302  1
  Al  Al10  1  0.72305401  0.72305400  0.83083802  1
  Al  Al11  1  0.27694600  0.27694600  0.16916200  1
  Ni  Ni12  1  0.10896101  0.61082400  0.66939102  1
  Ni  Ni13  1  0.61082401  0.61082400  0.66939102  1
  Al  Al14  1  0.61060101  0.61060100  0.16819701  1
  Ni  Ni15  1  0.38917601  0.89103900  0.33060901  1
  Ni  Ni16  1  0.89103900  0.38917600  0.33060901  1
  Ni  Ni17  1  0.61082400  0.10896100  0.66939101  1
