# generated using pymatgen
data_RbLi4Bi(Sb2O5)2
_symmetry_space_group_name_H-M   'P 1'
_cell_length_a   7.27616024
_cell_length_b   7.38045406
_cell_length_c   7.38045406
_cell_angle_alpha   60.37194824
_cell_angle_beta   60.46636200
_cell_angle_gamma   60.46636200
_symmetry_Int_Tables_number   1
_chemical_formula_structural   RbLi4Bi(Sb2O5)2
_chemical_formula_sum   'Rb1 Li4 Bi1 Sb4 O10'
_cell_volume   283.01017811
_cell_formula_units_Z   1
loop_
 _symmetry_equiv_pos_site_id
 _symmetry_equiv_pos_as_xyz
  1  'x, y, z'
loop_
 _atom_site_type_symbol
 _atom_site_label
 _atom_site_symmetry_multiplicity
 _atom_site_fract_x
 _atom_site_fract_y
 _atom_site_fract_z
 _atom_site_occupancy
  Li  Li0  1  -0.00000002  1.00000001  0.50000002  1
  Bi  Bi1  1  0.49999997  1.00000001  0.50000000  1
  Sb  Sb2  1  0.00000000  0.00000000  0.00000000  1
  O  O3  1  -0.00000001  0.50000000  0.50000001  1
  O  O4  1  0.49999998  0.50000000  -0.00000000  1
  O  O5  1  -0.00000001  0.50000000  1.00000001  1
  O  O6  1  0.66895198  0.08104800  0.58104799  1
  O  O7  1  0.33104797  0.91895201  0.41895201  1
  Li  Li8  1  0.07631999  0.17368000  0.67368000  1
  Li  Li9  1  0.69308197  0.55691801  0.05691799  1
  Li  Li10  1  0.06574099  0.56408001  0.68943401  1
  Sb  Sb11  1  0.68074598  0.18943400  0.06407899  1
  O  O12  1  0.68074497  0.56408001  0.68943400  1
  O  O13  1  0.06574199  0.18943400  0.06407900  1
  O  O14  1  0.92367996  0.82632001  0.32631999  1
  Sb  Sb15  1  0.30691798  0.44308200  0.94308200  1
  Rb  Rb16  1  0.93425897  0.43592000  0.31056599  1
  O  O17  1  0.31925398  0.81056601  0.93592101  1
  Sb  Sb18  1  0.31925498  0.43592000  0.31056600  1
  O  O19  1  0.93425796  0.81056601  0.93592100  1
