# generated using pymatgen
data_CeZrAl(V2P3)2
_symmetry_space_group_name_H-M   'P 1'
_cell_length_a   5.17223692
_cell_length_b   5.17223597
_cell_length_c   8.13901234
_cell_angle_alpha   90.00000000
_cell_angle_beta   90.00000000
_cell_angle_gamma   119.99999237
_symmetry_Int_Tables_number   1
_chemical_formula_structural   CeZrAl(V2P3)2
_chemical_formula_sum   'Ce1 Zr1 Al1 V4 P6'
_cell_volume   188.56414302
_cell_formula_units_Z   1
loop_
 _symmetry_equiv_pos_site_id
 _symmetry_equiv_pos_as_xyz
  1  'x, y, z'
loop_
 _atom_site_type_symbol
 _atom_site_label
 _atom_site_symmetry_multiplicity
 _atom_site_fract_x
 _atom_site_fract_y
 _atom_site_fract_z
 _atom_site_occupancy
  Ce  Ce0  1  0.00000000  0.00000000  0.00000000  1
  P  P1  1  0.49999997  0.50000002  0.74947097  1
  V  V2  1  0.49999998  0.00000000  0.74947097  1
  V  V3  1  0.99999995  0.50000002  0.74947097  1
  P  P4  1  0.49999997  0.50000002  0.25052899  1
  V  V5  1  0.49999998  0.00000000  0.25052899  1
  V  V6  1  0.99999995  0.50000002  0.25052899  1
  P  P7  1  0.00000000  0.00000000  0.34366799  1
  P  P8  1  0.66666663  0.33333335  -0.00000000  1
  P  P9  1  0.33333331  0.66666669  -0.00000000  1
  P  P10  1  0.66666663  0.33333335  0.49999998  1
  Zr  Zr11  1  0.33333331  0.66666669  0.49999998  1
  Al  Al12  1  0.00000000  0.00000000  0.65633197  1
