# generated using pymatgen
data_Eu2CdHg3
_symmetry_space_group_name_H-M   'P 1'
_cell_length_a   5.01539993
_cell_length_b   5.01539993
_cell_length_c   8.02800274
_cell_angle_alpha   90.00000000
_cell_angle_beta   90.00000000
_cell_angle_gamma   120.00000000
_symmetry_Int_Tables_number   1
_chemical_formula_structural   Eu2CdHg3
_chemical_formula_sum   'Eu2 Cd1 Hg3'
_cell_volume   174.88367997
_cell_formula_units_Z   1
loop_
 _symmetry_equiv_pos_site_id
 _symmetry_equiv_pos_as_xyz
  1  'x, y, z'
loop_
 _atom_site_type_symbol
 _atom_site_label
 _atom_site_symmetry_multiplicity
 _atom_site_fract_x
 _atom_site_fract_y
 _atom_site_fract_z
 _atom_site_occupancy
  Eu  Eu0  1  0.00000000  0.00000000  0.25501201  1
  Eu  Eu1  1  0.00000000  0.00000000  0.74801102  1
  Hg  Hg2  1  0.66666668  0.33333335  0.45231401  1
  Cd  Cd3  1  0.33333335  0.66666670  0.53824102  1
  Hg  Hg4  1  0.33333335  0.66666670  0.95402903  1
  Hg  Hg5  1  0.66666668  0.33333335  0.05239300  1
