# generated using pymatgen
data_Mn5OF12
_symmetry_space_group_name_H-M   'P 1'
_cell_length_a   4.80538893
_cell_length_b   5.74930525
_cell_length_c   7.97406244
_cell_angle_alpha   87.10450745
_cell_angle_beta   87.60078430
_cell_angle_gamma   88.53260803
_symmetry_Int_Tables_number   1
_chemical_formula_structural   Mn5OF12
_chemical_formula_sum   'Mn5 O1 F12'
_cell_volume   219.76952452
_cell_formula_units_Z   1
loop_
 _symmetry_equiv_pos_site_id
 _symmetry_equiv_pos_as_xyz
  1  'x, y, z'
loop_
 _atom_site_type_symbol
 _atom_site_label
 _atom_site_symmetry_multiplicity
 _atom_site_fract_x
 _atom_site_fract_y
 _atom_site_fract_z
 _atom_site_occupancy
  Mn  Mn0  1  0.49662197  0.49595701  0.00501301  1
  Mn  Mn1  1  0.56155895  0.83181702  0.66259401  1
  Mn  Mn2  1  0.48949700  0.17040400  0.33646100  1
  Mn  Mn3  1  0.96696899  0.33274601  0.67719500  1
  Mn  Mn4  1  0.00773395  0.66830802  0.33373701  1
  F  F5  1  0.99216994  0.99287903  0.98438601  1
  F  F6  1  0.80597501  0.04477200  0.76446900  1
  F  F7  1  0.69456097  0.52855602  0.78229401  1
  F  F8  1  0.69395795  0.88209903  0.43055801  1
  O  O9  1  0.30904697  0.46091501  0.22973201  1
  F  F10  1  0.79756599  0.37577201  0.43173500  1
  F  F11  1  0.79913296  0.69290102  0.09912401  1
  F  F12  1  0.70044700  0.19341501  0.10422300  1
  F  F13  1  0.27974399  0.14170900  0.56840800  1
  F  F14  1  0.32058995  0.80477602  0.88759301  1
  F  F15  1  0.18231596  0.61862002  0.57797501  1
  F  F16  1  0.19573293  0.96175703  0.21749101  1
  F  F17  1  0.20637498  0.30259601  0.90701001  1
