# generated using pymatgen
data_Ce8SiNiP2
_symmetry_space_group_name_H-M   'P 1'
_cell_length_a   4.68892813
_cell_length_b   7.01589298
_cell_length_c   8.63389778
_cell_angle_alpha   90.00000000
_cell_angle_beta   90.00000000
_cell_angle_gamma   90.00000000
_symmetry_Int_Tables_number   1
_chemical_formula_structural   Ce8SiNiP2
_chemical_formula_sum   'Ce8 Si1 Ni1 P2'
_cell_volume   284.02949024
_cell_formula_units_Z   1
loop_
 _symmetry_equiv_pos_site_id
 _symmetry_equiv_pos_as_xyz
  1  'x, y, z'
loop_
 _atom_site_type_symbol
 _atom_site_label
 _atom_site_symmetry_multiplicity
 _atom_site_fract_x
 _atom_site_fract_y
 _atom_site_fract_z
 _atom_site_occupancy
  Ce  Ce0  1  0.24999999  0.85501900  0.92068602  1
  Ce  Ce1  1  0.24999999  0.35501900  0.57931401  1
  Ce  Ce2  1  0.74999998  0.14498100  0.07931400  1
  Ce  Ce3  1  0.74999998  0.64498100  0.42068601  1
  Ce  Ce4  1  0.24999999  0.98851600  0.33164001  1
  Ce  Ce5  1  0.24999999  0.48851600  0.16836000  1
  Ce  Ce6  1  0.74999998  0.01148400  0.66836002  1
  Ce  Ce7  1  0.74999998  0.51148400  0.83164002  1
  Si  Si8  1  0.24999999  0.25795300  0.90554802  1
  P  P9  1  0.24999999  0.75795300  0.59445202  1
  P  P10  1  0.74999998  0.74204700  0.09445200  1
  Ni  Ni11  1  0.74999998  0.24204700  0.40554801  1
