# generated using pymatgen
data_Ce8Mg3Si5
_symmetry_space_group_name_H-M   'P 1'
_cell_length_a   5.63846397
_cell_length_b   5.86335993
_cell_length_c   11.48366070
_cell_angle_alpha   90.00000000
_cell_angle_beta   90.00000000
_cell_angle_gamma   90.00000000
_symmetry_Int_Tables_number   1
_chemical_formula_structural   Ce8Mg3Si5
_chemical_formula_sum   'Ce8 Mg3 Si5'
_cell_volume   379.65376985
_cell_formula_units_Z   1
loop_
 _symmetry_equiv_pos_site_id
 _symmetry_equiv_pos_as_xyz
  1  'x, y, z'
loop_
 _atom_site_type_symbol
 _atom_site_label
 _atom_site_symmetry_multiplicity
 _atom_site_fract_x
 _atom_site_fract_y
 _atom_site_fract_z
 _atom_site_occupancy
  Ce  Ce0  1  0.25000000  0.16269100  0.01487600  1
  Ce  Ce1  1  0.75000000  0.83730901  0.98512403  1
  Ce  Ce2  1  0.75000000  0.16269100  0.48512401  1
  Ce  Ce3  1  0.25000000  0.83730901  0.51487601  1
  Ce  Ce4  1  0.25000000  0.40127300  0.33238401  1
  Ce  Ce5  1  0.75000000  0.59872701  0.66761602  1
  Ce  Ce6  1  0.75000000  0.40127300  0.16761600  1
  Ce  Ce7  1  0.25000000  0.59872701  0.83238402  1
  Mg  Mg8  1  0.00000000  0.93117301  0.25000001  1
  Mg  Mg9  1  0.50000000  0.06882700  0.75000002  1
  Mg  Mg10  1  0.00000000  0.06882700  0.75000002  1
  Si  Si11  1  0.50000000  0.93117301  0.25000001  1
  Si  Si12  1  0.25000000  0.66246001  0.09878700  1
  Si  Si13  1  0.75000000  0.33754000  0.90121302  1
  Si  Si14  1  0.75000000  0.66246001  0.40121301  1
  Si  Si15  1  0.25000000  0.33754000  0.59878702  1
