# generated using pymatgen
data_LiMg
_symmetry_space_group_name_H-M   'P 1'
_cell_length_a   4.74936152
_cell_length_b   4.74936152
_cell_length_c   8.27767086
_cell_angle_alpha   73.32886505
_cell_angle_beta   73.32886505
_cell_angle_gamma   60.00000763
_symmetry_Int_Tables_number   1
_chemical_formula_structural   LiMg
_chemical_formula_sum   'Li4 Mg4'
_cell_volume   152.57018440
_cell_formula_units_Z   4
loop_
 _symmetry_equiv_pos_site_id
 _symmetry_equiv_pos_as_xyz
  1  'x, y, z'
loop_
 _atom_site_type_symbol
 _atom_site_label
 _atom_site_symmetry_multiplicity
 _atom_site_fract_x
 _atom_site_fract_y
 _atom_site_fract_z
 _atom_site_occupancy
  Li  Li0  1  0.24915700  0.24915700  0.25252900  1
  Li  Li1  1  0.75084301  0.75084299  0.74747100  1
  Li  Li2  1  0.50000001  0.50000000  0.50000000  1
  Li  Li3  1  0.00000000  0.00000000  0.00000000  1
  Mg  Mg4  1  0.87342801  0.87342799  0.37971602  1
  Mg  Mg5  1  0.37639000  0.37639000  0.87082998  1
  Mg  Mg6  1  0.12657200  0.12657200  0.62028398  1
  Mg  Mg7  1  0.62361001  0.62360999  0.12917002  1
