# generated using pymatgen
data_RbP2O8F
_symmetry_space_group_name_H-M   'P 1'
_cell_length_a   5.24939108
_cell_length_b   5.24935293
_cell_length_c   8.20920467
_cell_angle_alpha   90.00000000
_cell_angle_beta   89.99099731
_cell_angle_gamma   119.99975586
_symmetry_Int_Tables_number   1
_chemical_formula_structural   RbP2O8F
_chemical_formula_sum   'Rb1 P2 O8 F1'
_cell_volume   195.90588321
_cell_formula_units_Z   1
loop_
 _symmetry_equiv_pos_site_id
 _symmetry_equiv_pos_as_xyz
  1  'x, y, z'
loop_
 _atom_site_type_symbol
 _atom_site_label
 _atom_site_symmetry_multiplicity
 _atom_site_fract_x
 _atom_site_fract_y
 _atom_site_fract_z
 _atom_site_occupancy
  F  F0  1  0.00000001  0.99994796  1.00000003  1
  Rb  Rb1  1  0.00000000  0.00045800  0.50000003  1
  P  P2  1  0.33321200  0.66654531  0.21687501  1
  P  P3  1  0.66678799  0.33335899  0.78312506  1
  O  O4  1  0.82423599  0.64983698  0.85824607  1
  O  O5  1  0.82593999  0.17607299  0.85828907  1
  O  O6  1  0.35050300  0.17433499  0.85853306  1
  O  O7  1  0.17576400  0.82560097  0.14175400  1
  O  O8  1  0.64949700  0.82383097  0.14146702  1
  O  O9  1  0.17406000  0.35013299  0.14171101  1
  O  O10  1  0.33342900  0.66664197  0.39858102  1
  O  O11  1  0.66657099  0.33323765  0.60141905  1
