# generated using pymatgen
data_Li5Mn3O8
_symmetry_space_group_name_H-M   'P 1'
_cell_length_a   4.96856403
_cell_length_b   5.81896496
_cell_length_c   5.85280037
_cell_angle_alpha   60.55982971
_cell_angle_beta   89.22689056
_cell_angle_gamma   73.39405060
_symmetry_Int_Tables_number   1
_chemical_formula_structural   Li5Mn3O8
_chemical_formula_sum   'Li5 Mn3 O8'
_cell_volume   139.57438537
_cell_formula_units_Z   1
loop_
 _symmetry_equiv_pos_site_id
 _symmetry_equiv_pos_as_xyz
  1  'x, y, z'
loop_
 _atom_site_type_symbol
 _atom_site_label
 _atom_site_symmetry_multiplicity
 _atom_site_fract_x
 _atom_site_fract_y
 _atom_site_fract_z
 _atom_site_occupancy
  Li  Li0  1  0.50304293  0.49726202  0.25000200  1
  Li  Li1  1  0.00007796  0.50078802  0.99404498  1
  Li  Li2  1  0.99641291  0.50361202  0.50223901  1
  Li  Li3  1  0.49740493  0.50292802  0.75120500  1
  Li  Li4  1  0.00040691  0.99727804  0.50039797  1
  Mn  Mn5  1  0.99937595  0.00294700  0.99811402  1
  Mn  Mn6  1  0.50087989  0.99950704  0.74119998  1
  Mn  Mn7  1  0.50739289  0.99710504  0.25815898  1
  O  O8  1  0.25128192  0.77413503  0.87764498  1
  O  O9  1  0.73115990  0.75900603  0.63681600  1
  O  O10  1  0.74356590  0.77965003  0.10635900  1
  O  O11  1  0.24468792  0.78692503  0.33718098  1
  O  O12  1  0.75038195  0.22176101  0.65651601  1
  O  O13  1  0.28617097  0.22178901  0.39639800  1
  O  O14  1  0.24113097  0.23309101  0.86733700  1
  O  O15  1  0.74662395  0.22221801  0.12638501  1
