# generated using pymatgen
data_LiV2O4
_symmetry_space_group_name_H-M   'P 1'
_cell_length_a   5.90467691
_cell_length_b   5.90467691
_cell_length_c   5.91756010
_cell_angle_alpha   60.07199478
_cell_angle_beta   60.07199478
_cell_angle_gamma   60.00001144
_symmetry_Int_Tables_number   1
_chemical_formula_structural   LiV2O4
_chemical_formula_sum   'Li2 V4 O8'
_cell_volume   146.04669699
_cell_formula_units_Z   2
loop_
 _symmetry_equiv_pos_site_id
 _symmetry_equiv_pos_as_xyz
  1  'x, y, z'
loop_
 _atom_site_type_symbol
 _atom_site_label
 _atom_site_symmetry_multiplicity
 _atom_site_fract_x
 _atom_site_fract_y
 _atom_site_fract_z
 _atom_site_occupancy
  Li  Li0  1  0.12681501  0.12681500  0.61955497  1
  V  V1  1  0.87318507  0.87318502  0.38044497  1
  Li  Li2  1  0.50000002  0.00000000  -0.00000000  1
  V  V3  1  0.50000004  0.50000001  -0.00000001  1
  V  V4  1  0.00000002  0.50000001  -0.00000001  1
  V  V5  1  0.50000004  0.50000001  0.49999997  1
  O  O6  1  0.26086302  0.26086301  0.21741099  1
  O  O7  1  0.70742804  0.25556301  0.78144597  1
  O  O8  1  0.25556302  0.25556301  0.78144597  1
  O  O9  1  0.25556304  0.70742802  0.78144596  1
  O  O10  1  0.74443704  0.29257201  0.21855399  1
  O  O11  1  0.74443706  0.74443702  0.21855398  1
  O  O12  1  0.29257204  0.74443702  0.21855398  1
  O  O13  1  0.73913706  0.73913702  0.78258896  1
