# generated using pymatgen
data_Dy3Mg(B2Ir)4
_symmetry_space_group_name_H-M   'P 1'
_cell_length_a   5.30583906
_cell_length_b   5.90114212
_cell_length_c   6.34561491
_cell_angle_alpha   90.00000000
_cell_angle_beta   90.00000000
_cell_angle_gamma   90.00000000
_symmetry_Int_Tables_number   1
_chemical_formula_structural   Dy3Mg(B2Ir)4
_chemical_formula_sum   'Dy3 Mg1 B8 Ir4'
_cell_volume   198.68444145
_cell_formula_units_Z   1
loop_
 _symmetry_equiv_pos_site_id
 _symmetry_equiv_pos_as_xyz
  1  'x, y, z'
loop_
 _atom_site_type_symbol
 _atom_site_label
 _atom_site_symmetry_multiplicity
 _atom_site_fract_x
 _atom_site_fract_y
 _atom_site_fract_z
 _atom_site_occupancy
  Dy  Dy0  1  0.25000000  0.51071799  0.83676701  1
  Mg  Mg1  1  0.25000000  0.01071800  0.66323301  1
  Dy  Dy2  1  0.74999999  0.48928199  0.16323300  1
  Dy  Dy3  1  0.74999999  0.98928198  0.33676700  1
  B  B4  1  0.08369100  0.86857198  0.03807500  1
  B  B5  1  0.41630900  0.36857199  0.46192501  1
  B  B6  1  0.58369099  0.13142800  0.96192501  1
  B  B7  1  0.91630899  0.63142799  0.53807501  1
  B  B8  1  0.91630899  0.13142800  0.96192501  1
  B  B9  1  0.58369099  0.63142799  0.53807501  1
  B  B10  1  0.41630900  0.86857198  0.03807500  1
  B  B11  1  0.08369100  0.36857199  0.46192501  1
  Ir  Ir12  1  0.25000000  0.68104199  0.31861200  1
  Ir  Ir13  1  0.25000000  0.18104200  0.18138800  1
  Ir  Ir14  1  0.74999999  0.31895799  0.68138801  1
  Ir  Ir15  1  0.74999999  0.81895798  0.81861201  1
