# generated using pymatgen
data_CeAu2
_symmetry_space_group_name_H-M   'P 1'
_cell_length_a   4.11724091
_cell_length_b   4.25386000
_cell_length_c   8.44013023
_cell_angle_alpha   75.40398407
_cell_angle_beta   90.00000000
_cell_angle_gamma   90.00000000
_symmetry_Int_Tables_number   1
_chemical_formula_structural   CeAu2
_chemical_formula_sum   'Ce2 Au4'
_cell_volume   143.05114586
_cell_formula_units_Z   2
loop_
 _symmetry_equiv_pos_site_id
 _symmetry_equiv_pos_as_xyz
  1  'x, y, z'
loop_
 _atom_site_type_symbol
 _atom_site_label
 _atom_site_symmetry_multiplicity
 _atom_site_fract_x
 _atom_site_fract_y
 _atom_site_fract_z
 _atom_site_occupancy
  Ce  Ce0  1  0.25000001  0.90538101  0.18923798  1
  Ce  Ce1  1  0.75000002  0.09461900  0.81076196  1
  Au  Au2  1  0.25000001  0.25052200  0.49895597  1
  Au  Au3  1  0.75000002  0.74947800  0.50104397  1
  Au  Au4  1  0.25000001  0.55365500  0.89268995  1
  Au  Au5  1  0.75000002  0.44634500  0.10730999  1
