# generated using pymatgen
data_Lu(Ni2B)6
_symmetry_space_group_name_H-M   'P 1'
_cell_length_a   6.00350857
_cell_length_b   6.00350857
_cell_length_c   6.00350809
_cell_angle_alpha   104.32091522
_cell_angle_beta   104.32091522
_cell_angle_gamma   104.32092285
_symmetry_Int_Tables_number   1
_chemical_formula_structural   Lu(Ni2B)6
_chemical_formula_sum   'Lu1 Ni12 B6'
_cell_volume   191.85668439
_cell_formula_units_Z   1
loop_
 _symmetry_equiv_pos_site_id
 _symmetry_equiv_pos_as_xyz
  1  'x, y, z'
loop_
 _atom_site_type_symbol
 _atom_site_label
 _atom_site_symmetry_multiplicity
 _atom_site_fract_x
 _atom_site_fract_y
 _atom_site_fract_z
 _atom_site_occupancy
  Lu  Lu0  1  0.00000000  0.00000000  0.00000000  1
  Ni  Ni1  1  0.86950897  0.13049099  0.49999995  1
  Ni  Ni2  1  0.49999995  0.86950896  0.13049090  1
  Ni  Ni3  1  0.13049097  0.49999998  0.86950898  1
  Ni  Ni4  1  0.49999998  0.13049099  0.86950899  1
  Ni  Ni5  1  0.86950895  0.49999998  0.13049090  1
  Ni  Ni6  1  0.13049096  0.86950896  0.49999994  1
  Ni  Ni7  1  0.45352298  0.18782599  0.45352297  1
  Ni  Ni8  1  0.45352297  0.45352298  0.18782594  1
  Ni  Ni9  1  0.18782597  0.45352298  0.45352297  1
  Ni  Ni10  1  0.54647695  0.81217397  0.54647691  1
  Ni  Ni11  1  0.54647696  0.54647698  0.81217395  1
  Ni  Ni12  1  0.81217395  0.54647698  0.54647692  1
  B  B13  1  0.23371096  0.66703597  0.23371094  1
  B  B14  1  0.23371098  0.23371099  0.66703599  1
  B  B15  1  0.66703597  0.23371099  0.23371094  1
  B  B16  1  0.76628896  0.33296399  0.76628895  1
  B  B17  1  0.76628894  0.76628897  0.33296390  1
  B  B18  1  0.33296396  0.76628897  0.76628894  1
