# generated using pymatgen
data_Ta3(SiC)2
_symmetry_space_group_name_H-M   'P 1'
_cell_length_a   3.40918946
_cell_length_b   3.40918946
_cell_length_c   8.63881207
_cell_angle_alpha   78.61982727
_cell_angle_beta   78.61982727
_cell_angle_gamma   60.00001144
_symmetry_Int_Tables_number   1
_chemical_formula_structural   Ta3(SiC)2
_chemical_formula_sum   'Ta3 Si2 C2'
_cell_volume   84.66641551
_cell_formula_units_Z   1
loop_
 _symmetry_equiv_pos_site_id
 _symmetry_equiv_pos_as_xyz
  1  'x, y, z'
loop_
 _atom_site_type_symbol
 _atom_site_label
 _atom_site_symmetry_multiplicity
 _atom_site_fract_x
 _atom_site_fract_y
 _atom_site_fract_z
 _atom_site_occupancy
  Ta  Ta0  1  0.22199101  0.22199100  0.33402701  1
  Ta  Ta1  1  0.77800902  0.77800899  0.66597303  1
  Ta  Ta2  1  0.00000000  0.00000000  0.00000000  1
  Si  Si3  1  0.62188502  0.62188499  0.13434502  1
  C  C4  1  0.86773703  0.86773699  0.39678903  1
  C  C5  1  0.13226300  0.13226300  0.60321102  1
  Si  Si6  1  0.37811501  0.37811500  0.86565503  1
