# generated using pymatgen
data_DyAl3
_symmetry_space_group_name_H-M   'P 1'
_cell_length_a   4.68144989
_cell_length_b   6.61575413
_cell_length_c   8.39228439
_cell_angle_alpha   90.00000000
_cell_angle_beta   90.00000000
_cell_angle_gamma   90.00000000
_symmetry_Int_Tables_number   1
_chemical_formula_structural   DyAl3
_chemical_formula_sum   'Dy3 Al9'
_cell_volume   259.92013751
_cell_formula_units_Z   3
loop_
 _symmetry_equiv_pos_site_id
 _symmetry_equiv_pos_as_xyz
  1  'x, y, z'
loop_
 _atom_site_type_symbol
 _atom_site_label
 _atom_site_symmetry_multiplicity
 _atom_site_fract_x
 _atom_site_fract_y
 _atom_site_fract_z
 _atom_site_occupancy
  Al  Al0  1  0.75000002  0.84711098  0.92408596  1
  Al  Al1  1  0.25000001  0.15288900  0.07591400  1
  Al  Al2  1  0.25000001  0.65288899  0.42408598  1
  Al  Al3  1  0.75000002  0.34711099  0.57591397  1
  Al  Al4  1  0.75000002  0.98216298  0.31633399  1
  Dy  Dy5  1  0.25000001  0.01783700  0.68366597  1
  Dy  Dy6  1  0.25000001  0.51783699  0.81633396  1
  Dy  Dy7  1  0.75000002  0.48216299  0.18366599  1
  Al  Al8  1  0.75000002  0.75752099  0.60111497  1
  Al  Al9  1  0.25000001  0.24247900  0.39888498  1
  Al  Al10  1  0.25000001  0.74247899  0.10111500  1
  Al  Al11  1  0.75000002  0.25752100  0.89888496  1
