# generated using pymatgen
data_Mg5Ag
_symmetry_space_group_name_H-M   'P 1'
_cell_length_a   5.07856607
_cell_length_b   5.31231499
_cell_length_c   5.31231499
_cell_angle_alpha   119.34926605
_cell_angle_beta   90.00000000
_cell_angle_gamma   90.00000000
_symmetry_Int_Tables_number   1
_chemical_formula_structural   Mg5Ag
_chemical_formula_sum   'Mg5 Ag1'
_cell_volume   124.92517233
_cell_formula_units_Z   1
loop_
 _symmetry_equiv_pos_site_id
 _symmetry_equiv_pos_as_xyz
  1  'x, y, z'
loop_
 _atom_site_type_symbol
 _atom_site_label
 _atom_site_symmetry_multiplicity
 _atom_site_fract_x
 _atom_site_fract_y
 _atom_site_fract_z
 _atom_site_occupancy
  Mg  Mg0  1  0.99999999  0.33358999  0.33358999  1
  Ag  Ag1  1  0.49999999  0.33363599  0.66647099  1
  Mg  Mg2  1  0.49999999  0.66647099  0.33363599  1
  Mg  Mg3  1  -0.00000000  0.99967298  0.66377498  1
  Mg  Mg4  1  0.99999999  0.66377499  0.99967298  1
  Mg  Mg5  1  0.49999999  0.00285400  0.00285400  1
