# generated using pymatgen
data_NaSrH4N
_symmetry_space_group_name_H-M   'P 1'
_cell_length_a   3.86207795
_cell_length_b   3.86207747
_cell_length_c   8.35405540
_cell_angle_alpha   90.00000000
_cell_angle_beta   90.00000000
_cell_angle_gamma   120.00000763
_symmetry_Int_Tables_number   1
_chemical_formula_structural   NaSrH4N
_chemical_formula_sum   'Na1 Sr1 H4 N1'
_cell_volume   107.91205584
_cell_formula_units_Z   1
loop_
 _symmetry_equiv_pos_site_id
 _symmetry_equiv_pos_as_xyz
  1  'x, y, z'
loop_
 _atom_site_type_symbol
 _atom_site_label
 _atom_site_symmetry_multiplicity
 _atom_site_fract_x
 _atom_site_fract_y
 _atom_site_fract_z
 _atom_site_occupancy
  Sr  Sr0  1  0.33333337  0.66666668  0.17924599  1
  Na  Na1  1  0.66666669  0.33333334  0.82075396  1
  N  N2  1  0.00000000  0.00000000  0.49999998  1
  H  H3  1  0.00000000  0.00000000  0.64809097  1
  H  H4  1  0.00000000  0.00000000  0.35190898  1
  H  H5  1  0.33333337  0.66666668  0.89658996  1
  H  H6  1  0.66666669  0.33333334  0.10340999  1
