# generated using pymatgen
data_Lu5MgSn4
_symmetry_space_group_name_H-M   'P 1'
_cell_length_a   3.85427809
_cell_length_b   8.18161106
_cell_length_c   8.18161106
_cell_angle_alpha   90.00000000
_cell_angle_beta   90.00000000
_cell_angle_gamma   90.00000000
_symmetry_Int_Tables_number   1
_chemical_formula_structural   Lu5MgSn4
_chemical_formula_sum   'Lu5 Mg1 Sn4'
_cell_volume   258.00059417
_cell_formula_units_Z   1
loop_
 _symmetry_equiv_pos_site_id
 _symmetry_equiv_pos_as_xyz
  1  'x, y, z'
loop_
 _atom_site_type_symbol
 _atom_site_label
 _atom_site_symmetry_multiplicity
 _atom_site_fract_x
 _atom_site_fract_y
 _atom_site_fract_z
 _atom_site_occupancy
  Lu  Lu0  1  0.49999999  0.67336699  0.17336700  1
  Mg  Mg1  1  0.49999999  0.32663300  0.82663299  1
  Lu  Lu2  1  0.49999999  0.17336700  0.32663300  1
  Lu  Lu3  1  0.49999999  0.82663299  0.67336699  1
  Lu  Lu4  1  0.00000000  0.00000000  0.00000000  1
  Lu  Lu5  1  0.00000000  0.50000000  0.50000000  1
  Sn  Sn6  1  0.00000000  0.12621700  0.62621700  1
  Sn  Sn7  1  0.00000000  0.87378299  0.37378300  1
  Sn  Sn8  1  0.00000000  0.62621700  0.87378299  1
  Sn  Sn9  1  0.00000000  0.37378300  0.12621700  1
