# generated using pymatgen
data_Lu3O4
_symmetry_space_group_name_H-M   'P 1'
_cell_length_a   6.63736105
_cell_length_b   6.63736105
_cell_length_c   6.63736105
_cell_angle_alpha   60.00000000
_cell_angle_beta   60.00000000
_cell_angle_gamma   60.00000000
_symmetry_Int_Tables_number   1
_chemical_formula_structural   Lu3O4
_chemical_formula_sum   'Lu6 O8'
_cell_volume   206.76228802
_cell_formula_units_Z   2
loop_
 _symmetry_equiv_pos_site_id
 _symmetry_equiv_pos_as_xyz
  1  'x, y, z'
loop_
 _atom_site_type_symbol
 _atom_site_label
 _atom_site_symmetry_multiplicity
 _atom_site_fract_x
 _atom_site_fract_y
 _atom_site_fract_z
 _atom_site_occupancy
  Lu  Lu0  1  0.37438500  0.87684500  0.37438500  1
  Lu  Lu1  1  0.37438500  0.37438500  0.37438500  1
  Lu  Lu2  1  0.37438500  0.37438500  0.87684500  1
  Lu  Lu3  1  0.87684500  0.37438500  0.37438500  1
  Lu  Lu4  1  0.75000000  0.75000000  0.75000000  1
  O  O5  1  0.00000000  0.00000000  0.00000000  1
  O  O6  1  0.13772200  0.58683200  0.13772300  1
  Lu  Lu7  1  0.13772200  0.13772300  0.13772300  1
  O  O8  1  0.13772200  0.13772300  0.58683200  1
  O  O9  1  0.58683100  0.13772300  0.13772300  1
  O  O10  1  0.61752600  0.14742200  0.61752600  1
  O  O11  1  0.61752600  0.61752600  0.61752600  1
  O  O12  1  0.61752600  0.61752600  0.14742200  1
  O  O13  1  0.14742200  0.61752600  0.61752600  1
