# generated using pymatgen
data_Al(AsO3)2
_symmetry_space_group_name_H-M   'P 1'
_cell_length_a   5.08835983
_cell_length_b   5.08835983
_cell_length_c   5.75956678
_cell_angle_alpha   90.00000000
_cell_angle_beta   90.00000000
_cell_angle_gamma   120.00000000
_symmetry_Int_Tables_number   1
_chemical_formula_structural   Al(AsO3)2
_chemical_formula_sum   'Al1 As2 O6'
_cell_volume   129.14454944
_cell_formula_units_Z   1
loop_
 _symmetry_equiv_pos_site_id
 _symmetry_equiv_pos_as_xyz
  1  'x, y, z'
loop_
 _atom_site_type_symbol
 _atom_site_label
 _atom_site_symmetry_multiplicity
 _atom_site_fract_x
 _atom_site_fract_y
 _atom_site_fract_z
 _atom_site_occupancy
  Al  Al0  1  0.45538302  0.00000000  -0.00000000  1
  As  As1  1  -0.00000000  0.45538301  0.33333335  1
  As  As2  1  0.54461702  0.54461702  0.66666669  1
  O  O3  1  0.70181702  0.09989200  0.24152701  1
  O  O4  1  0.39807501  0.29818301  0.90819403  1
  O  O5  1  0.90010803  0.60192502  0.57486102  1
  O  O6  1  0.60192502  0.90010802  0.75847303  1
  O  O7  1  0.29818301  0.39807501  0.42513902  1
  O  O8  1  0.09989200  0.70181702  0.09180600  1
