# generated using pymatgen
data_CeCdAu
_symmetry_space_group_name_H-M   'P 1'
_cell_length_a   4.10361004
_cell_length_b   7.76728392
_cell_length_c   7.76728487
_cell_angle_alpha   120.00000000
_cell_angle_beta   90.00000000
_cell_angle_gamma   90.00000000
_symmetry_Int_Tables_number   1
_chemical_formula_structural   CeCdAu
_chemical_formula_sum   'Ce3 Cd3 Au3'
_cell_volume   214.40510854
_cell_formula_units_Z   3
loop_
 _symmetry_equiv_pos_site_id
 _symmetry_equiv_pos_as_xyz
  1  'x, y, z'
loop_
 _atom_site_type_symbol
 _atom_site_label
 _atom_site_symmetry_multiplicity
 _atom_site_fract_x
 _atom_site_fract_y
 _atom_site_fract_z
 _atom_site_occupancy
  Ce  Ce0  1  0.50000000  0.58838702  0.00000003  1
  Ce  Ce1  1  0.50000000  1.00000004  0.58838704  1
  Ce  Ce2  1  0.50000000  0.41161302  0.41161301  1
  Cd  Cd3  1  0.00000000  0.24791701  0.00000001  1
  Cd  Cd4  1  -0.00000000  0.75208303  0.75208302  1
  Cd  Cd5  1  -0.00000000  1.00000004  0.24791705  1
  Au  Au6  1  0.00000000  0.33333335  0.66666667  1
  Au  Au7  1  -0.00000000  0.66666669  0.33333336  1
  Au  Au8  1  0.50000000  0.00000000  -0.00000000  1
