# generated using pymatgen
data_AlTlTe2
_symmetry_space_group_name_H-M   'P 1'
_cell_length_a   3.99728417
_cell_length_b   3.99728417
_cell_length_c   8.00290871
_cell_angle_alpha   75.53791046
_cell_angle_beta   75.53791046
_cell_angle_gamma   60.00000000
_symmetry_Int_Tables_number   1
_chemical_formula_structural   AlTlTe2
_chemical_formula_sum   'Al1 Tl1 Te2'
_cell_volume   106.03650336
_cell_formula_units_Z   1
loop_
 _symmetry_equiv_pos_site_id
 _symmetry_equiv_pos_as_xyz
  1  'x, y, z'
loop_
 _atom_site_type_symbol
 _atom_site_label
 _atom_site_symmetry_multiplicity
 _atom_site_fract_x
 _atom_site_fract_y
 _atom_site_fract_z
 _atom_site_occupancy
  Tl  Tl0  1  0.00000000  0.00000000  0.00000000  1
  Al  Al1  1  0.50000002  0.49999999  0.50000000  1
  Te  Te2  1  0.77055104  0.77055098  0.68834700  1
  Te  Te3  1  0.22944901  0.22944899  0.31165301  1
