# generated using pymatgen
data_RhCl5
_symmetry_space_group_name_H-M   'P 1'
_cell_length_a   5.93196583
_cell_length_b   6.59793615
_cell_length_c   7.03824663
_cell_angle_alpha   117.95124817
_cell_angle_beta   114.92359924
_cell_angle_gamma   90.00000000
_symmetry_Int_Tables_number   1
_chemical_formula_structural   RhCl5
_chemical_formula_sum   'Rh1 Cl5'
_cell_volume   213.85895746
_cell_formula_units_Z   1
loop_
 _symmetry_equiv_pos_site_id
 _symmetry_equiv_pos_as_xyz
  1  'x, y, z'
loop_
 _atom_site_type_symbol
 _atom_site_label
 _atom_site_symmetry_multiplicity
 _atom_site_fract_x
 _atom_site_fract_y
 _atom_site_fract_z
 _atom_site_occupancy
  Cl  Cl0  1  0.75000003  0.00000000  0.00000002  1
  Rh  Rh1  1  0.25000001  0.00000000  0.00000001  1
  Cl  Cl2  1  0.88819404  0.69603897  0.77638802  1
  Cl  Cl3  1  0.11180601  0.30396099  0.22361200  1
  Cl  Cl4  1  0.61180603  0.91965096  0.22361199  1
  Cl  Cl5  1  0.38819402  0.08034900  0.77638803  1
