# generated using pymatgen
data_LaS
_symmetry_space_group_name_H-M   'P 1'
_cell_length_a   4.23721409
_cell_length_b   5.46501207
_cell_length_c   10.68787956
_cell_angle_alpha   97.08587646
_cell_angle_beta   90.00000000
_cell_angle_gamma   90.00000000
_symmetry_Int_Tables_number   1
_chemical_formula_structural   LaS
_chemical_formula_sum   'La6 S6'
_cell_volume   245.60283455
_cell_formula_units_Z   6
loop_
 _symmetry_equiv_pos_site_id
 _symmetry_equiv_pos_as_xyz
  1  'x, y, z'
loop_
 _atom_site_type_symbol
 _atom_site_label
 _atom_site_symmetry_multiplicity
 _atom_site_fract_x
 _atom_site_fract_y
 _atom_site_fract_z
 _atom_site_occupancy
  S  S0  1  0.99999998  0.41680600  0.21248801  1
  S  S1  1  0.49999999  0.74187799  0.45330603  1
  S  S2  1  0.99999998  0.25843800  0.54767602  1
  S  S3  1  0.49999999  0.89561299  0.11822002  1
  S  S4  1  -0.00000000  0.10392300  0.88074604  1
  S  S5  1  0.49999999  0.58367499  0.78790404  1
  La  La6  1  0.49999999  0.37933100  0.02330201  1
  La  La7  1  0.00000000  0.62140899  0.97498005  1
  La  La8  1  0.49999999  0.21120800  0.35827902  1
  La  La9  1  0.99999998  0.78799899  0.64285404  1
  La  La10  1  0.49999999  0.05352900  0.69210603  1
  La  La11  1  0.99999998  0.94619299  0.30813603  1
