# generated using pymatgen
data_NaZrO3
_symmetry_space_group_name_H-M   'P 1'
_cell_length_a   5.77807665
_cell_length_b   5.77807665
_cell_length_c   6.30321646
_cell_angle_alpha   62.71973038
_cell_angle_beta   62.71973038
_cell_angle_gamma   59.99999619
_symmetry_Int_Tables_number   1
_chemical_formula_structural   NaZrO3
_chemical_formula_sum   'Na2 Zr2 O6'
_cell_volume   154.63008743
_cell_formula_units_Z   2
loop_
 _symmetry_equiv_pos_site_id
 _symmetry_equiv_pos_as_xyz
  1  'x, y, z'
loop_
 _atom_site_type_symbol
 _atom_site_label
 _atom_site_symmetry_multiplicity
 _atom_site_fract_x
 _atom_site_fract_y
 _atom_site_fract_z
 _atom_site_occupancy
  Na  Na0  1  0.13161000  0.13160999  0.60517000  1
  Na  Na1  1  0.86838999  0.86838996  0.39482999  1
  Zr  Zr2  1  0.34199200  0.34199198  0.97402400  1
  Zr  Zr3  1  0.65800799  0.65800797  0.02597599  1
  O  O4  1  0.70826499  0.45811398  0.77358800  1
  O  O5  1  0.29173500  0.54188598  0.22641199  1
  O  O6  1  0.93996697  0.29173499  0.22641199  1
  O  O7  1  0.54188600  0.93996696  0.22641199  1
  O  O8  1  0.45811398  0.06003300  0.77358800  1
  O  O9  1  0.06003302  0.70826497  0.77358800  1
