# generated using pymatgen
data_RbBaYNb3O8
_symmetry_space_group_name_H-M   'P 1'
_cell_length_a   3.96854305
_cell_length_b   3.96854305
_cell_length_c   12.09296799
_cell_angle_alpha   90.00000000
_cell_angle_beta   90.00000000
_cell_angle_gamma   90.00000000
_symmetry_Int_Tables_number   1
_chemical_formula_structural   RbBaYNb3O8
_chemical_formula_sum   'Rb1 Ba1 Y1 Nb3 O8'
_cell_volume   190.45619141
_cell_formula_units_Z   1
loop_
 _symmetry_equiv_pos_site_id
 _symmetry_equiv_pos_as_xyz
  1  'x, y, z'
loop_
 _atom_site_type_symbol
 _atom_site_label
 _atom_site_symmetry_multiplicity
 _atom_site_fract_x
 _atom_site_fract_y
 _atom_site_fract_z
 _atom_site_occupancy
  Ba  Ba0  1  0.49999999  0.49999999  0.16239900  1
  Rb  Rb1  1  0.49999999  0.49999999  0.83760100  1
  Y  Y2  1  0.49999999  0.49999999  0.50000000  1
  Nb  Nb3  1  0.00000000  0.00000000  0.33950900  1
  Nb  Nb4  1  0.00000000  0.00000000  0.00000000  1
  Nb  Nb5  1  0.00000000  0.00000000  0.66049100  1
  O  O6  1  0.00000000  0.49999999  0.38372200  1
  O  O7  1  0.49999999  0.00000000  0.38372200  1
  O  O8  1  0.49999999  0.00000000  0.00000000  1
  O  O9  1  0.00000000  0.00000000  0.18464200  1
  O  O10  1  0.00000000  0.49999999  0.61627800  1
  O  O11  1  0.49999999  0.00000000  0.61627800  1
  O  O12  1  0.00000000  0.00000000  0.81535800  1
  O  O13  1  0.00000000  0.49999999  -0.00000000  1
