# generated using pymatgen
data_NaCeS2
_symmetry_space_group_name_H-M   'P 1'
_cell_length_a   3.81682897
_cell_length_b   5.65093994
_cell_length_c   7.81052589
_cell_angle_alpha   90.00000000
_cell_angle_beta   90.00000000
_cell_angle_gamma   90.00000000
_symmetry_Int_Tables_number   1
_chemical_formula_structural   NaCeS2
_chemical_formula_sum   'Na2 Ce2 S4'
_cell_volume   168.46266533
_cell_formula_units_Z   2
loop_
 _symmetry_equiv_pos_site_id
 _symmetry_equiv_pos_as_xyz
  1  'x, y, z'
loop_
 _atom_site_type_symbol
 _atom_site_label
 _atom_site_symmetry_multiplicity
 _atom_site_fract_x
 _atom_site_fract_y
 _atom_site_fract_z
 _atom_site_occupancy
  S  S0  1  0.25000000  0.38598100  0.67937201  1
  S  S1  1  0.25000000  0.11401900  0.17937200  1
  S  S2  1  0.75000001  0.61401901  0.32062800  1
  S  S3  1  0.75000001  0.88598101  0.82062801  1
  Na  Na4  1  0.25000000  0.86983201  0.53818401  1
  Ce  Ce5  1  0.25000000  0.63016801  0.03818400  1
  Ce  Ce6  1  0.75000001  0.13016800  0.46181601  1
  Na  Na7  1  0.75000001  0.36983200  0.96181601  1
