# generated using pymatgen
data_Al6Ni
_symmetry_space_group_name_H-M   'P 1'
_cell_length_a   4.14101124
_cell_length_b   4.14101124
_cell_length_c   6.42550087
_cell_angle_alpha   90.00000000
_cell_angle_beta   90.00000000
_cell_angle_gamma   90.00000000
_symmetry_Int_Tables_number   1
_chemical_formula_structural   Al6Ni
_chemical_formula_sum   'Al6 Ni1'
_cell_volume   110.18432233
_cell_formula_units_Z   1
loop_
 _symmetry_equiv_pos_site_id
 _symmetry_equiv_pos_as_xyz
  1  'x, y, z'
loop_
 _atom_site_type_symbol
 _atom_site_label
 _atom_site_symmetry_multiplicity
 _atom_site_fract_x
 _atom_site_fract_y
 _atom_site_fract_z
 _atom_site_occupancy
  Al  Al0  1  0.00000000  0.00000000  0.00000000  1
  Al  Al1  1  0.00000000  0.49999997  0.29340401  1
  Al  Al2  1  0.00000000  0.49999997  0.70659601  1
  Al  Al3  1  0.49999997  0.00000000  0.29340401  1
  Al  Al4  1  0.49999997  0.00000000  0.70659601  1
  Al  Al5  1  0.49999997  0.49999997  0.00000000  1
  Ni  Ni6  1  0.00000000  0.00000000  0.50000001  1
