# generated using pymatgen
data_NaMnO2
_symmetry_space_group_name_H-M   'P 1'
_cell_length_a   3.22376704
_cell_length_b   3.22376704
_cell_length_c   5.65417480
_cell_angle_alpha   73.43647766
_cell_angle_beta   73.43647766
_cell_angle_gamma   60.00001907
_symmetry_Int_Tables_number   1
_chemical_formula_structural   NaMnO2
_chemical_formula_sum   'Na1 Mn1 O2'
_cell_volume   48.05318222
_cell_formula_units_Z   1
loop_
 _symmetry_equiv_pos_site_id
 _symmetry_equiv_pos_as_xyz
  1  'x, y, z'
loop_
 _atom_site_type_symbol
 _atom_site_label
 _atom_site_symmetry_multiplicity
 _atom_site_fract_x
 _atom_site_fract_y
 _atom_site_fract_z
 _atom_site_occupancy
  Mn  Mn0  1  0.00000000  0.00000000  0.00000000  1
  Na  Na1  1  0.49999996  0.50000000  0.50000006  1
  O  O2  1  0.25558598  0.25558600  0.23324203  1
  O  O3  1  0.74441394  0.74441400  0.76675809  1
