# generated using pymatgen
data_CeTi5Co6Sb
_symmetry_space_group_name_H-M   'P 1'
_cell_length_a   5.08789015
_cell_length_b   6.62856102
_cell_length_c   6.62856102
_cell_angle_alpha   80.88628387
_cell_angle_beta   67.43164062
_cell_angle_gamma   67.43164062
_symmetry_Int_Tables_number   1
_chemical_formula_structural   CeTi5Co6Sb
_chemical_formula_sum   'Ce1 Ti5 Co6 Sb1'
_cell_volume   190.60756647
_cell_formula_units_Z   1
loop_
 _symmetry_equiv_pos_site_id
 _symmetry_equiv_pos_as_xyz
  1  'x, y, z'
loop_
 _atom_site_type_symbol
 _atom_site_label
 _atom_site_symmetry_multiplicity
 _atom_site_fract_x
 _atom_site_fract_y
 _atom_site_fract_z
 _atom_site_occupancy
  Ce  Ce0  1  0.00000000  0.00000000  0.00000000  1
  Ti  Ti1  1  0.34898994  0.65101003  0.65101005  1
  Ti  Ti2  1  0.65100996  0.34899001  0.34899001  1
  Ti  Ti3  1  0.99999993  0.65325303  0.34674702  1
  Ti  Ti4  1  -0.00000003  0.34674701  0.65325304  1
  Ti  Ti5  1  0.29685398  0.20314601  0.20314601  1
  Sb  Sb6  1  0.70314592  0.79685403  0.79685405  1
  Co  Co7  1  0.49999999  0.00000000  0.50000000  1
  Co  Co8  1  -0.00000009  1.00000004  0.50000008  1
  Co  Co9  1  0.49999995  0.50000002  0.00000002  1
  Co  Co10  1  -0.00000004  0.50000002  1.00000006  1
  Co  Co11  1  0.49999997  0.22927601  0.77072402  1
  Co  Co12  1  0.49999993  0.77072403  0.22927604  1
