# generated using pymatgen
data_TeCl10
_symmetry_space_group_name_H-M   'P 1'
_cell_length_a   8.09923077
_cell_length_b   8.62953758
_cell_length_c   8.62953758
_cell_angle_alpha   65.77807617
_cell_angle_beta   82.65724182
_cell_angle_gamma   82.65724182
_symmetry_Int_Tables_number   1
_chemical_formula_structural   TeCl10
_chemical_formula_sum   'Te1 Cl10'
_cell_volume   543.63432342
_cell_formula_units_Z   1
loop_
 _symmetry_equiv_pos_site_id
 _symmetry_equiv_pos_as_xyz
  1  'x, y, z'
loop_
 _atom_site_type_symbol
 _atom_site_label
 _atom_site_symmetry_multiplicity
 _atom_site_fract_x
 _atom_site_fract_y
 _atom_site_fract_z
 _atom_site_occupancy
  Te  Te0  1  0.66126999  0.20984500  0.20984503  1
  Cl  Cl1  1  0.33873001  0.79015500  0.79015504  1
  Cl  Cl2  1  0.00000000  0.00000000  0.00000000  1
  Cl  Cl3  1  0.14848600  0.08659600  0.68822502  1
  Cl  Cl4  1  0.85151399  0.31177500  0.91340405  1
  Cl  Cl5  1  0.36604900  0.17194300  0.17194302  1
  Cl  Cl6  1  0.63395100  0.82805700  0.82805705  1
  Cl  Cl7  1  0.14848601  0.68822500  0.08659602  1
  Cl  Cl8  1  0.85151400  0.91340400  0.31177505  1
  Cl  Cl9  1  0.68874100  0.38070600  0.38070604  1
  Cl  Cl10  1  0.31125901  0.61929400  0.61929403  1
