# generated using pymatgen
data_LiV3O9
_symmetry_space_group_name_H-M   'P 1'
_cell_length_a   5.84104395
_cell_length_b   5.85528183
_cell_length_c   6.10933685
_cell_angle_alpha   61.50848389
_cell_angle_beta   61.44237518
_cell_angle_gamma   60.08040237
_symmetry_Int_Tables_number   1
_chemical_formula_structural   LiV3O9
_chemical_formula_sum   'Li1 V3 O9'
_cell_volume   151.05144882
_cell_formula_units_Z   1
loop_
 _symmetry_equiv_pos_site_id
 _symmetry_equiv_pos_as_xyz
  1  'x, y, z'
loop_
 _atom_site_type_symbol
 _atom_site_label
 _atom_site_symmetry_multiplicity
 _atom_site_fract_x
 _atom_site_fract_y
 _atom_site_fract_z
 _atom_site_occupancy
  Li  Li0  1  -0.00000002  0.49999998  0.50000003  1
  V  V1  1  0.50000001  0.00000000  -0.00000000  1
  V  V2  1  -0.00000002  0.49999998  0.00000002  1
  V  V3  1  0.49999999  0.49999998  0.00000001  1
  O  O4  1  0.00000000  0.00000000  0.00000000  1
  O  O5  1  0.23230099  0.23748899  0.80515003  1
  O  O6  1  0.72506000  0.23748899  0.80515003  1
  O  O7  1  0.26447099  0.27226399  0.19879401  1
  O  O8  1  0.76548800  0.27957299  0.18945101  1
  O  O9  1  0.23451198  0.72042697  0.81054905  1
  O  O10  1  0.73552898  0.72773497  0.80120704  1
  O  O11  1  0.27493998  0.76251097  0.19485003  1
  O  O12  1  0.76769898  0.76251097  0.19485003  1
