# generated using pymatgen
data_Ag6SI
_symmetry_space_group_name_H-M   'P 1'
_cell_length_a   7.36513996
_cell_length_b   7.36513996
_cell_length_c   7.45986700
_cell_angle_alpha   63.99181747
_cell_angle_beta   63.99181747
_cell_angle_gamma   64.21408844
_symmetry_Int_Tables_number   1
_chemical_formula_structural   Ag6SI
_chemical_formula_sum   'Ag12 S2 I2'
_cell_volume   311.74569807
_cell_formula_units_Z   2
loop_
 _symmetry_equiv_pos_site_id
 _symmetry_equiv_pos_as_xyz
  1  'x, y, z'
loop_
 _atom_site_type_symbol
 _atom_site_label
 _atom_site_symmetry_multiplicity
 _atom_site_fract_x
 _atom_site_fract_y
 _atom_site_fract_z
 _atom_site_occupancy
  Ag  Ag0  1  0.03732497  0.62373800  0.34372499  1
  I  I1  1  0.37626195  0.96267499  0.65627498  1
  Ag  Ag2  1  0.95508997  0.20725700  0.58803997  1
  Ag  Ag3  1  0.79274298  0.04491000  0.41195998  1
  Ag  Ag4  1  0.28402497  0.55039900  0.91488599  1
  Ag  Ag5  1  0.44960096  0.71597500  0.08511398  1
  Ag  Ag6  1  0.11640098  0.37537000  0.75861699  1
  Ag  Ag7  1  0.62462995  0.88359899  0.24138298  1
  S  S8  1  0.86821795  0.79550100  0.83245297  1
  S  S9  1  0.20449899  0.13178200  0.16754699  1
  Ag  Ag10  1  0.70345096  0.58923300  0.71021498  1
  Ag  Ag11  1  0.41076698  0.29654900  0.28978499  1
  Ag  Ag12  1  0.01121795  0.98878199  0.99999999  1
  Ag  Ag13  1  0.24097796  0.75902200  0.49999999  1
  I  I14  1  0.53472898  0.16393800  0.79295598  1
  Ag  Ag15  1  0.83606196  0.46527100  0.20704398  1
