# generated using pymatgen
data_Cr5Se9
_symmetry_space_group_name_H-M   'P 1'
_cell_length_a   3.68055201
_cell_length_b   9.08444881
_cell_length_c   9.69331074
_cell_angle_alpha   105.06752014
_cell_angle_beta   100.94403839
_cell_angle_gamma   90.00000000
_symmetry_Int_Tables_number   1
_chemical_formula_structural   Cr5Se9
_chemical_formula_sum   'Cr5 Se9'
_cell_volume   306.85242627
_cell_formula_units_Z   1
loop_
 _symmetry_equiv_pos_site_id
 _symmetry_equiv_pos_as_xyz
  1  'x, y, z'
loop_
 _atom_site_type_symbol
 _atom_site_label
 _atom_site_symmetry_multiplicity
 _atom_site_fract_x
 _atom_site_fract_y
 _atom_site_fract_z
 _atom_site_occupancy
  Se  Se0  1  0.00000000  0.00000000  0.00000000  1
  Cr  Cr1  1  0.50000001  0.50000000  -0.00000001  1
  Cr  Cr2  1  0.15773000  0.47496000  0.31545998  1
  Cr  Cr3  1  0.20424901  0.83332701  0.40849797  1
  Cr  Cr4  1  0.79575100  0.16667300  0.59150198  1
  Cr  Cr5  1  0.84227001  0.52504000  0.68453997  1
  Se  Se6  1  0.92419001  0.34746200  0.84837997  1
  Se  Se7  1  0.32933600  0.01117700  0.65867198  1
  Se  Se8  1  0.67066401  0.98882301  0.34132797  1
  Se  Se9  1  0.41621801  0.67634701  0.83243596  1
  Se  Se10  1  0.58378200  0.32365300  0.16756399  1
  Se  Se11  1  0.73826101  0.65567701  0.47652197  1
  Se  Se12  1  0.26173900  0.34432300  0.52347798  1
  Se  Se13  1  0.07581000  0.65253801  0.15161998  1
