# generated using pymatgen
data_NaS
_symmetry_space_group_name_H-M   'P 1'
_cell_length_a   3.93782210
_cell_length_b   3.93782115
_cell_length_c   16.94721222
_cell_angle_alpha   90.00000000
_cell_angle_beta   90.00000000
_cell_angle_gamma   120.00000763
_symmetry_Int_Tables_number   1
_chemical_formula_structural   NaS
_chemical_formula_sum   'Na5 S5'
_cell_volume   227.58359101
_cell_formula_units_Z   5
loop_
 _symmetry_equiv_pos_site_id
 _symmetry_equiv_pos_as_xyz
  1  'x, y, z'
loop_
 _atom_site_type_symbol
 _atom_site_label
 _atom_site_symmetry_multiplicity
 _atom_site_fract_x
 _atom_site_fract_y
 _atom_site_fract_z
 _atom_site_occupancy
  Na  Na0  1  0.00000000  0.00000000  0.89759104  1
  S  S1  1  0.00000000  0.00000000  0.10240900  1
  Na  Na2  1  0.00000000  0.00000000  0.39759102  1
  Na  Na3  1  0.00000000  0.00000000  0.60240903  1
  S  S4  1  0.66666666  0.33333334  0.49854202  1
  S  S5  1  0.33333334  0.66666669  0.50145802  1
  S  S6  1  0.33333334  0.66666669  0.99854205  1
  Na  Na7  1  0.66666666  0.33333334  0.00145800  1
  Na  Na8  1  0.66666666  0.33333334  0.75000003  1
  S  S9  1  0.33333334  0.66666669  0.25000001  1
