# generated using pymatgen
data_Te2W
_symmetry_space_group_name_H-M   'P 1'
_cell_length_a   3.47998595
_cell_length_b   3.47998667
_cell_length_c   26.39680481
_cell_angle_alpha   90.00000000
_cell_angle_beta   90.00000000
_cell_angle_gamma   119.99999237
_symmetry_Int_Tables_number   1
_chemical_formula_structural   Te2W
_chemical_formula_sum   'Te8 W4'
_cell_volume   276.84526314
_cell_formula_units_Z   4
loop_
 _symmetry_equiv_pos_site_id
 _symmetry_equiv_pos_as_xyz
  1  'x, y, z'
loop_
 _atom_site_type_symbol
 _atom_site_label
 _atom_site_symmetry_multiplicity
 _atom_site_fract_x
 _atom_site_fract_y
 _atom_site_fract_z
 _atom_site_occupancy
  W  W0  1  0.00000000  0.00000000  0.49999998  1
  W  W1  1  0.33333331  0.66666665  -0.00000000  1
  W  W2  1  0.33333331  0.66666665  0.75006998  1
  W  W3  1  0.33333331  0.66666665  0.24992999  1
  Te  Te4  1  0.00000000  0.00000000  0.68620598  1
  Te  Te5  1  0.00000000  0.00000000  0.93620297  1
  Te  Te6  1  0.00000000  0.00000000  0.31379399  1
  Te  Te7  1  0.66666666  0.33333332  0.81384498  1
  Te  Te8  1  0.66666666  0.33333332  0.56365798  1
  Te  Te9  1  0.66666666  0.33333332  0.43634199  1
  Te  Te10  1  0.00000000  0.00000000  0.06379700  1
  Te  Te11  1  0.66666666  0.33333332  0.18615499  1
