# generated using pymatgen
data_K2Tl2Ag3HgS8
_symmetry_space_group_name_H-M   'P 1'
_cell_length_a   4.53884315
_cell_length_b   6.98100233
_cell_length_c   13.28504753
_cell_angle_alpha   89.73046875
_cell_angle_beta   89.94925690
_cell_angle_gamma   89.88869476
_symmetry_Int_Tables_number   1
_chemical_formula_structural   K2Tl2Ag3HgS8
_chemical_formula_sum   'K2 Tl2 Ag3 Hg1 S8'
_cell_volume   420.94008005
_cell_formula_units_Z   1
loop_
 _symmetry_equiv_pos_site_id
 _symmetry_equiv_pos_as_xyz
  1  'x, y, z'
loop_
 _atom_site_type_symbol
 _atom_site_label
 _atom_site_symmetry_multiplicity
 _atom_site_fract_x
 _atom_site_fract_y
 _atom_site_fract_z
 _atom_site_occupancy
  S  S0  1  0.01202407  0.79009898  0.45736096  1
  S  S1  1  0.01158802  0.21110200  0.54430098  1
  S  S2  1  0.98725199  0.29174499  0.04373300  1
  S  S3  1  0.98755803  0.70515298  0.94977896  1
  S  S4  1  0.50107704  0.62753099  0.24406098  1
  S  S5  1  0.50474802  0.37057099  0.75735597  1
  S  S6  1  0.49542399  0.12873400  0.26209699  1
  S  S7  1  0.49655806  0.87174498  0.73949596  1
  Hg  Hg8  1  0.50930506  0.86115098  0.37862097  1
  Ag  Ag9  1  0.50905600  0.13759900  0.62356898  1
  Ag  Ag10  1  0.48914402  0.36278899  0.12733099  1
  Ag  Ag11  1  0.49176504  0.63553799  0.87278096  1
  Tl  Tl12  1  0.00481608  0.87417898  0.12776497  1
  Tl  Tl13  1  0.00006001  0.13324700  0.87002997  1
  K  K14  1  0.99989800  0.37099999  0.37206299  1
  K  K15  1  0.99972602  0.62781699  0.62965497  1
