# generated using pymatgen
data_Lu5MgO8
_symmetry_space_group_name_H-M   'P 1'
_cell_length_a   6.88408756
_cell_length_b   6.88408756
_cell_length_c   6.88408756
_cell_angle_alpha   60.00000000
_cell_angle_beta   60.00000000
_cell_angle_gamma   60.00000000
_symmetry_Int_Tables_number   1
_chemical_formula_structural   Lu5MgO8
_chemical_formula_sum   'Lu5 Mg1 O8'
_cell_volume   230.68755142
_cell_formula_units_Z   1
loop_
 _symmetry_equiv_pos_site_id
 _symmetry_equiv_pos_as_xyz
  1  'x, y, z'
loop_
 _atom_site_type_symbol
 _atom_site_label
 _atom_site_symmetry_multiplicity
 _atom_site_fract_x
 _atom_site_fract_y
 _atom_site_fract_z
 _atom_site_occupancy
  Mg  Mg0  1  0.12500000  0.62500000  0.62500000  1
  Lu  Lu1  1  0.87500000  0.37500000  0.37500000  1
  Lu  Lu2  1  0.50000000  0.50000000  -0.00000000  1
  Lu  Lu3  1  0.50000000  0.00000000  1.00000000  1
  Lu  Lu4  1  0.50000000  0.00000000  0.50000000  1
  Lu  Lu5  1  0.00000000  0.00000000  0.00000000  1
  O  O6  1  0.25535100  0.23394500  0.75535200  1
  O  O7  1  0.25535100  0.75535200  0.75535200  1
  O  O8  1  0.25535100  0.75535200  0.23394500  1
  O  O9  1  0.73394400  0.75535200  0.75535200  1
  O  O10  1  0.74464900  0.76605500  0.24464800  1
  O  O11  1  0.74464900  0.24464800  0.24464800  1
  O  O12  1  0.74464900  0.24464800  0.76605500  1
  O  O13  1  0.26605600  0.24464800  0.24464800  1
