# generated using pymatgen
data_In2Te3
_symmetry_space_group_name_H-M   'P 1'
_cell_length_a   3.98661137
_cell_length_b   3.98661137
_cell_length_c   16.58929062
_cell_angle_alpha   83.09888458
_cell_angle_beta   83.09888458
_cell_angle_gamma   60.00000763
_symmetry_Int_Tables_number   1
_chemical_formula_structural   In2Te3
_chemical_formula_sum   'In4 Te6'
_cell_volume   226.12336445
_cell_formula_units_Z   2
loop_
 _symmetry_equiv_pos_site_id
 _symmetry_equiv_pos_as_xyz
  1  'x, y, z'
loop_
 _atom_site_type_symbol
 _atom_site_label
 _atom_site_symmetry_multiplicity
 _atom_site_fract_x
 _atom_site_fract_y
 _atom_site_fract_z
 _atom_site_occupancy
  Te  Te0  1  0.09968100  0.09968100  0.70095698  1
  Te  Te1  1  0.70005900  0.70005903  0.89982297  1
  In  In2  1  0.29994100  0.29994101  0.10017699  1
  In  In3  1  0.90031899  0.90031903  0.29904298  1
  In  In4  1  0.50000000  0.50000002  0.49999998  1
  Te  Te5  1  0.59985000  0.59985002  0.20044999  1
  In  In6  1  0.40015000  0.40015001  0.79954998  1
  Te  Te7  1  0.00000000  0.00000000  0.00000000  1
  Te  Te8  1  0.20064200  0.20064201  0.39807399  1
  Te  Te9  1  0.79935799  0.79935803  0.60192598  1
