# generated using pymatgen
data_Rb4NaNb(SbS5)2
_symmetry_space_group_name_H-M   'P 1'
_cell_length_a   7.39393187
_cell_length_b   8.74877071
_cell_length_c   9.51705360
_cell_angle_alpha   103.45969391
_cell_angle_beta   103.15644073
_cell_angle_gamma   107.33153534
_symmetry_Int_Tables_number   1
_chemical_formula_structural   Rb4NaNb(SbS5)2
_chemical_formula_sum   'Rb4 Na1 Nb1 Sb2 S10'
_cell_volume   541.51813367
_cell_formula_units_Z   1
loop_
 _symmetry_equiv_pos_site_id
 _symmetry_equiv_pos_as_xyz
  1  'x, y, z'
loop_
 _atom_site_type_symbol
 _atom_site_label
 _atom_site_symmetry_multiplicity
 _atom_site_fract_x
 _atom_site_fract_y
 _atom_site_fract_z
 _atom_site_occupancy
  Rb  Rb0  1  0.63311194  0.97776298  0.28799199  1
  Rb  Rb1  1  0.36688800  0.02223700  0.71200801  1
  Rb  Rb2  1  0.34429897  0.51135599  0.70791801  1
  Rb  Rb3  1  0.65570098  0.48864399  0.29208199  1
  Sb  Sb4  1  0.99808296  0.72999999  0.99858900  1
  Na  Na5  1  0.00191698  0.27000000  0.00141100  1
  Nb  Nb6  1  0.80629095  0.87230199  0.68836800  1
  Sb  Sb7  1  0.19370899  0.12769800  0.31163200  1
  S  S8  1  0.98770597  0.68189499  0.68706099  1
  S  S9  1  0.01229398  0.31810499  0.31293901  1
  S  S10  1  0.98409100  0.15526800  0.68894399  1
  S  S11  1  0.01590895  0.84473199  0.31105601  1
  S  S12  1  0.71531695  0.90978699  0.92888101  1
  S  S13  1  0.28468300  0.09021300  0.07111899  1
  S  S14  1  0.70843198  0.41216799  0.94535400  1
  S  S15  1  0.29156796  0.58783199  0.05464600  1
  S  S16  1  0.48855996  0.74196999  0.49254300  1
  S  S17  1  0.51143999  0.25803000  0.50745700  1
