# generated using pymatgen
data_Sc16Al3Si
_symmetry_space_group_name_H-M   'P 1'
_cell_length_a   5.99211979
_cell_length_b   7.05846024
_cell_length_c   10.48788357
_cell_angle_alpha   90.00000000
_cell_angle_beta   106.59882355
_cell_angle_gamma   90.00000000
_symmetry_Int_Tables_number   1
_chemical_formula_structural   Sc16Al3Si
_chemical_formula_sum   'Sc16 Al3 Si1'
_cell_volume   425.10155487
_cell_formula_units_Z   1
loop_
 _symmetry_equiv_pos_site_id
 _symmetry_equiv_pos_as_xyz
  1  'x, y, z'
loop_
 _atom_site_type_symbol
 _atom_site_label
 _atom_site_symmetry_multiplicity
 _atom_site_fract_x
 _atom_site_fract_y
 _atom_site_fract_z
 _atom_site_occupancy
  Si  Si0  1  0.08080600  0.95194697  0.16161200  1
  Al  Al1  1  0.58669802  0.74999997  0.67339599  1
  Sc  Sc2  1  0.91330203  0.24999999  0.32660399  1
  Al  Al3  1  0.41330201  0.24999999  0.32660400  1
  Al  Al4  1  0.58080602  0.54805298  0.16161200  1
  Sc  Sc5  1  0.08669800  0.74999997  0.67339599  1
  Sc  Sc6  1  0.91919403  0.04805300  0.83838799  1
  Sc  Sc7  1  0.41919401  0.45194698  0.83838799  1
  Sc  Sc8  1  0.22460501  0.92705097  0.44921000  1
  Sc  Sc9  1  0.87797103  0.42595399  0.75594199  1
  Sc  Sc10  1  0.72460502  0.57294898  0.44920999  1
  Sc  Sc11  1  0.27539501  0.42705099  0.55078999  1
  Sc  Sc12  1  0.77069503  0.24999999  0.04139000  1
  Sc  Sc13  1  0.12202900  0.57404598  0.24405800  1
  Sc  Sc14  1  0.37797101  0.07404600  0.75594199  1
  Sc  Sc15  1  0.72930502  0.74999997  0.95860999  1
  Sc  Sc16  1  0.77539503  0.07294900  0.55078999  1
  Sc  Sc17  1  0.27069501  0.24999999  0.04139000  1
  Sc  Sc18  1  0.22930501  0.74999997  0.95860999  1
  Sc  Sc19  1  0.62202902  0.92595397  0.24405800  1
