# generated using pymatgen
data_K5Zn4Cl8O3
_symmetry_space_group_name_H-M   'P 1'
_cell_length_a   6.63060713
_cell_length_b   7.73139715
_cell_length_c   9.45361328
_cell_angle_alpha   90.00000000
_cell_angle_beta   91.46633148
_cell_angle_gamma   90.00000000
_symmetry_Int_Tables_number   1
_chemical_formula_structural   K5Zn4Cl8O3
_chemical_formula_sum   'K5 Zn4 Cl8 O3'
_cell_volume   484.46998091
_cell_formula_units_Z   1
loop_
 _symmetry_equiv_pos_site_id
 _symmetry_equiv_pos_as_xyz
  1  'x, y, z'
loop_
 _atom_site_type_symbol
 _atom_site_label
 _atom_site_symmetry_multiplicity
 _atom_site_fract_x
 _atom_site_fract_y
 _atom_site_fract_z
 _atom_site_occupancy
  K  K0  1  0.96190598  0.35819499  0.22340097  1
  K  K1  1  0.53809399  0.85819498  0.27659899  1
  K  K2  1  0.03809400  0.64180499  0.77659904  1
  K  K3  1  0.46190599  0.14180500  0.72340102  1
  Zn  Zn4  1  0.44351699  0.39589099  0.07118598  1
  Zn  Zn5  1  0.05648300  0.89589098  0.42881402  1
  Zn  Zn6  1  0.55648299  0.60410899  0.92881402  1
  Zn  Zn7  1  0.94351698  0.10410900  0.57118599  1
  O  O8  1  0.40171599  0.50300399  0.26439200  1
  O  O9  1  0.09828400  0.00300400  0.23560801  1
  Cl  Cl10  1  0.59828399  0.49699599  0.73560801  1
  K  K11  1  0.90171598  0.99699598  0.76439200  1
  Cl  Cl12  1  0.17969500  0.31570399  0.97396704  1
  Cl  Cl13  1  0.32030499  0.81570398  0.52603301  1
  Cl  Cl14  1  0.82030498  0.68429599  0.02603297  1
  Cl  Cl15  1  0.67969499  0.18429600  0.47396699  1
  O  O16  1  0.65210199  0.20350700  0.06357898  1
  Cl  Cl17  1  0.84789798  0.70350699  0.43642099  1
  Cl  Cl18  1  0.34789799  0.79649298  0.93642103  1
  Cl  Cl19  1  0.15210200  0.29649299  0.56357902  1
