# generated using pymatgen
data_SbHO3
_symmetry_space_group_name_H-M   'P 1'
_cell_length_a   7.33924770
_cell_length_b   7.33924770
_cell_length_c   7.34017563
_cell_angle_alpha   117.55942535
_cell_angle_beta   117.55942535
_cell_angle_gamma   94.27515411
_symmetry_Int_Tables_number   1
_chemical_formula_structural   SbHO3
_chemical_formula_sum   'Sb4 H4 O12'
_cell_volume   289.03092347
_cell_formula_units_Z   4
loop_
 _symmetry_equiv_pos_site_id
 _symmetry_equiv_pos_as_xyz
  1  'x, y, z'
loop_
 _atom_site_type_symbol
 _atom_site_label
 _atom_site_symmetry_multiplicity
 _atom_site_fract_x
 _atom_site_fract_y
 _atom_site_fract_z
 _atom_site_occupancy
  Sb  Sb0  1  0.25303199  0.00360200  0.50842999  1
  Sb  Sb1  1  0.75482797  0.00539800  0.00842997  1
  Sb  Sb2  1  0.25539800  0.50482799  0.50842998  1
  Sb  Sb3  1  0.25360199  0.00303200  0.00842999  1
  H  H4  1  0.51196799  0.41431499  0.34950597  1
  H  H5  1  0.83753798  0.93518997  0.34950595  1
  H  H6  1  0.18519000  0.58753798  0.84950497  1
  H  H7  1  0.66431498  0.26196799  0.84950497  1
  O  O8  1  0.35205699  0.34307399  0.26469498  1
  O  O9  1  0.91263798  0.92162097  0.26469494  1
  O  O10  1  0.94251098  0.94251097  0.88502194  1
  O  O11  1  0.32068699  0.32068699  0.64137398  1
  O  O12  1  0.31049800  0.93210097  0.25254897  1
  O  O13  1  0.94205097  0.32044799  0.25254896  1
  O  O14  1  0.17162100  0.66263798  0.76469497  1
  O  O15  1  0.59307398  0.10205700  0.76469497  1
  O  O16  1  0.57068698  0.07068700  0.14137398  1
  O  O17  1  0.19251100  0.69251098  0.38502197  1
  O  O18  1  0.18210099  0.06049800  0.75254899  1
  O  O19  1  0.57044799  0.69205098  0.75254896  1
