# generated using pymatgen
data_CeMg2Sn16Pd
_symmetry_space_group_name_H-M   'P 1'
_cell_length_a   7.64016294
_cell_length_b   8.25350380
_cell_length_c   8.25350380
_cell_angle_alpha   90.00000000
_cell_angle_beta   90.00000000
_cell_angle_gamma   90.00000000
_symmetry_Int_Tables_number   1
_chemical_formula_structural   CeMg2Sn16Pd
_chemical_formula_sum   'Ce1 Mg2 Sn16 Pd1'
_cell_volume   520.45038260
_cell_formula_units_Z   1
loop_
 _symmetry_equiv_pos_site_id
 _symmetry_equiv_pos_as_xyz
  1  'x, y, z'
loop_
 _atom_site_type_symbol
 _atom_site_label
 _atom_site_symmetry_multiplicity
 _atom_site_fract_x
 _atom_site_fract_y
 _atom_site_fract_z
 _atom_site_occupancy
  Ce  Ce0  1  0.25000000  0.50000001  -0.00000000  1
  Sn  Sn1  1  0.75000001  0.50000001  -0.00000000  1
  Sn  Sn2  1  0.25000000  0.00000000  0.50000001  1
  Sn  Sn3  1  0.75000001  0.00000000  0.50000001  1
  Sn  Sn4  1  0.00000000  0.34782301  0.34782301  1
  Sn  Sn5  1  0.50000000  0.84782302  0.15217700  1
  Sn  Sn6  1  0.50000000  0.15217700  0.84782302  1
  Sn  Sn7  1  0.00000000  0.65217702  0.65217702  1
  Sn  Sn8  1  0.00000000  0.79940502  0.20059500  1
  Mg  Mg9  1  0.50000000  0.70059502  0.70059502  1
  Mg  Mg10  1  0.50000000  0.29940501  0.29940501  1
  Sn  Sn11  1  0.00000000  0.20059500  0.79940502  1
  Sn  Sn12  1  0.19753800  0.11883300  0.11883300  1
  Sn  Sn13  1  0.69753801  0.61883302  0.38116701  1
  Pd  Pd14  1  0.69753801  0.38116701  0.61883302  1
  Sn  Sn15  1  0.19753800  0.88116702  0.88116702  1
  Sn  Sn16  1  0.30246200  0.38116701  0.61883302  1
  Sn  Sn17  1  0.30246200  0.61883302  0.38116701  1
  Sn  Sn18  1  0.80246201  0.11883300  0.11883300  1
  Sn  Sn19  1  0.80246201  0.88116702  0.88116702  1
