# generated using pymatgen
data_BaSr3Ce2(Se5S)2
_symmetry_space_group_name_H-M   'P 1'
_cell_length_a   5.54936123
_cell_length_b   5.54936123
_cell_length_c   16.18872452
_cell_angle_alpha   90.00000000
_cell_angle_beta   90.00000000
_cell_angle_gamma   90.00000000
_symmetry_Int_Tables_number   1
_chemical_formula_structural   BaSr3Ce2(Se5S)2
_chemical_formula_sum   'Ba1 Sr3 Ce2 Se10 S2'
_cell_volume   498.53840970
_cell_formula_units_Z   1
loop_
 _symmetry_equiv_pos_site_id
 _symmetry_equiv_pos_as_xyz
  1  'x, y, z'
loop_
 _atom_site_type_symbol
 _atom_site_label
 _atom_site_symmetry_multiplicity
 _atom_site_fract_x
 _atom_site_fract_y
 _atom_site_fract_z
 _atom_site_occupancy
  Sr  Sr0  1  0.00000000  0.00000000  0.13659800  1
  Ba  Ba1  1  0.49999998  0.49999998  0.63659802  1
  Sr  Sr2  1  0.49999998  0.49999998  0.36340201  1
  Sr  Sr3  1  0.00000000  0.00000000  0.86340203  1
  Ce  Ce4  1  0.00000000  0.00000000  0.50000001  1
  Ce  Ce5  1  0.49999998  0.49999998  -0.00000000  1
  Se  Se6  1  0.31150499  0.49999998  0.16752200  1
  S  S7  1  0.68849497  0.49999998  0.16752200  1
  Se  Se8  1  0.00000000  0.81150497  0.66752202  1
  Se  Se9  1  0.00000000  0.18849499  0.66752202  1
  Se  Se10  1  0.18849499  0.00000000  0.33247801  1
  Se  Se11  1  0.81150497  0.00000000  0.33247801  1
  S  S12  1  0.49999998  0.68849497  0.83247802  1
  Se  Se13  1  0.49999998  0.31150499  0.83247802  1
  Se  Se14  1  0.00000000  0.49999998  0.97367103  1
  Se  Se15  1  0.00000000  0.49999998  0.47367101  1
  Se  Se16  1  0.49999998  0.00000000  0.52632902  1
  Se  Se17  1  0.49999998  0.00000000  0.02632900  1
