# generated using pymatgen
data_Tm2Ge5
_symmetry_space_group_name_H-M   'P 1'
_cell_length_a   4.04043388
_cell_length_b   5.49456644
_cell_length_c   6.62936115
_cell_angle_alpha   100.25240326
_cell_angle_beta   90.00000000
_cell_angle_gamma   111.57232666
_symmetry_Int_Tables_number   1
_chemical_formula_structural   Tm2Ge5
_chemical_formula_sum   'Tm2 Ge5'
_cell_volume   134.33559691
_cell_formula_units_Z   1
loop_
 _symmetry_equiv_pos_site_id
 _symmetry_equiv_pos_as_xyz
  1  'x, y, z'
loop_
 _atom_site_type_symbol
 _atom_site_label
 _atom_site_symmetry_multiplicity
 _atom_site_fract_x
 _atom_site_fract_y
 _atom_site_fract_z
 _atom_site_occupancy
  Tm  Tm0  1  0.38023103  0.76046199  0.67728298  1
  Tm  Tm1  1  0.61976902  0.23953800  0.32271700  1
  Ge  Ge2  1  0.69459603  0.38919200  0.86647199  1
  Ge  Ge3  1  0.00000000  0.00000000  0.00000000  1
  Ge  Ge4  1  0.30540402  0.61080799  0.13352799  1
  Ge  Ge5  1  0.90699504  0.81398999  0.35978898  1
  Ge  Ge6  1  0.09300501  0.18601000  0.64021100  1
