# generated using pymatgen
data_NaLiMn7O9
_symmetry_space_group_name_H-M   'P 1'
_cell_length_a   3.98818803
_cell_length_b   7.72200203
_cell_length_c   7.72200203
_cell_angle_alpha   90.00000000
_cell_angle_beta   90.00000000
_cell_angle_gamma   90.00000000
_symmetry_Int_Tables_number   1
_chemical_formula_structural   NaLiMn7O9
_chemical_formula_sum   'Na1 Li1 Mn7 O9'
_cell_volume   237.81292159
_cell_formula_units_Z   1
loop_
 _symmetry_equiv_pos_site_id
 _symmetry_equiv_pos_as_xyz
  1  'x, y, z'
loop_
 _atom_site_type_symbol
 _atom_site_label
 _atom_site_symmetry_multiplicity
 _atom_site_fract_x
 _atom_site_fract_y
 _atom_site_fract_z
 _atom_site_occupancy
  Na  Na0  1  0.25000000  0.25000000  0.25000000  1
  O  O1  1  0.74999999  0.75000000  0.75000000  1
  O  O2  1  0.35786500  0.90852300  0.02950500  1
  O  O3  1  0.35786500  0.59147700  0.47049500  1
  O  O4  1  0.85786499  0.52950500  0.09147700  1
  O  O5  1  0.85786499  0.97049500  0.40852300  1
  O  O6  1  0.64213500  0.09147700  0.97049500  1
  O  O7  1  0.64213500  0.40852300  0.52950500  1
  O  O8  1  0.14213500  0.47049500  0.90852300  1
  O  O9  1  0.14213500  0.02950500  0.59147700  1
  Mn  Mn10  1  0.14173500  0.40896000  0.64076400  1
  Mn  Mn11  1  0.14173500  0.09104000  0.85923600  1
  Mn  Mn12  1  0.64173500  0.14076400  0.59104000  1
  Mn  Mn13  1  0.64173500  0.35923600  0.90896000  1
  Li  Li14  1  0.85826499  0.59104000  0.35923600  1
  Mn  Mn15  1  0.85826499  0.90896000  0.14076400  1
  Mn  Mn16  1  0.35826500  0.85923600  0.40896000  1
  Mn  Mn17  1  0.35826500  0.64076400  0.09104000  1
