# generated using pymatgen
data_SrCeMn3(CBr2)2
_symmetry_space_group_name_H-M   'P 1'
_cell_length_a   5.60876799
_cell_length_b   5.60876799
_cell_length_c   8.46275043
_cell_angle_alpha   109.35253906
_cell_angle_beta   109.35253906
_cell_angle_gamma   90.00000000
_symmetry_Int_Tables_number   1
_chemical_formula_structural   SrCeMn3(CBr2)2
_chemical_formula_sum   'Sr1 Ce1 Mn3 C2 Br4'
_cell_volume   235.17879196
_cell_formula_units_Z   1
loop_
 _symmetry_equiv_pos_site_id
 _symmetry_equiv_pos_as_xyz
  1  'x, y, z'
loop_
 _atom_site_type_symbol
 _atom_site_label
 _atom_site_symmetry_multiplicity
 _atom_site_fract_x
 _atom_site_fract_y
 _atom_site_fract_z
 _atom_site_occupancy
  Sr  Sr0  1  0.63139597  0.63139599  0.26279196  1
  Ce  Ce1  1  0.36860399  0.36860399  0.73720798  1
  Mn  Mn2  1  0.50000000  0.00000000  -0.00000001  1
  Mn  Mn3  1  -0.00000001  0.49999999  -0.00000002  1
  Mn  Mn4  1  0.00000000  0.00000000  0.00000000  1
  Br  Br5  1  0.24999998  0.74999999  0.49999997  1
  Br  Br6  1  0.74999999  0.25000000  0.49999997  1
  C  C7  1  0.24098199  0.24098200  -0.00000001  1
  C  C8  1  0.75901799  0.24098200  -0.00000003  1
  Br  Br9  1  0.24098198  0.75901799  0.99999997  1
  Br  Br10  1  0.75901797  0.75901799  0.99999996  1
