# generated using pymatgen
data_ScMnSi
_symmetry_space_group_name_H-M   'P 1'
_cell_length_a   4.34670877
_cell_length_b   6.50739622
_cell_length_c   7.53189516
_cell_angle_alpha   90.00000000
_cell_angle_beta   90.00000000
_cell_angle_gamma   90.00000000
_symmetry_Int_Tables_number   1
_chemical_formula_structural   ScMnSi
_chemical_formula_sum   'Sc4 Mn4 Si4'
_cell_volume   213.04535065
_cell_formula_units_Z   4
loop_
 _symmetry_equiv_pos_site_id
 _symmetry_equiv_pos_as_xyz
  1  'x, y, z'
loop_
 _atom_site_type_symbol
 _atom_site_label
 _atom_site_symmetry_multiplicity
 _atom_site_fract_x
 _atom_site_fract_y
 _atom_site_fract_z
 _atom_site_occupancy
  Sc  Sc0  1  0.25000001  0.02299500  0.31281599  1
  Sc  Sc1  1  0.25000001  0.52299498  0.18718400  1
  Sc  Sc2  1  0.75000004  0.97700497  0.68718399  1
  Sc  Sc3  1  0.75000004  0.47700498  0.81281598  1
  Mn  Mn4  1  0.25000001  0.16062499  0.93675598  1
  Mn  Mn5  1  0.25000001  0.66062498  0.56324399  1
  Mn  Mn6  1  0.75000004  0.83937497  0.06324400  1
  Mn  Mn7  1  0.75000004  0.33937499  0.43675599  1
  Si  Si8  1  0.25000001  0.26218599  0.61167599  1
  Si  Si9  1  0.25000001  0.76218597  0.88832398  1
  Si  Si10  1  0.75000004  0.73781397  0.38832399  1
  Si  Si11  1  0.75000004  0.23781399  0.11167600  1
