# generated using pymatgen
data_Li3Yb3SmGe11
_symmetry_space_group_name_H-M   'P 1'
_cell_length_a   5.92380190
_cell_length_b   8.16197777
_cell_length_c   8.18593884
_cell_angle_alpha   90.00000000
_cell_angle_beta   90.00000000
_cell_angle_gamma   111.27779388
_symmetry_Int_Tables_number   1
_chemical_formula_structural   Li3Yb3SmGe11
_chemical_formula_sum   'Li3 Yb3 Sm1 Ge11'
_cell_volume   368.80943536
_cell_formula_units_Z   1
loop_
 _symmetry_equiv_pos_site_id
 _symmetry_equiv_pos_as_xyz
  1  'x, y, z'
loop_
 _atom_site_type_symbol
 _atom_site_label
 _atom_site_symmetry_multiplicity
 _atom_site_fract_x
 _atom_site_fract_y
 _atom_site_fract_z
 _atom_site_occupancy
  Sm  Sm0  1  0.38503203  0.77006404  0.07976600  1
  Yb  Yb1  1  0.61496802  0.22993601  0.92023402  1
  Yb  Yb2  1  0.11496801  0.22993601  0.57976601  1
  Yb  Yb3  1  0.88503203  0.77006404  0.42023401  1
  Ge  Ge4  1  0.50000001  0.00000000  0.50000001  1
  Ge  Ge5  1  0.00000000  0.00000000  0.00000000  1
  Li  Li6  1  0.46798102  0.43596202  0.25000001  1
  Li  Li7  1  0.03201901  0.56403803  0.75000002  1
  Li  Li8  1  0.53201902  0.56403803  0.75000002  1
  Ge  Ge9  1  0.96798103  0.43596202  0.25000001  1
  Ge  Ge10  1  0.29873401  0.09746801  0.25000001  1
  Ge  Ge11  1  0.20126603  0.90253205  0.75000002  1
  Ge  Ge12  1  0.70126603  0.90253205  0.75000002  1
  Ge  Ge13  1  0.79873402  0.09746801  0.25000001  1
  Ge  Ge14  1  0.31492602  0.62985203  0.44778801  1
  Ge  Ge15  1  0.68507402  0.37014802  0.55221201  1
  Ge  Ge16  1  0.18507401  0.37014802  0.94778802  1
  Ge  Ge17  1  0.81492603  0.62985203  0.05221200  1
