# generated using pymatgen
data_In4Cu2Te9Se
_symmetry_space_group_name_H-M   'P 1'
_cell_length_a   6.36689520
_cell_length_b   7.75946140
_cell_length_c   11.87592506
_cell_angle_alpha   77.63500977
_cell_angle_beta   74.44954681
_cell_angle_gamma   65.77292633
_symmetry_Int_Tables_number   1
_chemical_formula_structural   In4Cu2Te9Se
_chemical_formula_sum   'In4 Cu2 Te9 Se1'
_cell_volume   511.82169726
_cell_formula_units_Z   1
loop_
 _symmetry_equiv_pos_site_id
 _symmetry_equiv_pos_as_xyz
  1  'x, y, z'
loop_
 _atom_site_type_symbol
 _atom_site_label
 _atom_site_symmetry_multiplicity
 _atom_site_fract_x
 _atom_site_fract_y
 _atom_site_fract_z
 _atom_site_occupancy
  Te  Te0  1  0.25020603  0.37344599  0.12671597  1
  Te  Te1  1  0.24978008  0.87667799  0.62320993  1
  Te  Te2  1  0.49982301  0.24965800  0.74869295  1
  Te  Te3  1  0.50015706  0.75023599  0.25134995  1
  Se  Se4  1  0.75011000  0.12501700  0.37500696  1
  Te  Te5  1  0.99869298  0.00027400  0.00093998  1
  Te  Te6  1  0.00129605  0.49973299  0.49907696  1
  Te  Te7  1  0.74994805  0.62503899  0.87499892  1
  In  In8  1  0.35554506  0.70792999  0.05446096  1
  Cu  Cu9  1  0.37546201  0.20469200  0.54467096  1
  In  In10  1  0.87490902  0.41936699  0.32976795  1
  Te  Te11  1  0.88247507  0.93588199  0.82705091  1
  Te  Te12  1  0.10944303  0.29637600  0.94091295  1
  Cu  Cu13  1  0.08890608  0.81296899  0.43775595  1
  In  In14  1  0.65371904  0.55983899  0.67753494  1
  In  In15  1  0.65952899  0.06286300  0.18785398  1
