# generated using pymatgen
data_Sr4Mn3AlO12
_symmetry_space_group_name_H-M   'P 1'
_cell_length_a   5.49019575
_cell_length_b   6.73615932
_cell_length_c   6.73608589
_cell_angle_alpha   70.94369507
_cell_angle_beta   89.99983978
_cell_angle_gamma   89.99985504
_symmetry_Int_Tables_number   1
_chemical_formula_structural   Sr4Mn3AlO12
_chemical_formula_sum   'Sr4 Mn3 Al1 O12'
_cell_volume   235.46733766
_cell_formula_units_Z   1
loop_
 _symmetry_equiv_pos_site_id
 _symmetry_equiv_pos_as_xyz
  1  'x, y, z'
loop_
 _atom_site_type_symbol
 _atom_site_label
 _atom_site_symmetry_multiplicity
 _atom_site_fract_x
 _atom_site_fract_y
 _atom_site_fract_z
 _atom_site_occupancy
  Sr  Sr0  1  0.50003499  0.25358401  0.74804599  1
  Sr  Sr1  1  0.00001002  0.99219005  0.50159097  1
  Sr  Sr2  1  0.50003499  0.74801703  0.25358695  1
  Sr  Sr3  1  0.00001101  0.50158202  0.99221001  1
  Mn  Mn4  1  0.00006001  0.49929102  0.49929300  1
  Al  Al5  1  0.49999499  0.24849001  0.24866297  1
  Mn  Mn6  1  0.00016802  0.99300605  0.99300999  1
  Mn  Mn7  1  0.50010799  0.74941003  0.74945497  1
  O  O8  1  0.26328600  0.36655102  0.36654498  1
  O  O9  1  0.74135097  0.12926301  0.12923296  1
  O  O10  1  0.25143900  0.88039704  0.88037698  1
  O  O11  1  0.74617498  0.62861803  0.62858195  1
  O  O12  1  0.99996297  0.25743401  0.73835796  1
  O  O13  1  0.49989200  0.98778605  0.52114295  1
  O  O14  1  0.99995797  0.73837503  0.25741992  1
  O  O15  1  0.49989699  0.52118302  0.98776698  1
  O  O16  1  0.25370200  0.62866503  0.62862898  1
  O  O17  1  0.73684998  0.36653802  0.36652796  1
  O  O18  1  0.25853299  0.12927601  0.12924299  1
  O  O19  1  0.74853399  0.88034304  0.88032095  1
