# generated using pymatgen
data_LaSiNi
_symmetry_space_group_name_H-M   'P 1'
_cell_length_a   4.17024708
_cell_length_b   8.27306175
_cell_length_c   8.31209183
_cell_angle_alpha   119.84479523
_cell_angle_beta   90.00000000
_cell_angle_gamma   90.00000000
_symmetry_Int_Tables_number   1
_chemical_formula_structural   LaSiNi
_chemical_formula_sum   'La4 Si4 Ni4'
_cell_volume   248.74027365
_cell_formula_units_Z   4
loop_
 _symmetry_equiv_pos_site_id
 _symmetry_equiv_pos_as_xyz
  1  'x, y, z'
loop_
 _atom_site_type_symbol
 _atom_site_label
 _atom_site_symmetry_multiplicity
 _atom_site_fract_x
 _atom_site_fract_y
 _atom_site_fract_z
 _atom_site_occupancy
  La  La0  1  0.49999999  0.00003000  0.99999996  1
  La  La1  1  0.49999999  0.50165102  0.50160498  1
  La  La2  1  0.49999999  0.49830302  0.99999996  1
  La  La3  1  0.49999999  0.00004600  0.49839498  1
  Ni  Ni4  1  0.00000000  0.33364302  0.66727097  1
  Si  Si5  1  0.00000000  0.66637203  0.33272899  1
  Si  Si6  1  0.00000000  0.17334801  0.34567499  1
  Si  Si7  1  0.00000000  0.65420703  0.82816197  1
  Si  Si8  1  0.00000000  0.17294801  0.82711397  1
  Ni  Ni9  1  0.00000000  0.82767304  0.65432498  1
  Ni  Ni10  1  0.00000000  0.82604504  0.17183800  1
  Ni  Ni11  1  -0.00000000  0.34583402  0.17288599  1
