# generated using pymatgen
data_La2(B3Rh2)3
_symmetry_space_group_name_H-M   'P 1'
_cell_length_a   5.64325571
_cell_length_b   5.64325571
_cell_length_c   8.59962654
_cell_angle_alpha   90.01001740
_cell_angle_beta   90.01001740
_cell_angle_gamma   119.94876099
_symmetry_Int_Tables_number   1
_chemical_formula_structural   La2(B3Rh2)3
_chemical_formula_sum   'La2 B9 Rh6'
_cell_volume   237.29777098
_cell_formula_units_Z   1
loop_
 _symmetry_equiv_pos_site_id
 _symmetry_equiv_pos_as_xyz
  1  'x, y, z'
loop_
 _atom_site_type_symbol
 _atom_site_label
 _atom_site_symmetry_multiplicity
 _atom_site_fract_x
 _atom_site_fract_y
 _atom_site_fract_z
 _atom_site_occupancy
  La  La0  1  0.00048500  0.00048500  0.70328096  1
  La  La1  1  0.99976598  0.99976598  0.29903793  1
  Rh  Rh2  1  0.66650999  0.33345899  0.99994192  1
  Rh  Rh3  1  0.33345900  0.66650999  0.99994192  1
  Rh  Rh4  1  0.66651599  0.33341899  0.66704094  1
  Rh  Rh5  1  0.33341900  0.66651599  0.66704093  1
  Rh  Rh6  1  0.33331800  0.66642299  0.33229695  1
  Rh  Rh7  1  0.66643832  0.33333333  0.33229696  1
  B  B8  1  0.50025899  0.50025899  0.83648093  1
  B  B9  1  0.50022799  0.00024900  0.83640995  1
  B  B10  1  0.00024900  0.50022799  0.83640994  1
  B  B11  1  0.49991199  0.49991199  0.16333797  1
  B  B12  1  0.49985199  0.99980898  0.16342695  1
  B  B13  1  0.99980898  0.49985199  0.16342696  1
  B  B14  1  0.49996599  0.49996599  0.49987795  1
  B  B15  1  0.49997399  0.99995398  0.49987493  1
  B  B16  1  0.99995398  0.49997399  0.49987494  1
