# generated using pymatgen
data_Ba4BiO9
_symmetry_space_group_name_H-M   'P 1'
_cell_length_a   6.95886230
_cell_length_b   6.95886230
_cell_length_c   6.95886230
_cell_angle_alpha   109.47122192
_cell_angle_beta   109.47122192
_cell_angle_gamma   109.47122192
_symmetry_Int_Tables_number   1
_chemical_formula_structural   Ba4BiO9
_chemical_formula_sum   'Ba4 Bi1 O9'
_cell_volume   259.41364624
_cell_formula_units_Z   1
loop_
 _symmetry_equiv_pos_site_id
 _symmetry_equiv_pos_as_xyz
  1  'x, y, z'
loop_
 _atom_site_type_symbol
 _atom_site_label
 _atom_site_symmetry_multiplicity
 _atom_site_fract_x
 _atom_site_fract_y
 _atom_site_fract_z
 _atom_site_occupancy
  O  O0  1  0.48231305  0.73231302  0.75000005  1
  O  O1  1  0.01768705  0.76768703  0.25000004  1
  O  O2  1  0.25000003  0.48231302  0.23231303  1
  O  O3  1  0.76768705  0.75000002  0.51768706  1
  O  O4  1  0.75000000  0.01768700  0.26768702  1
  O  O5  1  0.73231302  0.25000001  0.98231303  1
  Ba  Ba6  1  0.99164100  0.00000000  0.00000002  1
  Ba  Ba7  1  0.50835903  0.50835902  0.00835904  1
  Ba  Ba8  1  0.00000003  0.50000002  0.49164102  1
  Ba  Ba9  1  0.50000006  0.99164103  0.50000006  1
  O  O10  1  0.00000003  0.50000002  0.95969002  1
  O  O11  1  0.04031000  0.04031000  0.54031000  1
  Bi  Bi12  1  0.50000003  0.45969002  0.50000003  1
  O  O13  1  0.45969000  0.00000000  0.00000001  1
