# generated using pymatgen
data_RbLa2Br5
_symmetry_space_group_name_H-M   'P 1'
_cell_length_a   8.57038975
_cell_length_b   9.78464890
_cell_length_c   8.57038975
_cell_angle_alpha   64.02679443
_cell_angle_beta   90.00000000
_cell_angle_gamma   115.97320557
_symmetry_Int_Tables_number   1
_chemical_formula_structural   RbLa2Br5
_chemical_formula_sum   'Rb2 La4 Br10'
_cell_volume   564.25716703
_cell_formula_units_Z   2
loop_
 _symmetry_equiv_pos_site_id
 _symmetry_equiv_pos_as_xyz
  1  'x, y, z'
loop_
 _atom_site_type_symbol
 _atom_site_label
 _atom_site_symmetry_multiplicity
 _atom_site_fract_x
 _atom_site_fract_y
 _atom_site_fract_z
 _atom_site_occupancy
  Rb  Rb0  1  0.75000000  0.50000000  0.25000003  1
  Rb  Rb1  1  0.24999998  0.50000000  0.75000004  1
  La  La2  1  0.66722602  0.00000000  0.83277402  1
  La  La3  1  0.16722596  0.99999901  0.66722706  1
  La  La4  1  0.33277401  0.00000000  0.16722600  1
  La  La5  1  0.83277402  0.00000100  0.33277301  1
  Br  Br6  1  0.21506897  0.74046001  0.97460906  1
  Br  Br7  1  0.47461000  0.25954200  0.71506803  1
  Br  Br8  1  0.50000001  0.00000000  0.50000001  1
  Br  Br9  1  0.00000000  0.00000000  0.00000000  1
  Br  Br10  1  0.78493201  0.25954200  0.02539001  1
  Br  Br11  1  0.28493200  0.25954200  0.21506802  1
  Br  Br12  1  0.97461002  0.25954200  0.52539003  1
  Br  Br13  1  0.71506799  0.74045801  0.78493206  1
  Br  Br14  1  0.52538998  0.74045801  0.28493204  1
  Br  Br15  1  0.02538997  0.74045901  0.47461005  1
