# generated using pymatgen
data_Sm2CdAu2
_symmetry_space_group_name_H-M   'P 1'
_cell_length_a   4.32625580
_cell_length_b   7.43016195
_cell_length_c   7.43016195
_cell_angle_alpha   90.00000000
_cell_angle_beta   90.00000000
_cell_angle_gamma   90.00000000
_symmetry_Int_Tables_number   1
_chemical_formula_structural   Sm2CdAu2
_chemical_formula_sum   'Sm4 Cd2 Au4'
_cell_volume   238.84093049
_cell_formula_units_Z   2
loop_
 _symmetry_equiv_pos_site_id
 _symmetry_equiv_pos_as_xyz
  1  'x, y, z'
loop_
 _atom_site_type_symbol
 _atom_site_label
 _atom_site_symmetry_multiplicity
 _atom_site_fract_x
 _atom_site_fract_y
 _atom_site_fract_z
 _atom_site_occupancy
  Sm  Sm0  1  0.50000002  0.67838400  0.17838400  1
  Sm  Sm1  1  0.50000002  0.32161600  0.82161601  1
  Sm  Sm2  1  0.50000002  0.17838400  0.32161600  1
  Sm  Sm3  1  0.50000002  0.82161601  0.67838400  1
  Cd  Cd4  1  0.00000000  0.50000000  0.50000000  1
  Cd  Cd5  1  0.00000000  0.00000000  0.00000000  1
  Au  Au6  1  0.00000000  0.12111000  0.62111000  1
  Au  Au7  1  1.00000005  0.87889001  0.37889000  1
  Au  Au8  1  0.00000000  0.62111000  0.87889001  1
  Au  Au9  1  0.00000000  0.37889000  0.12111000  1
