# generated using pymatgen
data_Ni
_symmetry_space_group_name_H-M   'P 1'
_cell_length_a   3.97279406
_cell_length_b   4.97646999
_cell_length_c   4.97647047
_cell_angle_alpha   60.00000381
_cell_angle_beta   90.00000000
_cell_angle_gamma   90.00000000
_symmetry_Int_Tables_number   1
_chemical_formula_structural   Ni
_chemical_formula_sum   Ni8
_cell_volume   85.20587133
_cell_formula_units_Z   8
loop_
 _symmetry_equiv_pos_site_id
 _symmetry_equiv_pos_as_xyz
  1  'x, y, z'
loop_
 _atom_site_type_symbol
 _atom_site_label
 _atom_site_symmetry_multiplicity
 _atom_site_fract_x
 _atom_site_fract_y
 _atom_site_fract_z
 _atom_site_occupancy
  Ni  Ni0  1  0.74999999  0.83252800  0.33494401  1
  Ni  Ni1  1  0.74999999  0.33494400  0.83252801  1
  Ni  Ni2  1  0.74999999  0.83252800  0.83252801  1
  Ni  Ni3  1  0.25000000  0.16747200  0.66505600  1
  Ni  Ni4  1  0.25000000  0.66505600  0.16747201  1
  Ni  Ni5  1  0.25000000  0.16747200  0.16747200  1
  Ni  Ni6  1  0.74999999  0.33333333  0.33333334  1
  Ni  Ni7  1  0.25000000  0.66666666  0.66666668  1
