# generated using pymatgen
data_LiMn8O11
_symmetry_space_group_name_H-M   'P 1'
_cell_length_a   5.22968483
_cell_length_b   5.64723301
_cell_length_c   7.66800928
_cell_angle_alpha   95.61978149
_cell_angle_beta   89.97786713
_cell_angle_gamma   89.78688812
_symmetry_Int_Tables_number   1
_chemical_formula_structural   LiMn8O11
_chemical_formula_sum   'Li1 Mn8 O11'
_cell_volume   225.37115090
_cell_formula_units_Z   1
loop_
 _symmetry_equiv_pos_site_id
 _symmetry_equiv_pos_as_xyz
  1  'x, y, z'
loop_
 _atom_site_type_symbol
 _atom_site_label
 _atom_site_symmetry_multiplicity
 _atom_site_fract_x
 _atom_site_fract_y
 _atom_site_fract_z
 _atom_site_occupancy
  Li  Li0  1  0.50322902  0.06738900  0.21552300  1
  Mn  Mn1  1  0.99945405  0.56496001  0.21454202  1
  Mn  Mn2  1  0.50020602  0.06437500  0.72056100  1
  Mn  Mn3  1  0.00766200  0.00194000  0.00431300  1
  Mn  Mn4  1  0.49671503  0.48561801  0.50424502  1
  Mn  Mn5  1  0.99709206  0.99369302  0.49686104  1
  Mn  Mn6  1  0.50480303  0.50182101  0.01072402  1
  Mn  Mn7  1  0.99879205  0.59929101  0.69960402  1
  O  O8  1  0.30624003  0.78433201  0.58647203  1
  O  O9  1  0.12783803  0.96273601  0.25965105  1
  O  O10  1  0.32015501  0.15183600  0.95539900  1
  O  O11  1  0.18584201  0.28620400  0.58675801  1
  O  O12  1  0.80351303  0.27785700  0.08039601  1
  O  O13  1  0.37410902  0.46311001  0.26189302  1
  O  O14  1  0.63542703  0.46048401  0.76505402  1
  Mn  Mn15  1  0.17745602  0.64696501  0.94908803  1
  O  O16  1  0.82248904  0.65561501  0.45418902  1
  O  O17  1  0.69606404  0.77822101  0.08548103  1
  O  O18  1  0.86566005  0.95525901  0.76300704  1
  O  O19  1  0.67725203  0.15749300  0.45664400  1
