# generated using pymatgen
data_Pm3Mg
_symmetry_space_group_name_H-M   'P 1'
_cell_length_a   5.56533003
_cell_length_b   7.11845398
_cell_length_c   7.11845398
_cell_angle_alpha   120.00000000
_cell_angle_beta   90.00000000
_cell_angle_gamma   90.00000000
_symmetry_Int_Tables_number   1
_chemical_formula_structural   Pm3Mg
_chemical_formula_sum   'Pm6 Mg2'
_cell_volume   244.22657472
_cell_formula_units_Z   2
loop_
 _symmetry_equiv_pos_site_id
 _symmetry_equiv_pos_as_xyz
  1  'x, y, z'
loop_
 _atom_site_type_symbol
 _atom_site_label
 _atom_site_symmetry_multiplicity
 _atom_site_fract_x
 _atom_site_fract_y
 _atom_site_fract_z
 _atom_site_occupancy
  Pm  Pm0  1  0.25000000  0.66666667  0.33333333  1
  Mg  Mg1  1  0.75000000  0.33333333  0.66666667  1
  Mg  Mg2  1  0.75000000  0.83477200  0.16522700  1
  Pm  Pm3  1  0.75000000  0.33045500  0.16522700  1
  Pm  Pm4  1  0.75000000  0.83477200  0.66954400  1
  Pm  Pm5  1  0.25000000  0.16522800  0.83477300  1
  Pm  Pm6  1  0.25000000  0.66954500  0.83477300  1
  Pm  Pm7  1  0.25000000  0.16522800  0.33045600  1
