# generated using pymatgen
data_Li4TaNiO6
_symmetry_space_group_name_H-M   'P 1'
_cell_length_a   5.25243998
_cell_length_b   5.25957441
_cell_length_c   5.26166725
_cell_angle_alpha   70.46780396
_cell_angle_beta   60.40181351
_cell_angle_gamma   80.44670868
_symmetry_Int_Tables_number   1
_chemical_formula_structural   Li4TaNiO6
_chemical_formula_sum   'Li4 Ta1 Ni1 O6'
_cell_volume   119.11591068
_cell_formula_units_Z   1
loop_
 _symmetry_equiv_pos_site_id
 _symmetry_equiv_pos_as_xyz
  1  'x, y, z'
loop_
 _atom_site_type_symbol
 _atom_site_label
 _atom_site_symmetry_multiplicity
 _atom_site_fract_x
 _atom_site_fract_y
 _atom_site_fract_z
 _atom_site_occupancy
  Li  Li0  1  0.81541803  0.99125602  0.85018806  1
  Li  Li1  1  0.18458200  0.00874400  0.14981200  1
  Li  Li2  1  0.50000000  0.00000000  0.50000001  1
  Li  Li3  1  0.50000002  0.50000001  0.00000003  1
  Ta  Ta4  1  0.84039401  0.49801201  0.33932403  1
  Ni  Ni5  1  0.15960602  0.50198801  0.66067602  1
  O  O6  1  0.15135202  0.72711301  0.93508303  1
  O  O7  1  0.84864801  0.27288700  0.06491702  1
  O  O8  1  0.49528202  0.73443201  0.27878504  1
  O  O9  1  0.16053401  0.25267400  0.42219801  1
  O  O10  1  0.83946602  0.74732601  0.57780205  1
  O  O11  1  0.50471801  0.26556800  0.72121502  1
