# generated using pymatgen
data_TmB2MoC2
_symmetry_space_group_name_H-M   'P 1'
_cell_length_a   3.06819797
_cell_length_b   3.06819773
_cell_length_c   6.35106087
_cell_angle_alpha   90.00000000
_cell_angle_beta   90.00000000
_cell_angle_gamma   120.00000763
_symmetry_Int_Tables_number   1
_chemical_formula_structural   TmB2MoC2
_chemical_formula_sum   'Tm1 B2 Mo1 C2'
_cell_volume   51.77780014
_cell_formula_units_Z   1
loop_
 _symmetry_equiv_pos_site_id
 _symmetry_equiv_pos_as_xyz
  1  'x, y, z'
loop_
 _atom_site_type_symbol
 _atom_site_label
 _atom_site_symmetry_multiplicity
 _atom_site_fract_x
 _atom_site_fract_y
 _atom_site_fract_z
 _atom_site_occupancy
  Tm  Tm0  1  0.00000000  0.00000000  0.00000000  1
  Mo  Mo1  1  0.00000000  0.00000000  0.50000001  1
  C  C2  1  0.33333339  0.66666667  0.26520301  1
  B  B3  1  0.33333339  0.66666667  0.73479702  1
  B  B4  1  0.66666670  0.33333334  0.26520301  1
  C  C5  1  0.66666670  0.33333334  0.73479702  1
