# generated using pymatgen
data_BaLa5Cl12
_symmetry_space_group_name_H-M   'P 1'
_cell_length_a   8.44403934
_cell_length_b   8.44403934
_cell_length_c   8.44403934
_cell_angle_alpha   72.84875488
_cell_angle_beta   70.84108734
_cell_angle_gamma   112.14276123
_symmetry_Int_Tables_number   1
_chemical_formula_structural   BaLa5Cl12
_chemical_formula_sum   'Ba1 La5 Cl12'
_cell_volume   462.58280645
_cell_formula_units_Z   1
loop_
 _symmetry_equiv_pos_site_id
 _symmetry_equiv_pos_as_xyz
  1  'x, y, z'
loop_
 _atom_site_type_symbol
 _atom_site_label
 _atom_site_symmetry_multiplicity
 _atom_site_fract_x
 _atom_site_fract_y
 _atom_site_fract_z
 _atom_site_occupancy
  La  La0  1  0.69603305  0.26250202  0.04146595  1
  Cl  Cl1  1  0.60106105  0.78119305  0.18013194  1
  Cl  Cl2  1  0.03867501  0.21880701  0.18013200  1
  Cl  Cl3  1  0.18689103  0.86140605  0.32548497  1
  Cl  Cl4  1  0.81310906  0.48762403  0.32548495  1
  Cl  Cl5  1  0.30396702  0.26250102  0.43353199  1
  Cl  Cl6  1  0.69603306  0.73749905  0.56646795  1
  Cl  Cl7  1  0.81310905  0.13859401  0.67451498  1
  Cl  Cl8  1  0.18689102  0.51237603  0.67451500  1
  Cl  Cl9  1  0.96132507  0.78119305  0.81986795  1
  Cl  Cl10  1  0.39893903  0.21880701  0.81986800  1
  Ba  Ba11  1  0.30396703  0.73749805  0.95853399  1
  Cl  Cl12  1  0.50000004  0.50000003  -0.00000005  1
  Cl  Cl13  1  0.50000005  1.00000006  0.49999995  1
  La  La14  1  1.00000008  0.88682606  0.11317391  1
  La  La15  1  0.16535502  0.50000003  0.33464498  1
  La  La16  1  0.83464506  0.50000003  0.66535496  1
  La  La17  1  0.00000000  0.11317401  0.88682603  1
