# generated using pymatgen
data_BaSrB12
_symmetry_space_group_name_H-M   'P 1'
_cell_length_a   4.13070202
_cell_length_b   4.13070202
_cell_length_c   8.26883793
_cell_angle_alpha   90.00000000
_cell_angle_beta   90.00000000
_cell_angle_gamma   90.00000000
_symmetry_Int_Tables_number   1
_chemical_formula_structural   BaSrB12
_chemical_formula_sum   'Ba1 Sr1 B12'
_cell_volume   141.08869404
_cell_formula_units_Z   1
loop_
 _symmetry_equiv_pos_site_id
 _symmetry_equiv_pos_as_xyz
  1  'x, y, z'
loop_
 _atom_site_type_symbol
 _atom_site_label
 _atom_site_symmetry_multiplicity
 _atom_site_fract_x
 _atom_site_fract_y
 _atom_site_fract_z
 _atom_site_occupancy
  Ba  Ba0  1  0.00000000  0.00000000  0.00000000  1
  Sr  Sr1  1  0.00000000  0.00000000  0.50000000  1
  B  B2  1  0.20038900  0.50000000  0.25016800  1
  B  B3  1  0.20038900  0.50000000  0.74983201  1
  B  B4  1  0.50000000  0.50000000  0.40001200  1
  B  B5  1  0.50000000  0.50000000  0.89939501  1
  B  B6  1  0.50000000  0.20038900  0.25016800  1
  B  B7  1  0.50000000  0.20038900  0.74983201  1
  B  B8  1  0.50000000  0.50000000  0.10060500  1
  B  B9  1  0.50000000  0.50000000  0.59998901  1
  B  B10  1  0.50000000  0.79961100  0.25016800  1
  B  B11  1  0.50000000  0.79961100  0.74983201  1
  B  B12  1  0.79961100  0.50000000  0.25016800  1
  B  B13  1  0.79961100  0.50000000  0.74983201  1
