# generated using pymatgen
data_HoB4
_symmetry_space_group_name_H-M   'P 1'
_cell_length_a   3.99034810
_cell_length_b   7.06495094
_cell_length_c   7.06495094
_cell_angle_alpha   90.00000000
_cell_angle_beta   90.00000000
_cell_angle_gamma   90.00000000
_symmetry_Int_Tables_number   1
_chemical_formula_structural   HoB4
_chemical_formula_sum   'Ho4 B16'
_cell_volume   199.17236692
_cell_formula_units_Z   4
loop_
 _symmetry_equiv_pos_site_id
 _symmetry_equiv_pos_as_xyz
  1  'x, y, z'
loop_
 _atom_site_type_symbol
 _atom_site_label
 _atom_site_symmetry_multiplicity
 _atom_site_fract_x
 _atom_site_fract_y
 _atom_site_fract_z
 _atom_site_occupancy
  Ho  Ho0  1  0.00000000  0.81201801  0.31201800  1
  Ho  Ho1  1  0.00000000  0.18798200  0.68798201  1
  Ho  Ho2  1  0.00000000  0.31201800  0.18798200  1
  Ho  Ho3  1  0.99999997  0.68798201  0.81201801  1
  B  B4  1  0.79893398  0.50000000  0.50000000  1
  B  B5  1  0.79893398  0.00000000  0.00000000  1
  B  B6  1  0.20106599  0.50000000  0.50000000  1
  B  B7  1  0.20106599  0.00000000  0.00000000  1
  B  B8  1  0.49999999  0.41283600  0.91283601  1
  B  B9  1  0.49999999  0.58716400  0.08716400  1
  B  B10  1  0.49999999  0.91283601  0.58716400  1
  B  B11  1  0.49999999  0.08716400  0.41283600  1
  B  B12  1  0.49999999  0.67788701  0.53947200  1
  B  B13  1  0.49999999  0.32211300  0.46052800  1
  B  B14  1  0.49999999  0.17788700  0.96052801  1
  B  B15  1  0.49999999  0.82211301  0.03947200  1
  B  B16  1  0.49999999  0.46052800  0.67788701  1
  B  B17  1  0.49999999  0.53947200  0.32211300  1
  B  B18  1  0.49999999  0.03947200  0.17788700  1
  B  B19  1  0.49999999  0.96052801  0.82211301  1
