# generated using pymatgen
data_ScV4O8
_symmetry_space_group_name_H-M   'P 1'
_cell_length_a   5.74051094
_cell_length_b   5.74051094
_cell_length_c   6.04828453
_cell_angle_alpha   90.78741455
_cell_angle_beta   117.53593445
_cell_angle_gamma   119.89617157
_symmetry_Int_Tables_number   1
_chemical_formula_structural   ScV4O8
_chemical_formula_sum   'Sc1 V4 O8'
_cell_volume   145.28183500
_cell_formula_units_Z   1
loop_
 _symmetry_equiv_pos_site_id
 _symmetry_equiv_pos_as_xyz
  1  'x, y, z'
loop_
 _atom_site_type_symbol
 _atom_site_label
 _atom_site_symmetry_multiplicity
 _atom_site_fract_x
 _atom_site_fract_y
 _atom_site_fract_z
 _atom_site_occupancy
  Sc  Sc0  1  0.00000007  0.50000005  0.50000004  1
  V  V1  1  0.50000002  0.00000000  0.00000001  1
  V  V2  1  0.50000009  0.50000005  1.00000003  1
  O  O3  1  0.00000007  0.50000005  0.00000005  1
  V  V4  1  0.00000000  0.00000000  0.00000000  1
  O  O5  1  0.46780105  0.23605902  0.19683403  1
  O  O6  1  0.03914210  0.76359108  0.80273206  1
  V  V7  1  0.45858212  0.73160408  0.19018708  1
  O  O8  1  0.96077614  0.72903408  0.19683409  1
  O  O9  1  0.03922404  0.27096603  0.80316600  1
  O  O10  1  0.54141806  0.26839603  0.80981301  1
  O  O11  1  0.96085808  0.23640902  0.19726804  1
  O  O12  1  0.53219913  0.76394108  0.80316607  1
