# generated using pymatgen
data_Ba4Mn3WO12
_symmetry_space_group_name_H-M   'P 1'
_cell_length_a   5.80204964
_cell_length_b   5.80511522
_cell_length_c   10.05797768
_cell_angle_alpha   73.23332214
_cell_angle_beta   89.97888947
_cell_angle_gamma   60.03728485
_symmetry_Int_Tables_number   1
_chemical_formula_structural   Ba4Mn3WO12
_chemical_formula_sum   'Ba4 Mn3 W1 O12'
_cell_volume   276.76605812
_cell_formula_units_Z   1
loop_
 _symmetry_equiv_pos_site_id
 _symmetry_equiv_pos_as_xyz
  1  'x, y, z'
loop_
 _atom_site_type_symbol
 _atom_site_label
 _atom_site_symmetry_multiplicity
 _atom_site_fract_x
 _atom_site_fract_y
 _atom_site_fract_z
 _atom_site_occupancy
  Ba  Ba0  1  0.62483503  0.75048501  0.87533302  1
  Ba  Ba1  1  0.12496502  0.74999601  0.37495603  1
  Ba  Ba2  1  0.87503502  0.25000400  0.62504299  1
  Ba  Ba3  1  0.37516501  0.24951500  0.12466800  1
  Mn  Mn4  1  0.50000001  0.00000100  0.49999899  1
  W  W5  1  0.00000000  0.00000000  0.00000000  1
  Mn  Mn6  1  0.75018902  0.49973401  0.25007400  1
  Mn  Mn7  1  0.24981102  0.50026601  0.74992702  1
  O  O8  1  0.13037302  0.73900601  0.86934903  1
  O  O9  1  0.63082003  0.73842501  0.36934601  1
  O  O10  1  0.36931403  0.73873001  0.63055102  1
  O  O11  1  0.86918803  0.73899501  0.13049101  1
  O  O12  1  0.60781402  0.26135000  0.86931400  1
  O  O13  1  0.10796801  0.26134200  0.36943701  1
  O  O14  1  0.36918001  0.26157700  0.63065301  1
  O  O15  1  0.86962802  0.26099200  0.13065199  1
  O  O16  1  0.13081301  0.26100500  0.86950902  1
  O  O17  1  0.63068602  0.26127000  0.36944800  1
  O  O18  1  0.89203303  0.73865801  0.63056301  1
  O  O19  1  0.39218403  0.73865001  0.13068702  1
