# generated using pymatgen
data_CeCdAu2
_symmetry_space_group_name_H-M   'P 1'
_cell_length_a   4.34548998
_cell_length_b   4.34548998
_cell_length_c   10.55064297
_cell_angle_alpha   90.00000000
_cell_angle_beta   90.00000000
_cell_angle_gamma   90.00000000
_symmetry_Int_Tables_number   1
_chemical_formula_structural   CeCdAu2
_chemical_formula_sum   'Ce2 Cd2 Au4'
_cell_volume   199.23077863
_cell_formula_units_Z   2
loop_
 _symmetry_equiv_pos_site_id
 _symmetry_equiv_pos_as_xyz
  1  'x, y, z'
loop_
 _atom_site_type_symbol
 _atom_site_label
 _atom_site_symmetry_multiplicity
 _atom_site_fract_x
 _atom_site_fract_y
 _atom_site_fract_z
 _atom_site_occupancy
  Ce  Ce0  1  0.00000000  0.50000000  0.76614600  1
  Ce  Ce1  1  0.50000000  0.00000000  0.23385400  1
  Cd  Cd2  1  0.00000000  0.00000000  0.50000000  1
  Cd  Cd3  1  0.50000000  0.50000000  0.50000000  1
  Au  Au4  1  0.00000000  0.00000000  0.00000000  1
  Au  Au5  1  0.50000000  0.50000000  -0.00000000  1
  Au  Au6  1  0.00000000  0.50000000  0.31618600  1
  Au  Au7  1  0.50000000  0.00000000  0.68381400  1
