# generated using pymatgen
data_ZrTe
_symmetry_space_group_name_H-M   'P 1'
_cell_length_a   5.78986835
_cell_length_b   8.05132675
_cell_length_c   8.05132675
_cell_angle_alpha   114.44446564
_cell_angle_beta   103.86922455
_cell_angle_gamma   103.86922455
_symmetry_Int_Tables_number   1
_chemical_formula_structural   ZrTe
_chemical_formula_sum   'Zr7 Te7'
_cell_volume   306.36163250
_cell_formula_units_Z   7
loop_
 _symmetry_equiv_pos_site_id
 _symmetry_equiv_pos_as_xyz
  1  'x, y, z'
loop_
 _atom_site_type_symbol
 _atom_site_label
 _atom_site_symmetry_multiplicity
 _atom_site_fract_x
 _atom_site_fract_y
 _atom_site_fract_z
 _atom_site_occupancy
  Zr  Zr0  1  0.28129906  0.87799195  0.25459297  1
  Te  Te1  1  0.40330704  0.37660098  0.12200799  1
  Te  Te2  1  0.02670605  0.74540696  0.62339895  1
  Zr  Zr3  1  0.71870103  0.12200799  0.74540697  1
  Te  Te4  1  0.59669306  0.62339897  0.87799195  1
  Te  Te5  1  0.97329405  0.25459299  0.37660100  1
  Zr  Zr6  1  0.00000000  0.00000000  0.00000000  1
  Te  Te7  1  0.50000002  0.00000000  0.00000001  1
  Zr  Zr8  1  0.55162604  0.32869498  0.49198798  1
  Te  Te9  1  0.22293102  0.16329299  0.67130496  1
  Zr  Zr10  1  0.05963803  0.50801197  0.83670694  1
  Te  Te11  1  0.44837405  0.67130496  0.50801197  1
  Zr  Zr12  1  0.77706907  0.83670695  0.32869498  1
  Zr  Zr13  1  0.94036206  0.49198797  0.16329300  1
