# generated using pymatgen
data_Li6HPtO6
_symmetry_space_group_name_H-M   'P 1'
_cell_length_a   5.89751768
_cell_length_b   5.89751768
_cell_length_c   6.14667749
_cell_angle_alpha   61.33208847
_cell_angle_beta   61.33209610
_cell_angle_gamma   59.99999619
_symmetry_Int_Tables_number   1
_chemical_formula_structural   Li6HPtO6
_chemical_formula_sum   'Li6 H1 Pt1 O6'
_cell_volume   154.14196987
_cell_formula_units_Z   1
loop_
 _symmetry_equiv_pos_site_id
 _symmetry_equiv_pos_as_xyz
  1  'x, y, z'
loop_
 _atom_site_type_symbol
 _atom_site_label
 _atom_site_symmetry_multiplicity
 _atom_site_fract_x
 _atom_site_fract_y
 _atom_site_fract_z
 _atom_site_occupancy
  Li  Li0  1  0.87898997  0.87899102  0.36302904  1
  O  O1  1  0.12101000  0.12100900  0.63697101  1
  O  O2  1  0.49999999  0.00000000  1.00000002  1
  O  O3  1  -0.00000001  0.50000001  0.00000001  1
  O  O4  1  0.49999998  0.50000001  0.00000002  1
  O  O5  1  0.49999998  0.50000001  0.50000003  1
  Li  Li6  1  0.27707198  0.74825002  0.22642702  1
  Li  Li7  1  0.74825098  0.27707101  0.22642702  1
  Li  Li8  1  0.27116299  0.27116401  0.18651001  1
  H  H9  1  0.74825097  0.74825002  0.22642703  1
  Li  Li10  1  0.25174899  0.25175001  0.77357302  1
  O  O11  1  0.72883697  0.72883602  0.81349004  1
  Li  Li12  1  0.25174898  0.72292902  0.77357303  1
  Pt  Pt13  1  0.72292798  0.25175001  0.77357303  1
