# generated using pymatgen
data_Lu5Al11
_symmetry_space_group_name_H-M   'P 1'
_cell_length_a   7.73845959
_cell_length_b   7.73845959
_cell_length_c   7.73845959
_cell_angle_alpha   89.42926025
_cell_angle_beta   60.32896805
_cell_angle_gamma   119.67103577
_symmetry_Int_Tables_number   1
_chemical_formula_structural   Lu5Al11
_chemical_formula_sum   'Lu5 Al11'
_cell_volume   329.29058790
_cell_formula_units_Z   1
loop_
 _symmetry_equiv_pos_site_id
 _symmetry_equiv_pos_as_xyz
  1  'x, y, z'
loop_
 _atom_site_type_symbol
 _atom_site_label
 _atom_site_symmetry_multiplicity
 _atom_site_fract_x
 _atom_site_fract_y
 _atom_site_fract_z
 _atom_site_occupancy
  Lu  Lu0  1  0.82133907  0.65852704  0.84147298  1
  Lu  Lu1  1  0.17866103  0.33718802  0.16281198  1
  Lu  Lu2  1  0.50000009  0.83718806  0.34147295  1
  Al  Al3  1  0.50000002  0.15852701  0.66281201  1
  Lu  Lu4  1  1.00000003  0.25470002  0.74530002  1
  Al  Al5  1  0.00000007  0.75470005  0.24529995  1
  Al  Al6  1  0.77931604  0.32311702  0.17688300  1
  Al  Al7  1  0.22068401  0.04380100  0.45619901  1
  Al  Al8  1  0.50000006  0.54380104  0.67688298  1
  Al  Al9  1  0.50000008  0.82311706  0.95619897  1
  Al  Al10  1  0.00000005  0.50571103  0.49428897  1
  Lu  Lu11  1  0.00000000  0.00571100  0.99428902  1
  Al  Al12  1  0.20789807  0.66742705  0.83257297  1
  Al  Al13  1  0.79210210  0.95952806  0.54047195  1
  Al  Al14  1  0.50000005  0.45952903  0.33257398  1
  Al  Al15  1  0.50000002  0.16742601  0.04047100  1
