# generated using pymatgen
data_Tm3Al8Cu3
_symmetry_space_group_name_H-M   'P 1'
_cell_length_a   4.31946421
_cell_length_b   8.08400726
_cell_length_c   8.08400726
_cell_angle_alpha   72.65796661
_cell_angle_beta   74.50459290
_cell_angle_gamma   74.50459290
_symmetry_Int_Tables_number   1
_chemical_formula_structural   Tm3Al8Cu3
_chemical_formula_sum   'Tm3 Al8 Cu3'
_cell_volume   254.20299148
_cell_formula_units_Z   1
loop_
 _symmetry_equiv_pos_site_id
 _symmetry_equiv_pos_as_xyz
  1  'x, y, z'
loop_
 _atom_site_type_symbol
 _atom_site_label
 _atom_site_symmetry_multiplicity
 _atom_site_fract_x
 _atom_site_fract_y
 _atom_site_fract_z
 _atom_site_occupancy
  Tm  Tm0  1  0.00000000  0.00000000  0.00000000  1
  Tm  Tm1  1  0.68223096  0.31776900  0.31776895  1
  Tm  Tm2  1  0.31776895  0.68223100  0.68223094  1
  Cu  Cu3  1  0.49999996  0.30479500  0.69520495  1
  Cu  Cu4  1  0.49999994  0.69520500  0.30479494  1
  Al  Al5  1  0.89227492  0.83433700  0.38111292  1
  Al  Al6  1  0.10772499  0.16566300  0.61888697  1
  Al  Al7  1  0.89227495  0.38111300  0.83433693  1
  Al  Al8  1  0.10772496  0.61888700  0.16566296  1
  Al  Al9  1  0.67666991  0.98233500  0.66432391  1
  Al  Al10  1  0.32332999  0.01766500  0.33567598  1
  Al  Al11  1  0.67666994  0.66432400  0.98233492  1
  Al  Al12  1  0.32332997  0.33567600  0.01766497  1
  Cu  Cu13  1  -0.00000003  0.50000000  0.49999996  1
