# generated using pymatgen
data_Ce2SbAu3
_symmetry_space_group_name_H-M   'P 1'
_cell_length_a   4.60502386
_cell_length_b   4.60502434
_cell_length_c   7.97209597
_cell_angle_alpha   90.00000000
_cell_angle_beta   90.00000000
_cell_angle_gamma   120.00000000
_symmetry_Int_Tables_number   1
_chemical_formula_structural   Ce2SbAu3
_chemical_formula_sum   'Ce2 Sb1 Au3'
_cell_volume   146.40872694
_cell_formula_units_Z   1
loop_
 _symmetry_equiv_pos_site_id
 _symmetry_equiv_pos_as_xyz
  1  'x, y, z'
loop_
 _atom_site_type_symbol
 _atom_site_label
 _atom_site_symmetry_multiplicity
 _atom_site_fract_x
 _atom_site_fract_y
 _atom_site_fract_z
 _atom_site_occupancy
  Ce  Ce0  1  0.00000000  0.00000000  0.75644500  1
  Au  Au1  1  0.00000000  0.00000000  0.25644500  1
  Sb  Sb2  1  0.33333336  0.66666666  0.49294600  1
  Au  Au3  1  0.66666670  0.33333333  0.99294600  1
  Ce  Ce4  1  0.33333336  0.66666666  0.04100900  1
  Au  Au5  1  0.66666670  0.33333333  0.54100900  1
