# generated using pymatgen
data_KSrCaHfF6
_symmetry_space_group_name_H-M   'P 1'
_cell_length_a   5.61332798
_cell_length_b   5.61376047
_cell_length_c   5.61924553
_cell_angle_alpha   60.43172836
_cell_angle_beta   60.12053299
_cell_angle_gamma   60.24995804
_symmetry_Int_Tables_number   1
_chemical_formula_structural   KSrCaHfF6
_chemical_formula_sum   'K1 Sr1 Ca1 Hf1 F6'
_cell_volume   125.96547264
_cell_formula_units_Z   1
loop_
 _symmetry_equiv_pos_site_id
 _symmetry_equiv_pos_as_xyz
  1  'x, y, z'
loop_
 _atom_site_type_symbol
 _atom_site_label
 _atom_site_symmetry_multiplicity
 _atom_site_fract_x
 _atom_site_fract_y
 _atom_site_fract_z
 _atom_site_occupancy
  Sr  Sr0  1  0.75005602  0.75032298  0.74956595  1
  K  K1  1  0.24994401  0.24967699  0.25043399  1
  Hf  Hf2  1  0.50000002  0.49999999  0.49999997  1
  Ca  Ca3  1  0.00000000  0.00000000  0.00000000  1
  F  F4  1  0.77841902  0.23833999  0.72560297  1
  F  F5  1  0.22158101  0.76165998  0.27439696  1
  F  F6  1  0.24372301  0.71024398  0.79350598  1
  F  F7  1  0.75627702  0.28975599  0.20649396  1
  F  F8  1  0.72048802  0.78339698  0.26589695  1
  F  F9  1  0.27951201  0.21660300  0.73410299  1
