# generated using pymatgen
data_SiWO10He
_symmetry_space_group_name_H-M   'P 1'
_cell_length_a   5.89570236
_cell_length_b   5.89570236
_cell_length_c   5.89570236
_cell_angle_alpha   60.00000763
_cell_angle_beta   60.00000000
_cell_angle_gamma   60.00000763
_symmetry_Int_Tables_number   1
_chemical_formula_structural   SiWO10He
_chemical_formula_sum   'Si1 W1 O10 He1'
_cell_volume   144.90778026
_cell_formula_units_Z   1
loop_
 _symmetry_equiv_pos_site_id
 _symmetry_equiv_pos_as_xyz
  1  'x, y, z'
loop_
 _atom_site_type_symbol
 _atom_site_label
 _atom_site_symmetry_multiplicity
 _atom_site_fract_x
 _atom_site_fract_y
 _atom_site_fract_z
 _atom_site_occupancy
  O  O0  1  0.48278899  0.01721100  0.01721100  1
  O  O1  1  0.48278899  0.01721100  0.48278899  1
  O  O2  1  0.01721100  0.01721100  0.48278899  1
  O  O3  1  0.01721100  0.48278899  0.48278898  1
  O  O4  1  0.48278898  0.48278899  0.01721100  1
  O  O5  1  0.01721100  0.48278899  0.01721100  1
  Si  Si6  1  0.49999998  0.49999999  0.49999998  1
  He  He7  1  0.00000000  0.00000000  0.00000000  1
  O  O8  1  0.60800398  0.60800399  0.17598799  1
  O  O9  1  0.60800398  0.60800399  0.60800398  1
  O  O10  1  0.17598799  0.60800399  0.60800398  1
  O  O11  1  0.60800398  0.17598800  0.60800398  1
  W  W12  1  0.24999999  0.24999999  0.24999999  1
