# generated using pymatgen
data_Ti4InS8
_symmetry_space_group_name_H-M   'P 1'
_cell_length_a   7.01380968
_cell_length_b   7.01380968
_cell_length_c   7.01380920
_cell_angle_alpha   60.40714645
_cell_angle_beta   60.40714645
_cell_angle_gamma   60.40714264
_symmetry_Int_Tables_number   1
_chemical_formula_structural   Ti4InS8
_chemical_formula_sum   'Ti4 In1 S8'
_cell_volume   246.22217230
_cell_formula_units_Z   1
loop_
 _symmetry_equiv_pos_site_id
 _symmetry_equiv_pos_as_xyz
  1  'x, y, z'
loop_
 _atom_site_type_symbol
 _atom_site_label
 _atom_site_symmetry_multiplicity
 _atom_site_fract_x
 _atom_site_fract_y
 _atom_site_fract_z
 _atom_site_occupancy
  In  In0  1  0.00000000  0.00000000  0.00000000  1
  Ti  Ti1  1  0.49999996  0.99999999  0.50000006  1
  Ti  Ti2  1  -0.00000002  0.49999999  0.50000002  1
  Ti  Ti3  1  0.49999997  0.49999999  1.00000004  1
  Ti  Ti4  1  0.49999997  0.49999999  0.50000004  1
  S  S5  1  0.25431499  0.25431500  0.25431502  1
  S  S6  1  0.74555996  0.74555999  0.25839006  1
  S  S7  1  0.74555997  0.25839000  0.74556004  1
  S  S8  1  0.25838997  0.74555999  0.74556004  1
  S  S9  1  0.74568496  0.74568499  0.74568506  1
  S  S10  1  0.25443999  0.25444000  0.74161002  1
  S  S11  1  0.74160997  0.25444000  0.25444004  1
  S  S12  1  0.25443997  0.74160999  0.25444004  1
