# generated using pymatgen
data_CeSi2Pt
_symmetry_space_group_name_H-M   'P 1'
_cell_length_a   4.24702120
_cell_length_b   4.26930189
_cell_length_c   8.59967232
_cell_angle_alpha   104.37248230
_cell_angle_beta   90.00000000
_cell_angle_gamma   90.00000000
_symmetry_Int_Tables_number   1
_chemical_formula_structural   CeSi2Pt
_chemical_formula_sum   'Ce2 Si4 Pt2'
_cell_volume   151.04752489
_cell_formula_units_Z   2
loop_
 _symmetry_equiv_pos_site_id
 _symmetry_equiv_pos_as_xyz
  1  'x, y, z'
loop_
 _atom_site_type_symbol
 _atom_site_label
 _atom_site_symmetry_multiplicity
 _atom_site_fract_x
 _atom_site_fract_y
 _atom_site_fract_z
 _atom_site_occupancy
  Ce  Ce0  1  0.74999996  0.60358301  0.20716600  1
  Ce  Ce1  1  0.24999999  0.39641701  0.79283400  1
  Si  Si2  1  0.74999996  0.96552702  0.93105400  1
  Si  Si3  1  0.24999999  0.03447300  0.06894600  1
  Si  Si4  1  0.24999999  0.74925802  0.49851600  1
  Si  Si5  1  0.74999996  0.25074201  0.50148400  1
  Pt  Pt6  1  0.24999999  0.17898000  0.35796000  1
  Pt  Pt7  1  0.74999996  0.82102002  0.64204000  1
