# generated using pymatgen
data_V5Rh3
_symmetry_space_group_name_H-M   'P 1'
_cell_length_a   4.64835119
_cell_length_b   4.64835119
_cell_length_c   4.64835167
_cell_angle_alpha   90.67586517
_cell_angle_beta   90.67586517
_cell_angle_gamma   90.67584991
_symmetry_Int_Tables_number   1
_chemical_formula_structural   V5Rh3
_chemical_formula_sum   'V5 Rh3'
_cell_volume   100.41658996
_cell_formula_units_Z   1
loop_
 _symmetry_equiv_pos_site_id
 _symmetry_equiv_pos_as_xyz
  1  'x, y, z'
loop_
 _atom_site_type_symbol
 _atom_site_label
 _atom_site_symmetry_multiplicity
 _atom_site_fract_x
 _atom_site_fract_y
 _atom_site_fract_z
 _atom_site_occupancy
  V  V0  1  0.83953904  0.65755600  0.34653103  1
  Rh  Rh1  1  0.34653105  0.83953901  0.65755602  1
  Rh  Rh2  1  0.65755602  0.34653100  0.83953901  1
  V  V3  1  0.86358405  0.86358401  0.86358403  1
  V  V4  1  0.13868602  0.35551000  0.63924200  1
  V  V5  1  0.63924201  0.13868600  0.35551001  1
  V  V6  1  0.35551004  0.63924200  0.13868602  1
  Rh  Rh7  1  0.15935201  0.15935200  0.15935200  1
