# generated using pymatgen
data_CeMgSe3
_symmetry_space_group_name_H-M   'P 1'
_cell_length_a   4.52215719
_cell_length_b   4.52215719
_cell_length_c   4.52215672
_cell_angle_alpha   88.48517609
_cell_angle_beta   88.48517609
_cell_angle_gamma   88.48517609
_symmetry_Int_Tables_number   1
_chemical_formula_structural   CeMgSe3
_chemical_formula_sum   'Ce1 Mg1 Se3'
_cell_volume   92.38239696
_cell_formula_units_Z   1
loop_
 _symmetry_equiv_pos_site_id
 _symmetry_equiv_pos_as_xyz
  1  'x, y, z'
loop_
 _atom_site_type_symbol
 _atom_site_label
 _atom_site_symmetry_multiplicity
 _atom_site_fract_x
 _atom_site_fract_y
 _atom_site_fract_z
 _atom_site_occupancy
  Ce  Ce0  1  0.49421097  0.49421098  0.49421101  1
  Mg  Mg1  1  0.99525794  0.99525796  0.99525802  1
  Se  Se2  1  0.40001596  0.94266297  0.96462203  1
  Se  Se3  1  0.96462195  0.40001599  0.94266302  1
  Se  Se4  1  0.94266294  0.96462196  0.40001599  1
