# generated using pymatgen
data_Al3Cu5
_symmetry_space_group_name_H-M   'P 1'
_cell_length_a   4.17433882
_cell_length_b   5.16914606
_cell_length_c   5.16914606
_cell_angle_alpha   60.00000000
_cell_angle_beta   90.00000000
_cell_angle_gamma   90.00000000
_symmetry_Int_Tables_number   1
_chemical_formula_structural   Al3Cu5
_chemical_formula_sum   'Al3 Cu5'
_cell_volume   96.59528672
_cell_formula_units_Z   1
loop_
 _symmetry_equiv_pos_site_id
 _symmetry_equiv_pos_as_xyz
  1  'x, y, z'
loop_
 _atom_site_type_symbol
 _atom_site_label
 _atom_site_symmetry_multiplicity
 _atom_site_fract_x
 _atom_site_fract_y
 _atom_site_fract_z
 _atom_site_occupancy
  Al  Al0  1  -0.00000000  0.16186900  0.16187000  1
  Al  Al1  1  1.00000004  0.16186900  0.67626202  1
  Al  Al2  1  0.00000000  0.67626100  0.16186999  1
  Cu  Cu3  1  0.50000002  0.84072200  0.84072200  1
  Cu  Cu4  1  0.50000002  0.84072200  0.31855599  1
  Cu  Cu5  1  0.50000002  0.31855600  0.84072202  1
  Cu  Cu6  1  0.50000002  0.33333333  0.33333333  1
  Cu  Cu7  1  -0.00000000  0.66666667  0.66666667  1
