# generated using pymatgen
data_KSn5CN3Cl
_symmetry_space_group_name_H-M   'P 1'
_cell_length_a   5.59030819
_cell_length_b   5.79067898
_cell_length_c   6.31883097
_cell_angle_alpha   77.67109680
_cell_angle_beta   63.74589157
_cell_angle_gamma   61.13818359
_symmetry_Int_Tables_number   1
_chemical_formula_structural   KSn5CN3Cl
_chemical_formula_sum   'K1 Sn5 C1 N3 Cl1'
_cell_volume   160.66291563
_cell_formula_units_Z   1
loop_
 _symmetry_equiv_pos_site_id
 _symmetry_equiv_pos_as_xyz
  1  'x, y, z'
loop_
 _atom_site_type_symbol
 _atom_site_label
 _atom_site_symmetry_multiplicity
 _atom_site_fract_x
 _atom_site_fract_y
 _atom_site_fract_z
 _atom_site_occupancy
  Cl  Cl0  1  0.85560197  0.00000000  0.28879602  1
  K  K1  1  0.14439799  0.00000000  0.71120403  1
  C  C2  1  0.79314994  0.66987901  0.74382107  1
  N  N3  1  0.20684998  0.33012100  0.25617903  1
  N  N4  1  0.53697095  0.66987901  0.25617905  1
  N  N5  1  0.46302897  0.33012100  0.74382105  1
  Sn  Sn6  1  0.49999998  0.00000000  0.00000001  1
  Sn  Sn7  1  -0.00000002  0.50000001  0.00000003  1
  Sn  Sn8  1  0.49999996  0.50000001  0.00000003  1
  Sn  Sn9  1  0.24999997  0.50000001  0.50000005  1
  Sn  Sn10  1  0.74999995  0.50000001  0.50000005  1
