# generated using pymatgen
data_NaLiTe3Pt
_symmetry_space_group_name_H-M   'P 1'
_cell_length_a   5.12846184
_cell_length_b   5.45977354
_cell_length_c   5.45977354
_cell_angle_alpha   60.18214417
_cell_angle_beta   61.98784637
_cell_angle_gamma   61.98784637
_symmetry_Int_Tables_number   1
_chemical_formula_structural   NaLiTe3Pt
_chemical_formula_sum   'Na1 Li1 Te3 Pt1'
_cell_volume   111.39466727
_cell_formula_units_Z   1
loop_
 _symmetry_equiv_pos_site_id
 _symmetry_equiv_pos_as_xyz
  1  'x, y, z'
loop_
 _atom_site_type_symbol
 _atom_site_label
 _atom_site_symmetry_multiplicity
 _atom_site_fract_x
 _atom_site_fract_y
 _atom_site_fract_z
 _atom_site_occupancy
  Na  Na0  1  0.87564703  0.37435300  0.87435301  1
  Li  Li1  1  0.12435301  0.62564700  0.12564699  1
  Te  Te2  1  0.50000001  0.00000000  0.00000001  1
  Te  Te3  1  0.50000002  0.50000000  0.50000000  1
  Pt  Pt4  1  0.50000001  0.00000000  0.50000001  1
  Te  Te5  1  1.00000004  0.99999999  0.50000000  1
