# generated using pymatgen
data_KLi4O4
_symmetry_space_group_name_H-M   'P 1'
_cell_length_a   3.59769392
_cell_length_b   6.23141432
_cell_length_c   6.39514828
_cell_angle_alpha   83.61193848
_cell_angle_beta   73.66320038
_cell_angle_gamma   73.22141266
_symmetry_Int_Tables_number   1
_chemical_formula_structural   KLi4O4
_chemical_formula_sum   'K1 Li4 O4'
_cell_volume   131.65464857
_cell_formula_units_Z   1
loop_
 _symmetry_equiv_pos_site_id
 _symmetry_equiv_pos_as_xyz
  1  'x, y, z'
loop_
 _atom_site_type_symbol
 _atom_site_label
 _atom_site_symmetry_multiplicity
 _atom_site_fract_x
 _atom_site_fract_y
 _atom_site_fract_z
 _atom_site_occupancy
  K  K0  1  0.00883488  0.98627498  0.99605508  1
  Li  Li1  1  0.81854596  0.55323399  0.80967403  1
  Li  Li2  1  0.19981095  0.44358999  0.15678803  1
  Li  Li3  1  0.36778692  0.79652398  0.46790206  1
  Li  Li4  1  0.62119300  0.20075200  0.55686200  1
  O  O5  1  0.22852199  0.16698400  0.37597201  1
  O  O6  1  0.59843294  0.61993699  0.18319704  1
  O  O7  1  0.39165396  0.39415499  0.82253702  1
  O  O8  1  0.76521692  0.83855098  0.63101505  1
