# generated using pymatgen
data_NaV2(SiO3)4
_symmetry_space_group_name_H-M   'P 1'
_cell_length_a   5.35926104
_cell_length_b   6.59344721
_cell_length_c   6.59313869
_cell_angle_alpha   84.24807739
_cell_angle_beta   76.65835571
_cell_angle_gamma   76.65778351
_symmetry_Int_Tables_number   1
_chemical_formula_structural   NaV2(SiO3)4
_chemical_formula_sum   'Na1 V2 Si4 O12'
_cell_volume   220.29738965
_cell_formula_units_Z   1
loop_
 _symmetry_equiv_pos_site_id
 _symmetry_equiv_pos_as_xyz
  1  'x, y, z'
loop_
 _atom_site_type_symbol
 _atom_site_label
 _atom_site_symmetry_multiplicity
 _atom_site_fract_x
 _atom_site_fract_y
 _atom_site_fract_z
 _atom_site_occupancy
  Na  Na0  1  0.75000704  0.70327998  0.29671303  1
  V  V1  1  0.74999001  0.10535500  0.89465900  1
  V  V2  1  0.24998705  0.90266497  0.09736103  1
  Si  Si3  1  0.73858804  0.61911998  0.79484602  1
  Si  Si4  1  0.23343604  0.79467497  0.62116701  1
  Si  Si5  1  0.76141202  0.20516499  0.38086502  1
  Si  Si6  1  0.26655702  0.37883799  0.20532501  1
  O  O7  1  0.63904205  0.80591397  0.96386602  1
  O  O8  1  0.13227205  0.95667597  0.81326001  1
  O  O9  1  0.78506402  0.38707899  0.90394901  1
  O  O10  1  0.51963404  0.64795198  0.64955502  1
  O  O11  1  0.29787405  0.89426797  0.38387402  1
  O  O12  1  0.01399203  0.65310498  0.63770200  1
  O  O13  1  0.98036102  0.35043499  0.35203903  1
  O  O14  1  0.71494001  0.09606100  0.61292301  1
  O  O15  1  0.48602102  0.36228999  0.34688801  1
  O  O16  1  0.20213003  0.61612598  0.10573102  1
  O  O17  1  0.86096101  0.03613600  0.19408602  1
  O  O18  1  0.36773101  0.18674099  0.04331101  1
