# generated using pymatgen
data_KHg2
_symmetry_space_group_name_H-M   'P 1'
_cell_length_a   5.34373808
_cell_length_b   6.69575882
_cell_length_c   6.69575882
_cell_angle_alpha   81.10745239
_cell_angle_beta   66.48188019
_cell_angle_gamma   66.48188019
_symmetry_Int_Tables_number   1
_chemical_formula_structural   KHg2
_chemical_formula_sum   'K2 Hg4'
_cell_volume   201.42538649
_cell_formula_units_Z   2
loop_
 _symmetry_equiv_pos_site_id
 _symmetry_equiv_pos_as_xyz
  1  'x, y, z'
loop_
 _atom_site_type_symbol
 _atom_site_label
 _atom_site_symmetry_multiplicity
 _atom_site_fract_x
 _atom_site_fract_y
 _atom_site_fract_z
 _atom_site_occupancy
  K  K0  1  0.74999995  0.70137702  0.79862295  1
  K  K1  1  0.24999998  0.29862301  0.20137698  1
  Hg  Hg2  1  0.06791299  0.09390600  0.77026800  1
  Hg  Hg3  1  0.93208694  0.90609403  0.22973193  1
  Hg  Hg4  1  0.43208695  0.72973202  0.40609297  1
  Hg  Hg5  1  0.56791299  0.27026801  0.59390697  1
