# generated using pymatgen
data_NbOF3
_symmetry_space_group_name_H-M   'P 1'
_cell_length_a   3.80644202
_cell_length_b   4.13764000
_cell_length_c   5.31880903
_cell_angle_alpha   112.88999176
_cell_angle_beta   110.96688843
_cell_angle_gamma   90.00000000
_symmetry_Int_Tables_number   1
_chemical_formula_structural   NbOF3
_chemical_formula_sum   'Nb1 O1 F3'
_cell_volume   71.11374022
_cell_formula_units_Z   1
loop_
 _symmetry_equiv_pos_site_id
 _symmetry_equiv_pos_as_xyz
  1  'x, y, z'
loop_
 _atom_site_type_symbol
 _atom_site_label
 _atom_site_symmetry_multiplicity
 _atom_site_fract_x
 _atom_site_fract_y
 _atom_site_fract_z
 _atom_site_occupancy
  Nb  Nb0  1  0.00000000  0.00000000  0.00000000  1
  F  F1  1  0.49999999  0.00000000  1.00000001  1
  O  O2  1  0.20933899  0.20933900  0.41867801  1
  F  F3  1  -0.00000000  0.50000001  0.00000001  1
  F  F4  1  0.79066098  0.79066101  0.58132201  1
