# generated using pymatgen
data_LaS2
_symmetry_space_group_name_H-M   'P 1'
_cell_length_a   7.00377893
_cell_length_b   7.10602379
_cell_length_c   7.10286379
_cell_angle_alpha   90.00000000
_cell_angle_beta   79.87955475
_cell_angle_gamma   90.00000000
_symmetry_Int_Tables_number   1
_chemical_formula_structural   LaS2
_chemical_formula_sum   'La4 S8'
_cell_volume   348.00225887
_cell_formula_units_Z   4
loop_
 _symmetry_equiv_pos_site_id
 _symmetry_equiv_pos_as_xyz
  1  'x, y, z'
loop_
 _atom_site_type_symbol
 _atom_site_label
 _atom_site_symmetry_multiplicity
 _atom_site_fract_x
 _atom_site_fract_y
 _atom_site_fract_z
 _atom_site_occupancy
  La  La0  1  0.70895201  0.96612703  0.68134098  1
  La  La1  1  0.79104801  0.46612701  0.31865898  1
  La  La2  1  0.29104800  0.03387300  0.31865899  1
  La  La3  1  0.20895200  0.53387302  0.68134099  1
  S  S4  1  0.99170001  0.24153401  0.54933997  1
  S  S5  1  0.49170001  0.25846601  0.54933998  1
  S  S6  1  0.00830000  0.75846602  0.45065999  1
  S  S7  1  0.50830001  0.74153402  0.45065998  1
  S  S8  1  0.20612400  0.37958601  0.08121099  1
  S  S9  1  0.70612401  0.12041400  0.08121098  1
  S  S10  1  0.79387601  0.62041402  0.91878897  1
  S  S11  1  0.29387600  0.87958603  0.91878898  1
