# generated using pymatgen
data_Li3Mn5O8
_symmetry_space_group_name_H-M   'P 1'
_cell_length_a   5.83314180
_cell_length_b   5.84355116
_cell_length_c   5.99554253
_cell_angle_alpha   61.00725937
_cell_angle_beta   60.89205551
_cell_angle_gamma   60.05890656
_symmetry_Int_Tables_number   1
_chemical_formula_structural   Li3Mn5O8
_chemical_formula_sum   'Li3 Mn5 O8'
_cell_volume   146.61462802
_cell_formula_units_Z   1
loop_
 _symmetry_equiv_pos_site_id
 _symmetry_equiv_pos_as_xyz
  1  'x, y, z'
loop_
 _atom_site_type_symbol
 _atom_site_label
 _atom_site_symmetry_multiplicity
 _atom_site_fract_x
 _atom_site_fract_y
 _atom_site_fract_z
 _atom_site_occupancy
  Li  Li0  1  0.99395401  0.50000000  0.50000004  1
  Li  Li1  1  0.48885001  0.00226200  0.49532703  1
  Mn  Mn2  1  0.98643900  0.99773800  0.50467305  1
  Li  Li3  1  0.49259600  0.50000000  0.50000003  1
  Mn  Mn4  1  0.99789202  0.00000000  1.00000005  1
  Mn  Mn5  1  0.49232301  0.00000000  1.00000004  1
  Mn  Mn6  1  0.99691401  0.49849600  0.00075702  1
  Mn  Mn7  1  0.49616700  0.50150400  0.99924305  1
  O  O8  1  0.75288101  0.25133900  0.23352502  1
  O  O9  1  0.24513298  0.75571100  0.23667002  1
  O  O10  1  0.75258800  0.75866300  0.23221403  1
  O  O11  1  0.74053000  0.74294400  0.76939705  1
  O  O12  1  0.25287100  0.25705600  0.23060302  1
  O  O13  1  0.23751400  0.24428900  0.76333003  1
  O  O14  1  0.74346501  0.24133700  0.76778604  1
  O  O15  1  0.23774498  0.74866100  0.76647504  1
