# generated using pymatgen
data_LiSb
_symmetry_space_group_name_H-M   'P 1'
_cell_length_a   7.38294888
_cell_length_b   7.38294888
_cell_length_c   7.38294888
_cell_angle_alpha   109.05547333
_cell_angle_beta   109.67949677
_cell_angle_gamma   109.67949677
_symmetry_Int_Tables_number   1
_chemical_formula_structural   LiSb
_chemical_formula_sum   'Li7 Sb7'
_cell_volume   309.77796392
_cell_formula_units_Z   7
loop_
 _symmetry_equiv_pos_site_id
 _symmetry_equiv_pos_as_xyz
  1  'x, y, z'
loop_
 _atom_site_type_symbol
 _atom_site_label
 _atom_site_symmetry_multiplicity
 _atom_site_fract_x
 _atom_site_fract_y
 _atom_site_fract_z
 _atom_site_occupancy
  Sb  Sb0  1  0.00000006  0.50000002  0.50000003  1
  Li  Li1  1  0.50000002  0.25000001  0.75000002  1
  Li  Li2  1  0.12183208  0.74683203  0.12500007  1
  Li  Li3  1  0.37816804  0.37500001  0.25316804  1
  Li  Li4  1  0.87816799  0.00316800  0.62500002  1
  Sb  Sb5  1  0.62183209  0.87500003  0.99683208  1
  Sb  Sb6  1  0.89649402  0.27249101  0.02070906  1
  Sb  Sb7  1  0.39649408  0.77070903  0.52249107  1
  Sb  Sb8  1  0.60350600  0.12599700  0.37421503  1
  Li  Li9  1  0.25178211  0.97929104  0.87578507  1
  Sb  Sb10  1  0.10350601  0.12421500  0.37599700  1
  Sb  Sb11  1  0.75178206  0.62578502  0.22929108  1
  Li  Li12  1  0.74821806  0.62400302  0.72750907  1
  Li  Li13  1  0.24821805  0.47750902  0.87400303  1
