# generated using pymatgen
data_CaMnO3
_symmetry_space_group_name_H-M   'P 1'
_cell_length_a   5.42834711
_cell_length_b   5.61993408
_cell_length_c   7.68468285
_cell_angle_alpha   90.00000000
_cell_angle_beta   89.84015656
_cell_angle_gamma   90.00000000
_symmetry_Int_Tables_number   1
_chemical_formula_structural   CaMnO3
_chemical_formula_sum   'Ca4 Mn4 O12'
_cell_volume   234.43534562
_cell_formula_units_Z   4
loop_
 _symmetry_equiv_pos_site_id
 _symmetry_equiv_pos_as_xyz
  1  'x, y, z'
loop_
 _atom_site_type_symbol
 _atom_site_label
 _atom_site_symmetry_multiplicity
 _atom_site_fract_x
 _atom_site_fract_y
 _atom_site_fract_z
 _atom_site_occupancy
  Ca  Ca0  1  0.48636199  0.55541799  0.24959902  1
  Ca  Ca1  1  0.01363800  0.05541800  0.25040100  1
  Ca  Ca2  1  0.51363799  0.44458199  0.75040102  1
  Ca  Ca3  1  0.98636198  0.94458199  0.74959904  1
  Mn  Mn4  1  0.00000000  0.49999999  -0.00000000  1
  Mn  Mn5  1  0.49999999  0.00000000  0.50000002  1
  Mn  Mn6  1  0.00000000  0.49999999  0.50000000  1
  Mn  Mn7  1  0.49999999  0.00000000  0.00000002  1
  O  O8  1  0.20820600  0.79207199  0.04583701  1
  O  O9  1  0.29179399  0.29207200  0.45416301  1
  O  O10  1  0.78153698  0.20005000  0.54246803  1
  O  O11  1  0.71846299  0.70004999  0.95753203  1
  O  O12  1  0.79179398  0.20792800  0.95416303  1
  O  O13  1  0.70820599  0.70792799  0.54583703  1
  O  O14  1  0.21846300  0.79994999  0.45753201  1
  O  O15  1  0.28153699  0.29995000  0.04246801  1
  O  O16  1  0.58210699  0.97961599  0.25675002  1
  O  O17  1  0.91789298  0.47961599  0.24325003  1
  O  O18  1  0.41789299  0.02038400  0.74325002  1
  O  O19  1  0.08210700  0.52038399  0.75675001  1
