# generated using pymatgen
data_Zr2(NbSi)3
_symmetry_space_group_name_H-M   'P 1'
_cell_length_a   5.13044214
_cell_length_b   7.56236506
_cell_length_c   7.56236506
_cell_angle_alpha   118.56877136
_cell_angle_beta   89.92819214
_cell_angle_gamma   89.92818451
_symmetry_Int_Tables_number   1
_chemical_formula_structural   Zr2(NbSi)3
_chemical_formula_sum   'Zr4 Nb6 Si6'
_cell_volume   257.68185129
_cell_formula_units_Z   2
loop_
 _symmetry_equiv_pos_site_id
 _symmetry_equiv_pos_as_xyz
  1  'x, y, z'
loop_
 _atom_site_type_symbol
 _atom_site_label
 _atom_site_symmetry_multiplicity
 _atom_site_fract_x
 _atom_site_fract_y
 _atom_site_fract_z
 _atom_site_occupancy
  Zr  Zr0  1  0.24937494  0.75371703  0.99865203  1
  Zr  Zr1  1  0.24937492  0.99865204  0.75371703  1
  Zr  Zr2  1  0.74978692  0.74153103  0.74153103  1
  Nb  Nb3  1  0.75039995  0.24135901  0.00185402  1
  Zr  Zr4  1  0.75039997  0.00185400  0.24135902  1
  Nb  Nb5  1  0.49955996  0.33291001  0.66788902  1
  Nb  Nb6  1  0.49955993  0.66788903  0.33291002  1
  Nb  Nb7  1  0.00069495  0.66763403  0.33258001  1
  Nb  Nb8  1  0.00069498  0.33258101  0.66763501  1
  Nb  Nb9  1  0.24974297  0.26705501  0.26705501  1
  Si  Si10  1  0.24985495  0.58805502  0.58805502  1
  Si  Si11  1  0.24959096  0.39893602  0.00907301  1
  Si  Si12  1  0.24959099  0.00907300  0.39893601  1
  Si  Si13  1  0.75024694  0.40083802  0.40083802  1
  Si  Si14  1  0.75056193  0.59662102  0.00129402  1
  Si  Si15  1  0.75056197  0.00129400  0.59662102  1
