# generated using pymatgen
data_La(BRh)8
_symmetry_space_group_name_H-M   'P 1'
_cell_length_a   5.59631395
_cell_length_b   5.59631491
_cell_length_c   8.56918240
_cell_angle_alpha   90.00000000
_cell_angle_beta   90.00000000
_cell_angle_gamma   119.99999237
_symmetry_Int_Tables_number   1
_chemical_formula_structural   La(BRh)8
_chemical_formula_sum   'La1 B8 Rh8'
_cell_volume   232.42041211
_cell_formula_units_Z   1
loop_
 _symmetry_equiv_pos_site_id
 _symmetry_equiv_pos_as_xyz
  1  'x, y, z'
loop_
 _atom_site_type_symbol
 _atom_site_label
 _atom_site_symmetry_multiplicity
 _atom_site_fract_x
 _atom_site_fract_y
 _atom_site_fract_z
 _atom_site_occupancy
  La  La0  1  0.00000000  0.00000000  0.29351599  1
  Rh  Rh1  1  0.00000000  0.00000000  0.70648397  1
  Rh  Rh2  1  0.33333330  0.66666663  -0.00000000  1
  Rh  Rh3  1  0.66666665  0.33333332  -0.00000000  1
  Rh  Rh4  1  0.33333330  0.66666663  0.33287398  1
  Rh  Rh5  1  0.66666665  0.33333332  0.33287398  1
  B  B6  1  0.66666665  0.33333332  0.66712597  1
  B  B7  1  0.33333330  0.66666663  0.66712597  1
  B  B8  1  0.50000000  0.00000000  0.16454599  1
  B  B9  1  0.49999997  0.49999997  0.16454599  1
  B  B10  1  -0.00000003  0.49999997  0.16454599  1
  Rh  Rh11  1  0.50000000  0.00000000  0.83545396  1
  Rh  Rh12  1  0.49999997  0.49999997  0.83545396  1
  Rh  Rh13  1  -0.00000003  0.49999997  0.83545396  1
  B  B14  1  0.50000000  0.00000000  0.49999998  1
  B  B15  1  0.49999997  0.49999997  0.49999998  1
  B  B16  1  -0.00000003  0.49999997  0.49999998  1
