# generated using pymatgen
data_Mg8Zn
_symmetry_space_group_name_H-M   'P 1'
_cell_length_a   3.85004497
_cell_length_b   7.77728605
_cell_length_c   7.77728653
_cell_angle_alpha   120.00000000
_cell_angle_beta   90.00000000
_cell_angle_gamma   90.00000000
_symmetry_Int_Tables_number   1
_chemical_formula_structural   Mg8Zn
_chemical_formula_sum   'Mg8 Zn1'
_cell_volume   201.67525083
_cell_formula_units_Z   1
loop_
 _symmetry_equiv_pos_site_id
 _symmetry_equiv_pos_as_xyz
  1  'x, y, z'
loop_
 _atom_site_type_symbol
 _atom_site_label
 _atom_site_symmetry_multiplicity
 _atom_site_fract_x
 _atom_site_fract_y
 _atom_site_fract_z
 _atom_site_occupancy
  Mg  Mg0  1  0.50000000  0.76063202  0.76063205  1
  Mg  Mg1  1  0.50000000  1.00000002  0.23936806  1
  Mg  Mg2  1  0.50000000  0.23936801  0.00000001  1
  Mg  Mg3  1  -0.00000000  0.38355801  0.38355803  1
  Mg  Mg4  1  -0.00000000  1.00000002  0.61644207  1
  Mg  Mg5  1  -0.00000000  0.61644201  0.00000003  1
  Mg  Mg6  1  0.50000000  0.66666668  0.33333338  1
  Mg  Mg7  1  0.50000000  0.33333334  0.66666670  1
  Zn  Zn8  1  0.00000000  0.00000000  0.00000000  1
