# generated using pymatgen
data_La2MgSn
_symmetry_space_group_name_H-M   'P 1'
_cell_length_a   4.91613293
_cell_length_b   4.91613293
_cell_length_c   10.10591793
_cell_angle_alpha   90.00000000
_cell_angle_beta   90.00000000
_cell_angle_gamma   90.00000000
_symmetry_Int_Tables_number   1
_chemical_formula_structural   La2MgSn
_chemical_formula_sum   'La4 Mg2 Sn2'
_cell_volume   244.24349254
_cell_formula_units_Z   2
loop_
 _symmetry_equiv_pos_site_id
 _symmetry_equiv_pos_as_xyz
  1  'x, y, z'
loop_
 _atom_site_type_symbol
 _atom_site_label
 _atom_site_symmetry_multiplicity
 _atom_site_fract_x
 _atom_site_fract_y
 _atom_site_fract_z
 _atom_site_occupancy
  La  La0  1  0.00000000  0.00000000  0.00000000  1
  La  La1  1  0.00000000  0.00000000  0.50000000  1
  La  La2  1  0.50000001  0.50000001  -0.00000000  1
  La  La3  1  0.50000001  0.50000001  0.50000000  1
  Mg  Mg4  1  0.50000001  0.00000000  0.25167900  1
  Sn  Sn5  1  0.50000001  0.00000000  0.74832101  1
  Mg  Mg6  1  0.00000000  0.50000001  0.25167900  1
  Sn  Sn7  1  0.00000000  0.50000001  0.74832101  1
