# generated using pymatgen
data_Ce7ZnNi2
_symmetry_space_group_name_H-M   'P 1'
_cell_length_a   3.98601389
_cell_length_b   3.98601365
_cell_length_c   17.58021164
_cell_angle_alpha   90.00000000
_cell_angle_beta   90.00000000
_cell_angle_gamma   120.00000000
_symmetry_Int_Tables_number   1
_chemical_formula_structural   Ce7ZnNi2
_chemical_formula_sum   'Ce7 Zn1 Ni2'
_cell_volume   241.89802363
_cell_formula_units_Z   1
loop_
 _symmetry_equiv_pos_site_id
 _symmetry_equiv_pos_as_xyz
  1  'x, y, z'
loop_
 _atom_site_type_symbol
 _atom_site_label
 _atom_site_symmetry_multiplicity
 _atom_site_fract_x
 _atom_site_fract_y
 _atom_site_fract_z
 _atom_site_occupancy
  Ce  Ce0  1  0.00000000  0.00000000  0.89525397  1
  Ce  Ce1  1  0.00000000  0.00000000  0.10474600  1
  Ce  Ce2  1  0.00000000  0.00000000  0.39525399  1
  Ce  Ce3  1  0.00000000  0.00000000  0.60474598  1
  Ni  Ni4  1  0.66666667  0.33333333  0.49979998  1
  Ni  Ni5  1  0.33333331  0.66666665  0.50019998  1
  Zn  Zn6  1  0.33333331  0.66666665  0.99979996  1
  Ce  Ce7  1  0.66666667  0.33333333  0.00020000  1
  Ce  Ce8  1  0.66666667  0.33333333  0.74999997  1
  Ce  Ce9  1  0.33333331  0.66666665  0.24999999  1
