# generated using pymatgen
data_CeSn2Au3
_symmetry_space_group_name_H-M   'P 1'
_cell_length_a   4.65012693
_cell_length_b   7.40549183
_cell_length_c   8.08439541
_cell_angle_alpha   90.00000000
_cell_angle_beta   90.00000000
_cell_angle_gamma   90.00000000
_symmetry_Int_Tables_number   1
_chemical_formula_structural   CeSn2Au3
_chemical_formula_sum   'Ce2 Sn4 Au6'
_cell_volume   278.39809666
_cell_formula_units_Z   2
loop_
 _symmetry_equiv_pos_site_id
 _symmetry_equiv_pos_as_xyz
  1  'x, y, z'
loop_
 _atom_site_type_symbol
 _atom_site_label
 _atom_site_symmetry_multiplicity
 _atom_site_fract_x
 _atom_site_fract_y
 _atom_site_fract_z
 _atom_site_occupancy
  Ce  Ce0  1  0.75000001  0.48785901  0.80219196  1
  Au  Au1  1  0.25000000  0.01214100  0.30219198  1
  Au  Au2  1  0.75000001  0.98785902  0.69780796  1
  Ce  Ce3  1  0.25000000  0.51214101  0.19780799  1
  Au  Au4  1  0.25000000  0.67693902  0.58475997  1
  Au  Au5  1  0.25000000  0.17693900  0.91523995  1
  Au  Au6  1  0.75000001  0.32306101  0.41523998  1
  Au  Au7  1  0.75000001  0.82306102  0.08476000  1
  Sn  Sn8  1  0.25000000  0.78137602  0.91172895  1
  Sn  Sn9  1  0.25000000  0.28137601  0.58827097  1
  Sn  Sn10  1  0.75000001  0.71862402  0.41172898  1
  Sn  Sn11  1  0.75000001  0.21862401  0.08827100  1
