# generated using pymatgen
data_K5Ag3F12
_symmetry_space_group_name_H-M   'P 1'
_cell_length_a   6.30032301
_cell_length_b   6.37198877
_cell_length_c   8.93352318
_cell_angle_alpha   90.00000000
_cell_angle_beta   89.76015472
_cell_angle_gamma   90.00000000
_symmetry_Int_Tables_number   1
_chemical_formula_structural   K5Ag3F12
_chemical_formula_sum   'K5 Ag3 F12'
_cell_volume   358.63839400
_cell_formula_units_Z   1
loop_
 _symmetry_equiv_pos_site_id
 _symmetry_equiv_pos_as_xyz
  1  'x, y, z'
loop_
 _atom_site_type_symbol
 _atom_site_label
 _atom_site_symmetry_multiplicity
 _atom_site_fract_x
 _atom_site_fract_y
 _atom_site_fract_z
 _atom_site_occupancy
  K  K0  1  0.49103800  0.46475602  0.75106899  1
  K  K1  1  0.00896200  0.96475603  0.74893101  1
  K  K2  1  0.99103800  0.03524400  0.25106897  1
  K  K3  1  0.50896200  0.53524402  0.24893099  1
  K  K4  1  0.00000000  0.50000002  0.50000001  1
  Ag  Ag5  1  0.50000000  1.00000004  -0.00000002  1
  Ag  Ag6  1  0.00000000  0.50000002  -0.00000000  1
  Ag  Ag7  1  0.50000000  0.00000000  0.49999999  1
  F  F8  1  0.08780000  0.46854602  0.22625600  1
  F  F9  1  0.41220000  0.96854603  0.27374399  1
  F  F10  1  0.91220000  0.53145402  0.77374398  1
  F  F11  1  0.58780000  0.03145400  0.72625599  1
  F  F12  1  0.23465800  0.19016401  0.54227000  1
  F  F13  1  0.26534200  0.69016402  0.95773000  1
  F  F14  1  0.76534200  0.80983603  0.45772998  1
  F  F15  1  0.73465800  0.30983601  0.04226998  1
  F  F16  1  0.81234100  0.76546903  0.05215197  1
  F  F17  1  0.68765900  0.26546901  0.44784798  1
  F  F18  1  0.18765900  0.23453101  0.94784800  1
  F  F19  1  0.31234100  0.73453103  0.55215200  1
