# generated using pymatgen
data_Tm5(NiSn)2
_symmetry_space_group_name_H-M   'P 1'
_cell_length_a   3.52386808
_cell_length_b   7.91365576
_cell_length_c   7.91365576
_cell_angle_alpha   120.00000000
_cell_angle_beta   90.00000000
_cell_angle_gamma   90.00000000
_symmetry_Int_Tables_number   1
_chemical_formula_structural   Tm5(NiSn)2
_chemical_formula_sum   'Tm5 Ni2 Sn2'
_cell_volume   191.11931633
_cell_formula_units_Z   1
loop_
 _symmetry_equiv_pos_site_id
 _symmetry_equiv_pos_as_xyz
  1  'x, y, z'
loop_
 _atom_site_type_symbol
 _atom_site_label
 _atom_site_symmetry_multiplicity
 _atom_site_fract_x
 _atom_site_fract_y
 _atom_site_fract_z
 _atom_site_occupancy
  Tm  Tm0  1  0.49999999  0.29037501  0.24760600  1
  Tm  Tm1  1  0.49999999  0.75239402  0.04276899  1
  Tm  Tm2  1  0.49999999  0.95723102  0.70962500  1
  Sn  Sn3  1  -0.00000000  0.07552700  0.41163501  1
  Tm  Tm4  1  -0.00000000  0.58836401  0.66389100  1
  Tm  Tm5  1  0.00000000  0.33610801  0.92447201  1
  Sn  Sn6  1  0.00000000  0.66666668  0.33333333  1
  Ni  Ni7  1  0.49999999  0.33333334  0.66666667  1
  Ni  Ni8  1  0.00000000  0.00000000  0.00000000  1
