# generated using pymatgen
data_Ba4Bi5O11
_symmetry_space_group_name_H-M   'P 1'
_cell_length_a   6.96027899
_cell_length_b   7.60847282
_cell_length_c   9.72318840
_cell_angle_alpha   90.00000000
_cell_angle_beta   92.23506165
_cell_angle_gamma   90.00000000
_symmetry_Int_Tables_number   1
_chemical_formula_structural   Ba4Bi5O11
_chemical_formula_sum   'Ba4 Bi5 O11'
_cell_volume   514.52007229
_cell_formula_units_Z   1
loop_
 _symmetry_equiv_pos_site_id
 _symmetry_equiv_pos_as_xyz
  1  'x, y, z'
loop_
 _atom_site_type_symbol
 _atom_site_label
 _atom_site_symmetry_multiplicity
 _atom_site_fract_x
 _atom_site_fract_y
 _atom_site_fract_z
 _atom_site_occupancy
  Ba  Ba0  1  0.96292900  0.61474301  0.24724802  1
  Ba  Ba1  1  0.46292900  0.88525702  0.74724799  1
  Ba  Ba2  1  0.53707100  0.11474300  0.25275201  1
  Ba  Ba3  1  0.03707100  0.38525701  0.75275197  1
  Bi  Bi4  1  0.06427800  0.10671800  0.43595298  1
  Bi  Bi5  1  0.93572200  0.89328202  0.56404701  1
  Bi  Bi6  1  0.43572200  0.60671801  0.06404701  1
  Bi  Bi7  1  0.56427800  0.39328201  0.93595298  1
  O  O8  1  0.12295300  0.98770602  0.23448399  1
  O  O9  1  0.67606500  0.79622602  0.44916100  1
  O  O10  1  0.82393500  0.29622601  0.05083903  1
  O  O11  1  0.32393500  0.20377400  0.55083899  1
  O  O12  1  0.33842100  0.18913500  0.93571197  1
  O  O13  1  0.16157900  0.68913502  0.56428798  1
  O  O14  1  0.66157900  0.81086502  0.06428802  1
  O  O15  1  0.83842100  0.31086501  0.43571201  1
  O  O16  1  0.37704700  0.48770601  0.26551600  1
  Bi  Bi17  1  0.87704700  0.01229400  0.76551600  1
  O  O18  1  0.62295300  0.51229401  0.73448399  1
  O  O19  1  0.17606500  0.70377402  0.94916097  1
