# generated using pymatgen
data_CrSe2
_symmetry_space_group_name_H-M   'P 1'
_cell_length_a   3.01521397
_cell_length_b   5.49213314
_cell_length_c   6.24986410
_cell_angle_alpha   90.00000000
_cell_angle_beta   90.00000000
_cell_angle_gamma   90.00000000
_symmetry_Int_Tables_number   1
_chemical_formula_structural   CrSe2
_chemical_formula_sum   'Cr2 Se4'
_cell_volume   103.49747797
_cell_formula_units_Z   2
loop_
 _symmetry_equiv_pos_site_id
 _symmetry_equiv_pos_as_xyz
  1  'x, y, z'
loop_
 _atom_site_type_symbol
 _atom_site_label
 _atom_site_symmetry_multiplicity
 _atom_site_fract_x
 _atom_site_fract_y
 _atom_site_fract_z
 _atom_site_occupancy
  Se  Se0  1  0.50000001  0.32907899  0.86531499  1
  Se  Se1  1  0.50000001  0.67092098  0.13468500  1
  Se  Se2  1  0.00000000  0.17092100  0.36531499  1
  Se  Se3  1  0.00000000  0.82907898  0.63468499  1
  Cr  Cr4  1  0.50000001  0.49999999  0.49999999  1
  Cr  Cr5  1  0.00000000  0.00000000  0.00000000  1
