# generated using pymatgen
data_Cr3BC2
_symmetry_space_group_name_H-M   'P 1'
_cell_length_a   3.16229677
_cell_length_b   4.18035984
_cell_length_c   5.24390841
_cell_angle_alpha   113.49018860
_cell_angle_beta   101.03430939
_cell_angle_gamma   90.00000000
_symmetry_Int_Tables_number   1
_chemical_formula_structural   Cr3BC2
_chemical_formula_sum   'Cr3 B1 C2'
_cell_volume   62.17734390
_cell_formula_units_Z   1
loop_
 _symmetry_equiv_pos_site_id
 _symmetry_equiv_pos_as_xyz
  1  'x, y, z'
loop_
 _atom_site_type_symbol
 _atom_site_label
 _atom_site_symmetry_multiplicity
 _atom_site_fract_x
 _atom_site_fract_y
 _atom_site_fract_z
 _atom_site_occupancy
  Cr  Cr0  1  0.40086302  0.33573401  0.67146800  1
  Cr  Cr1  1  0.59913703  0.66426603  0.32853201  1
  Cr  Cr2  1  0.00000000  0.00000000  0.00000000  1
  C  C3  1  0.59485702  0.14642901  0.29285801  1
  B  B4  1  0.00000001  0.50000002  0.00000001  1
  C  C5  1  0.40514302  0.85357104  0.70714201  1
