# generated using pymatgen
data_Ti3AlCoB
_symmetry_space_group_name_H-M   'P 1'
_cell_length_a   4.61250496
_cell_length_b   4.61250496
_cell_length_c   4.61250544
_cell_angle_alpha   65.37907410
_cell_angle_beta   65.37907410
_cell_angle_gamma   65.37906647
_symmetry_Int_Tables_number   1
_chemical_formula_structural   Ti3AlCoB
_chemical_formula_sum   'Ti3 Al1 Co1 B1'
_cell_volume   77.51315150
_cell_formula_units_Z   1
loop_
 _symmetry_equiv_pos_site_id
 _symmetry_equiv_pos_as_xyz
  1  'x, y, z'
loop_
 _atom_site_type_symbol
 _atom_site_label
 _atom_site_symmetry_multiplicity
 _atom_site_fract_x
 _atom_site_fract_y
 _atom_site_fract_z
 _atom_site_occupancy
  Ti  Ti0  1  0.62588903  0.62588900  0.62588907  1
  Al  Al1  1  0.37411102  0.37411100  0.37411104  1
  Co  Co2  1  0.00000000  0.00000000  0.50000000  1
  Ti  Ti3  1  0.00000002  0.50000000  1.00000003  1
  Ti  Ti4  1  0.50000000  0.00000000  0.00000003  1
  B  B5  1  0.00000000  0.00000000  0.00000000  1
