# generated using pymatgen
data_LiTa2C4O13
_symmetry_space_group_name_H-M   'P 1'
_cell_length_a   4.62367630
_cell_length_b   5.74005747
_cell_length_c   8.10742092
_cell_angle_alpha   103.70774841
_cell_angle_beta   90.81623840
_cell_angle_gamma   113.18837738
_symmetry_Int_Tables_number   1
_chemical_formula_structural   LiTa2C4O13
_chemical_formula_sum   'Li1 Ta2 C4 O13'
_cell_volume   190.75734646
_cell_formula_units_Z   1
loop_
 _symmetry_equiv_pos_site_id
 _symmetry_equiv_pos_as_xyz
  1  'x, y, z'
loop_
 _atom_site_type_symbol
 _atom_site_label
 _atom_site_symmetry_multiplicity
 _atom_site_fract_x
 _atom_site_fract_y
 _atom_site_fract_z
 _atom_site_occupancy
  O  O0  1  0.99997910  0.99999603  0.00001296  1
  Li  Li1  1  0.50002102  0.00000400  0.49998697  1
  Ta  Ta2  1  0.25000004  0.50000001  0.74999994  1
  Ta  Ta3  1  0.75000006  0.50000001  0.24999997  1
  C  C4  1  0.13460202  0.26842601  0.38000397  1
  C  C5  1  0.63451704  0.26841301  0.88002494  1
  C  C6  1  0.36539806  0.73157402  0.11999597  1
  C  C7  1  0.86548308  0.73158602  0.61997494  1
  O  O8  1  0.08990305  0.73621402  0.12845397  1
  O  O9  1  0.59002507  0.73630602  0.62846094  1
  O  O10  1  0.50376604  0.26450101  0.02004599  1
  O  O11  1  0.00385402  0.26449601  0.52004096  1
  O  O12  1  0.97907005  0.26921401  0.24456498  1
  O  O13  1  0.47904704  0.26929601  0.74458295  1
  O  O14  1  0.52093007  0.73078602  0.25543496  1
  O  O15  1  0.02095305  0.73070402  0.75541693  1
  O  O16  1  0.99623409  0.73549902  0.47995395  1
  O  O17  1  0.49614607  0.73550402  0.97995892  1
  O  O18  1  0.41009703  0.26378601  0.37154697  1
  O  O19  1  0.90997505  0.26369401  0.87153894  1
