# generated using pymatgen
data_NaMg2BPH3O10
_symmetry_space_group_name_H-M   'P 1'
_cell_length_a   5.35490417
_cell_length_b   5.35499430
_cell_length_c   7.40890217
_cell_angle_alpha   69.71428680
_cell_angle_beta   69.71493530
_cell_angle_gamma   71.70010376
_symmetry_Int_Tables_number   1
_chemical_formula_structural   NaMg2BPH3O10
_chemical_formula_sum   'Na1 Mg2 B1 P1 H3 O10'
_cell_volume   182.32640748
_cell_formula_units_Z   1
loop_
 _symmetry_equiv_pos_site_id
 _symmetry_equiv_pos_as_xyz
  1  'x, y, z'
loop_
 _atom_site_type_symbol
 _atom_site_label
 _atom_site_symmetry_multiplicity
 _atom_site_fract_x
 _atom_site_fract_y
 _atom_site_fract_z
 _atom_site_occupancy
  Na  Na0  1  0.50188400  0.50189500  0.49897800  1
  Mg  Mg1  1  0.50224199  0.00385500  0.99946401  1
  Mg  Mg2  1  0.00380201  0.50227400  0.99945102  1
  H  H3  1  0.69875000  0.69875701  0.76428200  1
  H  H4  1  0.31223500  0.31224200  0.22801900  1
  H  H5  1  0.50947400  0.50948300  0.99247901  1
  B  B6  1  0.09514800  0.09511800  0.70614601  1
  P  P7  1  0.90942500  0.90944301  0.29161499  1
  O  O8  1  0.65838100  0.65839800  0.91092001  1
  O  O9  1  0.35131000  0.35133100  0.08204399  1
  O  O10  1  0.18395701  0.79114401  0.75119501  1
  O  O11  1  0.79117199  0.18393100  0.75119300  1
  O  O12  1  0.82202899  0.21330400  0.24671799  1
  O  O13  1  0.21328101  0.82202501  0.24673200  1
  O  O14  1  0.22280400  0.22277400  0.49866401  1
  O  O15  1  0.78111600  0.78112801  0.49884699  1
  O  O16  1  0.19045600  0.19035500  0.83940201  1
  O  O17  1  0.81253300  0.81254501  0.15984999  1
