# generated using pymatgen
data_Co2B
_symmetry_space_group_name_H-M   'P 1'
_cell_length_a   3.35097528
_cell_length_b   3.35097528
_cell_length_c   3.35097528
_cell_angle_alpha   96.72911072
_cell_angle_beta   116.19403076
_cell_angle_gamma   116.19403076
_symmetry_Int_Tables_number   1
_chemical_formula_structural   Co2B
_chemical_formula_sum   'Co2 B1'
_cell_volume   27.92911738
_cell_formula_units_Z   1
loop_
 _symmetry_equiv_pos_site_id
 _symmetry_equiv_pos_as_xyz
  1  'x, y, z'
loop_
 _atom_site_type_symbol
 _atom_site_label
 _atom_site_symmetry_multiplicity
 _atom_site_fract_x
 _atom_site_fract_y
 _atom_site_fract_z
 _atom_site_occupancy
  B  B0  1  0.00000000  0.00000000  0.00000000  1
  Co  Co1  1  0.50000007  0.75000001  0.25000004  1
  Co  Co2  1  0.50000002  0.25000000  0.75000001  1
