# generated using pymatgen
data_Mn2Sb3Se7
_symmetry_space_group_name_H-M   'P 1'
_cell_length_a   3.81079602
_cell_length_b   6.52366257
_cell_length_c   11.34066010
_cell_angle_alpha   104.89448547
_cell_angle_beta   90.00000000
_cell_angle_gamma   106.98221588
_symmetry_Int_Tables_number   1
_chemical_formula_structural   Mn2Sb3Se7
_chemical_formula_sum   'Mn2 Sb3 Se7'
_cell_volume   259.71849699
_cell_formula_units_Z   1
loop_
 _symmetry_equiv_pos_site_id
 _symmetry_equiv_pos_as_xyz
  1  'x, y, z'
loop_
 _atom_site_type_symbol
 _atom_site_label
 _atom_site_symmetry_multiplicity
 _atom_site_fract_x
 _atom_site_fract_y
 _atom_site_fract_z
 _atom_site_occupancy
  Sb  Sb0  1  0.30656096  0.61312098  0.20936599  1
  Sb  Sb1  1  0.69401997  0.38803999  0.80129202  1
  Sb  Sb2  1  0.00100200  0.00200400  0.00762500  1
  Mn  Mn3  1  0.88805695  0.77611297  0.56261100  1
  Mn  Mn4  1  0.11517199  0.23034399  0.42469501  1
  Se  Se5  1  0.96929094  0.93858297  0.23250398  1
  Se  Se6  1  0.03684700  0.07369300  0.78431303  1
  Se  Se7  1  0.25271697  0.50543498  0.63264401  1
  Se  Se8  1  0.72562297  0.45124598  0.35306300  1
  Se  Se9  1  0.66359998  0.32720099  0.05328099  1
  Se  Se10  1  0.33985996  0.67971997  0.94823602  1
  Se  Se11  1  0.50724900  0.01449900  0.49037002  1
