# generated using pymatgen
data_Al9C
_symmetry_space_group_name_H-M   'P 1'
_cell_length_a   4.04094934
_cell_length_b   4.04094934
_cell_length_c   15.95675659
_cell_angle_alpha   90.00000000
_cell_angle_beta   90.00000000
_cell_angle_gamma   89.52855682
_symmetry_Int_Tables_number   1
_chemical_formula_structural   Al9C
_chemical_formula_sum   'Al18 C2'
_cell_volume   260.55339185
_cell_formula_units_Z   2
loop_
 _symmetry_equiv_pos_site_id
 _symmetry_equiv_pos_as_xyz
  1  'x, y, z'
loop_
 _atom_site_type_symbol
 _atom_site_label
 _atom_site_symmetry_multiplicity
 _atom_site_fract_x
 _atom_site_fract_y
 _atom_site_fract_z
 _atom_site_occupancy
  Al  Al0  1  0.45373198  0.45373200  0.75000002  1
  Al  Al1  1  0.54626797  0.54626800  0.25000001  1
  Al  Al2  1  0.49999997  0.50000000  0.50000001  1
  Al  Al3  1  0.49999997  0.50000000  1.00000003  1
  C  C4  1  0.02529300  0.02529300  0.12515700  1
  C  C5  1  0.02529300  0.02529300  0.37484301  1
  Al  Al6  1  0.97470695  0.97470700  0.87484302  1
  Al  Al7  1  0.97470695  0.97470700  0.62515702  1
  Al  Al8  1  0.98588495  0.98588500  0.25000001  1
  Al  Al9  1  0.01411500  0.01411400  0.75000002  1
  Al  Al10  1  0.49586595  0.98866500  0.37496801  1
  Al  Al11  1  0.00000000  0.00000000  0.50000001  1
  Al  Al12  1  0.98866497  0.49586600  0.37496801  1
  Al  Al13  1  0.50413400  0.01133500  0.87496802  1
  Al  Al14  1  0.50413400  0.01133500  0.62503202  1
  Al  Al15  1  0.98866497  0.49586600  0.12503200  1
  Al  Al16  1  0.01133497  0.50413400  0.62503202  1
  Al  Al17  1  0.01133497  0.50413400  0.87496802  1
  Al  Al18  1  0.00000000  0.00000000  0.00000000  1
  Al  Al19  1  0.49586595  0.98866500  0.12503200  1
