# generated using pymatgen
data_BaLa6Zn2S9
_symmetry_space_group_name_H-M   'P 1'
_cell_length_a   7.86906385
_cell_length_b   8.79436874
_cell_length_c   7.86906385
_cell_angle_alpha   63.42350769
_cell_angle_beta   90.00000000
_cell_angle_gamma   116.57649231
_symmetry_Int_Tables_number   1
_chemical_formula_structural   BaLa6Zn2S9
_chemical_formula_sum   'Ba1 La6 Zn2 S9'
_cell_volume   421.70694919
_cell_formula_units_Z   1
loop_
 _symmetry_equiv_pos_site_id
 _symmetry_equiv_pos_as_xyz
  1  'x, y, z'
loop_
 _atom_site_type_symbol
 _atom_site_label
 _atom_site_symmetry_multiplicity
 _atom_site_fract_x
 _atom_site_fract_y
 _atom_site_fract_z
 _atom_site_occupancy
  La  La0  1  0.74999999  0.49999996  0.25000003  1
  Ba  Ba1  1  0.24999998  0.49999996  0.75000004  1
  La  La2  1  0.84133502  0.00000000  0.65866501  1
  La  La3  1  0.65866501  0.00000000  0.15866500  1
  La  La4  1  0.34133501  0.00000000  0.84133502  1
  La  La5  1  0.15866495  0.99999992  0.34133506  1
  Zn  Zn6  1  0.24999998  0.49999996  0.25000003  1
  Zn  Zn7  1  0.74999999  0.49999996  0.75000004  1
  S  S8  1  0.98271600  0.26740498  0.21531102  1
  S  S9  1  0.71531198  0.73259694  0.48271505  1
  S  S10  1  0.01728396  0.73259494  0.78468905  1
  S  S11  1  0.51728397  0.73259594  0.98271606  1
  S  S12  1  0.21531197  0.73259594  0.28468804  1
  S  S13  1  0.48271600  0.26740398  0.01728401  1
  S  S14  1  0.78468800  0.26740398  0.71531203  1
  S  S15  1  0.28468799  0.26740298  0.51728502  1
  La  La16  1  0.00000000  0.00000000  0.00000000  1
  S  S17  1  0.50000001  0.00000000  0.50000001  1
