# generated using pymatgen
data_Ce11Sn2Pd3
_symmetry_space_group_name_H-M   'P 1'
_cell_length_a   7.70068789
_cell_length_b   7.70068789
_cell_length_c   8.92827415
_cell_angle_alpha   115.54709625
_cell_angle_beta   115.54709625
_cell_angle_gamma   90.00000000
_symmetry_Int_Tables_number   1
_chemical_formula_structural   Ce11Sn2Pd3
_chemical_formula_sum   'Ce11 Sn2 Pd3'
_cell_volume   419.58589714
_cell_formula_units_Z   1
loop_
 _symmetry_equiv_pos_site_id
 _symmetry_equiv_pos_as_xyz
  1  'x, y, z'
loop_
 _atom_site_type_symbol
 _atom_site_label
 _atom_site_symmetry_multiplicity
 _atom_site_fract_x
 _atom_site_fract_y
 _atom_site_fract_z
 _atom_site_occupancy
  Ce  Ce0  1  0.49999997  0.49999999  -0.00000005  1
  Ce  Ce1  1  0.00000000  0.00000000  0.00000000  1
  Ce  Ce2  1  0.52268696  0.68237999  0.70506691  1
  Ce  Ce3  1  0.18238000  0.02268700  0.70506697  1
  Ce  Ce4  1  0.02268697  0.52268699  0.70506694  1
  Ce  Ce5  1  0.68237999  0.18238000  0.70506693  1
  Ce  Ce6  1  0.47731298  0.31761999  0.29493295  1
  Ce  Ce7  1  0.81761994  0.97731298  0.29493289  1
  Ce  Ce8  1  0.97731297  0.47731299  0.29493292  1
  Ce  Ce9  1  0.31761995  0.81761998  0.29493292  1
  Sn  Sn10  1  0.24999998  0.25000000  0.49999995  1
  Sn  Sn11  1  0.74999995  0.74999999  0.49999990  1
  Pd  Pd12  1  0.87812996  0.62187099  0.00000092  1
  Ce  Ce13  1  0.12186998  0.37812899  0.99999893  1
  Pd  Pd14  1  0.37812995  0.87812998  -0.00000007  1
  Pd  Pd15  1  0.62186999  0.12187000  -0.00000003  1
