# generated using pymatgen
data_Na2U4Se3O
_symmetry_space_group_name_H-M   'P 1'
_cell_length_a   6.75046968
_cell_length_b   6.75046968
_cell_length_c   6.75503492
_cell_angle_alpha   119.65737152
_cell_angle_beta   119.65737152
_cell_angle_gamma   90.39779663
_symmetry_Int_Tables_number   1
_chemical_formula_structural   Na2U4Se3O
_chemical_formula_sum   'Na2 U4 Se3 O1'
_cell_volume   219.15201188
_cell_formula_units_Z   1
loop_
 _symmetry_equiv_pos_site_id
 _symmetry_equiv_pos_as_xyz
  1  'x, y, z'
loop_
 _atom_site_type_symbol
 _atom_site_label
 _atom_site_symmetry_multiplicity
 _atom_site_fract_x
 _atom_site_fract_y
 _atom_site_fract_z
 _atom_site_occupancy
  U  U0  1  0.27790305  0.27790302  0.40748208  1
  Na  Na1  1  0.22351614  0.81656705  0.04120315  1
  U  U2  1  0.13305402  0.13305401  0.88112406  1
  U  U3  1  0.89573316  0.89573305  0.17506121  1
  U  U4  1  0.75103513  0.75103504  0.64794519  1
  Na  Na5  1  0.81656704  0.22351601  0.04120308  1
  Se  Se6  1  0.25418913  0.75389204  0.50884616  1
  Se  Se7  1  0.50316309  0.50316303  0.00624811  1
  Se  Se8  1  0.75389204  0.25418901  0.50884610  1
  O  O9  1  0.01374800  0.01374800  0.02764300  1
