# generated using pymatgen
data_RbLa3Gd2CuS11
_symmetry_space_group_name_H-M   'P 1'
_cell_length_a   6.54584885
_cell_length_b   7.61217880
_cell_length_c   7.61217880
_cell_angle_alpha   90.00000000
_cell_angle_beta   90.00000000
_cell_angle_gamma   90.00000000
_symmetry_Int_Tables_number   1
_chemical_formula_structural   RbLa3Gd2CuS11
_chemical_formula_sum   'Rb1 La3 Gd2 Cu1 S11'
_cell_volume   379.30095340
_cell_formula_units_Z   1
loop_
 _symmetry_equiv_pos_site_id
 _symmetry_equiv_pos_as_xyz
  1  'x, y, z'
loop_
 _atom_site_type_symbol
 _atom_site_label
 _atom_site_symmetry_multiplicity
 _atom_site_fract_x
 _atom_site_fract_y
 _atom_site_fract_z
 _atom_site_occupancy
  La  La0  1  0.00000000  0.00000000  0.00000000  1
  Rb  Rb1  1  0.00000000  0.50000001  0.50000001  1
  La  La2  1  0.50000001  0.32370301  0.82370302  1
  La  La3  1  0.50000001  0.82370302  0.67629702  1
  Gd  Gd4  1  0.50000001  0.17629700  0.32370301  1
  Gd  Gd5  1  0.50000001  0.67629702  0.17629700  1
  Cu  Cu6  1  0.00000000  0.50000001  -0.00000000  1
  S  S7  1  0.00000000  0.00000000  0.50000001  1
  S  S8  1  0.78709302  0.13219500  0.63219502  1
  S  S9  1  0.78709302  0.86780502  0.36780501  1
  S  S10  1  0.78709302  0.36780501  0.13219500  1
  S  S11  1  0.78709302  0.63219502  0.86780502  1
  S  S12  1  0.21290700  0.13219500  0.63219502  1
  S  S13  1  0.21290700  0.63219502  0.86780502  1
  S  S14  1  0.21290700  0.36780501  0.13219500  1
  S  S15  1  0.21290700  0.86780502  0.36780501  1
  S  S16  1  0.50000001  0.00000000  -0.00000000  1
  S  S17  1  0.50000001  0.50000001  0.50000001  1
