# generated using pymatgen
data_Cs2Pt3Se4
_symmetry_space_group_name_H-M   'P 1'
_cell_length_a   6.55304193
_cell_length_b   6.55304193
_cell_length_c   8.15787506
_cell_angle_alpha   101.96212769
_cell_angle_beta   101.96212769
_cell_angle_gamma   118.94382477
_symmetry_Int_Tables_number   1
_chemical_formula_structural   Cs2Pt3Se4
_chemical_formula_sum   'Cs2 Pt3 Se4'
_cell_volume   279.88070958
_cell_formula_units_Z   1
loop_
 _symmetry_equiv_pos_site_id
 _symmetry_equiv_pos_as_xyz
  1  'x, y, z'
loop_
 _atom_site_type_symbol
 _atom_site_label
 _atom_site_symmetry_multiplicity
 _atom_site_fract_x
 _atom_site_fract_y
 _atom_site_fract_z
 _atom_site_occupancy
  Cs  Cs0  1  0.84814911  0.84814907  0.69629806  1
  Cs  Cs1  1  0.15185102  0.15185101  0.30370202  1
  Pt  Pt2  1  0.50000002  0.00000000  1.00000005  1
  Pt  Pt3  1  0.00000004  0.50000004  0.00000001  1
  Pt  Pt4  1  0.50000006  0.50000004  1.00000006  1
  Se  Se5  1  0.77642807  0.44043504  0.21686303  1
  Se  Se6  1  0.44043508  0.77642807  0.21686303  1
  Se  Se7  1  0.22357206  0.55956505  0.78313705  1
  Se  Se8  1  0.55956504  0.22357202  0.78313704  1
