# generated using pymatgen
data_Li3(FeO7)2
_symmetry_space_group_name_H-M   'P 1'
_cell_length_a   5.22843218
_cell_length_b   6.04335451
_cell_length_c   6.76975679
_cell_angle_alpha   77.18209839
_cell_angle_beta   75.01532745
_cell_angle_gamma   73.21759033
_symmetry_Int_Tables_number   1
_chemical_formula_structural   Li3(FeO7)2
_chemical_formula_sum   'Li3 Fe2 O14'
_cell_volume   195.30942856
_cell_formula_units_Z   1
loop_
 _symmetry_equiv_pos_site_id
 _symmetry_equiv_pos_as_xyz
  1  'x, y, z'
loop_
 _atom_site_type_symbol
 _atom_site_label
 _atom_site_symmetry_multiplicity
 _atom_site_fract_x
 _atom_site_fract_y
 _atom_site_fract_z
 _atom_site_occupancy
  Li  Li0  1  0.49999997  0.00000000  0.00000002  1
  O  O1  1  0.89204290  0.60386598  0.18975408  1
  O  O2  1  0.10400591  0.89778798  0.79335006  1
  O  O3  1  0.89599395  0.10221200  0.20665005  1
  O  O4  1  0.10795696  0.39613399  0.81024602  1
  O  O5  1  0.31489392  0.70272598  0.39883906  1
  O  O6  1  0.30791397  0.19173899  0.39446002  1
  O  O7  1  0.68510594  0.29727399  0.60116105  1
  O  O8  1  0.49999993  0.49999999  0.00000006  1
  O  O9  1  0.69208589  0.80826098  0.60554008  1
  O  O10  1  0.80645889  0.69293898  0.89849308  1
  O  O11  1  0.80629694  0.20559499  0.89551204  1
  Li  Li12  1  0.19370292  0.79440498  0.10448807  1
  O  O13  1  0.00000000  0.00000000  0.49999999  1
  O  O14  1  0.39779297  0.10226100  0.69379902  1
  O  O15  1  0.19354096  0.30706099  0.10150703  1
  Fe  Fe16  1  0.59722593  0.40115699  0.30137705  1
  Fe  Fe17  1  0.40277392  0.59884298  0.69862305  1
  Li  Li18  1  0.60220689  0.89773898  0.30620109  1
