# generated using pymatgen
data_Nb4CrS15
_symmetry_space_group_name_H-M   'P 1'
_cell_length_a   3.64459395
_cell_length_b   9.13356876
_cell_length_c   13.64580917
_cell_angle_alpha   91.00208282
_cell_angle_beta   90.00000000
_cell_angle_gamma   90.00000000
_symmetry_Int_Tables_number   1
_chemical_formula_structural   Nb4CrS15
_chemical_formula_sum   'Nb4 Cr1 S15'
_cell_volume   454.17426375
_cell_formula_units_Z   1
loop_
 _symmetry_equiv_pos_site_id
 _symmetry_equiv_pos_as_xyz
  1  'x, y, z'
loop_
 _atom_site_type_symbol
 _atom_site_label
 _atom_site_symmetry_multiplicity
 _atom_site_fract_x
 _atom_site_fract_y
 _atom_site_fract_z
 _atom_site_occupancy
  S  S0  1  0.00000000  0.84221602  0.95280399  1
  Cr  Cr1  1  0.50000001  0.67050102  0.44483200  1
  S  S2  1  0.50000001  0.15596400  0.04665200  1
  S  S3  1  0.50000001  0.03039300  0.67544399  1
  S  S4  1  0.50000001  0.54258301  0.83347899  1
  S  S5  1  0.00000000  0.96097803  0.32970800  1
  S  S6  1  1.00000001  0.45476901  0.17033400  1
  Nb  Nb7  1  0.00000000  0.34283201  0.54903700  1
  S  S8  1  0.50000001  0.16386800  0.49053399  1
  S  S9  1  0.50000001  0.68493802  0.00959601  1
  Nb  Nb10  1  0.00000000  0.82357802  0.50671200  1
  S  S11  1  1.00000001  0.31512201  0.99220199  1
  S  S12  1  1.00000001  0.22756001  0.71871099  1
  Nb  Nb13  1  0.00000000  0.73571402  0.79002200  1
  S  S14  1  0.50000001  0.76301002  0.28454700  1
  Nb  Nb15  1  0.50000001  0.26242301  0.21134000  1
  S  S16  1  0.50000001  0.52683801  0.60283300  1
  S  S17  1  0.50000001  0.00904900  0.89628499  1
  S  S18  1  0.00000000  0.49659001  0.39109800  1
  S  S19  1  0.00000000  0.99107403  0.10383001  1
