# generated using pymatgen
data_NaCu(SO4)2
_symmetry_space_group_name_H-M   'P 1'
_cell_length_a   4.79814196
_cell_length_b   4.89140844
_cell_length_c   8.38229084
_cell_angle_alpha   79.91525269
_cell_angle_beta   75.80805969
_cell_angle_gamma   62.78151703
_symmetry_Int_Tables_number   1
_chemical_formula_structural   NaCu(SO4)2
_chemical_formula_sum   'Na1 Cu1 S2 O8'
_cell_volume   169.15318384
_cell_formula_units_Z   1
loop_
 _symmetry_equiv_pos_site_id
 _symmetry_equiv_pos_as_xyz
  1  'x, y, z'
loop_
 _atom_site_type_symbol
 _atom_site_label
 _atom_site_symmetry_multiplicity
 _atom_site_fract_x
 _atom_site_fract_y
 _atom_site_fract_z
 _atom_site_occupancy
  Na  Na0  1  0.00000000  0.00000000  0.00000000  1
  Cu  Cu1  1  0.50000002  0.49999997  0.50000000  1
  S  S2  1  0.84366002  0.61601696  0.74895100  1
  S  S3  1  0.15634001  0.38398298  0.25104900  1
  O  O4  1  0.74914203  0.81387995  0.88663899  1
  O  O5  1  0.08537801  0.29528898  0.78225498  1
  O  O6  1  0.53643902  0.62107496  0.73163999  1
  O  O7  1  0.97955703  0.74240096  0.59008401  1
  O  O8  1  0.02044301  0.25759898  0.40991599  1
  O  O9  1  0.46356101  0.37892498  0.26836000  1
  O  O10  1  0.91462202  0.70471096  0.21774501  1
  O  O11  1  0.25085801  0.18611999  0.11336100  1
