# generated using pymatgen
data_Ba2Sb5Pd3
_symmetry_space_group_name_H-M   'P 1'
_cell_length_a   4.80643320
_cell_length_b   4.80643320
_cell_length_c   10.87567139
_cell_angle_alpha   90.00000000
_cell_angle_beta   90.00000000
_cell_angle_gamma   90.00000000
_symmetry_Int_Tables_number   1
_chemical_formula_structural   Ba2Sb5Pd3
_chemical_formula_sum   'Ba2 Sb5 Pd3'
_cell_volume   251.24758648
_cell_formula_units_Z   1
loop_
 _symmetry_equiv_pos_site_id
 _symmetry_equiv_pos_as_xyz
  1  'x, y, z'
loop_
 _atom_site_type_symbol
 _atom_site_label
 _atom_site_symmetry_multiplicity
 _atom_site_fract_x
 _atom_site_fract_y
 _atom_site_fract_z
 _atom_site_occupancy
  Ba  Ba0  1  0.00000000  0.49999998  0.24407899  1
  Ba  Ba1  1  0.49999998  0.00000000  0.75592097  1
  Sb  Sb2  1  0.00000000  0.00000000  0.49999998  1
  Sb  Sb3  1  0.49999998  0.49999998  0.49999998  1
  Sb  Sb4  1  0.00000000  0.49999998  0.87582597  1
  Pd  Pd5  1  0.49999998  0.00000000  0.12417400  1
  Sb  Sb6  1  0.00000000  0.00000000  0.00000000  1
  Sb  Sb7  1  0.49999998  0.49999998  -0.00000000  1
  Pd  Pd8  1  0.00000000  0.49999998  0.62267998  1
  Pd  Pd9  1  0.49999998  0.00000000  0.37731999  1
