# generated using pymatgen
data_Rb3NbPRu3
_symmetry_space_group_name_H-M   'P 1'
_cell_length_a   5.56475210
_cell_length_b   5.56475210
_cell_length_c   5.56475210
_cell_angle_alpha   90.00000000
_cell_angle_beta   90.00000000
_cell_angle_gamma   90.00000000
_symmetry_Int_Tables_number   1
_chemical_formula_structural   Rb3NbPRu3
_chemical_formula_sum   'Rb3 Nb1 P1 Ru3'
_cell_volume   172.32070651
_cell_formula_units_Z   1
loop_
 _symmetry_equiv_pos_site_id
 _symmetry_equiv_pos_as_xyz
  1  'x, y, z'
loop_
 _atom_site_type_symbol
 _atom_site_label
 _atom_site_symmetry_multiplicity
 _atom_site_fract_x
 _atom_site_fract_y
 _atom_site_fract_z
 _atom_site_occupancy
  Nb  Nb0  1  0.00000000  0.00000000  0.00000000  1
  Ru  Ru1  1  0.00000000  0.00000000  0.49999999  1
  Ru  Ru2  1  0.00000000  0.49999999  -0.00000000  1
  Ru  Ru3  1  0.49999999  0.00000000  -0.00000000  1
  Rb  Rb4  1  0.75949799  0.75949799  0.24050200  1
  Rb  Rb5  1  0.75949799  0.24050200  0.75949799  1
  Rb  Rb6  1  0.24050200  0.75949799  0.75949799  1
  P  P7  1  0.24050200  0.24050200  0.24050200  1
