# generated using pymatgen
data_Tb3Ga13Co2
_symmetry_space_group_name_H-M   'P 1'
_cell_length_a   7.03773403
_cell_length_b   7.48108816
_cell_length_c   8.37120628
_cell_angle_alpha   116.54077148
_cell_angle_beta   114.85691833
_cell_angle_gamma   90.00000000
_symmetry_Int_Tables_number   1
_chemical_formula_structural   Tb3Ga13Co2
_chemical_formula_sum   'Tb3 Ga13 Co2'
_cell_volume   348.05929553
_cell_formula_units_Z   1
loop_
 _symmetry_equiv_pos_site_id
 _symmetry_equiv_pos_as_xyz
  1  'x, y, z'
loop_
 _atom_site_type_symbol
 _atom_site_label
 _atom_site_symmetry_multiplicity
 _atom_site_fract_x
 _atom_site_fract_y
 _atom_site_fract_z
 _atom_site_occupancy
  Tb  Tb0  1  0.44980306  0.73513101  0.90308611  1
  Tb  Tb1  1  0.54671703  0.26486900  0.09691405  1
  Ga  Ga2  1  0.94980407  0.66795601  0.90308714  1
  Tb  Tb3  1  0.04671602  0.33204400  0.09691303  1
  Ga  Ga4  1  0.25111706  0.88437801  0.50000009  1
  Ga  Ga5  1  0.75111703  0.11562200  0.50000008  1
  Co  Co6  1  0.24972502  0.27961500  0.50000006  1
  Co  Co7  1  0.74972506  0.72038501  0.50000011  1
  Ga  Ga8  1  0.68537608  0.95520001  0.79447314  1
  Ga  Ga9  1  0.89090303  0.04479900  0.20552606  1
  Ga  Ga10  1  0.18537703  0.33927300  0.79447407  1
  Ga  Ga11  1  0.39090305  0.66072701  0.20552607  1
  Ga  Ga12  1  0.30414401  0.03337800  0.20112403  1
  Ga  Ga13  1  0.10302006  0.96662201  0.79887610  1
  Ga  Ga14  1  0.80414406  0.66774601  0.20112410  1
  Ga  Ga15  1  0.60302004  0.33225400  0.79887609  1
  Ga  Ga16  1  0.05439404  0.54209600  0.50000006  1
  Ga  Ga17  1  0.55439404  0.45790400  0.50000008  1
