# generated using pymatgen
data_Zr8GaTe9
_symmetry_space_group_name_H-M   'P 1'
_cell_length_a   5.82935476
_cell_length_b   8.66146564
_cell_length_c   8.66146660
_cell_angle_alpha   120.00000000
_cell_angle_beta   90.00000000
_cell_angle_gamma   90.00000000
_symmetry_Int_Tables_number   1
_chemical_formula_structural   Zr8GaTe9
_chemical_formula_sum   'Zr8 Ga1 Te9'
_cell_volume   378.73369085
_cell_formula_units_Z   1
loop_
 _symmetry_equiv_pos_site_id
 _symmetry_equiv_pos_as_xyz
  1  'x, y, z'
loop_
 _atom_site_type_symbol
 _atom_site_label
 _atom_site_symmetry_multiplicity
 _atom_site_fract_x
 _atom_site_fract_y
 _atom_site_fract_z
 _atom_site_occupancy
  Zr  Zr0  1  0.25000001  0.26771301  0.99999998  1
  Te  Te1  1  0.25000001  0.73228704  0.73228700  1
  Te  Te2  1  0.25000001  0.00000000  0.26771299  1
  Te  Te3  1  0.75000003  0.73228704  0.99999999  1
  Te  Te4  1  0.75000003  0.26771301  0.26771300  1
  Te  Te5  1  0.75000003  0.00000000  0.73228698  1
  Te  Te6  1  1.00000004  0.33333335  0.66666666  1
  Te  Te7  1  1.00000004  0.66666670  0.33333334  1
  Te  Te8  1  0.50000002  0.66666670  0.33333334  1
  Te  Te9  1  0.50000002  0.33333335  0.66666666  1
  Ga  Ga10  1  0.00000000  0.00000000  0.00000000  1
  Zr  Zr11  1  0.50000002  0.00000000  -0.00000000  1
  Zr  Zr12  1  0.25000001  0.61125803  0.99999999  1
  Zr  Zr13  1  0.25000001  0.38874202  0.38874200  1
  Zr  Zr14  1  0.25000001  0.00000000  0.61125798  1
  Zr  Zr15  1  0.75000003  0.38874202  0.99999998  1
  Zr  Zr16  1  0.75000003  0.61125803  0.61125800  1
  Zr  Zr17  1  0.75000003  0.00000000  0.38874199  1
