# generated using pymatgen
data_TlTe
_symmetry_space_group_name_H-M   'P 1'
_cell_length_a   3.36707592
_cell_length_b   3.36707568
_cell_length_c   11.22478008
_cell_angle_alpha   90.00000000
_cell_angle_beta   90.00000000
_cell_angle_gamma   120.00000000
_symmetry_Int_Tables_number   1
_chemical_formula_structural   TlTe
_chemical_formula_sum   'Tl2 Te2'
_cell_volume   110.20828894
_cell_formula_units_Z   2
loop_
 _symmetry_equiv_pos_site_id
 _symmetry_equiv_pos_as_xyz
  1  'x, y, z'
loop_
 _atom_site_type_symbol
 _atom_site_label
 _atom_site_symmetry_multiplicity
 _atom_site_fract_x
 _atom_site_fract_y
 _atom_site_fract_z
 _atom_site_occupancy
  Te  Te0  1  0.33333330  0.66666665  -0.00000000  1
  Te  Te1  1  0.33333330  0.66666665  0.50000000  1
  Tl  Tl2  1  0.66666666  0.33333332  0.75046299  1
  Tl  Tl3  1  0.66666666  0.33333332  0.24953700  1
