# generated using pymatgen
data_LaNb7Ni3CS3O4
_symmetry_space_group_name_H-M   'P 1'
_cell_length_a   3.94429302
_cell_length_b   3.94429302
_cell_length_c   19.79578209
_cell_angle_alpha   90.00000000
_cell_angle_beta   90.00000000
_cell_angle_gamma   90.00000000
_symmetry_Int_Tables_number   1
_chemical_formula_structural   LaNb7Ni3CS3O4
_chemical_formula_sum   'La1 Nb7 Ni3 C1 S3 O4'
_cell_volume   307.97183948
_cell_formula_units_Z   1
loop_
 _symmetry_equiv_pos_site_id
 _symmetry_equiv_pos_as_xyz
  1  'x, y, z'
loop_
 _atom_site_type_symbol
 _atom_site_label
 _atom_site_symmetry_multiplicity
 _atom_site_fract_x
 _atom_site_fract_y
 _atom_site_fract_z
 _atom_site_occupancy
  Nb  Nb0  1  0.50000000  0.50000000  0.88456800  1
  C  C1  1  0.50000000  0.50000000  0.11543200  1
  Nb  Nb2  1  0.00000000  0.00000000  0.00000000  1
  O  O3  1  0.50000000  0.50000000  0.60246900  1
  Nb  Nb4  1  0.50000000  0.50000000  0.39753100  1
  S  S5  1  0.00000000  0.00000000  0.72956700  1
  Nb  Nb6  1  0.00000000  0.00000000  0.27043300  1
  La  La7  1  0.00000000  0.00000000  0.50000000  1
  O  O8  1  0.50000000  0.50000000  0.79291000  1
  Ni  Ni9  1  0.50000000  0.50000000  0.20709000  1
  Nb  Nb10  1  0.50000000  0.00000000  0.65809300  1
  Nb  Nb11  1  0.00000000  0.50000000  0.65809300  1
  S  S12  1  0.50000000  0.00000000  0.34190700  1
  S  S13  1  0.00000000  0.50000000  0.34190700  1
  O  O14  1  0.50000000  0.00000000  0.90585600  1
  O  O15  1  0.00000000  0.50000000  0.90585600  1
  Ni  Ni16  1  0.50000000  0.00000000  0.09414400  1
  Ni  Ni17  1  0.00000000  0.50000000  0.09414400  1
  Nb  Nb18  1  0.50000000  0.50000000  -0.00000000  1
