# generated using pymatgen
data_PrTeI4
_symmetry_space_group_name_H-M   'P 1'
_cell_length_a   4.16837883
_cell_length_b   7.80410480
_cell_length_c   10.32462406
_cell_angle_alpha   90.00000000
_cell_angle_beta   90.00000000
_cell_angle_gamma   90.00000000
_symmetry_Int_Tables_number   1
_chemical_formula_structural   PrTeI4
_chemical_formula_sum   'Pr2 Te2 I8'
_cell_volume   335.86482432
_cell_formula_units_Z   2
loop_
 _symmetry_equiv_pos_site_id
 _symmetry_equiv_pos_as_xyz
  1  'x, y, z'
loop_
 _atom_site_type_symbol
 _atom_site_label
 _atom_site_symmetry_multiplicity
 _atom_site_fract_x
 _atom_site_fract_y
 _atom_site_fract_z
 _atom_site_occupancy
  Pr  Pr0  1  0.25000001  0.72560102  0.84264799  1
  Pr  Pr1  1  0.75000003  0.27439901  0.15735200  1
  Te  Te2  1  0.75000003  0.77439902  0.34264800  1
  Te  Te3  1  0.25000001  0.22560101  0.65735200  1
  I  I4  1  0.25000001  0.59095301  0.14903100  1
  I  I5  1  0.75000003  0.40904701  0.85096899  1
  I  I6  1  0.75000003  0.90904702  0.64903100  1
  I  I7  1  0.25000001  0.09095300  0.35096900  1
  I  I8  1  0.25000001  0.59187901  0.53873900  1
  I  I9  1  0.75000003  0.40812101  0.46126100  1
  I  I10  1  0.75000003  0.90812102  0.03873900  1
  I  I11  1  0.25000001  0.09187900  0.96126099  1
