# generated using pymatgen
data_CsNb(CuS2)2
_symmetry_space_group_name_H-M   'P 1'
_cell_length_a   5.61032581
_cell_length_b   7.70886517
_cell_length_c   9.80277729
_cell_angle_alpha   90.00000000
_cell_angle_beta   106.62820435
_cell_angle_gamma   90.00000000
_symmetry_Int_Tables_number   1
_chemical_formula_structural   CsNb(CuS2)2
_chemical_formula_sum   'Cs2 Nb2 Cu4 S8'
_cell_volume   406.23337212
_cell_formula_units_Z   2
loop_
 _symmetry_equiv_pos_site_id
 _symmetry_equiv_pos_as_xyz
  1  'x, y, z'
loop_
 _atom_site_type_symbol
 _atom_site_label
 _atom_site_symmetry_multiplicity
 _atom_site_fract_x
 _atom_site_fract_y
 _atom_site_fract_z
 _atom_site_occupancy
  Cs  Cs0  1  0.17004401  0.74999998  0.37006900  1
  Cs  Cs1  1  0.79997504  0.24999999  0.62993101  1
  Nb  Nb2  1  0.64200603  0.74999998  0.78422400  1
  Nb  Nb3  1  0.85778204  0.24999999  0.21577602  1
  Cu  Cu4  1  0.73426103  0.49999999  1.00000000  1
  Cu  Cu5  1  0.73426103  0.00000000  1.00000000  1
  Cu  Cu6  1  0.35910902  0.24999999  0.21706001  1
  Cu  Cu7  1  0.14204901  0.74999998  0.78293999  1
  S  S8  1  0.62216603  0.00103000  0.21996301  1
  S  S9  1  0.40220302  0.50102999  0.78003600  1
  S  S10  1  0.98992805  0.74999998  0.99076001  1
  S  S11  1  0.40220302  0.99896998  0.78003600  1
  S  S12  1  0.19198801  0.24999999  0.41793900  1
  S  S13  1  0.77404904  0.74999998  0.58206101  1
  S  S14  1  0.99916805  0.24999999  0.00924003  1
  S  S15  1  0.62216603  0.49896999  0.21996301  1
