# generated using pymatgen
data_Nd3YO7
_symmetry_space_group_name_H-M   'P 1'
_cell_length_a   3.95086408
_cell_length_b   3.95086408
_cell_length_c   11.19501686
_cell_angle_alpha   90.00000000
_cell_angle_beta   90.00000000
_cell_angle_gamma   90.00000000
_symmetry_Int_Tables_number   1
_chemical_formula_structural   Nd3YO7
_chemical_formula_sum   'Nd3 Y1 O7'
_cell_volume   174.74667841
_cell_formula_units_Z   1
loop_
 _symmetry_equiv_pos_site_id
 _symmetry_equiv_pos_as_xyz
  1  'x, y, z'
loop_
 _atom_site_type_symbol
 _atom_site_label
 _atom_site_symmetry_multiplicity
 _atom_site_fract_x
 _atom_site_fract_y
 _atom_site_fract_z
 _atom_site_occupancy
  Nd  Nd0  1  0.49999999  0.00000000  0.86747201  1
  Nd  Nd1  1  -0.00000000  0.49999999  0.13252800  1
  Nd  Nd2  1  0.49999999  0.00000000  0.37381600  1
  Y  Y3  1  -0.00000000  0.49999999  0.62618401  1
  O  O4  1  0.49999999  0.49999999  0.00000000  1
  O  O5  1  0.00000000  0.00000000  0.23946900  1
  O  O6  1  0.49999999  0.49999999  0.25553100  1
  O  O7  1  0.49999999  0.49999999  0.50000001  1
  O  O8  1  0.00000000  0.00000000  0.50000001  1
  O  O9  1  0.49999999  0.49999999  0.74446901  1
  O  O10  1  0.00000000  0.00000000  0.76053101  1
