# generated using pymatgen
data_DyMn7Ge5
_symmetry_space_group_name_H-M   'P 1'
_cell_length_a   5.16944933
_cell_length_b   5.17201519
_cell_length_c   8.21949387
_cell_angle_alpha   90.00000000
_cell_angle_beta   90.00000000
_cell_angle_gamma   119.94288635
_symmetry_Int_Tables_number   1
_chemical_formula_structural   DyMn7Ge5
_chemical_formula_sum   'Dy1 Mn7 Ge5'
_cell_volume   190.42739976
_cell_formula_units_Z   1
loop_
 _symmetry_equiv_pos_site_id
 _symmetry_equiv_pos_as_xyz
  1  'x, y, z'
loop_
 _atom_site_type_symbol
 _atom_site_label
 _atom_site_symmetry_multiplicity
 _atom_site_fract_x
 _atom_site_fract_y
 _atom_site_fract_z
 _atom_site_occupancy
  Dy  Dy0  1  0.99975898  0.99980495  -0.00000000  1
  Mn  Mn1  1  0.49959399  0.50045398  0.75207301  1
  Mn  Mn2  1  0.49957497  0.99907995  0.75201901  1
  Mn  Mn3  1  0.00090698  0.50049098  0.75200001  1
  Mn  Mn4  1  0.49959399  0.50045398  0.24792700  1
  Mn  Mn5  1  0.49957497  0.99907995  0.24798100  1
  Mn  Mn6  1  0.00090698  0.50049098  0.24800000  1
  Mn  Mn7  1  0.66625600  0.33309098  0.50000001  1
  Ge  Ge8  1  0.33353598  0.66686297  1.00000002  1
  Ge  Ge9  1  0.66647300  0.33308598  -0.00000000  1
  Ge  Ge10  1  0.00016900  0.00005100  0.65697501  1
  Ge  Ge11  1  0.00016900  0.00005100  0.34302501  1
  Ge  Ge12  1  0.33368398  0.66700297  0.50000001  1
