# generated using pymatgen
data_LaMn4(CuO4)3
_symmetry_space_group_name_H-M   'P 1'
_cell_length_a   6.49126244
_cell_length_b   6.49126244
_cell_length_c   6.49126244
_cell_angle_alpha   109.47122192
_cell_angle_beta   109.47122192
_cell_angle_gamma   109.47122192
_symmetry_Int_Tables_number   1
_chemical_formula_structural   LaMn4(CuO4)3
_chemical_formula_sum   'La1 Mn4 Cu3 O12'
_cell_volume   210.55501572
_cell_formula_units_Z   1
loop_
 _symmetry_equiv_pos_site_id
 _symmetry_equiv_pos_as_xyz
  1  'x, y, z'
loop_
 _atom_site_type_symbol
 _atom_site_label
 _atom_site_symmetry_multiplicity
 _atom_site_fract_x
 _atom_site_fract_y
 _atom_site_fract_z
 _atom_site_occupancy
  La  La0  1  0.00000000  0.00000000  0.00000000  1
  Mn  Mn1  1  0.50000002  0.50000000  1.00000001  1
  Mn  Mn2  1  0.49999999  0.00000000  0.50000000  1
  Mn  Mn3  1  0.00000003  0.50000000  0.50000001  1
  Mn  Mn4  1  0.50000002  0.50000000  0.50000002  1
  Cu  Cu5  1  0.99999998  0.00000000  0.50000001  1
  Cu  Cu6  1  0.00000003  0.50000000  0.00000003  1
  Cu  Cu7  1  0.49999999  0.00000000  0.99999998  1
  O  O8  1  0.30858000  0.17839200  0.48697100  1
  O  O9  1  0.69142004  0.82160801  0.51302905  1
  O  O10  1  0.30858005  0.82160901  0.13018905  1
  O  O11  1  0.69142000  0.17839100  0.86981100  1
  O  O12  1  0.82160901  0.51302900  0.69142103  1
  O  O13  1  0.17839103  0.48697100  0.30857902  1
  O  O14  1  0.17839105  0.86981101  0.69142003  1
  O  O15  1  0.82160899  0.13018900  0.30858002  1
  O  O16  1  0.13018802  0.30857900  0.82160800  1
  O  O17  1  0.86981202  0.69142101  0.17839205  1
  O  O18  1  0.48697101  0.30858000  0.17839102  1
  O  O19  1  0.51302903  0.69142001  0.82160903  1
