# generated using pymatgen
data_Mg(MnS2)2
_symmetry_space_group_name_H-M   'P 1'
_cell_length_a   7.24555302
_cell_length_b   7.24527407
_cell_length_c   7.25451803
_cell_angle_alpha   60.04074097
_cell_angle_beta   60.04120255
_cell_angle_gamma   60.00026703
_symmetry_Int_Tables_number   1
_chemical_formula_structural   Mg(MnS2)2
_chemical_formula_sum   'Mg2 Mn4 S8'
_cell_volume   269.45700410
_cell_formula_units_Z   2
loop_
 _symmetry_equiv_pos_site_id
 _symmetry_equiv_pos_as_xyz
  1  'x, y, z'
loop_
 _atom_site_type_symbol
 _atom_site_label
 _atom_site_symmetry_multiplicity
 _atom_site_fract_x
 _atom_site_fract_y
 _atom_site_fract_z
 _atom_site_occupancy
  Mg  Mg0  1  0.87553204  0.87549101  0.37346197  1
  Mg  Mg1  1  0.12450001  0.12449700  0.62651698  1
  Mn  Mn2  1  0.49983502  0.50010601  0.00012699  1
  Mn  Mn3  1  0.49993803  0.99990601  0.00012897  1
  Mn  Mn4  1  0.00011301  0.50003701  0.99976995  1
  Mn  Mn5  1  0.50001902  0.50002001  0.49999598  1
  S  S6  1  0.73662503  0.73657701  0.79020996  1
  S  S7  1  0.25961501  0.25965100  0.76872197  1
  S  S8  1  0.71205202  0.25963100  0.76867098  1
  S  S9  1  0.25963702  0.71199401  0.76873796  1
  S  S10  1  0.28801602  0.74035001  0.23126497  1
  S  S11  1  0.74035002  0.28796100  0.23131800  1
  S  S12  1  0.26342301  0.26338600  0.20978399  1
  S  S13  1  0.74033903  0.74039901  0.23128998  1
