# generated using pymatgen
data_Ba4Ca2Mo2O11
_symmetry_space_group_name_H-M   'P 1'
_cell_length_a   6.00673771
_cell_length_b   6.00673771
_cell_length_c   8.70984554
_cell_angle_alpha   90.00000000
_cell_angle_beta   90.00000000
_cell_angle_gamma   91.13507080
_symmetry_Int_Tables_number   1
_chemical_formula_structural   Ba4Ca2Mo2O11
_chemical_formula_sum   'Ba4 Ca2 Mo2 O11'
_cell_volume   314.19738202
_cell_formula_units_Z   1
loop_
 _symmetry_equiv_pos_site_id
 _symmetry_equiv_pos_as_xyz
  1  'x, y, z'
loop_
 _atom_site_type_symbol
 _atom_site_label
 _atom_site_symmetry_multiplicity
 _atom_site_fract_x
 _atom_site_fract_y
 _atom_site_fract_z
 _atom_site_occupancy
  Ba  Ba0  1  0.47560099  0.02152500  0.72104004  1
  Ba  Ba1  1  0.47560099  0.02152500  0.27896001  1
  Ba  Ba2  1  0.97847495  0.52439899  0.72104004  1
  Ba  Ba3  1  0.97847495  0.52439899  0.27896001  1
  Ca  Ca4  1  0.48389796  0.51610199  0.50000003  1
  Ca  Ca5  1  0.02149395  0.97850598  -0.00000000  1
  Mo  Mo6  1  0.49885196  0.50114799  -0.00000000  1
  Mo  Mo7  1  0.97980898  0.02019100  0.50000003  1
  O  O8  1  0.75396797  0.24603099  0.50000003  1
  O  O9  1  0.21057796  0.78942198  0.50000003  1
  O  O10  1  0.75570494  0.78160198  0.50000003  1
  O  O11  1  0.21839798  0.24429499  0.50000003  1
  O  O12  1  0.97672398  0.02327600  0.72858304  1
  O  O13  1  0.97672398  0.02327600  0.27141701  1
  O  O14  1  0.50728796  0.49271199  0.22256101  1
  O  O15  1  0.50728796  0.49271199  0.77743904  1
  O  O16  1  0.28324096  0.71675898  1.00000005  1
  O  O17  1  0.80144295  0.59729999  -0.00000000  1
  O  O18  1  0.40269998  0.19855700  -0.00000000  1
