# generated using pymatgen
data_TbLuS6
_symmetry_space_group_name_H-M   'P 1'
_cell_length_a   5.64312506
_cell_length_b   5.64312506
_cell_length_c   8.72245312
_cell_angle_alpha   90.00000000
_cell_angle_beta   90.00000000
_cell_angle_gamma   102.55459595
_symmetry_Int_Tables_number   1
_chemical_formula_structural   TbLuS6
_chemical_formula_sum   'Tb2 Lu2 S12'
_cell_volume   271.12374559
_cell_formula_units_Z   2
loop_
 _symmetry_equiv_pos_site_id
 _symmetry_equiv_pos_as_xyz
  1  'x, y, z'
loop_
 _atom_site_type_symbol
 _atom_site_label
 _atom_site_symmetry_multiplicity
 _atom_site_fract_x
 _atom_site_fract_y
 _atom_site_fract_z
 _atom_site_occupancy
  Lu  Lu0  1  0.56551495  0.56551498  0.25000000  1
  Tb  Tb1  1  0.43448496  0.43448498  0.74999999  1
  Tb  Tb2  1  0.20833695  0.79166297  0.49999999  1
  Lu  Lu3  1  0.79166296  0.20833699  0.99999999  1
  S  S4  1  0.79166296  0.20833699  0.49999999  1
  S  S5  1  0.20833695  0.79166297  -0.00000000  1
  S  S6  1  0.71169194  0.71169197  0.97311199  1
  S  S7  1  0.71169194  0.71169197  0.52688799  1
  S  S8  1  0.28830798  0.28830799  0.02688800  1
  S  S9  1  0.28830798  0.28830799  0.47311199  1
  S  S10  1  0.02496697  0.49377298  0.25000000  1
  S  S11  1  0.97503294  0.50622698  0.74999999  1
  S  S12  1  0.01310700  0.01310700  0.74999999  1
  S  S13  1  0.98689291  0.98689296  0.25000000  1
  S  S14  1  0.49377298  0.02496700  0.25000000  1
  S  S15  1  0.50622693  0.97503296  0.74999999  1
