# generated using pymatgen
data_CdN
_symmetry_space_group_name_H-M   'P 1'
_cell_length_a   5.81508303
_cell_length_b   6.13445807
_cell_length_c   7.25592995
_cell_angle_alpha   90.00000000
_cell_angle_beta   90.00000000
_cell_angle_gamma   90.00000000
_symmetry_Int_Tables_number   1
_chemical_formula_structural   CdN
_chemical_formula_sum   'Cd8 N8'
_cell_volume   258.83631189
_cell_formula_units_Z   8
loop_
 _symmetry_equiv_pos_site_id
 _symmetry_equiv_pos_as_xyz
  1  'x, y, z'
loop_
 _atom_site_type_symbol
 _atom_site_label
 _atom_site_symmetry_multiplicity
 _atom_site_fract_x
 _atom_site_fract_y
 _atom_site_fract_z
 _atom_site_occupancy
  Cd  Cd0  1  0.99766600  0.58338499  0.87576501  1
  Cd  Cd1  1  0.49766600  0.41661500  0.12423500  1
  Cd  Cd2  1  0.49766600  0.91661499  0.37576500  1
  Cd  Cd3  1  0.99766600  0.08338500  0.62423500  1
  Cd  Cd4  1  0.99967200  0.57652099  0.37422000  1
  Cd  Cd5  1  0.49967200  0.42347900  0.62578000  1
  Cd  Cd6  1  0.49967200  0.92347899  0.87422001  1
  Cd  Cd7  1  0.99967200  0.07652100  0.12578000  1
  N  N8  1  0.35875300  0.56522799  0.39059700  1
  N  N9  1  0.85875300  0.43477200  0.60940300  1
  N  N10  1  0.85875300  0.93477199  0.89059701  1
  N  N11  1  0.35875300  0.06522800  0.10940300  1
  N  N12  1  0.39390900  0.59804499  0.85928701  1
  N  N13  1  0.89390900  0.40195500  0.14071300  1
  N  N14  1  0.89390900  0.90195499  0.35928700  1
  N  N15  1  0.39390900  0.09804500  0.64071300  1
