# generated using pymatgen
data_LiVF3
_symmetry_space_group_name_H-M   'P 1'
_cell_length_a   4.85643578
_cell_length_b   4.97202444
_cell_length_c   5.24445534
_cell_angle_alpha   63.53980255
_cell_angle_beta   88.92787170
_cell_angle_gamma   62.29759598
_symmetry_Int_Tables_number   1
_chemical_formula_structural   LiVF3
_chemical_formula_sum   'Li2 V2 F6'
_cell_volume   97.49613168
_cell_formula_units_Z   2
loop_
 _symmetry_equiv_pos_site_id
 _symmetry_equiv_pos_as_xyz
  1  'x, y, z'
loop_
 _atom_site_type_symbol
 _atom_site_label
 _atom_site_symmetry_multiplicity
 _atom_site_fract_x
 _atom_site_fract_y
 _atom_site_fract_z
 _atom_site_occupancy
  Li  Li0  1  0.35509399  0.28530101  0.05843799  1
  Li  Li1  1  0.64488098  0.71473102  0.94155399  1
  V  V2  1  0.85140699  0.29963301  0.54518400  1
  V  V3  1  0.14859297  0.70036302  0.45481198  1
  F  F4  1  0.21500099  0.23406501  0.73946200  1
  F  F5  1  0.78501697  0.76591703  0.26054698  1
  F  F6  1  0.91792897  0.84955803  0.71915898  1
  F  F7  1  0.08206699  0.15043501  0.28083400  1
  F  F8  1  0.55284798  0.49673702  0.74464299  1
  F  F9  1  0.44716198  0.50326002  0.25536699  1
