# generated using pymatgen
data_SrLaTi2O6
_symmetry_space_group_name_H-M   'P 1'
_cell_length_a   3.88533759
_cell_length_b   7.73573017
_cell_length_c   7.74191618
_cell_angle_alpha   89.99965668
_cell_angle_beta   89.99935913
_cell_angle_gamma   89.99932098
_symmetry_Int_Tables_number   1
_chemical_formula_structural   SrLaTi2O6
_chemical_formula_sum   'Sr2 La2 Ti4 O12'
_cell_volume   232.69043831
_cell_formula_units_Z   2
loop_
 _symmetry_equiv_pos_site_id
 _symmetry_equiv_pos_as_xyz
  1  'x, y, z'
loop_
 _atom_site_type_symbol
 _atom_site_label
 _atom_site_symmetry_multiplicity
 _atom_site_fract_x
 _atom_site_fract_y
 _atom_site_fract_z
 _atom_site_occupancy
  Sr  Sr0  1  0.49999400  0.74998398  0.74882901  1
  Sr  Sr1  1  0.49999299  0.25000899  0.74883002  1
  La  La2  1  0.50000100  0.75001798  0.26409801  1
  La  La3  1  0.49999999  0.24998199  0.26409801  1
  Ti  Ti4  1  0.99999800  0.99999898  0.00931401  1
  Ti  Ti5  1  0.00000101  0.49999799  0.00926300  1
  Ti  Ti6  1  0.00000401  0.49999799  0.50058700  1
  Ti  Ti7  1  0.99999800  0.99999698  0.50062502  1
  O  O8  1  0.00000300  0.00000200  0.74298601  1
  O  O9  1  0.00000101  0.49999599  0.74297101  1
  O  O10  1  0.99999598  0.00000400  0.25326602  1
  O  O11  1  0.00000101  0.50000099  0.25323300  1
  O  O12  1  0.49999899  0.00000500  0.00229601  1
  O  O13  1  0.50000000  0.50000099  0.00223900  1
  O  O14  1  0.00000602  0.75000098  0.00232900  1
  O  O15  1  0.00000501  0.25000099  0.00232900  1
  O  O16  1  0.49999599  0.00000500  0.48638701  1
  O  O17  1  0.49999900  0.49999999  0.48639701  1
  O  O18  1  0.00000402  0.75000298  0.48996300  1
  O  O19  1  0.00000401  0.24999499  0.48996101  1
