# generated using pymatgen
data_LiMn2TeO6
_symmetry_space_group_name_H-M   'P 1'
_cell_length_a   5.10961199
_cell_length_b   5.32233715
_cell_length_c   7.53910351
_cell_angle_alpha   90.00000000
_cell_angle_beta   89.95331573
_cell_angle_gamma   90.00000000
_symmetry_Int_Tables_number   1
_chemical_formula_structural   LiMn2TeO6
_chemical_formula_sum   'Li2 Mn4 Te2 O12'
_cell_volume   205.02643770
_cell_formula_units_Z   2
loop_
 _symmetry_equiv_pos_site_id
 _symmetry_equiv_pos_as_xyz
  1  'x, y, z'
loop_
 _atom_site_type_symbol
 _atom_site_label
 _atom_site_symmetry_multiplicity
 _atom_site_fract_x
 _atom_site_fract_y
 _atom_site_fract_z
 _atom_site_occupancy
  Li  Li0  1  0.98697600  0.93582397  0.24853502  1
  Li  Li1  1  0.51302400  0.43582399  0.25146501  1
  Mn  Mn2  1  0.48697600  0.56417598  0.74853501  1
  Mn  Mn3  1  0.01302400  0.06417600  0.75146500  1
  Mn  Mn4  1  1.00000000  0.49999999  0.00000002  1
  Mn  Mn5  1  0.50000000  0.00000000  0.50000001  1
  Te  Te6  1  0.00000000  0.49999999  0.50000000  1
  Te  Te7  1  0.50000000  0.00000000  0.00000001  1
  O  O8  1  0.86271800  0.43170899  0.74170701  1
  O  O9  1  0.81200000  0.18108299  0.07014801  1
  O  O10  1  0.82758600  0.19133799  0.42454501  1
  O  O11  1  0.67241400  0.69133798  0.07545501  1
  O  O12  1  0.68800000  0.68108298  0.42985201  1
  O  O13  1  0.63728200  0.93170897  0.75829301  1
  O  O14  1  0.36271800  0.06829100  0.24170701  1
  O  O15  1  0.31200000  0.31891699  0.57014800  1
  O  O16  1  0.32758600  0.30866199  0.92454501  1
  O  O17  1  0.18800000  0.81891698  0.92985200  1
  O  O18  1  0.17241400  0.80866198  0.57545500  1
  O  O19  1  0.13728200  0.56829098  0.25829300  1
