# generated using pymatgen
data_Cd3Te(PbS3)2
_symmetry_space_group_name_H-M   'P 1'
_cell_length_a   3.92947197
_cell_length_b   6.83335876
_cell_length_c   10.21746635
_cell_angle_alpha   90.00000000
_cell_angle_beta   90.00000000
_cell_angle_gamma   106.70961761
_symmetry_Int_Tables_number   1
_chemical_formula_structural   Cd3Te(PbS3)2
_chemical_formula_sum   'Cd3 Te1 Pb2 S6'
_cell_volume   262.76939954
_cell_formula_units_Z   1
loop_
 _symmetry_equiv_pos_site_id
 _symmetry_equiv_pos_as_xyz
  1  'x, y, z'
loop_
 _atom_site_type_symbol
 _atom_site_label
 _atom_site_symmetry_multiplicity
 _atom_site_fract_x
 _atom_site_fract_y
 _atom_site_fract_z
 _atom_site_occupancy
  Cd  Cd0  1  0.00342600  0.00685200  0.50208098  1
  Cd  Cd1  1  0.99657405  0.99314800  0.00208100  1
  Cd  Cd2  1  0.53236301  0.06472600  0.75090397  1
  Te  Te3  1  0.46763704  0.93527400  0.25090399  1
  Pb  Pb4  1  0.25214802  0.50429600  0.77765697  1
  Pb  Pb5  1  0.74785203  0.49570400  0.27765699  1
  S  S6  1  0.63822402  0.27644800  0.56695998  1
  S  S7  1  0.36401703  0.72803400  0.43441098  1
  S  S8  1  0.63598302  0.27196600  0.93441097  1
  S  S9  1  0.36177603  0.72355200  0.06696000  1
  S  S10  1  0.92634504  0.85269000  0.75008697  1
  S  S11  1  0.07365501  0.14731000  0.25008699  1
