# generated using pymatgen
data_La2Sb5
_symmetry_space_group_name_H-M   'P 1'
_cell_length_a   7.71050644
_cell_length_b   7.71050644
_cell_length_c   7.71050644
_cell_angle_alpha   109.47122192
_cell_angle_beta   109.47122192
_cell_angle_gamma   109.47122192
_symmetry_Int_Tables_number   1
_chemical_formula_structural   La2Sb5
_chemical_formula_sum   'La4 Sb10'
_cell_volume   352.87980200
_cell_formula_units_Z   2
loop_
 _symmetry_equiv_pos_site_id
 _symmetry_equiv_pos_as_xyz
  1  'x, y, z'
loop_
 _atom_site_type_symbol
 _atom_site_label
 _atom_site_symmetry_multiplicity
 _atom_site_fract_x
 _atom_site_fract_y
 _atom_site_fract_z
 _atom_site_occupancy
  La  La0  1  0.85883508  1.00000005  0.00000008  1
  La  La1  1  0.14116501  0.14116501  0.64116502  1
  La  La2  1  0.00000003  0.50000002  0.85883503  1
  La  La3  1  0.50000003  0.35883502  0.50000004  1
  Sb  Sb4  1  1.00000005  0.50000002  0.35883505  1
  Sb  Sb5  1  0.50000006  0.85883504  0.50000006  1
  Sb  Sb6  1  0.64116505  0.64116503  0.14116505  1
  Sb  Sb7  1  0.35883507  1.00000005  0.00000006  1
  Sb  Sb8  1  0.75000002  0.12500001  0.37500003  1
  Sb  Sb9  1  0.62500003  0.25000001  0.87500003  1
  Sb  Sb10  1  0.87500006  0.75000003  0.62500007  1
  Sb  Sb11  1  0.12500006  0.87500004  0.25000005  1
  Sb  Sb12  1  0.37500005  0.62500003  0.75000005  1
  Sb  Sb13  1  0.25000003  0.37500002  0.12500003  1
