# generated using pymatgen
data_YCu7O12
_symmetry_space_group_name_H-M   'P 1'
_cell_length_a   6.29785299
_cell_length_b   6.29785299
_cell_length_c   6.29785299
_cell_angle_alpha   109.47122192
_cell_angle_beta   109.47122192
_cell_angle_gamma   109.47122192
_symmetry_Int_Tables_number   1
_chemical_formula_structural   YCu7O12
_chemical_formula_sum   'Y1 Cu7 O12'
_cell_volume   192.28953329
_cell_formula_units_Z   1
loop_
 _symmetry_equiv_pos_site_id
 _symmetry_equiv_pos_as_xyz
  1  'x, y, z'
loop_
 _atom_site_type_symbol
 _atom_site_label
 _atom_site_symmetry_multiplicity
 _atom_site_fract_x
 _atom_site_fract_y
 _atom_site_fract_z
 _atom_site_occupancy
  Y  Y0  1  0.00000000  0.00000000  0.00000000  1
  Cu  Cu1  1  0.50000002  0.50000000  1.00000001  1
  Cu  Cu2  1  0.00000003  0.50000000  0.50000001  1
  Cu  Cu3  1  0.49999999  0.00000000  0.49999999  1
  Cu  Cu4  1  0.00000003  0.50000000  0.00000003  1
  Cu  Cu5  1  0.00000000  0.00000000  0.49999998  1
  Cu  Cu6  1  0.49999999  0.00000000  0.99999998  1
  Cu  Cu7  1  0.50000002  0.50000000  0.50000002  1
  O  O8  1  0.17117902  0.31053400  0.48171301  1
  O  O9  1  0.82882102  0.68946600  0.51828704  1
  O  O10  1  0.17117904  0.68946600  0.86064501  1
  O  O11  1  0.68946604  0.86064501  0.17117906  1
  O  O12  1  0.51828704  0.82882100  0.68946604  1
  O  O13  1  0.86064499  0.17117900  0.68946601  1
  O  O14  1  0.31053402  0.48171300  0.17117903  1
  O  O15  1  0.48171300  0.17117900  0.31053401  1
  O  O16  1  0.82882100  0.31053400  0.13935503  1
  O  O17  1  0.31053400  0.13935500  0.82882099  1
  O  O18  1  0.13935505  0.82882100  0.31053404  1
  O  O19  1  0.68946602  0.51828700  0.82882102  1
