# generated using pymatgen
data_MoS2
_symmetry_space_group_name_H-M   'P 1'
_cell_length_a   5.84635592
_cell_length_b   5.87560701
_cell_length_c   5.85243559
_cell_angle_alpha   90.00000000
_cell_angle_beta   89.75522614
_cell_angle_gamma   90.00000000
_symmetry_Int_Tables_number   1
_chemical_formula_structural   MoS2
_chemical_formula_sum   'Mo4 S8'
_cell_volume   201.03453554
_cell_formula_units_Z   4
loop_
 _symmetry_equiv_pos_site_id
 _symmetry_equiv_pos_as_xyz
  1  'x, y, z'
loop_
 _atom_site_type_symbol
 _atom_site_label
 _atom_site_symmetry_multiplicity
 _atom_site_fract_x
 _atom_site_fract_y
 _atom_site_fract_z
 _atom_site_occupancy
  Mo  Mo0  1  -0.00000000  0.50000000  0.49999998  1
  Mo  Mo1  1  0.50000001  0.00000000  0.49999997  1
  Mo  Mo2  1  0.50000001  0.50000000  -0.00000001  1
  Mo  Mo3  1  0.00000000  0.00000000  0.00000000  1
  S  S4  1  0.38276801  0.87977000  0.86951996  1
  S  S5  1  0.11723200  0.37977000  0.13047999  1
  S  S6  1  0.87057401  0.12859300  0.61714496  1
  S  S7  1  0.62942601  0.62859300  0.38285497  1
  S  S8  1  0.61723201  0.12023000  0.13047998  1
  S  S9  1  0.88276801  0.62023000  0.86951995  1
  S  S10  1  0.12942600  0.87140700  0.38285498  1
  S  S11  1  0.37057401  0.37140700  0.61714497  1
