# generated using pymatgen
data_TlBiO2
_symmetry_space_group_name_H-M   'P 1'
_cell_length_a   3.94971299
_cell_length_b   3.94971299
_cell_length_c   9.06750488
_cell_angle_alpha   90.00000000
_cell_angle_beta   90.00000000
_cell_angle_gamma   90.00000000
_symmetry_Int_Tables_number   1
_chemical_formula_structural   TlBiO2
_chemical_formula_sum   'Tl2 Bi2 O4'
_cell_volume   141.45518633
_cell_formula_units_Z   2
loop_
 _symmetry_equiv_pos_site_id
 _symmetry_equiv_pos_as_xyz
  1  'x, y, z'
loop_
 _atom_site_type_symbol
 _atom_site_label
 _atom_site_symmetry_multiplicity
 _atom_site_fract_x
 _atom_site_fract_y
 _atom_site_fract_z
 _atom_site_occupancy
  Tl  Tl0  1  0.00000000  0.00000000  0.50000001  1
  Tl  Tl1  1  0.50000000  0.50000000  0.50000001  1
  Bi  Bi2  1  0.00000000  0.50000000  0.86017901  1
  Bi  Bi3  1  0.50000000  0.00000000  0.13982100  1
  O  O4  1  0.50000000  0.00000000  0.67282401  1
  O  O5  1  0.00000000  0.50000000  0.32717600  1
  O  O6  1  0.50000000  0.50000000  0.00000000  1
  O  O7  1  0.00000000  0.00000000  0.00000000  1
