# generated using pymatgen
data_LaInPt
_symmetry_space_group_name_H-M   'P 1'
_cell_length_a   4.40957594
_cell_length_b   7.46903992
_cell_length_c   8.69556236
_cell_angle_alpha   90.00000000
_cell_angle_beta   90.00000000
_cell_angle_gamma   90.00000000
_symmetry_Int_Tables_number   1
_chemical_formula_structural   LaInPt
_chemical_formula_sum   'La4 In4 Pt4'
_cell_volume   286.39094384
_cell_formula_units_Z   4
loop_
 _symmetry_equiv_pos_site_id
 _symmetry_equiv_pos_as_xyz
  1  'x, y, z'
loop_
 _atom_site_type_symbol
 _atom_site_label
 _atom_site_symmetry_multiplicity
 _atom_site_fract_x
 _atom_site_fract_y
 _atom_site_fract_z
 _atom_site_occupancy
  La  La0  1  0.25000000  0.03352800  0.32120699  1
  La  La1  1  0.25000000  0.53352801  0.17879299  1
  La  La2  1  0.75000001  0.96647201  0.67879297  1
  La  La3  1  0.75000001  0.46647201  0.82120697  1
  In  In4  1  0.25000000  0.14094300  0.93655896  1
  In  In5  1  0.25000000  0.64094301  0.56344098  1
  In  In6  1  0.75000001  0.85905701  0.06344100  1
  In  In7  1  0.75000001  0.35905700  0.43655898  1
  Pt  Pt8  1  0.25000000  0.26217200  0.62717997  1
  Pt  Pt9  1  0.25000000  0.76217201  0.87281996  1
  Pt  Pt10  1  0.75000001  0.73782801  0.37281998  1
  Pt  Pt11  1  0.75000001  0.23782800  0.12717999  1
