# generated using pymatgen
data_Zr3NbV9
_symmetry_space_group_name_H-M   'P 1'
_cell_length_a   5.09842396
_cell_length_b   5.09842348
_cell_length_c   9.63255024
_cell_angle_alpha   74.65410614
_cell_angle_beta   74.65410614
_cell_angle_gamma   59.99999619
_symmetry_Int_Tables_number   1
_chemical_formula_structural   Zr3NbV9
_chemical_formula_sum   'Zr3 Nb1 V9'
_cell_volume   206.46938779
_cell_formula_units_Z   1
loop_
 _symmetry_equiv_pos_site_id
 _symmetry_equiv_pos_as_xyz
  1  'x, y, z'
loop_
 _atom_site_type_symbol
 _atom_site_label
 _atom_site_symmetry_multiplicity
 _atom_site_fract_x
 _atom_site_fract_y
 _atom_site_fract_z
 _atom_site_occupancy
  Zr  Zr0  1  0.16448800  0.16448800  0.50653501  1
  Zr  Zr1  1  0.83551200  0.83551198  0.49346502  1
  Zr  Zr2  1  0.35000800  0.35000799  0.94997701  1
  Nb  Nb3  1  0.64999200  0.64999199  0.05002301  1
  V  V4  1  0.45512900  0.45512899  0.63461301  1
  V  V5  1  0.54487100  0.54487099  0.36538701  1
  V  V6  1  0.00000000  0.00000000  0.00000000  1
  V  V7  1  0.09341300  0.09341300  0.22736200  1
  V  V8  1  0.09341300  0.58581299  0.22736201  1
  V  V9  1  0.58581300  0.09341300  0.22736201  1
  V  V10  1  0.90658700  0.90658698  0.77263802  1
  V  V11  1  0.90658700  0.41418699  0.77263802  1
  V  V12  1  0.41418700  0.90658698  0.77263801  1
