# generated using pymatgen
data_NdY3
_symmetry_space_group_name_H-M   'P 1'
_cell_length_a   5.82213211
_cell_length_b   7.25871801
_cell_length_c   7.25871849
_cell_angle_alpha   60.00000381
_cell_angle_beta   90.00000000
_cell_angle_gamma   90.00000000
_symmetry_Int_Tables_number   1
_chemical_formula_structural   NdY3
_chemical_formula_sum   'Nd2 Y6'
_cell_volume   265.66392412
_cell_formula_units_Z   2
loop_
 _symmetry_equiv_pos_site_id
 _symmetry_equiv_pos_as_xyz
  1  'x, y, z'
loop_
 _atom_site_type_symbol
 _atom_site_label
 _atom_site_symmetry_multiplicity
 _atom_site_fract_x
 _atom_site_fract_y
 _atom_site_fract_z
 _atom_site_occupancy
  Nd  Nd0  1  0.25000000  0.83436899  0.33126202  1
  Nd  Nd1  1  0.25000000  0.83436899  0.83436803  1
  Y  Y2  1  0.25000000  0.33126300  0.83436803  1
  Y  Y3  1  0.74999999  0.16563100  0.66873802  1
  Y  Y4  1  0.74999999  0.16563100  0.16563201  1
  Y  Y5  1  0.74999999  0.66873699  0.16563201  1
  Y  Y6  1  0.74999999  0.66666666  0.66666669  1
  Y  Y7  1  0.25000000  0.33333333  0.33333335  1
