# generated using pymatgen
data_Ba5Bi3
_symmetry_space_group_name_H-M   'P 1'
_cell_length_a   7.10845423
_cell_length_b   8.65266991
_cell_length_c   8.65266991
_cell_angle_alpha   120.00000000
_cell_angle_beta   90.00000000
_cell_angle_gamma   90.00000000
_symmetry_Int_Tables_number   1
_chemical_formula_structural   Ba5Bi3
_chemical_formula_sum   'Ba5 Bi3'
_cell_volume   460.89932804
_cell_formula_units_Z   1
loop_
 _symmetry_equiv_pos_site_id
 _symmetry_equiv_pos_as_xyz
  1  'x, y, z'
loop_
 _atom_site_type_symbol
 _atom_site_label
 _atom_site_symmetry_multiplicity
 _atom_site_fract_x
 _atom_site_fract_y
 _atom_site_fract_z
 _atom_site_occupancy
  Ba  Ba0  1  0.24999999  0.66666667  0.33333333  1
  Ba  Ba1  1  0.74999998  0.33333334  0.66666667  1
  Ba  Ba2  1  0.74999998  0.83368901  0.16631200  1
  Ba  Ba3  1  0.74999998  0.33262300  0.16631200  1
  Ba  Ba4  1  0.74999998  0.83368901  0.66737800  1
  Bi  Bi5  1  0.24999999  0.16631100  0.83368801  1
  Bi  Bi6  1  0.24999999  0.66737701  0.83368800  1
  Bi  Bi7  1  0.24999999  0.16631100  0.33262200  1
