# generated using pymatgen
data_NiP5S12
_symmetry_space_group_name_H-M   'P 1'
_cell_length_a   7.85387325
_cell_length_b   7.85835600
_cell_length_c   10.20474815
_cell_angle_alpha   89.26431274
_cell_angle_beta   88.71224213
_cell_angle_gamma   89.99449921
_symmetry_Int_Tables_number   1
_chemical_formula_structural   NiP5S12
_chemical_formula_sum   'Ni1 P5 S12'
_cell_volume   629.61108657
_cell_formula_units_Z   1
loop_
 _symmetry_equiv_pos_site_id
 _symmetry_equiv_pos_as_xyz
  1  'x, y, z'
loop_
 _atom_site_type_symbol
 _atom_site_label
 _atom_site_symmetry_multiplicity
 _atom_site_fract_x
 _atom_site_fract_y
 _atom_site_fract_z
 _atom_site_occupancy
  Ni  Ni0  1  0.29209702  0.90350401  0.00372797  1
  P  P1  1  0.59497901  0.79498701  0.00479796  1
  P  P2  1  0.90088500  0.70617301  0.99548890  1
  P  P3  1  0.20443501  0.59804801  0.99424294  1
  P  P4  1  0.70780998  0.09657900  0.00365796  1
  S  S5  1  0.40480199  0.20545100  0.00514398  1
  S  S6  1  0.09923501  0.29390000  0.99575495  1
  P  P7  1  0.79566199  0.40224701  0.99441991  1
  S  S8  1  0.79002000  0.88970301  0.12459595  1
  S  S9  1  0.10846502  0.79902901  0.87559695  1
  S  S10  1  0.38606901  0.70220501  0.12314897  1
  S  S11  1  0.70497100  0.60953101  0.87772792  1
  S  S12  1  0.99647899  0.49821101  0.11606594  1
  S  S13  1  0.20320100  0.10642600  0.12501798  1
  S  S14  1  0.89873698  0.20548800  0.87582592  1
  S  S15  1  0.60701399  0.29378000  0.12375096  1
  S  S16  1  0.30187100  0.39445401  0.87770894  1
  S  S17  1  0.50326799  0.00228300  0.88332494  1
