# generated using pymatgen
data_Y2Ga
_symmetry_space_group_name_H-M   'P 1'
_cell_length_a   4.33345985
_cell_length_b   7.84320021
_cell_length_c   7.84320068
_cell_angle_alpha   120.00000000
_cell_angle_beta   90.00000000
_cell_angle_gamma   90.00000000
_symmetry_Int_Tables_number   1
_chemical_formula_structural   Y2Ga
_chemical_formula_sum   'Y6 Ga3'
_cell_volume   230.86177885
_cell_formula_units_Z   3
loop_
 _symmetry_equiv_pos_site_id
 _symmetry_equiv_pos_as_xyz
  1  'x, y, z'
loop_
 _atom_site_type_symbol
 _atom_site_label
 _atom_site_symmetry_multiplicity
 _atom_site_fract_x
 _atom_site_fract_y
 _atom_site_fract_z
 _atom_site_occupancy
  Y  Y0  1  0.50000002  0.58563400  0.00000002  1
  Y  Y1  1  0.50000002  0.41436600  0.41436601  1
  Y  Y2  1  0.50000002  0.99999999  0.58563403  1
  Y  Y3  1  -0.00000000  0.24146100  0.00000001  1
  Y  Y4  1  -0.00000000  0.75853900  0.75853901  1
  Y  Y5  1  0.00000000  0.00000000  0.24146099  1
  Ga  Ga6  1  -0.00000000  0.33333333  0.66666666  1
  Ga  Ga7  1  -0.00000000  0.66666666  0.33333335  1
  Ga  Ga8  1  0.50000002  0.00000000  -0.00000000  1
