# generated using pymatgen
data_UN
_symmetry_space_group_name_H-M   'P 1'
_cell_length_a   3.64808607
_cell_length_b   3.64808607
_cell_length_c   5.15442181
_cell_angle_alpha   90.00000000
_cell_angle_beta   90.00000000
_cell_angle_gamma   90.00000000
_symmetry_Int_Tables_number   1
_chemical_formula_structural   UN
_chemical_formula_sum   'U2 N2'
_cell_volume   68.59778746
_cell_formula_units_Z   2
loop_
 _symmetry_equiv_pos_site_id
 _symmetry_equiv_pos_as_xyz
  1  'x, y, z'
loop_
 _atom_site_type_symbol
 _atom_site_label
 _atom_site_symmetry_multiplicity
 _atom_site_fract_x
 _atom_site_fract_y
 _atom_site_fract_z
 _atom_site_occupancy
  U  U0  1  0.49999999  0.49999999  0.50000002  1
  U  U1  1  0.00000000  0.00000000  0.00000000  1
  N  N2  1  0.00000000  0.00000000  0.50000002  1
  N  N3  1  0.49999999  0.49999999  0.00000000  1
