# generated using pymatgen
data_PrNi6
_symmetry_space_group_name_H-M   'P 1'
_cell_length_a   6.71216154
_cell_length_b   6.71216154
_cell_length_c   6.71216154
_cell_angle_alpha   73.10508728
_cell_angle_beta   69.22547150
_cell_angle_gamma   110.77452850
_symmetry_Int_Tables_number   1
_chemical_formula_structural   PrNi6
_chemical_formula_sum   'Pr2 Ni12'
_cell_volume   232.43953996
_cell_formula_units_Z   2
loop_
 _symmetry_equiv_pos_site_id
 _symmetry_equiv_pos_as_xyz
  1  'x, y, z'
loop_
 _atom_site_type_symbol
 _atom_site_label
 _atom_site_symmetry_multiplicity
 _atom_site_fract_x
 _atom_site_fract_y
 _atom_site_fract_z
 _atom_site_occupancy
  Pr  Pr0  1  -0.00000002  0.24999999  0.75000004  1
  Pr  Pr1  1  -0.00000006  0.74999998  0.25000008  1
  Ni  Ni2  1  0.77997795  0.80557497  0.69442511  1
  Ni  Ni3  1  0.49999996  0.69442498  0.52559709  1
  Ni  Ni4  1  0.49999993  0.97440297  0.80557512  1
  Ni  Ni5  1  0.22002196  0.52559698  0.97440308  1
  Ni  Ni6  1  0.22002199  0.19442499  0.30557503  1
  Ni  Ni7  1  0.77997798  0.47440298  0.02559706  1
  Ni  Ni8  1  0.50000001  0.02559700  0.19442502  1
  Ni  Ni9  1  0.49999998  0.30557499  0.47440305  1
  Ni  Ni10  1  0.18251494  0.84125697  0.65874310  1
  Ni  Ni11  1  0.49999996  0.65874198  0.15874207  1
  Ni  Ni12  1  0.49999998  0.34125799  0.84125806  1
  Ni  Ni13  1  0.81748500  0.15874299  0.34125704  1
