# generated using pymatgen
data_Ce8(AlGe3)3
_symmetry_space_group_name_H-M   'P 1'
_cell_length_a   4.07383585
_cell_length_b   5.64143229
_cell_length_c   19.99398994
_cell_angle_alpha   83.34707642
_cell_angle_beta   84.15276337
_cell_angle_gamma   68.83444977
_symmetry_Int_Tables_number   1
_chemical_formula_structural   Ce8(AlGe3)3
_chemical_formula_sum   'Ce8 Al3 Ge9'
_cell_volume   424.72862339
_cell_formula_units_Z   1
loop_
 _symmetry_equiv_pos_site_id
 _symmetry_equiv_pos_as_xyz
  1  'x, y, z'
loop_
 _atom_site_type_symbol
 _atom_site_label
 _atom_site_symmetry_multiplicity
 _atom_site_fract_x
 _atom_site_fract_y
 _atom_site_fract_z
 _atom_site_occupancy
  Ce  Ce0  1  0.46462505  0.39232198  0.67842801  1
  Ce  Ce1  1  0.70917908  0.65244797  0.92919402  1
  Ce  Ce2  1  0.96569111  0.88989796  0.17872001  1
  Ce  Ce3  1  0.21489602  0.14213499  0.42807301  1
  Ce  Ce4  1  0.78510410  0.85786496  0.57192701  1
  Ce  Ce5  1  0.03430901  0.11010199  0.82128001  1
  Ce  Ce6  1  0.29082104  0.34755198  0.07080600  1
  Ce  Ce7  1  0.53537507  0.60767797  0.32157201  1
  Al  Al8  1  0.25017803  0.24913299  0.25051101  1
  Al  Al9  1  0.50000006  0.49999997  0.50000001  1
  Al  Al10  1  0.74982209  0.75086696  0.74948902  1
  Ge  Ge11  1  0.17868909  0.96434895  0.67827301  1
  Ge  Ge12  1  0.42399903  0.22671399  0.92528801  1
  Ge  Ge13  1  0.68189106  0.45631798  0.17990001  1
  Ge  Ge14  1  0.92918109  0.71318196  0.42845601  1
  Ge  Ge15  1  0.07081903  0.28681799  0.57154401  1
  Ge  Ge16  1  0.31810906  0.54368197  0.82010001  1
  Ge  Ge17  1  0.57600108  0.77328596  0.07471201  1
  Ge  Ge18  1  0.82131103  0.03565100  0.32172701  1
  Ge  Ge19  1  0.00000000  0.00000000  0.00000000  1
