# generated using pymatgen
data_NaCu5HgMoO12
_symmetry_space_group_name_H-M   'P 1'
_cell_length_a   6.55021667
_cell_length_b   6.55021667
_cell_length_c   6.57954597
_cell_angle_alpha   109.38298798
_cell_angle_beta   109.31932068
_cell_angle_gamma   109.53112793
_symmetry_Int_Tables_number   1
_chemical_formula_structural   NaCu5HgMoO12
_chemical_formula_sum   'Na1 Cu5 Hg1 Mo1 O12'
_cell_volume   217.79425289
_cell_formula_units_Z   1
loop_
 _symmetry_equiv_pos_site_id
 _symmetry_equiv_pos_as_xyz
  1  'x, y, z'
loop_
 _atom_site_type_symbol
 _atom_site_label
 _atom_site_symmetry_multiplicity
 _atom_site_fract_x
 _atom_site_fract_y
 _atom_site_fract_z
 _atom_site_occupancy
  Na  Na0  1  0.50000002  0.00000000  0.50000002  1
  Cu  Cu1  1  -0.00000000  0.50000001  0.49999998  1
  Cu  Cu2  1  0.50000002  0.50000001  1.00000000  1
  Cu  Cu3  1  0.50000002  0.00000000  1.00000003  1
  Hg  Hg4  1  -0.00000000  0.50000001  -0.00000003  1
  Cu  Cu5  1  0.00000000  0.00000000  0.50000001  1
  Cu  Cu6  1  0.50000002  0.50000001  0.49999999  1
  Mo  Mo7  1  0.00000000  0.00000000  0.00000000  1
  O  O8  1  0.82990903  0.13368800  0.31432702  1
  O  O9  1  0.81936103  0.51558201  0.68567300  1
  O  O10  1  0.17009101  0.86631201  0.68567296  1
  O  O11  1  0.18063901  0.48441801  0.31432698  1
  O  O12  1  0.69741703  0.16909500  0.86651202  1
  O  O13  1  0.30258301  0.83090501  0.13348796  1
  O  O14  1  0.31450101  0.18129900  0.49580000  1
  O  O15  1  0.68549903  0.81870101  0.50419998  1
  O  O16  1  0.48238202  0.30003400  0.16635200  1
  O  O17  1  0.13368200  0.31603000  0.83364800  1
  O  O18  1  0.51761802  0.69996601  0.83364798  1
  O  O19  1  0.86631803  0.68397001  0.16635198  1
