# generated using pymatgen
data_PrCuAs2
_symmetry_space_group_name_H-M   'P 1'
_cell_length_a   4.38481092
_cell_length_b   4.38481092
_cell_length_c   9.94418430
_cell_angle_alpha   90.00000000
_cell_angle_beta   90.00000000
_cell_angle_gamma   90.00000000
_symmetry_Int_Tables_number   1
_chemical_formula_structural   PrCuAs2
_chemical_formula_sum   'Pr2 Cu2 As4'
_cell_volume   191.19252421
_cell_formula_units_Z   2
loop_
 _symmetry_equiv_pos_site_id
 _symmetry_equiv_pos_as_xyz
  1  'x, y, z'
loop_
 _atom_site_type_symbol
 _atom_site_label
 _atom_site_symmetry_multiplicity
 _atom_site_fract_x
 _atom_site_fract_y
 _atom_site_fract_z
 _atom_site_occupancy
  Pr  Pr0  1  0.00000000  0.50000001  0.74266698  1
  Pr  Pr1  1  0.50000001  0.00000000  0.25733299  1
  Cu  Cu2  1  0.50000001  0.50000001  0.49999998  1
  Cu  Cu3  1  0.00000000  0.00000000  0.49999998  1
  As  As4  1  0.50000001  0.50000001  -0.00000000  1
  As  As5  1  0.00000000  0.00000000  0.00000000  1
  As  As6  1  0.00000000  0.50000001  0.37092899  1
  As  As7  1  0.50000001  0.00000000  0.62907098  1
