# generated using pymatgen
data_UFe4S3
_symmetry_space_group_name_H-M   'P 1'
_cell_length_a   3.79708195
_cell_length_b   3.79708195
_cell_length_c   10.87300301
_cell_angle_alpha   100.05599213
_cell_angle_beta   100.05599213
_cell_angle_gamma   90.00000000
_symmetry_Int_Tables_number   1
_chemical_formula_structural   UFe4S3
_chemical_formula_sum   'U1 Fe4 S3'
_cell_volume   151.91036694
_cell_formula_units_Z   1
loop_
 _symmetry_equiv_pos_site_id
 _symmetry_equiv_pos_as_xyz
  1  'x, y, z'
loop_
 _atom_site_type_symbol
 _atom_site_label
 _atom_site_symmetry_multiplicity
 _atom_site_fract_x
 _atom_site_fract_y
 _atom_site_fract_z
 _atom_site_occupancy
  U  U0  1  0.49999999  0.50000000  -0.00000002  1
  Fe  Fe1  1  0.81383299  0.81383300  0.62766597  1
  Fe  Fe2  1  0.18616700  0.18616700  0.37233400  1
  Fe  Fe3  1  0.62796799  0.62796800  0.25593598  1
  S  S4  1  0.00000000  0.00000000  0.00000000  1
  Fe  Fe5  1  0.37203199  0.37203200  0.74406399  1
  S  S6  1  0.75000000  0.25000000  0.49999999  1
  S  S7  1  0.24999999  0.75000000  0.49999999  1
