# generated using pymatgen
data_Tc3Ir
_symmetry_space_group_name_H-M   'P 1'
_cell_length_a   4.38103008
_cell_length_b   5.53109980
_cell_length_c   5.53110075
_cell_angle_alpha   60.00000381
_cell_angle_beta   90.00000000
_cell_angle_gamma   90.00000000
_symmetry_Int_Tables_number   1
_chemical_formula_structural   Tc3Ir
_chemical_formula_sum   'Tc6 Ir2'
_cell_volume   116.07266274
_cell_formula_units_Z   2
loop_
 _symmetry_equiv_pos_site_id
 _symmetry_equiv_pos_as_xyz
  1  'x, y, z'
loop_
 _atom_site_type_symbol
 _atom_site_label
 _atom_site_symmetry_multiplicity
 _atom_site_fract_x
 _atom_site_fract_y
 _atom_site_fract_z
 _atom_site_occupancy
  Tc  Tc0  1  0.25000000  0.83363304  0.33273399  1
  Tc  Tc1  1  0.25000000  0.83363304  0.83363299  1
  Tc  Tc2  1  0.25000000  0.33273401  0.83363300  1
  Tc  Tc3  1  0.74999999  0.16636701  0.66726600  1
  Tc  Tc4  1  0.74999999  0.16636701  0.16636700  1
  Tc  Tc5  1  0.74999999  0.66726603  0.16636699  1
  Ir  Ir6  1  0.74999999  0.66666670  0.66666666  1
  Ir  Ir7  1  0.25000000  0.33333335  0.33333333  1
