# generated using pymatgen
data_Ba2Sr2Tl2Cu2PbO10
_symmetry_space_group_name_H-M   'P 1'
_cell_length_a   3.90064406
_cell_length_b   3.90064406
_cell_length_c   21.66580009
_cell_angle_alpha   95.16467285
_cell_angle_beta   95.16467285
_cell_angle_gamma   90.00000000
_symmetry_Int_Tables_number   1
_chemical_formula_structural   Ba2Sr2Tl2Cu2PbO10
_chemical_formula_sum   'Ba2 Sr2 Tl2 Cu2 Pb1 O10'
_cell_volume   326.96353006
_cell_formula_units_Z   1
loop_
 _symmetry_equiv_pos_site_id
 _symmetry_equiv_pos_as_xyz
  1  'x, y, z'
loop_
 _atom_site_type_symbol
 _atom_site_label
 _atom_site_symmetry_multiplicity
 _atom_site_fract_x
 _atom_site_fract_y
 _atom_site_fract_z
 _atom_site_occupancy
  Ba  Ba0  1  0.65843300  0.65843299  0.31686602  1
  Ba  Ba1  1  0.43032200  0.43032200  0.86064401  1
  Sr  Sr2  1  0.56861900  0.56861899  0.13723801  1
  Sr  Sr3  1  0.34446600  0.34446600  0.68893201  1
  Tl  Tl4  1  0.77768100  0.77768099  0.55536202  1
  Cu  Cu5  1  0.22417900  0.22417900  0.44835801  1
  Tl  Tl6  1  0.88385200  0.88385199  0.76770402  1
  Cu  Cu7  1  0.11405000  0.11405000  0.22810000  1
  Pb  Pb8  1  0.99980900  0.99980899  0.99961803  1
  O  O9  1  0.27268000  0.27268000  0.54536001  1
  O  O10  1  0.72875400  0.72875399  0.45750802  1
  O  O11  1  0.95292400  0.95292399  0.90584802  1
  O  O12  1  0.04657600  0.04657600  0.09315200  1
  O  O13  1  0.38488701  0.88488699  0.76977402  1
  O  O14  1  0.88488700  0.38488700  0.76977402  1
  O  O15  1  0.61290299  0.11290300  0.22580601  1
  O  O16  1  0.11290301  0.61290299  0.22580601  1
  O  O17  1  0.82534700  0.82534699  0.65069402  1
  O  O18  1  0.17672900  0.17672900  0.35345800  1
