# generated using pymatgen
data_VZn2(CoO4)2
_symmetry_space_group_name_H-M   'P 1'
_cell_length_a   4.78613377
_cell_length_b   5.66688204
_cell_length_c   5.77033138
_cell_angle_alpha   60.59129715
_cell_angle_beta   73.04296112
_cell_angle_gamma   90.00000000
_symmetry_Int_Tables_number   1
_chemical_formula_structural   VZn2(CoO4)2
_chemical_formula_sum   'V1 Zn2 Co2 O8'
_cell_volume   128.47010771
_cell_formula_units_Z   1
loop_
 _symmetry_equiv_pos_site_id
 _symmetry_equiv_pos_as_xyz
  1  'x, y, z'
loop_
 _atom_site_type_symbol
 _atom_site_label
 _atom_site_symmetry_multiplicity
 _atom_site_fract_x
 _atom_site_fract_y
 _atom_site_fract_z
 _atom_site_occupancy
  Zn  Zn0  1  0.35062802  0.28019799  0.43960400  1
  Zn  Zn1  1  0.64937203  0.71980199  0.56039601  1
  Co  Co2  1  0.50000003  0.00000000  -0.00000000  1
  V  V3  1  -0.00000000  0.74516699  1.00000002  1
  Co  Co4  1  -0.00000000  0.25483300  0.00000001  1
  O  O5  1  0.94558105  0.60974799  0.78050400  1
  O  O6  1  0.05441900  0.39025199  0.21949601  1
  O  O7  1  0.90944305  0.10310300  0.79379399  1
  O  O8  1  0.09055700  0.89689698  0.20620602  1
  O  O9  1  0.60278403  0.11214900  0.22559200  1
  O  O10  1  0.60278403  0.66225899  0.22559201  1
  O  O11  1  0.39721602  0.33774099  0.77440800  1
  O  O12  1  0.39721602  0.88785098  0.77440802  1
