# generated using pymatgen
data_MnAlReN3
_symmetry_space_group_name_H-M   'P 1'
_cell_length_a   3.44924498
_cell_length_b   3.75071597
_cell_length_c   6.10247707
_cell_angle_alpha   72.10275269
_cell_angle_beta   90.00000000
_cell_angle_gamma   90.00000000
_symmetry_Int_Tables_number   1
_chemical_formula_structural   MnAlReN3
_chemical_formula_sum   'Mn1 Al1 Re1 N3'
_cell_volume   75.12820156
_cell_formula_units_Z   1
loop_
 _symmetry_equiv_pos_site_id
 _symmetry_equiv_pos_as_xyz
  1  'x, y, z'
loop_
 _atom_site_type_symbol
 _atom_site_label
 _atom_site_symmetry_multiplicity
 _atom_site_fract_x
 _atom_site_fract_y
 _atom_site_fract_z
 _atom_site_occupancy
  Mn  Mn0  1  0.50000000  0.00000000  0.00000000  1
  Al  Al1  1  0.00000000  0.65783899  0.68432202  1
  Re  Re2  1  1.00000001  0.34216100  0.31567801  1
  N  N3  1  0.00000000  0.82065399  0.35869202  1
  N  N4  1  0.00000000  0.50000000  0.00000002  1
  N  N5  1  0.00000000  0.17934600  0.64130800  1
