# generated using pymatgen
data_CsZrCuTe3
_symmetry_space_group_name_H-M   'P 1'
_cell_length_a   4.37274408
_cell_length_b   8.95449638
_cell_length_c   11.29624271
_cell_angle_alpha   90.00000000
_cell_angle_beta   90.00000000
_cell_angle_gamma   104.13247681
_symmetry_Int_Tables_number   1
_chemical_formula_structural   CsZrCuTe3
_chemical_formula_sum   'Cs2 Zr2 Cu2 Te6'
_cell_volume   428.92539707
_cell_formula_units_Z   2
loop_
 _symmetry_equiv_pos_site_id
 _symmetry_equiv_pos_as_xyz
  1  'x, y, z'
loop_
 _atom_site_type_symbol
 _atom_site_label
 _atom_site_symmetry_multiplicity
 _atom_site_fract_x
 _atom_site_fract_y
 _atom_site_fract_z
 _atom_site_occupancy
  Cs  Cs0  1  0.74349401  0.48698803  0.25000001  1
  Cs  Cs1  1  0.25650602  0.51301203  0.75000002  1
  Zr  Zr2  1  0.00000000  0.00000000  0.50000001  1
  Zr  Zr3  1  0.00000000  0.00000000  0.00000000  1
  Cu  Cu4  1  0.46685104  0.93370205  0.25000001  1
  Cu  Cu5  1  0.53314899  0.06629800  0.75000002  1
  Te  Te6  1  0.38319503  0.76639004  0.05913000  1
  Te  Te7  1  0.61680500  0.23361001  0.55913001  1
  Te  Te8  1  0.61680500  0.23361001  0.94087002  1
  Te  Te9  1  0.38319503  0.76639004  0.44087001  1
  Te  Te10  1  0.94341503  0.88683005  0.75000002  1
  Te  Te11  1  0.05658501  0.11317001  0.25000001  1
