# generated using pymatgen
data_La(AlGe2)2
_symmetry_space_group_name_H-M   'P 1'
_cell_length_a   6.76515770
_cell_length_b   6.76515770
_cell_length_c   6.76515770
_cell_angle_alpha   70.76140594
_cell_angle_beta   70.41234589
_cell_angle_gamma   109.58765411
_symmetry_Int_Tables_number   1
_chemical_formula_structural   La(AlGe2)2
_chemical_formula_sum   'La2 Al4 Ge8'
_cell_volume   238.34528719
_cell_formula_units_Z   2
loop_
 _symmetry_equiv_pos_site_id
 _symmetry_equiv_pos_as_xyz
  1  'x, y, z'
loop_
 _atom_site_type_symbol
 _atom_site_label
 _atom_site_symmetry_multiplicity
 _atom_site_fract_x
 _atom_site_fract_y
 _atom_site_fract_z
 _atom_site_occupancy
  La  La0  1  0.00000000  0.00000000  0.00000000  1
  La  La1  1  -0.00000008  0.49999996  0.50000007  1
  Al  Al2  1  0.49689187  0.77431094  0.45068814  1
  Ge  Ge3  1  0.50310799  0.05242000  0.72258106  1
  Al  Al4  1  0.22499895  0.27741898  0.22568906  1
  Ge  Ge5  1  0.77500091  0.54931196  0.94758015  1
  Ge  Ge6  1  0.49689188  0.72258095  0.05242013  1
  Al  Al7  1  0.50310793  0.45068797  0.77431111  1
  Al  Al8  1  0.77500096  0.22568898  0.27741909  1
  Ge  Ge9  1  0.22499884  0.94757993  0.54931215  1
  Ge  Ge10  1  0.49999999  0.09066299  0.09066305  1
  Ge  Ge11  1  0.49999993  0.40933697  0.40933710  1
  Ge  Ge12  1  0.18132490  0.59066196  0.90933811  1
  Ge  Ge13  1  0.81867485  0.90933793  0.59066218  1
