# generated using pymatgen
data_LiV2F5
_symmetry_space_group_name_H-M   'P 1'
_cell_length_a   3.79649210
_cell_length_b   5.29929495
_cell_length_c   10.07120800
_cell_angle_alpha   90.00000000
_cell_angle_beta   90.00000000
_cell_angle_gamma   110.99013519
_symmetry_Int_Tables_number   1
_chemical_formula_structural   LiV2F5
_chemical_formula_sum   'Li2 V4 F10'
_cell_volume   189.17449858
_cell_formula_units_Z   2
loop_
 _symmetry_equiv_pos_site_id
 _symmetry_equiv_pos_as_xyz
  1  'x, y, z'
loop_
 _atom_site_type_symbol
 _atom_site_label
 _atom_site_symmetry_multiplicity
 _atom_site_fract_x
 _atom_site_fract_y
 _atom_site_fract_z
 _atom_site_occupancy
  Li  Li0  1  0.30171194  0.60342401  0.75000000  1
  Li  Li1  1  0.69828795  0.39657600  0.25000000  1
  V  V2  1  0.63060196  0.26120400  0.94272300  1
  V  V3  1  0.36939792  0.73879601  0.05727700  1
  V  V4  1  0.36939792  0.73879601  0.44272300  1
  V  V5  1  0.63060196  0.26120400  0.55727700  1
  F  F6  1  0.26748295  0.53496601  0.25000000  1
  F  F7  1  0.73251694  0.46503401  0.75000000  1
  F  F8  1  0.55148298  0.10296600  0.12268700  1
  F  F9  1  0.44851691  0.89703401  0.87731300  1
  F  F10  1  0.44851691  0.89703401  0.62268700  1
  F  F11  1  0.55148298  0.10296600  0.37731300  1
  F  F12  1  0.18292796  0.36585600  0.56902000  1
  F  F13  1  0.81707192  0.63414401  0.43098000  1
  F  F14  1  0.81707192  0.63414401  0.06902000  1
  F  F15  1  0.18292796  0.36585600  0.93098000  1
