# generated using pymatgen
data_K2GeSe3
_symmetry_space_group_name_H-M   'P 1'
_cell_length_a   7.09330988
_cell_length_b   7.23949242
_cell_length_c   8.95971298
_cell_angle_alpha   89.58572388
_cell_angle_beta   68.22901154
_cell_angle_gamma   66.44798279
_symmetry_Int_Tables_number   1
_chemical_formula_structural   K2GeSe3
_chemical_formula_sum   'K4 Ge2 Se6'
_cell_volume   386.28044105
_cell_formula_units_Z   2
loop_
 _symmetry_equiv_pos_site_id
 _symmetry_equiv_pos_as_xyz
  1  'x, y, z'
loop_
 _atom_site_type_symbol
 _atom_site_label
 _atom_site_symmetry_multiplicity
 _atom_site_fract_x
 _atom_site_fract_y
 _atom_site_fract_z
 _atom_site_occupancy
  K  K0  1  0.72964298  0.68098501  0.89803410  1
  K  K1  1  0.27035699  0.31901501  0.10196603  1
  K  K2  1  0.86851097  0.95717502  0.33254009  1
  K  K3  1  0.13148900  0.04282500  0.66746004  1
  Ge  Ge4  1  0.42917099  0.45045901  0.68464307  1
  Ge  Ge5  1  0.57082898  0.54954101  0.31535706  1
  Se  Se6  1  0.76290399  0.29221100  0.08582804  1
  Se  Se7  1  0.23709598  0.70778901  0.91417208  1
  Se  Se8  1  0.51320300  0.11322100  0.73501506  1
  Se  Se9  1  0.48679697  0.88677901  0.26498507  1
  Se  Se10  1  0.22650498  0.53718901  0.50653806  1
  Se  Se11  1  0.77349499  0.46281101  0.49346207  1
