# generated using pymatgen
data_LaAu5
_symmetry_space_group_name_H-M   'P 1'
_cell_length_a   4.41727114
_cell_length_b   5.59428215
_cell_length_c   5.59428167
_cell_angle_alpha   120.00000000
_cell_angle_beta   90.00000000
_cell_angle_gamma   90.00000000
_symmetry_Int_Tables_number   1
_chemical_formula_structural   LaAu5
_chemical_formula_sum   'La1 Au5'
_cell_volume   119.72184062
_cell_formula_units_Z   1
loop_
 _symmetry_equiv_pos_site_id
 _symmetry_equiv_pos_as_xyz
  1  'x, y, z'
loop_
 _atom_site_type_symbol
 _atom_site_label
 _atom_site_symmetry_multiplicity
 _atom_site_fract_x
 _atom_site_fract_y
 _atom_site_fract_z
 _atom_site_occupancy
  La  La0  1  0.00000000  0.00000000  0.00000000  1
  Au  Au1  1  0.49999998  0.49999998  -0.00000002  1
  Au  Au2  1  0.49999998  0.49999998  0.49999999  1
  Au  Au3  1  0.49999998  0.00000000  0.50000000  1
  Au  Au4  1  -0.00000000  0.33333332  0.66666666  1
  Au  Au5  1  -0.00000000  0.66666664  0.33333331  1
