# generated using pymatgen
data_CuSe
_symmetry_space_group_name_H-M   'P 1'
_cell_length_a   6.76989555
_cell_length_b   6.81154823
_cell_length_c   6.89657831
_cell_angle_alpha   60.40702057
_cell_angle_beta   80.95246124
_cell_angle_gamma   71.43175507
_symmetry_Int_Tables_number   1
_chemical_formula_structural   CuSe
_chemical_formula_sum   'Cu5 Se5'
_cell_volume   262.14520340
_cell_formula_units_Z   5
loop_
 _symmetry_equiv_pos_site_id
 _symmetry_equiv_pos_as_xyz
  1  'x, y, z'
loop_
 _atom_site_type_symbol
 _atom_site_label
 _atom_site_symmetry_multiplicity
 _atom_site_fract_x
 _atom_site_fract_y
 _atom_site_fract_z
 _atom_site_occupancy
  Cu  Cu0  1  0.50514200  0.71927397  0.49774803  1
  Cu  Cu1  1  0.00514200  0.21702199  0.50225199  1
  Cu  Cu2  1  0.50098901  0.41605698  0.17011404  1
  Cu  Cu3  1  0.00098900  0.58617097  0.82988599  1
  Cu  Cu4  1  0.88661901  0.25962099  0.15594406  1
  Se  Se5  1  0.38661900  0.41556498  0.84405601  1
  Se  Se6  1  0.36236300  0.78132896  0.17177304  1
  Se  Se7  1  0.86236301  0.95310196  0.82822705  1
  Se  Se8  1  0.39248600  0.09850300  0.51445401  1
  Se  Se9  1  0.89248601  0.61295697  0.48554606  1
