# generated using pymatgen
data_La5Ga3
_symmetry_space_group_name_H-M   'P 1'
_cell_length_a   7.30452013
_cell_length_b   9.04719353
_cell_length_c   9.04719448
_cell_angle_alpha   60.00000000
_cell_angle_beta   90.00000000
_cell_angle_gamma   90.00000000
_symmetry_Int_Tables_number   1
_chemical_formula_structural   La5Ga3
_chemical_formula_sum   'La10 Ga6'
_cell_volume   517.78579102
_cell_formula_units_Z   2
loop_
 _symmetry_equiv_pos_site_id
 _symmetry_equiv_pos_as_xyz
  1  'x, y, z'
loop_
 _atom_site_type_symbol
 _atom_site_label
 _atom_site_symmetry_multiplicity
 _atom_site_fract_x
 _atom_site_fract_y
 _atom_site_fract_z
 _atom_site_occupancy
  La  La0  1  0.25000000  0.74490104  0.25509898  1
  La  La1  1  0.74999999  0.25509901  0.74490097  1
  La  La2  1  0.74999999  0.74490104  0.99999995  1
  La  La3  1  0.25000000  0.00000000  0.74490097  1
  La  La4  1  0.25000000  0.25509901  -0.00000000  1
  La  La5  1  0.74999999  0.00000000  0.25509899  1
  La  La6  1  0.49999999  0.33333335  0.33333332  1
  La  La7  1  0.99999998  0.66666670  0.66666663  1
  La  La8  1  0.49999999  0.66666670  0.66666663  1
  La  La9  1  0.99999998  0.33333335  0.33333332  1
  Ga  Ga10  1  0.25000000  0.00000000  0.39119499  1
  Ga  Ga11  1  0.74999999  0.39119502  -0.00000000  1
  Ga  Ga12  1  0.74999999  0.60880503  0.39119498  1
  Ga  Ga13  1  0.25000000  0.39119502  0.60880497  1
  Ga  Ga14  1  0.25000000  0.60880503  -0.00000001  1
  Ga  Ga15  1  0.74999999  0.00000000  0.60880498  1
