# generated using pymatgen
data_Tc
_symmetry_space_group_name_H-M   'P 1'
_cell_length_a   4.33006811
_cell_length_b   5.47541189
_cell_length_c   5.47541285
_cell_angle_alpha   60.00000763
_cell_angle_beta   90.00000000
_cell_angle_gamma   90.00000000
_symmetry_Int_Tables_number   1
_chemical_formula_structural   Tc
_chemical_formula_sum   Tc8
_cell_volume   112.42400647
_cell_formula_units_Z   8
loop_
 _symmetry_equiv_pos_site_id
 _symmetry_equiv_pos_as_xyz
  1  'x, y, z'
loop_
 _atom_site_type_symbol
 _atom_site_label
 _atom_site_symmetry_multiplicity
 _atom_site_fract_x
 _atom_site_fract_y
 _atom_site_fract_z
 _atom_site_occupancy
  Tc  Tc0  1  0.24999999  0.33333333  0.33333335  1
  Tc  Tc1  1  0.74999998  0.66666667  0.66666670  1
  Tc  Tc2  1  0.74999998  0.66547300  0.16726403  1
  Tc  Tc3  1  0.74999998  0.16726300  0.16726401  1
  Tc  Tc4  1  0.74999998  0.16726300  0.66547402  1
  Tc  Tc5  1  0.24999999  0.33452700  0.83273603  1
  Tc  Tc6  1  0.24999999  0.83273700  0.83273605  1
  Tc  Tc7  1  0.24999999  0.83273700  0.33452604  1
