# generated using pymatgen
data_Ta2TiO6
_symmetry_space_group_name_H-M   'P 1'
_cell_length_a   5.40623999
_cell_length_b   5.40623999
_cell_length_c   7.71885824
_cell_angle_alpha   90.00000000
_cell_angle_beta   90.00000000
_cell_angle_gamma   90.82678223
_symmetry_Int_Tables_number   1
_chemical_formula_structural   Ta2TiO6
_chemical_formula_sum   'Ta4 Ti2 O12'
_cell_volume   225.57890721
_cell_formula_units_Z   2
loop_
 _symmetry_equiv_pos_site_id
 _symmetry_equiv_pos_as_xyz
  1  'x, y, z'
loop_
 _atom_site_type_symbol
 _atom_site_label
 _atom_site_symmetry_multiplicity
 _atom_site_fract_x
 _atom_site_fract_y
 _atom_site_fract_z
 _atom_site_occupancy
  Ta  Ta0  1  0.01462351  0.98537653  -0.00000000  1
  Ta  Ta1  1  0.48471126  0.51528876  0.50000000  1
  Ta  Ta2  1  0.99991842  0.49751333  0.74905577  1
  Ta  Ta3  1  0.99991842  0.49751333  0.25094424  1
  Ti  Ti4  1  0.50248667  0.00008160  0.25094424  1
  Ti  Ti5  1  0.50248667  0.00008160  0.74905577  1
  O  O6  1  0.20523783  0.20440484  0.75258493  1
  O  O7  1  0.79559519  0.79476218  0.75258493  1
  O  O8  1  0.79559519  0.79476218  0.24741508  1
  O  O9  1  0.20523783  0.20440484  0.24741508  1
  O  O10  1  0.69654541  0.30345460  0.69843345  1
  O  O11  1  0.28877980  0.71122023  0.78823728  1
  O  O12  1  0.28877980  0.71122023  0.21176273  1
  O  O13  1  0.69654541  0.30345460  0.30156656  1
  O  O14  1  0.95413138  0.46122990  -0.00000000  1
  O  O15  1  0.06612927  0.52809185  0.50000000  1
  O  O16  1  0.53877010  0.04586864  -0.00000000  1
  O  O17  1  0.47190819  0.93387074  0.50000000  1
