# generated using pymatgen
data_Zr9AlNi6
_symmetry_space_group_name_H-M   'P 1'
_cell_length_a   5.04471016
_cell_length_b   7.84447289
_cell_length_c   7.84447289
_cell_angle_alpha   84.06549835
_cell_angle_beta   71.24358368
_cell_angle_gamma   71.24358368
_symmetry_Int_Tables_number   1
_chemical_formula_structural   Zr9AlNi6
_chemical_formula_sum   'Zr9 Al1 Ni6'
_cell_volume   278.33421548
_cell_formula_units_Z   1
loop_
 _symmetry_equiv_pos_site_id
 _symmetry_equiv_pos_as_xyz
  1  'x, y, z'
loop_
 _atom_site_type_symbol
 _atom_site_label
 _atom_site_symmetry_multiplicity
 _atom_site_fract_x
 _atom_site_fract_y
 _atom_site_fract_z
 _atom_site_occupancy
  Zr  Zr0  1  0.24999999  0.49999999  0.50000000  1
  Zr  Zr1  1  0.74999997  0.49999999  0.50000001  1
  Zr  Zr2  1  0.20044799  0.86995899  0.72914501  1
  Zr  Zr3  1  0.79955197  0.13004100  0.27085500  1
  Zr  Zr4  1  0.07040699  0.72914499  0.13004101  1
  Zr  Zr5  1  0.70044797  0.72914499  0.86995901  1
  Zr  Zr6  1  0.92959297  0.27085500  0.86995900  1
  Zr  Zr7  1  0.29955199  0.27085500  0.13004100  1
  Zr  Zr8  1  0.57040698  0.13004100  0.72914500  1
  Al  Al9  1  0.42959298  0.86995899  0.27085502  1
  Ni  Ni10  1  0.74999998  0.00000000  0.00000000  1
  Ni  Ni11  1  0.24999999  0.00000000  0.99999999  1
  Ni  Ni12  1  0.66459798  0.49999999  0.17080401  1
  Ni  Ni13  1  0.33540199  0.49999999  0.82919600  1
  Ni  Ni14  1  0.16459799  0.17080400  0.50000000  1
  Ni  Ni15  1  0.83540197  0.82919599  0.50000001  1
