# generated using pymatgen
data_LiCu2F3
_symmetry_space_group_name_H-M   'P 1'
_cell_length_a   3.34675908
_cell_length_b   3.94128895
_cell_length_c   9.63143063
_cell_angle_alpha   90.00000000
_cell_angle_beta   90.00000000
_cell_angle_gamma   90.00000000
_symmetry_Int_Tables_number   1
_chemical_formula_structural   LiCu2F3
_chemical_formula_sum   'Li2 Cu4 F6'
_cell_volume   127.04381501
_cell_formula_units_Z   2
loop_
 _symmetry_equiv_pos_site_id
 _symmetry_equiv_pos_as_xyz
  1  'x, y, z'
loop_
 _atom_site_type_symbol
 _atom_site_label
 _atom_site_symmetry_multiplicity
 _atom_site_fract_x
 _atom_site_fract_y
 _atom_site_fract_z
 _atom_site_occupancy
  Li  Li0  1  0.19421900  0.50000001  0.50000002  1
  Li  Li1  1  0.80578098  0.00000000  0.00000000  1
  Cu  Cu2  1  0.68659898  0.00000000  0.66433603  1
  Cu  Cu3  1  0.68659898  0.00000000  0.33566401  1
  Cu  Cu4  1  0.31340099  0.50000001  0.83566403  1
  Cu  Cu5  1  0.31340099  0.50000001  0.16433601  1
  F  F6  1  0.39031099  0.00000000  0.16024401  1
  F  F7  1  0.39031099  0.00000000  0.83975603  1
  F  F8  1  0.60968899  0.50000001  0.33975601  1
  F  F9  1  0.60968899  0.50000001  0.66024403  1
  F  F10  1  0.98988998  0.50000001  0.00000000  1
  F  F11  1  0.01011000  0.00000000  0.50000002  1
