# generated using pymatgen
data_FeGe
_symmetry_space_group_name_H-M   'P 1'
_cell_length_a   3.92232394
_cell_length_b   4.89168882
_cell_length_c   6.25356245
_cell_angle_alpha   103.30232239
_cell_angle_beta   108.27674866
_cell_angle_gamma   90.00000000
_symmetry_Int_Tables_number   1
_chemical_formula_structural   FeGe
_chemical_formula_sum   'Fe4 Ge4'
_cell_volume   110.53741691
_cell_formula_units_Z   4
loop_
 _symmetry_equiv_pos_site_id
 _symmetry_equiv_pos_as_xyz
  1  'x, y, z'
loop_
 _atom_site_type_symbol
 _atom_site_label
 _atom_site_symmetry_multiplicity
 _atom_site_fract_x
 _atom_site_fract_y
 _atom_site_fract_z
 _atom_site_occupancy
  Fe  Fe0  1  0.00000000  0.00000000  0.00000000  1
  Fe  Fe1  1  -0.00000001  0.49999999  -0.00000002  1
  Fe  Fe2  1  0.20503699  0.36004499  0.41007399  1
  Fe  Fe3  1  0.79496299  0.63995499  0.58992598  1
  Ge  Ge4  1  0.81588300  0.15636600  0.63176600  1
  Ge  Ge5  1  0.18411698  0.84363398  0.36823397  1
  Ge  Ge6  1  0.56978700  0.29990199  0.13957398  1
  Ge  Ge7  1  0.43021299  0.70009799  0.86042599  1
