# generated using pymatgen
data_H4PdRuO7
_symmetry_space_group_name_H-M   'P 1'
_cell_length_a   5.56750011
_cell_length_b   5.58280754
_cell_length_c   5.69873285
_cell_angle_alpha   92.19481659
_cell_angle_beta   118.29675293
_cell_angle_gamma   117.14917755
_symmetry_Int_Tables_number   1
_chemical_formula_structural   H4PdRuO7
_chemical_formula_sum   'Pd1 H4 Ru1 O7'
_cell_volume   131.24757277
_cell_formula_units_Z   1
loop_
 _symmetry_equiv_pos_site_id
 _symmetry_equiv_pos_as_xyz
  1  'x, y, z'
loop_
 _atom_site_type_symbol
 _atom_site_label
 _atom_site_symmetry_multiplicity
 _atom_site_fract_x
 _atom_site_fract_y
 _atom_site_fract_z
 _atom_site_occupancy
  Pd  Pd0  1  0.01166800  0.00411400  0.00028700  1
  H  H1  1  0.97099794  0.37424398  0.78024092  1
  H  H2  1  0.59650397  0.18306799  0.22102495  1
  H  H3  1  0.95146394  0.76548697  0.57709189  1
  Ru  Ru4  1  0.01038999  0.60963397  0.20515896  1
  H  H5  1  0.42574397  0.79827696  0.81477792  1
  O  O6  1  0.17343699  0.34061499  0.42609197  1
  O  O7  1  0.00286100  0.22138899  0.74223599  1
  O  O8  1  0.47777297  0.25217899  0.25447695  1
  O  O9  1  0.04982399  0.76484397  0.77438495  1
  O  O10  1  0.00712499  0.77953297  0.25366495  1
  O  O11  1  0.54268196  0.75220197  0.75284092  1
  O  O12  1  0.98808594  0.25869199  0.22566092  1
