# generated using pymatgen
data_LaLuNi10
_symmetry_space_group_name_H-M   'P 1'
_cell_length_a   3.92807508
_cell_length_b   4.80344152
_cell_length_c   8.31230354
_cell_angle_alpha   89.99999237
_cell_angle_beta   90.00000000
_cell_angle_gamma   90.00000000
_symmetry_Int_Tables_number   1
_chemical_formula_structural   LaLuNi10
_chemical_formula_sum   'La1 Lu1 Ni10'
_cell_volume   156.83886178
_cell_formula_units_Z   1
loop_
 _symmetry_equiv_pos_site_id
 _symmetry_equiv_pos_as_xyz
  1  'x, y, z'
loop_
 _atom_site_type_symbol
 _atom_site_label
 _atom_site_symmetry_multiplicity
 _atom_site_fract_x
 _atom_site_fract_y
 _atom_site_fract_z
 _atom_site_occupancy
  La  La0  1  -0.00000000  0.00017700  0.00000000  1
  Lu  Lu1  1  0.00000000  0.49976998  0.49999998  1
  Ni  Ni2  1  0.00000000  0.00011900  0.34987998  1
  Ni  Ni3  1  0.00000000  0.49991398  0.80650297  1
  Ni  Ni4  1  0.00000000  0.49991398  0.19349700  1
  Ni  Ni5  1  0.00000000  0.00011900  0.65011897  1
  Ni  Ni6  1  0.49999999  0.00004200  0.49999998  1
  Ni  Ni7  1  0.49999999  0.49993198  0.00000001  1
  Ni  Ni8  1  0.49999999  0.25362899  0.25836299  1
  Ni  Ni9  1  0.49999999  0.74627897  0.74163398  1
  Ni  Ni10  1  0.49999999  0.74627897  0.25836600  1
  Ni  Ni11  1  0.49999999  0.25362899  0.74163697  1
