# generated using pymatgen
data_Th2Zr2Si3N2
_symmetry_space_group_name_H-M   'P 1'
_cell_length_a   4.57735109
_cell_length_b   4.57735109
_cell_length_c   8.20725060
_cell_angle_alpha   90.00000000
_cell_angle_beta   90.00000000
_cell_angle_gamma   90.00000000
_symmetry_Int_Tables_number   1
_chemical_formula_structural   Th2Zr2Si3N2
_chemical_formula_sum   'Th2 Zr2 Si3 N2'
_cell_volume   171.95948836
_cell_formula_units_Z   1
loop_
 _symmetry_equiv_pos_site_id
 _symmetry_equiv_pos_as_xyz
  1  'x, y, z'
loop_
 _atom_site_type_symbol
 _atom_site_label
 _atom_site_symmetry_multiplicity
 _atom_site_fract_x
 _atom_site_fract_y
 _atom_site_fract_z
 _atom_site_occupancy
  Th  Th0  1  0.00000000  0.00000000  0.50000002  1
  Th  Th1  1  0.00000000  0.49999999  0.73924604  1
  Zr  Zr2  1  0.49999999  0.00000000  0.26075401  1
  Zr  Zr3  1  0.00000000  0.49999999  0.26075401  1
  Si  Si4  1  0.49999999  0.00000000  0.73924604  1
  Si  Si5  1  0.00000000  0.00000000  0.00000000  1
  Si  Si6  1  0.49999999  0.49999999  0.50000002  1
  N  N7  1  0.00000000  0.00000000  0.22057301  1
  N  N8  1  0.00000000  0.00000000  0.77942704  1
