# generated using pymatgen
data_PrCuSn
_symmetry_space_group_name_H-M   'P 1'
_cell_length_a   4.52330780
_cell_length_b   4.52330732
_cell_length_c   7.91196203
_cell_angle_alpha   90.00000000
_cell_angle_beta   90.00000000
_cell_angle_gamma   120.00000763
_symmetry_Int_Tables_number   1
_chemical_formula_structural   PrCuSn
_chemical_formula_sum   'Pr2 Cu2 Sn2'
_cell_volume   140.19322616
_cell_formula_units_Z   2
loop_
 _symmetry_equiv_pos_site_id
 _symmetry_equiv_pos_as_xyz
  1  'x, y, z'
loop_
 _atom_site_type_symbol
 _atom_site_label
 _atom_site_symmetry_multiplicity
 _atom_site_fract_x
 _atom_site_fract_y
 _atom_site_fract_z
 _atom_site_occupancy
  Pr  Pr0  1  0.00000000  0.00000000  0.24785500  1
  Pr  Pr1  1  0.00000000  0.00000000  0.74785500  1
  Cu  Cu2  1  0.33333340  0.66666671  0.03163800  1
  Cu  Cu3  1  0.66666672  0.33333335  0.53163800  1
  Sn  Sn4  1  0.33333340  0.66666671  0.48050700  1
  Sn  Sn5  1  0.66666672  0.33333335  0.98050700  1
