# generated using pymatgen
data_U2Al3Fe
_symmetry_space_group_name_H-M   'P 1'
_cell_length_a   5.31849575
_cell_length_b   5.31849575
_cell_length_c   5.31849623
_cell_angle_alpha   60.93207550
_cell_angle_beta   60.93207550
_cell_angle_gamma   60.93208313
_symmetry_Int_Tables_number   1
_chemical_formula_structural   U2Al3Fe
_chemical_formula_sum   'U2 Al3 Fe1'
_cell_volume   108.61234176
_cell_formula_units_Z   1
loop_
 _symmetry_equiv_pos_site_id
 _symmetry_equiv_pos_as_xyz
  1  'x, y, z'
loop_
 _atom_site_type_symbol
 _atom_site_label
 _atom_site_symmetry_multiplicity
 _atom_site_fract_x
 _atom_site_fract_y
 _atom_site_fract_z
 _atom_site_occupancy
  U  U0  1  0.37321900  0.37321899  0.37321898  1
  U  U1  1  0.62678100  0.62678098  0.62678097  1
  Al  Al2  1  0.49999999  0.00000000  0.00000000  1
  Al  Al3  1  0.00000001  0.49999998  -0.00000000  1
  Al  Al4  1  0.00000000  0.00000000  0.49999998  1
  Fe  Fe5  1  0.00000000  0.00000000  0.00000000  1
