# generated using pymatgen
data_LaNdNi10
_symmetry_space_group_name_H-M   'P 1'
_cell_length_a   3.97810292
_cell_length_b   5.02112913
_cell_length_c   8.70554638
_cell_angle_alpha   90.00000000
_cell_angle_beta   90.00000000
_cell_angle_gamma   90.00000000
_symmetry_Int_Tables_number   1
_chemical_formula_structural   LaNdNi10
_chemical_formula_sum   'La1 Nd1 Ni10'
_cell_volume   173.88953223
_cell_formula_units_Z   1
loop_
 _symmetry_equiv_pos_site_id
 _symmetry_equiv_pos_as_xyz
  1  'x, y, z'
loop_
 _atom_site_type_symbol
 _atom_site_label
 _atom_site_symmetry_multiplicity
 _atom_site_fract_x
 _atom_site_fract_y
 _atom_site_fract_z
 _atom_site_occupancy
  La  La0  1  0.00000000  0.00000000  0.00000000  1
  Nd  Nd1  1  0.00000000  0.49999999  0.49999998  1
  Ni  Ni2  1  0.00000000  0.00000000  0.33295099  1
  Ni  Ni3  1  0.00000000  0.49999999  0.83306096  1
  Ni  Ni4  1  0.00000000  0.49999999  0.16693899  1
  Ni  Ni5  1  0.00000000  0.00000000  0.66704897  1
  Ni  Ni6  1  0.50000001  0.00000000  0.49999998  1
  Ni  Ni7  1  0.50000001  0.49999999  -0.00000000  1
  Ni  Ni8  1  0.50000001  0.25147599  0.25153899  1
  Ni  Ni9  1  0.50000001  0.74852398  0.74846097  1
  Ni  Ni10  1  0.50000001  0.74852398  0.25153899  1
  Ni  Ni11  1  0.50000001  0.25147599  0.74846097  1
