# generated using pymatgen
data_Cu9AgPd10
_symmetry_space_group_name_H-M   'P 1'
_cell_length_a   6.47517014
_cell_length_b   7.77259827
_cell_length_c   7.77259827
_cell_angle_alpha   80.00837708
_cell_angle_beta   65.38377380
_cell_angle_gamma   65.38377380
_symmetry_Int_Tables_number   1
_chemical_formula_structural   Cu9AgPd10
_chemical_formula_sum   'Cu9 Ag1 Pd10'
_cell_volume   323.31385332
_cell_formula_units_Z   1
loop_
 _symmetry_equiv_pos_site_id
 _symmetry_equiv_pos_as_xyz
  1  'x, y, z'
loop_
 _atom_site_type_symbol
 _atom_site_label
 _atom_site_symmetry_multiplicity
 _atom_site_fract_x
 _atom_site_fract_y
 _atom_site_fract_z
 _atom_site_occupancy
  Ag  Ag0  1  0.00000000  0.00000000  0.00000000  1
  Cu  Cu1  1  0.75244105  0.83237995  0.66273799  1
  Cu  Cu2  1  0.58482004  0.66273896  0.16762000  1
  Cu  Cu3  1  0.41518001  0.33726098  0.83237999  1
  Cu  Cu4  1  0.24755901  0.16761999  0.33726200  1
  Cu  Cu5  1  0.68867599  0.22072499  0.40192302  1
  Cu  Cu6  1  0.90940100  0.40192298  0.77927501  1
  Cu  Cu7  1  0.09059906  0.59807697  0.22072497  1
  Pd  Pd8  1  0.31132407  0.77927495  0.59807697  1
  Pd  Pd9  1  0.49999998  0.00000000  1.00000000  1
  Pd  Pd10  1  0.75000001  0.49999997  0.50000001  1
  Pd  Pd11  1  0.25000004  0.49999997  0.49999998  1
  Pd  Pd12  1  0.08678809  0.89512995  0.34264096  1
  Cu  Cu13  1  0.98191799  0.34264098  0.10487004  1
  Pd  Pd14  1  0.42942905  0.65735896  0.89512997  1
  Pd  Pd15  1  0.32455899  0.10486999  0.65735900  1
  Pd  Pd16  1  0.91321197  0.10486999  0.65735903  1
  Cu  Cu17  1  0.01808207  0.65735896  0.89512995  1
  Pd  Pd18  1  0.57057101  0.34264098  0.10487002  1
  Pd  Pd19  1  0.67544106  0.89512995  0.34264099  1
