# generated using pymatgen
data_K5NaO4
_symmetry_space_group_name_H-M   'P 1'
_cell_length_a   6.68218756
_cell_length_b   6.75267982
_cell_length_c   6.70963764
_cell_angle_alpha   78.18789673
_cell_angle_beta   74.85090637
_cell_angle_gamma   101.83445740
_symmetry_Int_Tables_number   1
_chemical_formula_structural   K5NaO4
_chemical_formula_sum   'K5 Na1 O4'
_cell_volume   275.12590889
_cell_formula_units_Z   1
loop_
 _symmetry_equiv_pos_site_id
 _symmetry_equiv_pos_as_xyz
  1  'x, y, z'
loop_
 _atom_site_type_symbol
 _atom_site_label
 _atom_site_symmetry_multiplicity
 _atom_site_fract_x
 _atom_site_fract_y
 _atom_site_fract_z
 _atom_site_occupancy
  K  K0  1  1.00000003  0.50000001  0.00000001  1
  K  K1  1  1.00000002  0.00000000  0.49999999  1
  K  K2  1  0.50000001  0.00000000  -0.00000001  1
  K  K3  1  0.00000000  0.00000000  0.00000000  1
  K  K4  1  0.78501802  0.78310201  0.93092803  1
  Na  Na5  1  0.21498201  0.21689800  0.06907201  1
  O  O6  1  0.06222201  0.78139601  0.21715904  1
  O  O7  1  0.93777802  0.21860400  0.78284100  1
  O  O8  1  0.76980002  0.06237900  0.22723999  1
  O  O9  1  0.23020001  0.93762101  0.77276005  1
