# generated using pymatgen
data_Ce(Ni2Sn)2
_symmetry_space_group_name_H-M   'P 1'
_cell_length_a   6.77500820
_cell_length_b   6.77500820
_cell_length_c   6.77500820
_cell_angle_alpha   107.90142822
_cell_angle_beta   110.26177216
_cell_angle_gamma   110.26177216
_symmetry_Int_Tables_number   1
_chemical_formula_structural   Ce(Ni2Sn)2
_chemical_formula_sum   'Ce2 Ni8 Sn4'
_cell_volume   239.25655602
_cell_formula_units_Z   2
loop_
 _symmetry_equiv_pos_site_id
 _symmetry_equiv_pos_as_xyz
  1  'x, y, z'
loop_
 _atom_site_type_symbol
 _atom_site_label
 _atom_site_symmetry_multiplicity
 _atom_site_fract_x
 _atom_site_fract_y
 _atom_site_fract_z
 _atom_site_occupancy
  Ce  Ce0  1  0.49999998  0.49999997  -0.00000003  1
  Ce  Ce1  1  0.49999999  0.00000000  0.49999999  1
  Ni  Ni2  1  0.72222397  0.27641798  0.27603398  1
  Sn  Sn3  1  0.27777598  0.55380997  0.55419395  1
  Ni  Ni4  1  0.99961597  0.05381000  0.77603398  1
  Ni  Ni5  1  0.00038398  0.77641795  0.05419395  1
  Ni  Ni6  1  0.00038399  0.72396596  0.44618994  1
  Ni  Ni7  1  0.99961596  0.44580597  0.72358196  1
  Sn  Sn8  1  0.27777599  0.22396599  0.22358198  1
  Ni  Ni9  1  0.72222396  0.94580594  0.94618991  1
  Ni  Ni10  1  0.31703997  0.90851995  0.90851991  1
  Ni  Ni11  1  0.68295997  0.59147996  0.59147995  1
  Sn  Sn12  1  -0.00000000  0.09147999  0.40851998  1
  Sn  Sn13  1  -0.00000001  0.40851998  0.09147997  1
