# generated using pymatgen
data_BaCe2Ti2O7
_symmetry_space_group_name_H-M   'P 1'
_cell_length_a   3.97005796
_cell_length_b   3.97005701
_cell_length_c   10.66546917
_cell_angle_alpha   100.72628784
_cell_angle_beta   100.72628021
_cell_angle_gamma   90.00000000
_symmetry_Int_Tables_number   1
_chemical_formula_structural   BaCe2Ti2O7
_chemical_formula_sum   'Ba1 Ce2 Ti2 O7'
_cell_volume   162.17474796
_cell_formula_units_Z   1
loop_
 _symmetry_equiv_pos_site_id
 _symmetry_equiv_pos_as_xyz
  1  'x, y, z'
loop_
 _atom_site_type_symbol
 _atom_site_label
 _atom_site_symmetry_multiplicity
 _atom_site_fract_x
 _atom_site_fract_y
 _atom_site_fract_z
 _atom_site_occupancy
  Ba  Ba0  1  0.50000096  0.50000000  0.99999998  1
  Ce  Ce1  1  0.31794497  0.31794300  0.63588699  1
  Ce  Ce2  1  0.68205494  0.68205600  0.36411299  1
  Ti  Ti3  1  0.89961892  0.89962100  0.79923898  1
  Ti  Ti4  1  0.10038099  0.10038100  0.20076100  1
  O  O5  1  0.39117793  0.89117900  0.78235598  1
  O  O6  1  0.89117895  0.39117700  0.78235599  1
  O  O7  1  0.60881998  0.10882300  0.21764300  1
  O  O8  1  0.10882196  0.60882100  0.21764299  1
  O  O9  1  0.79336193  0.79336200  0.58672598  1
  O  O10  1  0.00000000  0.00000000  0.00000000  1
  O  O11  1  0.20663798  0.20663700  0.41327399  1
