# generated using pymatgen
data_Sm3AlSi3
_symmetry_space_group_name_H-M   'P 1'
_cell_length_a   4.21260214
_cell_length_b   5.55763102
_cell_length_c   13.16921520
_cell_angle_alpha   90.00000000
_cell_angle_beta   90.00000000
_cell_angle_gamma   112.27129364
_symmetry_Int_Tables_number   1
_chemical_formula_structural   Sm3AlSi3
_chemical_formula_sum   'Sm6 Al2 Si6'
_cell_volume   285.31815745
_cell_formula_units_Z   2
loop_
 _symmetry_equiv_pos_site_id
 _symmetry_equiv_pos_as_xyz
  1  'x, y, z'
loop_
 _atom_site_type_symbol
 _atom_site_label
 _atom_site_symmetry_multiplicity
 _atom_site_fract_x
 _atom_site_fract_y
 _atom_site_fract_z
 _atom_site_occupancy
  Sm  Sm0  1  0.20644397  0.41288799  0.60177299  1
  Sm  Sm1  1  0.79355594  0.58711198  0.39822699  1
  Sm  Sm2  1  0.20644397  0.41288799  0.89822699  1
  Sm  Sm3  1  0.79355594  0.58711198  0.10177300  1
  Sm  Sm4  1  0.49684692  0.99369397  0.74999999  1
  Sm  Sm5  1  0.50315298  0.00630600  0.25000000  1
  Al  Al6  1  0.49999998  0.00000000  0.49999999  1
  Al  Al7  1  0.49999998  0.00000000  0.00000000  1
  Si  Si8  1  0.91583592  0.83167197  0.59830999  1
  Si  Si9  1  0.08416399  0.16832799  0.40168999  1
  Si  Si10  1  0.91583592  0.83167197  0.90168999  1
  Si  Si11  1  0.08416399  0.16832799  0.09831000  1
  Si  Si12  1  0.79875494  0.59750998  0.74999999  1
  Si  Si13  1  0.20124497  0.40248999  0.25000000  1
