# generated using pymatgen
data_Bi10Ir7
_symmetry_space_group_name_H-M   'P 1'
_cell_length_a   8.16777992
_cell_length_b   8.16777992
_cell_length_c   8.16777992
_cell_angle_alpha   109.47122192
_cell_angle_beta   109.47122192
_cell_angle_gamma   109.47122192
_symmetry_Int_Tables_number   1
_chemical_formula_structural   Bi10Ir7
_chemical_formula_sum   'Bi10 Ir7'
_cell_volume   419.45963109
_cell_formula_units_Z   1
loop_
 _symmetry_equiv_pos_site_id
 _symmetry_equiv_pos_as_xyz
  1  'x, y, z'
loop_
 _atom_site_type_symbol
 _atom_site_label
 _atom_site_symmetry_multiplicity
 _atom_site_fract_x
 _atom_site_fract_y
 _atom_site_fract_z
 _atom_site_occupancy
  Bi  Bi0  1  0.00000000  0.00000000  0.00000000  1
  Bi  Bi1  1  0.33901802  0.15655201  0.49557002  1
  Bi  Bi2  1  0.66098207  0.84344804  0.50443007  1
  Bi  Bi3  1  0.33901806  0.84344904  0.18246606  1
  Bi  Bi4  1  0.66098202  0.15655101  0.81753404  1
  Bi  Bi5  1  0.84344805  0.50443003  0.66098206  1
  Bi  Bi6  1  0.15655203  0.49557003  0.33901804  1
  Bi  Bi7  1  0.15655206  0.81753404  0.66098306  1
  Ir  Ir8  1  0.84344803  0.18246601  0.33901703  1
  Bi  Bi9  1  0.18246603  0.33901802  0.84344803  1
  Bi  Bi10  1  0.81753406  0.66098203  0.15655206  1
  Ir  Ir11  1  0.49556903  0.33901702  0.15655103  1
  Ir  Ir12  1  0.50443105  0.66098303  0.84344906  1
  Ir  Ir13  1  0.50000004  0.50000003  0.50000005  1
  Ir  Ir14  1  0.00000000  0.00000000  0.50000001  1
  Ir  Ir15  1  1.00000005  0.50000003  0.00000005  1
  Ir  Ir16  1  0.50000001  0.00000000  1.00000003  1
