# generated using pymatgen
data_SrHg2
_symmetry_space_group_name_H-M   'P 1'
_cell_length_a   4.94894600
_cell_length_b   4.94894600
_cell_length_c   7.76628208
_cell_angle_alpha   90.00000000
_cell_angle_beta   90.00000000
_cell_angle_gamma   120.00000000
_symmetry_Int_Tables_number   1
_chemical_formula_structural   SrHg2
_chemical_formula_sum   'Sr2 Hg4'
_cell_volume   164.72868150
_cell_formula_units_Z   2
loop_
 _symmetry_equiv_pos_site_id
 _symmetry_equiv_pos_as_xyz
  1  'x, y, z'
loop_
 _atom_site_type_symbol
 _atom_site_label
 _atom_site_symmetry_multiplicity
 _atom_site_fract_x
 _atom_site_fract_y
 _atom_site_fract_z
 _atom_site_occupancy
  Sr  Sr0  1  0.00000000  0.00000000  0.73859799  1
  Sr  Sr1  1  0.00000000  0.00000000  0.26140200  1
  Hg  Hg2  1  0.66666667  0.33333334  0.52569799  1
  Hg  Hg3  1  0.33333334  0.66666667  0.47430200  1
  Hg  Hg4  1  0.33333334  0.66666667  0.05219000  1
  Hg  Hg5  1  0.66666667  0.33333334  0.94780999  1
