# generated using pymatgen
data_Ce6WO12
_symmetry_space_group_name_H-M   'P 1'
_cell_length_a   6.50970888
_cell_length_b   6.50970888
_cell_length_c   6.50970888
_cell_angle_alpha   98.68717194
_cell_angle_beta   98.68717194
_cell_angle_gamma   98.68717957
_symmetry_Int_Tables_number   1
_chemical_formula_structural   Ce6WO12
_chemical_formula_sum   'Ce6 W1 O12'
_cell_volume   265.26383914
_cell_formula_units_Z   1
loop_
 _symmetry_equiv_pos_site_id
 _symmetry_equiv_pos_as_xyz
  1  'x, y, z'
loop_
 _atom_site_type_symbol
 _atom_site_label
 _atom_site_symmetry_multiplicity
 _atom_site_fract_x
 _atom_site_fract_y
 _atom_site_fract_z
 _atom_site_occupancy
  Ce  Ce0  1  0.85612901  0.68397601  0.38951197  1
  Ce  Ce1  1  0.31602400  0.61048801  0.14387098  1
  Ce  Ce2  1  0.61048801  0.14387100  0.31602399  1
  Ce  Ce3  1  0.14387100  0.31602401  0.61048800  1
  Ce  Ce4  1  0.68397601  0.38951201  0.85612899  1
  Ce  Ce5  1  0.38951200  0.85612902  0.68397598  1
  W  W6  1  0.00000000  0.00000000  0.00000000  1
  O  O7  1  0.56871301  0.82290101  0.40845297  1
  O  O8  1  0.82290101  0.40845301  0.56871298  1
  O  O9  1  0.40845301  0.56871301  0.82290099  1
  O  O10  1  0.43128701  0.17709900  0.59154700  1
  O  O11  1  0.17709900  0.59154701  0.43128699  1
  O  O12  1  0.59154701  0.43128701  0.17709898  1
  O  O13  1  0.96570502  0.07724300  0.29587798  1
  O  O14  1  0.70412201  0.03429500  0.92275700  1
  O  O15  1  0.92275701  0.70412201  0.03429495  1
  O  O16  1  0.03429500  0.92275702  0.70412199  1
  O  O17  1  0.29587800  0.96570502  0.07724297  1
  O  O18  1  0.07724300  0.29587801  0.96570501  1
