# generated using pymatgen
data_Cu3Pt
_symmetry_space_group_name_H-M   'P 1'
_cell_length_a   4.24566078
_cell_length_b   4.56261110
_cell_length_c   5.31332922
_cell_angle_alpha   90.00000000
_cell_angle_beta   90.00000000
_cell_angle_gamma   90.00000000
_symmetry_Int_Tables_number   1
_chemical_formula_structural   Cu3Pt
_chemical_formula_sum   'Cu6 Pt2'
_cell_volume   102.92608913
_cell_formula_units_Z   2
loop_
 _symmetry_equiv_pos_site_id
 _symmetry_equiv_pos_as_xyz
  1  'x, y, z'
loop_
 _atom_site_type_symbol
 _atom_site_label
 _atom_site_symmetry_multiplicity
 _atom_site_fract_x
 _atom_site_fract_y
 _atom_site_fract_z
 _atom_site_occupancy
  Cu  Cu0  1  0.50000003  0.16452800  0.74688097  1
  Cu  Cu1  1  0.50000003  0.16452800  0.25311899  1
  Cu  Cu2  1  -0.00000000  0.83547198  0.75311897  1
  Cu  Cu3  1  -0.00000000  0.83547198  0.24688099  1
  Cu  Cu4  1  0.00000000  0.30784899  0.49999998  1
  Cu  Cu5  1  0.50000003  0.69215098  0.00000000  1
  Pt  Pt6  1  0.50000003  0.66624098  0.49999998  1
  Pt  Pt7  1  -0.00000000  0.33375899  0.00000000  1
