# generated using pymatgen
data_FeIr3
_symmetry_space_group_name_H-M   'P 1'
_cell_length_a   4.26554298
_cell_length_b   5.41873407
_cell_length_c   5.41873360
_cell_angle_alpha   120.00000000
_cell_angle_beta   90.00000000
_cell_angle_gamma   90.00000000
_symmetry_Int_Tables_number   1
_chemical_formula_structural   FeIr3
_chemical_formula_sum   'Fe2 Ir6'
_cell_volume   108.46774038
_cell_formula_units_Z   2
loop_
 _symmetry_equiv_pos_site_id
 _symmetry_equiv_pos_as_xyz
  1  'x, y, z'
loop_
 _atom_site_type_symbol
 _atom_site_label
 _atom_site_symmetry_multiplicity
 _atom_site_fract_x
 _atom_site_fract_y
 _atom_site_fract_z
 _atom_site_occupancy
  Fe  Fe0  1  0.75000000  0.33333332  0.66666667  1
  Fe  Fe1  1  0.25000000  0.66666665  0.33333332  1
  Ir  Ir2  1  0.25000000  0.17058499  0.34117000  1
  Ir  Ir3  1  0.25000000  0.65882898  0.82941400  1
  Ir  Ir4  1  0.75000000  0.34117099  0.17058599  1
  Ir  Ir5  1  0.75000000  0.82941498  0.65882999  1
  Ir  Ir6  1  0.25000000  0.17058499  0.82941402  1
  Ir  Ir7  1  0.75000000  0.82941498  0.17058598  1
