# generated using pymatgen
data_V11Ge5N2
_symmetry_space_group_name_H-M   'P 1'
_cell_length_a   5.41865683
_cell_length_b   7.47283602
_cell_length_c   7.47283697
_cell_angle_alpha   119.99999237
_cell_angle_beta   90.00000000
_cell_angle_gamma   90.00000000
_symmetry_Int_Tables_number   1
_chemical_formula_structural   V11Ge5N2
_chemical_formula_sum   'V11 Ge5 N2'
_cell_volume   262.05549589
_cell_formula_units_Z   1
loop_
 _symmetry_equiv_pos_site_id
 _symmetry_equiv_pos_as_xyz
  1  'x, y, z'
loop_
 _atom_site_type_symbol
 _atom_site_label
 _atom_site_symmetry_multiplicity
 _atom_site_fract_x
 _atom_site_fract_y
 _atom_site_fract_z
 _atom_site_occupancy
  V  V0  1  0.25000001  0.76494597  0.76494596  1
  V  V1  1  0.75000002  0.23505399  0.23505399  1
  V  V2  1  0.25000001  0.00000000  0.23505400  1
  V  V3  1  0.75000002  0.00000000  0.76494601  1
  V  V4  1  0.25000001  0.23505399  -0.00000001  1
  V  V5  1  0.75000002  0.76494597  -0.00000005  1
  V  V6  1  0.50000002  0.66666664  0.33333329  1
  V  V7  1  0.50000002  0.33333332  0.66666665  1
  V  V8  1  -0.00000000  0.33333332  0.66666665  1
  V  V9  1  1.00000003  0.66666664  0.33333329  1
  Ge  Ge10  1  0.25000001  0.40471799  0.40471798  1
  V  V11  1  0.75000002  0.59528198  0.59528197  1
  Ge  Ge12  1  0.25000001  0.00000000  0.59528200  1
  Ge  Ge13  1  0.75000002  0.00000000  0.40471800  1
  Ge  Ge14  1  0.25000001  0.59528198  -0.00000004  1
  Ge  Ge15  1  0.75000002  0.40471799  -0.00000003  1
  N  N16  1  0.50000002  0.00000000  -0.00000000  1
  N  N17  1  0.00000000  0.00000000  0.00000000  1
