# generated using pymatgen
data_Nb2C3
_symmetry_space_group_name_H-M   'P 1'
_cell_length_a   2.88976789
_cell_length_b   5.24962425
_cell_length_c   13.46289825
_cell_angle_alpha   90.00000000
_cell_angle_beta   90.00000000
_cell_angle_gamma   105.97605896
_symmetry_Int_Tables_number   1
_chemical_formula_structural   Nb2C3
_chemical_formula_sum   'Nb8 C12'
_cell_volume   196.34659536
_cell_formula_units_Z   4
loop_
 _symmetry_equiv_pos_site_id
 _symmetry_equiv_pos_as_xyz
  1  'x, y, z'
loop_
 _atom_site_type_symbol
 _atom_site_label
 _atom_site_symmetry_multiplicity
 _atom_site_fract_x
 _atom_site_fract_y
 _atom_site_fract_z
 _atom_site_occupancy
  Nb  Nb0  1  0.17471699  0.34943401  0.05849200  1
  Nb  Nb1  1  0.99838200  0.99676402  0.25000000  1
  Nb  Nb2  1  0.00161800  0.00323600  0.74999999  1
  Nb  Nb3  1  0.73123601  0.46247201  0.74999999  1
  Nb  Nb4  1  0.26876399  0.53752801  0.25000000  1
  Nb  Nb5  1  0.82528300  0.65056601  0.94150798  1
  Nb  Nb6  1  0.82528300  0.65056601  0.55849199  1
  Nb  Nb7  1  0.17471699  0.34943401  0.44150799  1
  C  C8  1  0.20186899  0.40373801  0.63027999  1
  C  C9  1  0.20186899  0.40373801  0.86971998  1
  C  C10  1  0.79813101  0.59626201  0.36971999  1
  C  C11  1  0.36482498  0.72965002  0.68167299  1
  C  C12  1  0.63517501  0.27035001  0.31832699  1
  C  C13  1  0.36482498  0.72965002  0.81832698  1
  C  C14  1  0.79813101  0.59626201  0.13028000  1
  C  C15  1  0.63517501  0.27035001  0.18167300  1
  C  C16  1  0.55614602  0.11229200  0.58899599  1
  C  C17  1  0.55614602  0.11229200  0.91100398  1
  C  C18  1  0.44385398  0.88770802  0.08899600  1
  C  C19  1  0.44385398  0.88770802  0.41100399  1
