# generated using pymatgen
data_Ce3TiSb5
_symmetry_space_group_name_H-M   'P 1'
_cell_length_a   6.23461819
_cell_length_b   9.33240604
_cell_length_c   9.33240509
_cell_angle_alpha   120.00000000
_cell_angle_beta   90.00000000
_cell_angle_gamma   90.00000000
_symmetry_Int_Tables_number   1
_chemical_formula_structural   Ce3TiSb5
_chemical_formula_sum   'Ce6 Ti2 Sb10'
_cell_volume   470.24880646
_cell_formula_units_Z   2
loop_
 _symmetry_equiv_pos_site_id
 _symmetry_equiv_pos_as_xyz
  1  'x, y, z'
loop_
 _atom_site_type_symbol
 _atom_site_label
 _atom_site_symmetry_multiplicity
 _atom_site_fract_x
 _atom_site_fract_y
 _atom_site_fract_z
 _atom_site_occupancy
  Ce  Ce0  1  0.74999998  0.38182699  0.38182700  1
  Ce  Ce1  1  0.24999999  0.61817298  0.61817300  1
  Ce  Ce2  1  0.74999998  0.00000000  0.61817302  1
  Ce  Ce3  1  0.24999999  0.00000000  0.38182701  1
  Ce  Ce4  1  0.74999998  0.61817298  1.00000001  1
  Ce  Ce5  1  0.24999999  0.38182699  1.00000002  1
  Ti  Ti6  1  0.00000000  0.00000000  0.00000000  1
  Ti  Ti7  1  0.49999999  0.00000000  -0.00000000  1
  Sb  Sb8  1  0.74999998  0.74220198  0.74220200  1
  Sb  Sb9  1  0.24999999  0.25779799  0.25779800  1
  Sb  Sb10  1  0.74999998  0.00000000  0.25779801  1
  Sb  Sb11  1  0.24999999  0.00000000  0.74220203  1
  Sb  Sb12  1  0.74999998  0.25779799  1.00000002  1
  Sb  Sb13  1  0.24999999  0.74220198  1.00000000  1
  Sb  Sb14  1  0.99999997  0.66666665  0.33333332  1
  Sb  Sb15  1  -0.00000000  0.33333332  0.66666668  1
  Sb  Sb16  1  0.49999999  0.33333332  0.66666668  1
  Sb  Sb17  1  0.49999999  0.66666665  0.33333332  1
