# generated using pymatgen
data_Li8UO6
_symmetry_space_group_name_H-M   'P 1'
_cell_length_a   5.65607977
_cell_length_b   5.65607977
_cell_length_c   6.31729984
_cell_angle_alpha   63.40596771
_cell_angle_beta   63.40596771
_cell_angle_gamma   60.00000381
_symmetry_Int_Tables_number   1
_chemical_formula_structural   Li8UO6
_chemical_formula_sum   'Li8 U1 O6'
_cell_volume   149.82490777
_cell_formula_units_Z   1
loop_
 _symmetry_equiv_pos_site_id
 _symmetry_equiv_pos_as_xyz
  1  'x, y, z'
loop_
 _atom_site_type_symbol
 _atom_site_label
 _atom_site_symmetry_multiplicity
 _atom_site_fract_x
 _atom_site_fract_y
 _atom_site_fract_z
 _atom_site_occupancy
  Li  Li0  1  0.64647101  0.64647099  0.06058699  1
  Li  Li1  1  0.77071500  0.10238400  0.62953301  1
  Li  Li2  1  0.10238401  0.49736799  0.62953301  1
  Li  Li3  1  0.49736801  0.77071499  0.62953301  1
  Li  Li4  1  0.22928502  0.89761599  0.37046700  1
  Li  Li5  1  0.89761601  0.50263199  0.37046700  1
  Li  Li6  1  0.35352901  0.35352900  0.93941302  1
  Li  Li7  1  0.50263200  0.22928500  0.37046701  1
  U  U8  1  0.00000000  0.00000000  0.00000000  1
  O  O9  1  0.39568300  0.09987400  0.74489502  1
  O  O10  1  0.24045201  0.60431699  0.25510500  1
  O  O11  1  0.60431702  0.90012599  0.25510500  1
  O  O12  1  0.09987402  0.75954799  0.74489501  1
  O  O13  1  0.75954801  0.39568300  0.74489501  1
  O  O14  1  0.90012600  0.24045200  0.25510500  1
