# generated using pymatgen
data_RbFeCl3
_symmetry_space_group_name_H-M   'P 1'
_cell_length_a   5.89353418
_cell_length_b   7.15989208
_cell_length_c   7.15989256
_cell_angle_alpha   60.00000381
_cell_angle_beta   90.00000000
_cell_angle_gamma   90.00000000
_symmetry_Int_Tables_number   1
_chemical_formula_structural   RbFeCl3
_chemical_formula_sum   'Rb2 Fe2 Cl6'
_cell_volume   261.64921556
_cell_formula_units_Z   2
loop_
 _symmetry_equiv_pos_site_id
 _symmetry_equiv_pos_as_xyz
  1  'x, y, z'
loop_
 _atom_site_type_symbol
 _atom_site_label
 _atom_site_symmetry_multiplicity
 _atom_site_fract_x
 _atom_site_fract_y
 _atom_site_fract_z
 _atom_site_occupancy
  Rb  Rb0  1  0.24999999  0.33333333  0.33333334  1
  Rb  Rb1  1  0.74999998  0.66666665  0.66666668  1
  Fe  Fe2  1  0.00000000  0.00000000  0.00000000  1
  Fe  Fe3  1  0.49999998  0.00000000  0.00000000  1
  Cl  Cl4  1  0.24999999  0.84405698  0.31188602  1
  Cl  Cl5  1  0.74999998  0.15594300  0.15594300  1
  Cl  Cl6  1  0.74999998  0.68811398  0.15594302  1
  Cl  Cl7  1  0.24999999  0.31188599  0.84405701  1
  Cl  Cl8  1  0.74999998  0.15594300  0.68811400  1
  Cl  Cl9  1  0.24999999  0.84405698  0.84405702  1
