# generated using pymatgen
data_SrAlO2
_symmetry_space_group_name_H-M   'P 1'
_cell_length_a   5.11099815
_cell_length_b   5.51160669
_cell_length_c   5.11099815
_cell_angle_alpha   62.37661362
_cell_angle_beta   90.00000000
_cell_angle_gamma   117.62338257
_symmetry_Int_Tables_number   1
_chemical_formula_structural   SrAlO2
_chemical_formula_sum   'Sr2 Al2 O4'
_cell_volume   108.70349615
_cell_formula_units_Z   2
loop_
 _symmetry_equiv_pos_site_id
 _symmetry_equiv_pos_as_xyz
  1  'x, y, z'
loop_
 _atom_site_type_symbol
 _atom_site_label
 _atom_site_symmetry_multiplicity
 _atom_site_fract_x
 _atom_site_fract_y
 _atom_site_fract_z
 _atom_site_occupancy
  Sr  Sr0  1  0.24999995  0.49999999  0.25000000  1
  Sr  Sr1  1  0.49999998  0.00000000  0.49999998  1
  Al  Al2  1  0.74999994  0.49999999  0.74999999  1
  Al  Al3  1  0.00000000  0.00000000  0.00000000  1
  O  O4  1  0.00837594  0.74999998  0.87499999  1
  O  O5  1  0.74162392  0.74999998  0.37500000  1
  O  O6  1  0.87499995  0.24999999  0.74162398  1
  O  O7  1  0.37499997  0.24999999  0.00837600  1
