# generated using pymatgen
data_Pr2Ag2As5Rh
_symmetry_space_group_name_H-M   'P 1'
_cell_length_a   5.96559000
_cell_length_b   6.25535011
_cell_length_c   12.83522224
_cell_angle_alpha   90.00000000
_cell_angle_beta   90.00000000
_cell_angle_gamma   90.00000000
_symmetry_Int_Tables_number   1
_chemical_formula_structural   Pr2Ag2As5Rh
_chemical_formula_sum   'Pr4 Ag4 As10 Rh2'
_cell_volume   478.97011559
_cell_formula_units_Z   2
loop_
 _symmetry_equiv_pos_site_id
 _symmetry_equiv_pos_as_xyz
  1  'x, y, z'
loop_
 _atom_site_type_symbol
 _atom_site_label
 _atom_site_symmetry_multiplicity
 _atom_site_fract_x
 _atom_site_fract_y
 _atom_site_fract_z
 _atom_site_occupancy
  Pr  Pr0  1  0.75000000  0.49625899  0.31047699  1
  Pr  Pr1  1  0.25000000  0.50374099  0.68952299  1
  Pr  Pr2  1  0.25000000  0.00374100  0.31047699  1
  Pr  Pr3  1  0.75000000  0.99625898  0.68952299  1
  Ag  Ag4  1  0.50000000  0.25000000  0.90018798  1
  Ag  Ag5  1  -0.00000000  0.74999999  0.09981200  1
  Ag  Ag6  1  0.50000000  0.74999999  0.09981200  1
  Ag  Ag7  1  0.00000000  0.25000000  0.90018798  1
  As  As8  1  0.75000000  0.39437199  0.06603800  1
  As  As9  1  0.25000000  0.60562799  0.93396198  1
  As  As10  1  0.25000000  0.10562800  0.06603800  1
  As  As11  1  0.75000000  0.89437198  0.93396198  1
  As  As12  1  0.75000000  0.00549800  0.22718400  1
  Rh  Rh13  1  0.25000000  0.99450198  0.77281599  1
  As  As14  1  0.25000000  0.49450199  0.22718400  1
  Rh  Rh15  1  0.75000000  0.50549799  0.77281599  1
  As  As16  1  0.50000000  0.25000000  0.50178599  1
  As  As17  1  -0.00000000  0.74999999  0.49821399  1
  As  As18  1  0.50000000  0.74999999  0.49821399  1
  As  As19  1  0.00000000  0.25000000  0.50178599  1
