# generated using pymatgen
data_CaSnPd
_symmetry_space_group_name_H-M   'P 1'
_cell_length_a   4.64940596
_cell_length_b   7.48278522
_cell_length_c   8.12886524
_cell_angle_alpha   90.00000000
_cell_angle_beta   90.00000000
_cell_angle_gamma   90.00000000
_symmetry_Int_Tables_number   1
_chemical_formula_structural   CaSnPd
_chemical_formula_sum   'Ca4 Sn4 Pd4'
_cell_volume   282.80733655
_cell_formula_units_Z   4
loop_
 _symmetry_equiv_pos_site_id
 _symmetry_equiv_pos_as_xyz
  1  'x, y, z'
loop_
 _atom_site_type_symbol
 _atom_site_label
 _atom_site_symmetry_multiplicity
 _atom_site_fract_x
 _atom_site_fract_y
 _atom_site_fract_z
 _atom_site_occupancy
  Ca  Ca0  1  0.75000001  0.48812199  0.80463098  1
  Ca  Ca1  1  0.25000000  0.01187800  0.30463099  1
  Ca  Ca2  1  0.75000001  0.98812197  0.69536898  1
  Ca  Ca3  1  0.25000000  0.51187798  0.19536899  1
  Sn  Sn4  1  0.25000000  0.67711198  0.58397698  1
  Sn  Sn5  1  0.25000000  0.17711199  0.91602297  1
  Sn  Sn6  1  0.75000001  0.32288799  0.41602299  1
  Sn  Sn7  1  0.75000001  0.82288798  0.08397700  1
  Pd  Pd8  1  0.25000000  0.78929598  0.90895597  1
  Pd  Pd9  1  0.25000000  0.28929599  0.59104398  1
  Pd  Pd10  1  0.75000001  0.71070398  0.40895599  1
  Pd  Pd11  1  0.75000001  0.21070399  0.09104400  1
