# generated using pymatgen
data_Dy2GaNi3
_symmetry_space_group_name_H-M   'P 1'
_cell_length_a   4.92590857
_cell_length_b   4.92590857
_cell_length_c   4.92590857
_cell_angle_alpha   64.97130585
_cell_angle_beta   64.97130585
_cell_angle_gamma   64.97129822
_symmetry_Int_Tables_number   1
_chemical_formula_structural   Dy2GaNi3
_chemical_formula_sum   'Dy2 Ga1 Ni3'
_cell_volume   93.69434352
_cell_formula_units_Z   1
loop_
 _symmetry_equiv_pos_site_id
 _symmetry_equiv_pos_as_xyz
  1  'x, y, z'
loop_
 _atom_site_type_symbol
 _atom_site_label
 _atom_site_symmetry_multiplicity
 _atom_site_fract_x
 _atom_site_fract_y
 _atom_site_fract_z
 _atom_site_occupancy
  Dy  Dy0  1  0.37046501  0.37046499  0.37046501  1
  Dy  Dy1  1  0.62953502  0.62953499  0.62953501  1
  Ga  Ga2  1  0.00000000  0.00000000  0.00000000  1
  Ni  Ni3  1  0.49999999  0.00000000  0.00000001  1
  Ni  Ni4  1  0.00000002  0.49999999  0.00000001  1
  Ni  Ni5  1  0.00000000  0.00000000  0.49999999  1
