# generated using pymatgen
data_Tl2SnSe4
_symmetry_space_group_name_H-M   'P 1'
_cell_length_a   3.99025202
_cell_length_b   9.55590057
_cell_length_c   10.39602184
_cell_angle_alpha   104.06277466
_cell_angle_beta   101.06441498
_cell_angle_gamma   90.00000000
_symmetry_Int_Tables_number   1
_chemical_formula_structural   Tl2SnSe4
_chemical_formula_sum   'Tl4 Sn2 Se8'
_cell_volume   376.92425515
_cell_formula_units_Z   2
loop_
 _symmetry_equiv_pos_site_id
 _symmetry_equiv_pos_as_xyz
  1  'x, y, z'
loop_
 _atom_site_type_symbol
 _atom_site_label
 _atom_site_symmetry_multiplicity
 _atom_site_fract_x
 _atom_site_fract_y
 _atom_site_fract_z
 _atom_site_occupancy
  Tl  Tl0  1  0.01787603  0.99926199  0.03575204  1
  Tl  Tl1  1  0.20489603  0.83092600  0.40979203  1
  Tl  Tl2  1  0.79572001  0.16805100  0.59144001  1
  Tl  Tl3  1  0.84350602  0.51755700  0.68701202  1
  Sn  Sn4  1  0.15710802  0.48305500  0.31421602  1
  Sn  Sn5  1  0.49952002  0.49965700  0.99904001  1
  Se  Se6  1  0.41421802  0.67808300  0.82843602  1
  Se  Se7  1  0.58567801  0.32298000  0.17135602  1
  Se  Se8  1  0.33031900  0.00682600  0.66063800  1
  Se  Se9  1  0.66939203  0.99265399  0.33878404  1
  Se  Se10  1  0.73964002  0.65741800  0.47928003  1
  Se  Se11  1  0.26088301  0.34361500  0.52176601  1
  Se  Se12  1  0.07175102  0.66587000  0.14350203  1
  Se  Se13  1  0.92753301  0.33354800  0.85506601  1
