# generated using pymatgen
data_La3Co2Sb7
_symmetry_space_group_name_H-M   'P 1'
_cell_length_a   4.61735916
_cell_length_b   4.68728209
_cell_length_c   13.93778992
_cell_angle_alpha   80.31971741
_cell_angle_beta   90.00000000
_cell_angle_gamma   90.00000000
_symmetry_Int_Tables_number   1
_chemical_formula_structural   La3Co2Sb7
_chemical_formula_sum   'La3 Co2 Sb7'
_cell_volume   297.35857552
_cell_formula_units_Z   1
loop_
 _symmetry_equiv_pos_site_id
 _symmetry_equiv_pos_as_xyz
  1  'x, y, z'
loop_
 _atom_site_type_symbol
 _atom_site_label
 _atom_site_symmetry_multiplicity
 _atom_site_fract_x
 _atom_site_fract_y
 _atom_site_fract_z
 _atom_site_occupancy
  La  La0  1  0.49999998  0.49999999  -0.00000001  1
  La  La1  1  0.00000000  0.18505300  0.62989398  1
  La  La2  1  0.00000000  0.81494699  0.37010598  1
  Co  Co3  1  0.49999998  0.37150000  0.25699999  1
  Co  Co4  1  0.49999998  0.62849999  0.74299998  1
  Sb  Sb5  1  0.00000000  0.00000000  0.00000000  1
  Sb  Sb6  1  0.00000000  0.41059400  0.17881199  1
  Sb  Sb7  1  0.00000000  0.58940599  0.82118798  1
  Sb  Sb8  1  0.49999998  0.08966700  0.82066598  1
  Sb  Sb9  1  0.49999998  0.91033299  0.17933398  1
  Sb  Sb10  1  0.49999998  0.28071400  0.43857199  1
  Sb  Sb11  1  0.49999998  0.71928599  0.56142798  1
