# generated using pymatgen
data_Li2MnPO4F
_symmetry_space_group_name_H-M   'P 1'
_cell_length_a   5.42330408
_cell_length_b   5.43843555
_cell_length_c   7.44815063
_cell_angle_alpha   106.93873596
_cell_angle_beta   106.75918579
_cell_angle_gamma   95.27448273
_symmetry_Int_Tables_number   1
_chemical_formula_structural   Li2MnPO4F
_chemical_formula_sum   'Li4 Mn2 P2 O8 F2'
_cell_volume   197.47491329
_cell_formula_units_Z   2
loop_
 _symmetry_equiv_pos_site_id
 _symmetry_equiv_pos_as_xyz
  1  'x, y, z'
loop_
 _atom_site_type_symbol
 _atom_site_label
 _atom_site_symmetry_multiplicity
 _atom_site_fract_x
 _atom_site_fract_y
 _atom_site_fract_z
 _atom_site_occupancy
  Li  Li0  1  0.41727492  0.76294301  0.84797094  1
  Li  Li1  1  0.87151393  0.53895401  0.15092793  1
  Li  Li2  1  0.00989896  0.50313201  0.52394597  1
  Li  Li3  1  0.55148997  0.19116200  0.16596297  1
  Mn  Mn4  1  0.99908297  0.00329300  0.99425095  1
  Mn  Mn5  1  0.00711900  0.01158200  0.50347799  1
  P  P6  1  0.62564595  0.34388301  0.75793395  1
  P  P7  1  0.37817293  0.66031901  0.23433095  1
  O  O8  1  0.21383493  0.72595901  0.37559195  1
  O  O9  1  0.77144395  0.27304300  0.60701995  1
  O  O10  1  0.67627292  0.67222501  0.33785893  1
  O  O11  1  0.35029291  0.85519001  0.11352594  1
  O  O12  1  0.65527597  0.16113100  0.88916696  1
  O  O13  1  0.74428892  0.62971001  0.91038993  1
  O  O14  1  0.33192096  0.34488001  0.65657996  1
  O  O15  1  0.26303696  0.37509901  0.09256797  1
  F  F16  1  0.91397396  0.17749000  0.26821495  1
  F  F17  1  0.08782692  0.84212201  0.72886995  1
