# generated using pymatgen
data_Mg13Hg3
_symmetry_space_group_name_H-M   'P 1'
_cell_length_a   6.36112022
_cell_length_b   6.36112022
_cell_length_c   10.23279285
_cell_angle_alpha   90.00000000
_cell_angle_beta   90.00000000
_cell_angle_gamma   120.00000000
_symmetry_Int_Tables_number   1
_chemical_formula_structural   Mg13Hg3
_chemical_formula_sum   'Mg13 Hg3'
_cell_volume   358.58492010
_cell_formula_units_Z   1
loop_
 _symmetry_equiv_pos_site_id
 _symmetry_equiv_pos_as_xyz
  1  'x, y, z'
loop_
 _atom_site_type_symbol
 _atom_site_label
 _atom_site_symmetry_multiplicity
 _atom_site_fract_x
 _atom_site_fract_y
 _atom_site_fract_z
 _atom_site_occupancy
  Mg  Mg0  1  0.66666666  0.33333335  0.50000001  1
  Mg  Mg1  1  0.16730103  0.83269904  -0.00000000  1
  Mg  Mg2  1  0.16643503  0.83356404  0.50000001  1
  Mg  Mg3  1  0.16730101  0.33460202  -0.00000000  1
  Mg  Mg4  1  0.16643501  0.33287002  0.50000001  1
  Mg  Mg5  1  0.66539801  0.83269904  -0.00000000  1
  Mg  Mg6  1  0.66712901  0.83356404  0.50000001  1
  Mg  Mg7  1  0.33514900  0.16757501  0.75243201  1
  Mg  Mg8  1  0.33514900  0.16757501  0.24756800  1
  Mg  Mg9  1  0.83242600  0.66485204  0.75243201  1
  Mg  Mg10  1  0.83242600  0.66485204  0.24756800  1
  Mg  Mg11  1  0.83242598  0.16757501  0.75243201  1
  Mg  Mg12  1  0.83242598  0.16757501  0.24756800  1
  Hg  Hg13  1  0.33333335  0.66666670  0.75002601  1
  Hg  Hg14  1  0.33333335  0.66666670  0.24997400  1
  Hg  Hg15  1  0.66666666  0.33333335  -0.00000000  1
