# generated using pymatgen
data_CsTbMnSe3
_symmetry_space_group_name_H-M   'P 1'
_cell_length_a   4.17171621
_cell_length_b   8.41101646
_cell_length_c   11.00257015
_cell_angle_alpha   90.00000000
_cell_angle_beta   90.00000000
_cell_angle_gamma   104.35867310
_symmetry_Int_Tables_number   1
_chemical_formula_structural   CsTbMnSe3
_chemical_formula_sum   'Cs2 Tb2 Mn2 Se6'
_cell_volume   374.00259055
_cell_formula_units_Z   2
loop_
 _symmetry_equiv_pos_site_id
 _symmetry_equiv_pos_as_xyz
  1  'x, y, z'
loop_
 _atom_site_type_symbol
 _atom_site_label
 _atom_site_symmetry_multiplicity
 _atom_site_fract_x
 _atom_site_fract_y
 _atom_site_fract_z
 _atom_site_occupancy
  Cs  Cs0  1  0.74210998  0.48422003  0.25000000  1
  Cs  Cs1  1  0.25789000  0.51578003  0.74999999  1
  Tb  Tb2  1  0.00000000  0.00000000  0.00000000  1
  Tb  Tb3  1  0.00000000  0.00000000  0.49999999  1
  Mn  Mn4  1  0.46033800  0.92067605  0.25000000  1
  Mn  Mn5  1  0.53966197  0.07932400  0.74999999  1
  Se  Se6  1  0.38421300  0.76842604  0.05767400  1
  Se  Se7  1  0.61578697  0.23157401  0.94232599  1
  Se  Se8  1  0.61578697  0.23157401  0.55767399  1
  Se  Se9  1  0.38421300  0.76842604  0.44232599  1
  Se  Se10  1  0.05366800  0.10733601  0.25000000  1
  Se  Se11  1  0.94633198  0.89266405  0.74999999  1
