# generated using pymatgen
data_La4Sb11
_symmetry_space_group_name_H-M   'P 1'
_cell_length_a   4.73147583
_cell_length_b   6.06729412
_cell_length_c   14.87048149
_cell_angle_alpha   79.05488586
_cell_angle_beta   80.84594727
_cell_angle_gamma   67.05069733
_symmetry_Int_Tables_number   1
_chemical_formula_structural   La4Sb11
_chemical_formula_sum   'La4 Sb11'
_cell_volume   384.23989277
_cell_formula_units_Z   1
loop_
 _symmetry_equiv_pos_site_id
 _symmetry_equiv_pos_as_xyz
  1  'x, y, z'
loop_
 _atom_site_type_symbol
 _atom_site_label
 _atom_site_symmetry_multiplicity
 _atom_site_fract_x
 _atom_site_fract_y
 _atom_site_fract_z
 _atom_site_occupancy
  La  La0  1  0.23646801  0.34027899  0.18678500  1
  La  La1  1  0.76215504  0.66476698  0.81092302  1
  La  La2  1  0.61653902  0.18594099  0.58098101  1
  La  La3  1  0.38256403  0.81353398  0.42133801  1
  Sb  Sb4  1  0.00038100  0.00130400  0.99793402  1
  Sb  Sb5  1  0.91225704  0.58437998  0.59110601  1
  Sb  Sb6  1  0.08922701  0.41207999  0.40946601  1
  Sb  Sb7  1  0.52695703  0.74261598  0.20347000  1
  Sb  Sb8  1  0.46828302  0.25864899  0.80478502  1
  Sb  Sb9  1  0.70637503  0.55540598  0.03184400  1
  Sb  Sb10  1  0.29932402  0.43528799  0.96606402  1
  Sb  Sb11  1  0.92257305  0.89540398  0.25945001  1
  Sb  Sb12  1  0.07586100  0.10864600  0.73963202  1
  Sb  Sb13  1  0.69861603  0.25942299  0.34334501  1
  Sb  Sb14  1  0.30241802  0.74228698  0.65287701  1
