# generated using pymatgen
data_TmPb3
_symmetry_space_group_name_H-M   'P 1'
_cell_length_a   5.52701902
_cell_length_b   6.94638395
_cell_length_c   6.94638395
_cell_angle_alpha   120.00000000
_cell_angle_beta   90.00000000
_cell_angle_gamma   90.00000000
_symmetry_Int_Tables_number   1
_chemical_formula_structural   TmPb3
_chemical_formula_sum   'Tm2 Pb6'
_cell_volume   230.96127088
_cell_formula_units_Z   2
loop_
 _symmetry_equiv_pos_site_id
 _symmetry_equiv_pos_as_xyz
  1  'x, y, z'
loop_
 _atom_site_type_symbol
 _atom_site_label
 _atom_site_symmetry_multiplicity
 _atom_site_fract_x
 _atom_site_fract_y
 _atom_site_fract_z
 _atom_site_occupancy
  Tm  Tm0  1  0.25000000  0.17263500  0.34527000  1
  Tm  Tm1  1  0.25000000  0.65472900  0.82736400  1
  Pb  Pb2  1  0.25000000  0.17263500  0.82736400  1
  Pb  Pb3  1  0.75000000  0.82736500  0.65473000  1
  Pb  Pb4  1  0.75000000  0.34527100  0.17263600  1
  Pb  Pb5  1  0.75000000  0.82736500  0.17263600  1
  Pb  Pb6  1  0.75000000  0.33333334  0.66666667  1
  Pb  Pb7  1  0.25000000  0.66666667  0.33333333  1
