# generated using pymatgen
data_Zr4Mn(In2Ge3)3
_symmetry_space_group_name_H-M   'P 1'
_cell_length_a   3.86413193
_cell_length_b   10.35425377
_cell_length_c   10.35425377
_cell_angle_alpha   90.00000000
_cell_angle_beta   90.00000000
_cell_angle_gamma   90.00000000
_symmetry_Int_Tables_number   1
_chemical_formula_structural   Zr4Mn(In2Ge3)3
_chemical_formula_sum   'Zr4 Mn1 In6 Ge9'
_cell_volume   414.27579080
_cell_formula_units_Z   1
loop_
 _symmetry_equiv_pos_site_id
 _symmetry_equiv_pos_as_xyz
  1  'x, y, z'
loop_
 _atom_site_type_symbol
 _atom_site_label
 _atom_site_symmetry_multiplicity
 _atom_site_fract_x
 _atom_site_fract_y
 _atom_site_fract_z
 _atom_site_occupancy
  Zr  Zr0  1  0.50000001  0.14032800  0.81165902  1
  Zr  Zr1  1  0.50000001  0.85967202  0.18834100  1
  Zr  Zr2  1  0.50000001  0.18834100  0.14032800  1
  Zr  Zr3  1  0.50000001  0.81165902  0.85967202  1
  In  In4  1  1.00000002  0.39662801  0.71997702  1
  Mn  Mn5  1  1.00000002  0.60337201  0.28002301  1
  In  In6  1  1.00000002  0.28002301  0.39662801  1
  In  In7  1  1.00000002  0.71997702  0.60337201  1
  In  In8  1  0.50000001  0.00000000  0.50000001  1
  In  In9  1  0.50000001  0.50000001  0.00000000  1
  In  In10  1  0.50000001  0.50000001  0.50000001  1
  Ge  Ge11  1  0.00000000  0.00000000  0.00000000  1
  Ge  Ge12  1  0.50000001  0.25410801  0.58274901  1
  Ge  Ge13  1  0.50000001  0.74589202  0.41725101  1
  Ge  Ge14  1  0.50000001  0.41725101  0.25410801  1
  Ge  Ge15  1  0.50000001  0.58274901  0.74589202  1
  Ge  Ge16  1  0.00000000  0.27807301  0.95577802  1
  Ge  Ge17  1  1.00000002  0.72192702  0.04422200  1
  Ge  Ge18  1  0.00000000  0.04422200  0.27807301  1
  Ge  Ge19  1  0.00000000  0.95577802  0.72192702  1
