# generated using pymatgen
data_LuGaNi
_symmetry_space_group_name_H-M   'P 1'
_cell_length_a   4.08057499
_cell_length_b   6.67197990
_cell_length_c   7.62891483
_cell_angle_alpha   90.00000000
_cell_angle_beta   90.00000000
_cell_angle_gamma   90.00000000
_symmetry_Int_Tables_number   1
_chemical_formula_structural   LuGaNi
_chemical_formula_sum   'Lu4 Ga4 Ni4'
_cell_volume   207.70113008
_cell_formula_units_Z   4
loop_
 _symmetry_equiv_pos_site_id
 _symmetry_equiv_pos_as_xyz
  1  'x, y, z'
loop_
 _atom_site_type_symbol
 _atom_site_label
 _atom_site_symmetry_multiplicity
 _atom_site_fract_x
 _atom_site_fract_y
 _atom_site_fract_z
 _atom_site_occupancy
  Lu  Lu0  1  0.25000000  0.52656701  0.68442501  1
  Lu  Lu1  1  0.25000000  0.02656700  0.81557502  1
  Lu  Lu2  1  0.75000000  0.97343301  0.18442500  1
  Lu  Lu3  1  0.75000000  0.47343301  0.31557501  1
  Ga  Ga4  1  0.75000000  0.34730200  0.93633702  1
  Ga  Ga5  1  0.25000000  0.15269800  0.43633701  1
  Ga  Ga6  1  0.25000000  0.65269801  0.06366300  1
  Ga  Ga7  1  0.75000000  0.84730201  0.56366301  1
  Ni  Ni8  1  0.75000000  0.22888000  0.61933801  1
  Ni  Ni9  1  0.25000000  0.77112001  0.38066201  1
  Ni  Ni10  1  0.75000000  0.72888001  0.88066202  1
  Ni  Ni11  1  0.25000000  0.27112000  0.11933800  1
