# generated using pymatgen
data_Tl3HgAu3Se7Br2
_symmetry_space_group_name_H-M   'P 1'
_cell_length_a   6.86324120
_cell_length_b   7.13350153
_cell_length_c   8.59504795
_cell_angle_alpha   90.00000000
_cell_angle_beta   90.00000000
_cell_angle_gamma   105.28652954
_symmetry_Int_Tables_number   1
_chemical_formula_structural   Tl3HgAu3Se7Br2
_chemical_formula_sum   'Tl3 Hg1 Au3 Se7 Br2'
_cell_volume   405.91614882
_cell_formula_units_Z   1
loop_
 _symmetry_equiv_pos_site_id
 _symmetry_equiv_pos_as_xyz
  1  'x, y, z'
loop_
 _atom_site_type_symbol
 _atom_site_label
 _atom_site_symmetry_multiplicity
 _atom_site_fract_x
 _atom_site_fract_y
 _atom_site_fract_z
 _atom_site_occupancy
  Hg  Hg0  1  0.98694697  0.27103399  0.13242300  1
  Tl  Tl1  1  0.51305299  0.72896598  0.63242300  1
  Tl  Tl2  1  0.01305300  0.72896598  0.86757700  1
  Tl  Tl3  1  0.48694699  0.27103399  0.36757700  1
  Au  Au4  1  0.50751699  0.21517599  0.86777500  1
  Au  Au5  1  0.99248298  0.78482398  0.36777500  1
  Au  Au6  1  0.49248299  0.78482398  0.13222500  1
  Se  Se7  1  0.00751700  0.21517599  0.63222500  1
  Se  Se8  1  0.21364400  0.98204198  0.57464900  1
  Se  Se9  1  0.28635599  0.01795800  0.07464800  1
  Se  Se10  1  0.78635598  0.01795800  0.42535100  1
  Se  Se11  1  0.71364398  0.98204198  0.92535101  1
  Se  Se12  1  0.24916899  0.41085999  0.83072000  1
  Se  Se13  1  0.25083100  0.58913999  0.33072000  1
  Br  Br14  1  0.75083098  0.58913999  0.16928000  1
  Br  Br15  1  0.74916898  0.41085999  0.66928000  1
