# generated using pymatgen
data_Ti2O3
_symmetry_space_group_name_H-M   'P 1'
_cell_length_a   5.24691153
_cell_length_b   5.24691153
_cell_length_c   5.64191771
_cell_angle_alpha   62.29019547
_cell_angle_beta   62.29019547
_cell_angle_gamma   60.00000763
_symmetry_Int_Tables_number   1
_chemical_formula_structural   Ti2O3
_chemical_formula_sum   'Ti4 O6'
_cell_volume   113.47908134
_cell_formula_units_Z   2
loop_
 _symmetry_equiv_pos_site_id
 _symmetry_equiv_pos_as_xyz
  1  'x, y, z'
loop_
 _atom_site_type_symbol
 _atom_site_label
 _atom_site_symmetry_multiplicity
 _atom_site_fract_x
 _atom_site_fract_y
 _atom_site_fract_z
 _atom_site_occupancy
  Ti  Ti0  1  0.35590898  0.35590899  0.93227300  1
  Ti  Ti1  1  0.64409097  0.64409098  0.06772703  1
  Ti  Ti2  1  0.15118899  0.15118900  0.54643300  1
  Ti  Ti3  1  0.84881096  0.84881098  0.45356703  1
  O  O4  1  0.05052399  0.76127398  0.74427901  1
  O  O5  1  0.44392299  0.05052400  0.74427900  1
  O  O6  1  0.76127397  0.44392299  0.74427902  1
  O  O7  1  0.23872599  0.55607698  0.25572102  1
  O  O8  1  0.55607697  0.94947597  0.25572103  1
  O  O9  1  0.94947597  0.23872599  0.25572102  1
