# generated using pymatgen
data_SrBiO3
_symmetry_space_group_name_H-M   'P 1'
_cell_length_a   5.98013067
_cell_length_b   6.16925383
_cell_length_c   8.56720352
_cell_angle_alpha   90.00000000
_cell_angle_beta   90.02597046
_cell_angle_gamma   90.00000000
_symmetry_Int_Tables_number   1
_chemical_formula_structural   SrBiO3
_chemical_formula_sum   'Sr4 Bi4 O12'
_cell_volume   316.06932757
_cell_formula_units_Z   4
loop_
 _symmetry_equiv_pos_site_id
 _symmetry_equiv_pos_as_xyz
  1  'x, y, z'
loop_
 _atom_site_type_symbol
 _atom_site_label
 _atom_site_symmetry_multiplicity
 _atom_site_fract_x
 _atom_site_fract_y
 _atom_site_fract_z
 _atom_site_occupancy
  Sr  Sr0  1  0.01317300  0.45190601  0.25267800  1
  Sr  Sr1  1  0.98682703  0.54809402  0.74732201  1
  Sr  Sr2  1  0.48682802  0.95190603  0.24732200  1
  Sr  Sr3  1  0.51317302  0.04809400  0.75267800  1
  Bi  Bi4  1  0.00000000  0.00000000  0.50000000  1
  Bi  Bi5  1  0.50000002  0.50000001  0.00000000  1
  Bi  Bi6  1  0.00000000  0.00000000  0.00000000  1
  Bi  Bi7  1  0.50000002  0.50000001  0.50000000  1
  O  O8  1  0.90048503  0.04189800  0.23940301  1
  O  O9  1  0.09951500  0.95810203  0.76059700  1
  O  O10  1  0.59951502  0.54189802  0.26059700  1
  O  O11  1  0.40048501  0.45810201  0.73940300  1
  O  O12  1  0.19218001  0.71523602  0.05699700  1
  O  O13  1  0.80782003  0.28476401  0.94300300  1
  O  O14  1  0.30782001  0.21523601  0.44300300  1
  O  O15  1  0.69218002  0.78476402  0.55699700  1
  O  O16  1  0.28913601  0.19436401  0.04836200  1
  O  O17  1  0.71086402  0.80563602  0.95163800  1
  O  O18  1  0.21086401  0.69436402  0.45163800  1
  O  O19  1  0.78913603  0.30563601  0.54836200  1
