# generated using pymatgen
data_Y2GaNi2
_symmetry_space_group_name_H-M   'P 1'
_cell_length_a   4.02192020
_cell_length_b   5.52566242
_cell_length_c   5.52566242
_cell_angle_alpha   63.12053680
_cell_angle_beta   68.65818787
_cell_angle_gamma   68.65818787
_symmetry_Int_Tables_number   1
_chemical_formula_structural   Y2GaNi2
_chemical_formula_sum   'Y2 Ga1 Ni2'
_cell_volume   99.04055592
_cell_formula_units_Z   1
loop_
 _symmetry_equiv_pos_site_id
 _symmetry_equiv_pos_as_xyz
  1  'x, y, z'
loop_
 _atom_site_type_symbol
 _atom_site_label
 _atom_site_symmetry_multiplicity
 _atom_site_fract_x
 _atom_site_fract_y
 _atom_site_fract_z
 _atom_site_occupancy
  Y  Y0  1  0.21117499  0.28882501  0.28882499  1
  Y  Y1  1  0.78882496  0.71117501  0.71117497  1
  Ga  Ga2  1  0.00000000  0.00000000  0.00000000  1
  Ni  Ni3  1  0.49999998  0.28904201  0.71095799  1
  Ni  Ni4  1  0.49999997  0.71095801  0.28904197  1
