# generated using pymatgen
data_Li4Mn3CoO8
_symmetry_space_group_name_H-M   'P 1'
_cell_length_a   4.96924782
_cell_length_b   5.87003660
_cell_length_c   5.87003660
_cell_angle_alpha   60.44677353
_cell_angle_beta   74.23056030
_cell_angle_gamma   74.23056030
_symmetry_Int_Tables_number   1
_chemical_formula_structural   Li4Mn3CoO8
_chemical_formula_sum   'Li4 Mn3 Co1 O8'
_cell_volume   141.39093204
_cell_formula_units_Z   1
loop_
 _symmetry_equiv_pos_site_id
 _symmetry_equiv_pos_as_xyz
  1  'x, y, z'
loop_
 _atom_site_type_symbol
 _atom_site_label
 _atom_site_symmetry_multiplicity
 _atom_site_fract_x
 _atom_site_fract_y
 _atom_site_fract_z
 _atom_site_occupancy
  Li  Li0  1  0.50405600  0.74924999  0.74924999  1
  Li  Li1  1  0.00000000  0.00000000  0.49999999  1
  Li  Li2  1  0.49594400  0.25075000  0.25074999  1
  Li  Li3  1  -0.00000001  0.49999999  0.00000001  1
  Mn  Mn4  1  -0.00000001  0.49999999  0.50000000  1
  Mn  Mn5  1  0.00000000  0.00000000  0.00000000  1
  Mn  Mn6  1  0.50000000  0.26000300  0.73999699  1
  Co  Co7  1  0.50000000  0.73999699  0.26000300  1
  O  O8  1  0.24129400  0.11566400  0.11566400  1
  O  O9  1  0.75023000  0.34149299  0.87882798  1
  O  O10  1  0.27685499  0.61766399  0.61766399  1
  O  O11  1  0.75023000  0.87882799  0.34149299  1
  O  O12  1  0.72314500  0.38233599  0.38233599  1
  O  O13  1  0.24976999  0.65850699  0.12117200  1
  O  O14  1  0.75870600  0.88433599  0.88433599  1
  O  O15  1  0.24977000  0.12117200  0.65850699  1
