# generated using pymatgen
data_Li4CuP2O8F3
_symmetry_space_group_name_H-M   'P 1'
_cell_length_a   6.44400263
_cell_length_b   6.47359753
_cell_length_c   6.84136391
_cell_angle_alpha   63.27211380
_cell_angle_beta   63.25809097
_cell_angle_gamma   91.68165588
_symmetry_Int_Tables_number   1
_chemical_formula_structural   Li4CuP2O8F3
_chemical_formula_sum   'Li4 Cu1 P2 O8 F3'
_cell_volume   217.81850460
_cell_formula_units_Z   1
loop_
 _symmetry_equiv_pos_site_id
 _symmetry_equiv_pos_as_xyz
  1  'x, y, z'
loop_
 _atom_site_type_symbol
 _atom_site_label
 _atom_site_symmetry_multiplicity
 _atom_site_fract_x
 _atom_site_fract_y
 _atom_site_fract_z
 _atom_site_occupancy
  Li  Li0  1  0.75748598  0.20795100  0.00527999  1
  Li  Li1  1  0.23155600  0.23189600  0.05965699  1
  Li  Li2  1  0.20686803  0.75814099  0.00341797  1
  Li  Li3  1  0.20321500  0.20334000  0.60140499  1
  Cu  Cu4  1  0.80519901  0.80545999  0.38419496  1
  P  P5  1  0.25883402  0.75896399  0.49940496  1
  P  P6  1  0.76049898  0.26058900  0.49674199  1
  O  O7  1  0.53673802  0.86047199  0.31006896  1
  O  O8  1  0.17476601  0.47822799  0.67256497  1
  O  O9  1  0.17582303  0.85475899  0.68610096  1
  O  O10  1  0.15167303  0.84680399  0.32406296  1
  O  O11  1  0.85578898  0.17647400  0.68460499  1
  O  O12  1  0.86220299  0.53693399  0.30889898  1
  F  F13  1  0.84789198  0.15372100  0.32174799  1
  O  O14  1  0.47847199  0.17629700  0.67118699  1
  O  O15  1  0.00865800  0.00845300  0.01669600  1
  F  F16  1  0.34414300  0.33987500  0.22361498  1
  F  F17  1  0.61515900  0.61661599  0.73035097  1
