# generated using pymatgen
data_InPd4
_symmetry_space_group_name_H-M   'P 1'
_cell_length_a   7.05122852
_cell_length_b   7.05122852
_cell_length_c   7.05122852
_cell_angle_alpha   90.24771881
_cell_angle_beta   89.75228119
_cell_angle_gamma   89.75228882
_symmetry_Int_Tables_number   1
_chemical_formula_structural   InPd4
_chemical_formula_sum   'In4 Pd16'
_cell_volume   350.57598064
_cell_formula_units_Z   4
loop_
 _symmetry_equiv_pos_site_id
 _symmetry_equiv_pos_as_xyz
  1  'x, y, z'
loop_
 _atom_site_type_symbol
 _atom_site_label
 _atom_site_symmetry_multiplicity
 _atom_site_fract_x
 _atom_site_fract_y
 _atom_site_fract_z
 _atom_site_occupancy
  In  In0  1  0.31180798  0.68819202  0.68819199  1
  In  In1  1  0.68280201  0.19038401  0.80587098  1
  In  In2  1  0.19412899  0.31719801  0.19038400  1
  In  In3  1  0.80961599  0.80587102  0.31719799  1
  Pd  Pd4  1  0.94176903  0.05823100  0.05823099  1
  Pd  Pd5  1  0.80180700  0.45264601  0.13104299  1
  Pd  Pd6  1  0.86895702  0.19819301  0.45264598  1
  Pd  Pd7  1  0.54735401  0.13104300  0.19819299  1
  Pd  Pd8  1  0.19637696  0.96123003  0.36410000  1
  Pd  Pd9  1  0.12552297  0.70298302  0.04143301  1
  Pd  Pd10  1  0.45772799  0.63151802  0.29943300  1
  Pd  Pd11  1  0.70056700  0.54227202  0.63151798  1
  Pd  Pd12  1  0.63589998  0.80362302  0.96122998  1
  Pd  Pd13  1  0.95856699  0.87447703  0.70298298  1
  Pd  Pd14  1  0.29701701  0.04143300  0.87447698  1
  Pd  Pd15  1  0.36848200  0.29943301  0.54227199  1
  Pd  Pd16  1  0.03876999  0.36409901  0.80362299  1
  Pd  Pd17  1  0.06484898  0.56463602  0.43738700  1
  Pd  Pd18  1  0.56261298  0.93515103  0.56463599  1
  Pd  Pd19  1  0.43536399  0.43738701  0.93515098  1
