# generated using pymatgen
data_Cr2Co2C3
_symmetry_space_group_name_H-M   'P 1'
_cell_length_a   3.02824807
_cell_length_b   3.07111597
_cell_length_c   6.59259558
_cell_angle_alpha   103.46913910
_cell_angle_beta   103.27766418
_cell_angle_gamma   90.00000000
_symmetry_Int_Tables_number   1
_chemical_formula_structural   Cr2Co2C3
_chemical_formula_sum   'Cr2 Co2 C3'
_cell_volume   57.93881431
_cell_formula_units_Z   1
loop_
 _symmetry_equiv_pos_site_id
 _symmetry_equiv_pos_as_xyz
  1  'x, y, z'
loop_
 _atom_site_type_symbol
 _atom_site_label
 _atom_site_symmetry_multiplicity
 _atom_site_fract_x
 _atom_site_fract_y
 _atom_site_fract_z
 _atom_site_occupancy
  Cr  Cr0  1  0.18558399  0.18558400  0.37116798  1
  Cr  Cr1  1  0.81441595  0.81441600  0.62883194  1
  Co  Co2  1  0.07500898  0.57500900  0.15001798  1
  Co  Co3  1  0.92499096  0.42499100  0.84998194  1
  C  C4  1  0.65163896  0.65163900  0.30327796  1
  C  C5  1  0.34836098  0.34836100  0.69672196  1
  C  C6  1  0.49999998  0.00000000  -0.00000001  1
