# generated using pymatgen
data_KNaU4(BrF6)2
_symmetry_space_group_name_H-M   'P 1'
_cell_length_a   4.16779613
_cell_length_b   6.44514465
_cell_length_c   14.82885170
_cell_angle_alpha   90.00000000
_cell_angle_beta   90.00000000
_cell_angle_gamma   95.91730499
_symmetry_Int_Tables_number   1
_chemical_formula_structural   KNaU4(BrF6)2
_chemical_formula_sum   'K1 Na1 U4 Br2 F12'
_cell_volume   396.21091119
_cell_formula_units_Z   1
loop_
 _symmetry_equiv_pos_site_id
 _symmetry_equiv_pos_as_xyz
  1  'x, y, z'
loop_
 _atom_site_type_symbol
 _atom_site_label
 _atom_site_symmetry_multiplicity
 _atom_site_fract_x
 _atom_site_fract_y
 _atom_site_fract_z
 _atom_site_occupancy
  Na  Na0  1  0.98132597  0.68116598  0.81666602  1
  K  K1  1  0.98132597  0.18116600  0.68333401  1
  U  U2  1  0.01867401  0.81883398  0.31666601  1
  U  U3  1  0.01867400  0.31883399  0.18333400  1
  U  U4  1  0.11958400  0.55890699  0.48864301  1
  U  U5  1  0.11958400  0.05890700  0.01135700  1
  Br  Br6  1  0.88041598  0.94109298  0.98864302  1
  Br  Br7  1  0.88041597  0.44109299  0.51135701  1
  F  F8  1  0.19478400  0.66275998  0.18932700  1
  F  F9  1  0.19478399  0.16276000  0.31067301  1
  F  F10  1  0.23794800  0.52989799  0.71000601  1
  F  F11  1  0.44356599  0.66873398  0.88875902  1
  F  F12  1  0.23794799  0.02989800  0.78999402  1
  F  F13  1  0.44356599  0.16873400  0.61124101  1
  F  F14  1  0.55643399  0.83126598  0.38875901  1
  F  F15  1  0.76205198  0.97010198  0.21000600  1
  F  F16  1  0.55643398  0.33126599  0.11124100  1
  F  F17  1  0.76205198  0.47010199  0.28999401  1
  F  F18  1  0.80521598  0.83723998  0.68932701  1
  F  F19  1  0.80521598  0.33723999  0.81067302  1
