# generated using pymatgen
data_Sm2Au3
_symmetry_space_group_name_H-M   'P 1'
_cell_length_a   3.80427599
_cell_length_b   8.10565567
_cell_length_c   8.10565567
_cell_angle_alpha   90.00000000
_cell_angle_beta   90.00000000
_cell_angle_gamma   90.00000000
_symmetry_Int_Tables_number   1
_chemical_formula_structural   Sm2Au3
_chemical_formula_sum   'Sm4 Au6'
_cell_volume   249.94722419
_cell_formula_units_Z   2
loop_
 _symmetry_equiv_pos_site_id
 _symmetry_equiv_pos_as_xyz
  1  'x, y, z'
loop_
 _atom_site_type_symbol
 _atom_site_label
 _atom_site_symmetry_multiplicity
 _atom_site_fract_x
 _atom_site_fract_y
 _atom_site_fract_z
 _atom_site_occupancy
  Sm  Sm0  1  0.50000000  0.32370001  0.82370003  1
  Sm  Sm1  1  0.50000000  0.67630003  0.17630001  1
  Sm  Sm2  1  0.50000000  0.82370003  0.67630003  1
  Sm  Sm3  1  0.50000000  0.17630001  0.32370001  1
  Au  Au4  1  0.00000000  0.87746204  0.37746202  1
  Au  Au5  1  1.00000000  0.62253803  0.87746204  1
  Au  Au6  1  0.00000000  0.37746202  0.12253800  1
  Au  Au7  1  0.00000000  0.12253800  0.62253803  1
  Au  Au8  1  0.00000000  0.50000002  0.50000002  1
  Au  Au9  1  0.00000000  0.00000000  0.00000000  1
