# generated using pymatgen
data_Ba2Ag
_symmetry_space_group_name_H-M   'P 1'
_cell_length_a   5.18789482
_cell_length_b   8.44246006
_cell_length_c   9.69276810
_cell_angle_alpha   90.00000000
_cell_angle_beta   90.00000000
_cell_angle_gamma   90.00000000
_symmetry_Int_Tables_number   1
_chemical_formula_structural   Ba2Ag
_chemical_formula_sum   'Ba8 Ag4'
_cell_volume   424.52962260
_cell_formula_units_Z   4
loop_
 _symmetry_equiv_pos_site_id
 _symmetry_equiv_pos_as_xyz
  1  'x, y, z'
loop_
 _atom_site_type_symbol
 _atom_site_label
 _atom_site_symmetry_multiplicity
 _atom_site_fract_x
 _atom_site_fract_y
 _atom_site_fract_z
 _atom_site_occupancy
  Ba  Ba0  1  0.75000003  0.97848399  0.68206099  1
  Ba  Ba1  1  0.25000001  0.02151600  0.31793900  1
  Ba  Ba2  1  0.75000003  0.47848400  0.81793899  1
  Ba  Ba3  1  0.25000001  0.52151600  0.18206100  1
  Ba  Ba4  1  0.75000003  0.85027699  0.07016200  1
  Ba  Ba5  1  0.25000001  0.14972300  0.92983799  1
  Ba  Ba6  1  0.75000003  0.35027700  0.42983800  1
  Ba  Ba7  1  0.25000001  0.64972300  0.57016199  1
  Ag  Ag8  1  0.75000003  0.73699799  0.39003000  1
  Ag  Ag9  1  0.25000001  0.26300200  0.60996999  1
  Ag  Ag10  1  0.75000003  0.23699800  0.10997000  1
  Ag  Ag11  1  0.25000001  0.76300199  0.89002999  1
