# generated using pymatgen
data_Mn3WO6
_symmetry_space_group_name_H-M   'P 1'
_cell_length_a   5.30349541
_cell_length_b   5.42740154
_cell_length_c   7.86561251
_cell_angle_alpha   89.87087250
_cell_angle_beta   89.94815826
_cell_angle_gamma   89.90670776
_symmetry_Int_Tables_number   1
_chemical_formula_structural   Mn3WO6
_chemical_formula_sum   'Mn6 W2 O12'
_cell_volume   226.40438984
_cell_formula_units_Z   2
loop_
 _symmetry_equiv_pos_site_id
 _symmetry_equiv_pos_as_xyz
  1  'x, y, z'
loop_
 _atom_site_type_symbol
 _atom_site_label
 _atom_site_symmetry_multiplicity
 _atom_site_fract_x
 _atom_site_fract_y
 _atom_site_fract_z
 _atom_site_occupancy
  Mn  Mn0  1  0.99084000  0.04977300  0.23846204  1
  Mn  Mn1  1  0.48921698  0.45097200  0.74387103  1
  Mn  Mn2  1  0.00921795  0.95047501  0.76156302  1
  Mn  Mn3  1  0.51057298  0.54890200  0.25621804  1
  Mn  Mn4  1  0.99985298  0.49987400  0.00005006  1
  Mn  Mn5  1  0.50013895  0.99999801  0.50014905  1
  W  W6  1  0.00004998  0.50006700  0.50007001  1
  W  W7  1  0.49995995  0.99990101  0.00000506  1
  O  O8  1  0.83474597  0.79421701  0.42096006  1
  O  O9  1  0.33038797  0.70827500  0.92079303  1
  O  O10  1  0.16537199  0.20575100  0.57900101  1
  O  O11  1  0.66936599  0.29186800  0.07905304  1
  O  O12  1  0.80819697  0.81528901  0.05438606  1
  O  O13  1  0.30690197  0.68232300  0.55549803  1
  O  O14  1  0.19180499  0.18479600  0.94556900  1
  O  O15  1  0.69333999  0.31754300  0.44440504  1
  O  O16  1  0.37652496  0.92880701  0.22987705  1
  O  O17  1  0.87390298  0.56975900  0.72875705  1
  O  O18  1  0.62346600  0.07119600  0.77010402  1
  O  O19  1  0.12613998  0.43021600  0.27120802  1
