# generated using pymatgen
data_Ba2PRhS4
_symmetry_space_group_name_H-M   'P 1'
_cell_length_a   3.70588803
_cell_length_b   3.70588779
_cell_length_c   13.87653160
_cell_angle_alpha   90.00000000
_cell_angle_beta   90.00000000
_cell_angle_gamma   120.00000000
_symmetry_Int_Tables_number   1
_chemical_formula_structural   Ba2PRhS4
_chemical_formula_sum   'Ba2 P1 Rh1 S4'
_cell_volume   165.04262414
_cell_formula_units_Z   1
loop_
 _symmetry_equiv_pos_site_id
 _symmetry_equiv_pos_as_xyz
  1  'x, y, z'
loop_
 _atom_site_type_symbol
 _atom_site_label
 _atom_site_symmetry_multiplicity
 _atom_site_fract_x
 _atom_site_fract_y
 _atom_site_fract_z
 _atom_site_occupancy
  Ba  Ba0  1  0.33333331  0.66666667  0.75000002  1
  Ba  Ba1  1  0.66666665  0.33333334  0.25000001  1
  P  P2  1  0.00000000  0.00000000  0.50000001  1
  Rh  Rh3  1  0.00000000  0.00000000  0.00000000  1
  S  S4  1  0.66666665  0.33333334  0.91489103  1
  S  S5  1  0.33333331  0.66666667  0.08510900  1
  S  S6  1  0.66666665  0.33333334  0.58510902  1
  S  S7  1  0.33333331  0.66666667  0.41489101  1
