# generated using pymatgen
data_UFe2
_symmetry_space_group_name_H-M   'P 1'
_cell_length_a   4.95697451
_cell_length_b   4.95697451
_cell_length_c   4.95697451
_cell_angle_alpha   90.89796448
_cell_angle_beta   119.02796173
_cell_angle_gamma   119.93993378
_symmetry_Int_Tables_number   1
_chemical_formula_structural   UFe2
_chemical_formula_sum   'U2 Fe4'
_cell_volume   86.77966995
_cell_formula_units_Z   2
loop_
 _symmetry_equiv_pos_site_id
 _symmetry_equiv_pos_as_xyz
  1  'x, y, z'
loop_
 _atom_site_type_symbol
 _atom_site_label
 _atom_site_symmetry_multiplicity
 _atom_site_fract_x
 _atom_site_fract_y
 _atom_site_fract_z
 _atom_site_occupancy
  U  U0  1  0.50000001  0.24839399  0.74839401  1
  U  U1  1  -0.00000000  0.00160600  0.00160600  1
  Fe  Fe2  1  0.75000001  0.62499998  0.37500002  1
  Fe  Fe3  1  0.25000000  0.62499998  0.87499998  1
  Fe  Fe4  1  0.25000000  0.62499998  0.37499999  1
  Fe  Fe5  1  0.75000001  0.12500000  0.37500004  1
