# generated using pymatgen
data_CaYTi2O6
_symmetry_space_group_name_H-M   'P 1'
_cell_length_a   5.37309980
_cell_length_b   5.58663607
_cell_length_c   7.71739388
_cell_angle_alpha   90.00000000
_cell_angle_beta   90.00000000
_cell_angle_gamma   90.00000000
_symmetry_Int_Tables_number   1
_chemical_formula_structural   CaYTi2O6
_chemical_formula_sum   'Ca2 Y2 Ti4 O12'
_cell_volume   231.65728085
_cell_formula_units_Z   2
loop_
 _symmetry_equiv_pos_site_id
 _symmetry_equiv_pos_as_xyz
  1  'x, y, z'
loop_
 _atom_site_type_symbol
 _atom_site_label
 _atom_site_symmetry_multiplicity
 _atom_site_fract_x
 _atom_site_fract_y
 _atom_site_fract_z
 _atom_site_occupancy
  Ca  Ca0  1  0.98807504  0.80443099  0.50000001  1
  Ca  Ca1  1  0.48807502  0.19556900  0.00000000  1
  Y  Y2  1  0.51552502  0.31334500  0.50000001  1
  Y  Y3  1  0.01552500  0.68665499  0.00000000  1
  Ti  Ti4  1  0.00033900  0.24705200  0.75049001  1
  Ti  Ti5  1  0.50033902  0.75294799  0.25049000  1
  Ti  Ti6  1  0.00033900  0.24705200  0.24951000  1
  Ti  Ti7  1  0.50033902  0.75294799  0.74951001  1
  O  O8  1  0.19322201  0.94671899  0.19781600  1
  O  O9  1  0.29541801  0.45818299  0.79698101  1
  O  O10  1  0.79541803  0.54181699  0.70301901  1
  O  O11  1  0.69322203  0.05328100  0.30218400  1
  O  O12  1  0.79541803  0.54181699  0.29698100  1
  O  O13  1  0.69322203  0.05328100  0.69781601  1
  O  O14  1  0.19322201  0.94671899  0.80218401  1
  O  O15  1  0.29541801  0.45818299  0.20301900  1
  O  O16  1  0.41459302  0.71872999  0.50000001  1
  O  O17  1  0.10385100  0.22187800  0.50000001  1
  O  O18  1  0.60385102  0.77812199  0.00000000  1
  O  O19  1  0.91459303  0.28127000  -0.00000000  1
