# generated using pymatgen
data_Ga3Ir
_symmetry_space_group_name_H-M   'P 1'
_cell_length_a   6.55351686
_cell_length_b   6.55351686
_cell_length_c   7.09896278
_cell_angle_alpha   90.00000000
_cell_angle_beta   90.00000000
_cell_angle_gamma   90.00000000
_symmetry_Int_Tables_number   1
_chemical_formula_structural   Ga3Ir
_chemical_formula_sum   'Ga12 Ir4'
_cell_volume   304.89039444
_cell_formula_units_Z   4
loop_
 _symmetry_equiv_pos_site_id
 _symmetry_equiv_pos_as_xyz
  1  'x, y, z'
loop_
 _atom_site_type_symbol
 _atom_site_label
 _atom_site_symmetry_multiplicity
 _atom_site_fract_x
 _atom_site_fract_y
 _atom_site_fract_z
 _atom_site_occupancy
  Ga  Ga0  1  0.00000000  0.50000001  0.50000002  1
  Ga  Ga1  1  0.50000001  0.00000000  -0.00000000  1
  Ga  Ga2  1  0.50000001  0.00000000  0.50000002  1
  Ga  Ga3  1  0.00000000  0.50000001  -0.00000000  1
  Ga  Ga4  1  0.33772001  0.66228001  0.24820101  1
  Ga  Ga5  1  0.66228001  0.33772001  0.24820101  1
  Ga  Ga6  1  0.16228000  0.16228000  0.74820102  1
  Ga  Ga7  1  0.83772002  0.83772002  0.74820102  1
  Ga  Ga8  1  0.66228001  0.33772001  0.75179902  1
  Ga  Ga9  1  0.33772001  0.66228001  0.75179902  1
  Ga  Ga10  1  0.83772002  0.83772002  0.25179901  1
  Ga  Ga11  1  0.16228000  0.16228000  0.25179901  1
  Ir  Ir12  1  0.14387100  0.85612902  0.50000002  1
  Ir  Ir13  1  0.85612902  0.14387100  0.50000002  1
  Ir  Ir14  1  0.35612901  0.35612901  -0.00000000  1
  Ir  Ir15  1  0.64387101  0.64387101  -0.00000000  1
