# generated using pymatgen
data_HoMoC2
_symmetry_space_group_name_H-M   'P 1'
_cell_length_a   3.36581206
_cell_length_b   5.71565485
_cell_length_c   10.79081154
_cell_angle_alpha   90.00000000
_cell_angle_beta   90.00000000
_cell_angle_gamma   90.00000000
_symmetry_Int_Tables_number   1
_chemical_formula_structural   HoMoC2
_chemical_formula_sum   'Ho4 Mo4 C8'
_cell_volume   207.59169050
_cell_formula_units_Z   4
loop_
 _symmetry_equiv_pos_site_id
 _symmetry_equiv_pos_as_xyz
  1  'x, y, z'
loop_
 _atom_site_type_symbol
 _atom_site_label
 _atom_site_symmetry_multiplicity
 _atom_site_fract_x
 _atom_site_fract_y
 _atom_site_fract_z
 _atom_site_occupancy
  Ho  Ho0  1  0.25000000  0.58533802  0.36343402  1
  Ho  Ho1  1  0.25000000  0.08533800  0.13656601  1
  Ho  Ho2  1  0.74999999  0.41466201  0.63656603  1
  Ho  Ho3  1  0.74999999  0.91466202  0.86343404  1
  Mo  Mo4  1  0.25000000  0.90267802  0.61056803  1
  Mo  Mo5  1  0.25000000  0.40267801  0.88943204  1
  Mo  Mo6  1  0.74999999  0.09732200  0.38943202  1
  Mo  Mo7  1  0.74999999  0.59732202  0.11056800  1
  C  C8  1  0.25000000  0.66040302  0.74726403  1
  C  C9  1  0.25000000  0.16040300  0.75273603  1
  C  C10  1  0.74999999  0.33959701  0.25273601  1
  C  C11  1  0.74999999  0.83959702  0.24726401  1
  C  C12  1  0.25000000  0.22497301  0.48540802  1
  C  C13  1  0.25000000  0.72497302  0.01459200  1
  C  C14  1  0.74999999  0.77502702  0.51459202  1
  C  C15  1  0.74999999  0.27502701  0.98540804  1
