# generated using pymatgen
data_Ta2Co3Ge
_symmetry_space_group_name_H-M   'P 1'
_cell_length_a   4.89173794
_cell_length_b   4.89173746
_cell_length_c   7.65475321
_cell_angle_alpha   90.00000000
_cell_angle_beta   90.00000000
_cell_angle_gamma   120.00000000
_symmetry_Int_Tables_number   1
_chemical_formula_structural   Ta2Co3Ge
_chemical_formula_sum   'Ta4 Co6 Ge2'
_cell_volume   158.63103156
_cell_formula_units_Z   2
loop_
 _symmetry_equiv_pos_site_id
 _symmetry_equiv_pos_as_xyz
  1  'x, y, z'
loop_
 _atom_site_type_symbol
 _atom_site_label
 _atom_site_symmetry_multiplicity
 _atom_site_fract_x
 _atom_site_fract_y
 _atom_site_fract_z
 _atom_site_occupancy
  Ta  Ta0  1  0.66666666  0.33333334  0.05999400  1
  Ta  Ta1  1  0.33333331  0.66666668  0.94000597  1
  Ta  Ta2  1  0.33333331  0.66666668  0.55999398  1
  Ta  Ta3  1  0.66666666  0.33333334  0.44000599  1
  Co  Co4  1  0.17183299  0.34366601  0.24999999  1
  Co  Co5  1  0.17183297  0.82816802  0.24999999  1
  Co  Co6  1  0.65633497  0.82816802  0.24999999  1
  Co  Co7  1  0.82816698  0.65633401  0.74999998  1
  Co  Co8  1  0.82816700  0.17183200  0.74999998  1
  Co  Co9  1  0.34366500  0.17183200  0.74999998  1
  Ge  Ge10  1  0.00000000  0.00000000  0.00000000  1
  Ge  Ge11  1  0.00000000  0.00000000  0.49999999  1
