# generated using pymatgen
data_Y2Ge3
_symmetry_space_group_name_H-M   'P 1'
_cell_length_a   4.09304190
_cell_length_b   5.61493254
_cell_length_c   14.99199390
_cell_angle_alpha   90.77514648
_cell_angle_beta   90.00000000
_cell_angle_gamma   111.37548065
_symmetry_Int_Tables_number   1
_chemical_formula_structural   Y2Ge3
_chemical_formula_sum   'Y6 Ge9'
_cell_volume   320.81362247
_cell_formula_units_Z   3
loop_
 _symmetry_equiv_pos_site_id
 _symmetry_equiv_pos_as_xyz
  1  'x, y, z'
loop_
 _atom_site_type_symbol
 _atom_site_label
 _atom_site_symmetry_multiplicity
 _atom_site_fract_x
 _atom_site_fract_y
 _atom_site_fract_z
 _atom_site_occupancy
  Y  Y0  1  0.31296404  0.62592802  0.90662601  1
  Y  Y1  1  0.97358807  0.94717602  0.23904699  1
  Y  Y2  1  0.64116503  0.28233001  0.57191501  1
  Y  Y3  1  0.02641200  0.05282400  0.76095301  1
  Y  Y4  1  0.68703603  0.37407201  0.09337400  1
  Y  Y5  1  0.35883504  0.71767002  0.42808500  1
  Ge  Ge6  1  0.66616803  0.33233601  0.33374200  1
  Ge  Ge7  1  0.33383204  0.66766402  0.66625800  1
  Ge  Ge8  1  0.60022402  0.20044800  0.90026501  1
  Ge  Ge9  1  0.25952203  0.51904401  0.23913100  1
  Ge  Ge10  1  0.92873506  0.85747002  0.57068200  1
  Ge  Ge11  1  0.74047804  0.48095601  0.76086901  1
  Ge  Ge12  1  0.39977605  0.79955202  0.09973499  1
  Ge  Ge13  1  0.07126501  0.14253000  0.42931801  1
  Ge  Ge14  1  0.00000000  0.00000000  0.00000000  1
