# generated using pymatgen
data_ScBr3
_symmetry_space_group_name_H-M   'P 1'
_cell_length_a   6.99301958
_cell_length_b   6.99301958
_cell_length_c   7.06619978
_cell_angle_alpha   99.76538849
_cell_angle_beta   99.76538849
_cell_angle_gamma   119.85276794
_symmetry_Int_Tables_number   1
_chemical_formula_structural   ScBr3
_chemical_formula_sum   'Sc2 Br6'
_cell_volume   282.01138170
_cell_formula_units_Z   2
loop_
 _symmetry_equiv_pos_site_id
 _symmetry_equiv_pos_as_xyz
  1  'x, y, z'
loop_
 _atom_site_type_symbol
 _atom_site_label
 _atom_site_symmetry_multiplicity
 _atom_site_fract_x
 _atom_site_fract_y
 _atom_site_fract_z
 _atom_site_occupancy
  Sc  Sc0  1  0.83348698  0.16651300  0.00000000  1
  Sc  Sc1  1  0.16651300  0.83348698  0.00000000  1
  Br  Br2  1  0.05026200  0.42347299  0.77588500  1
  Br  Br3  1  0.57652699  0.94973798  0.22411500  1
  Br  Br4  1  0.19858200  0.19858200  0.22910300  1
  Br  Br5  1  0.80141798  0.80141798  0.77089700  1
  Br  Br6  1  0.42347299  0.05026200  0.77588500  1
  Br  Br7  1  0.94973798  0.57652699  0.22411500  1
