# generated using pymatgen
data_Y4InCo
_symmetry_space_group_name_H-M   'P 1'
_cell_length_a   8.22815704
_cell_length_b   8.22815704
_cell_length_c   8.22815704
_cell_angle_alpha   74.37248230
_cell_angle_beta   69.76586151
_cell_angle_gamma   112.62885284
_symmetry_Int_Tables_number   1
_chemical_formula_structural   Y4InCo
_chemical_formula_sum   'Y12 In3 Co3'
_cell_volume   427.19508592
_cell_formula_units_Z   3
loop_
 _symmetry_equiv_pos_site_id
 _symmetry_equiv_pos_as_xyz
  1  'x, y, z'
loop_
 _atom_site_type_symbol
 _atom_site_label
 _atom_site_symmetry_multiplicity
 _atom_site_fract_x
 _atom_site_fract_y
 _atom_site_fract_z
 _atom_site_occupancy
  Y  Y0  1  0.80828088  0.48246894  0.32581208  1
  Y  Y1  1  0.80828092  0.13409298  0.67418803  1
  Y  Y2  1  0.39139495  0.20844597  0.81705100  1
  Y  Y3  1  0.02549697  0.20844597  0.18294901  1
  Y  Y4  1  0.97450284  0.79155390  0.81705110  1
  Y  Y5  1  0.60860486  0.79155390  0.18294912  1
  Y  Y6  1  0.19171889  0.86590689  0.32581209  1
  Y  Y7  1  0.19171893  0.51753093  0.67418803  1
  Y  Y8  1  0.70656991  0.26567697  0.02775407  1
  Y  Y9  1  0.29342990  0.73432290  0.97224604  1
  Y  Y10  1  0.70656986  0.73432390  0.55910609  1
  Y  Y11  1  0.29342995  0.26567597  0.44089402  1
  In  In12  1  0.15096693  0.49999993  0.34903305  1
  Co  Co13  1  0.84903288  0.49999993  0.65096707  1
  Co  Co14  1  -0.00000010  0.87547589  0.12452409  1
  Co  Co15  1  -0.00000001  0.12452398  0.87547596  1
  In  In16  1  0.49999991  0.49999993  1.00000003  1
  In  In17  1  0.49999985  0.99999987  0.50000011  1
