# generated using pymatgen
data_LuCuSn
_symmetry_space_group_name_H-M   'P 1'
_cell_length_a   4.38712215
_cell_length_b   4.38712120
_cell_length_c   7.01530695
_cell_angle_alpha   90.00000000
_cell_angle_beta   90.00000000
_cell_angle_gamma   120.00000763
_symmetry_Int_Tables_number   1
_chemical_formula_structural   LuCuSn
_chemical_formula_sum   'Lu2 Cu2 Sn2'
_cell_volume   116.93287721
_cell_formula_units_Z   2
loop_
 _symmetry_equiv_pos_site_id
 _symmetry_equiv_pos_as_xyz
  1  'x, y, z'
loop_
 _atom_site_type_symbol
 _atom_site_label
 _atom_site_symmetry_multiplicity
 _atom_site_fract_x
 _atom_site_fract_y
 _atom_site_fract_z
 _atom_site_occupancy
  Lu  Lu0  1  0.00000000  0.00000000  0.50000000  1
  Lu  Lu1  1  0.00000000  0.00000000  0.00000000  1
  Cu  Cu2  1  0.33333333  0.66666665  0.71155601  1
  Cu  Cu3  1  0.33333333  0.66666665  0.28844400  1
  Sn  Sn4  1  0.66666665  0.33333332  0.80054501  1
  Sn  Sn5  1  0.66666665  0.33333332  0.19945500  1
