# generated using pymatgen
data_Lu5Sb4
_symmetry_space_group_name_H-M   'P 1'
_cell_length_a   6.04576302
_cell_length_b   8.92212963
_cell_length_c   8.92212963
_cell_angle_alpha   120.00000000
_cell_angle_beta   90.00000000
_cell_angle_gamma   90.00000000
_symmetry_Int_Tables_number   1
_chemical_formula_structural   Lu5Sb4
_chemical_formula_sum   'Lu10 Sb8'
_cell_volume   416.79145735
_cell_formula_units_Z   2
loop_
 _symmetry_equiv_pos_site_id
 _symmetry_equiv_pos_as_xyz
  1  'x, y, z'
loop_
 _atom_site_type_symbol
 _atom_site_label
 _atom_site_symmetry_multiplicity
 _atom_site_fract_x
 _atom_site_fract_y
 _atom_site_fract_z
 _atom_site_occupancy
  Lu  Lu0  1  -0.00000000  0.33333334  0.66666667  1
  Lu  Lu1  1  1.00000000  0.66666669  0.33333333  1
  Lu  Lu2  1  0.50000000  0.66666669  0.33333333  1
  Lu  Lu3  1  0.50000000  0.33333334  0.66666667  1
  Lu  Lu4  1  0.25000000  0.27910901  -0.00000000  1
  Lu  Lu5  1  0.25000000  0.72089102  0.72089100  1
  Lu  Lu6  1  0.25000000  0.00000000  0.27910901  1
  Lu  Lu7  1  0.75000000  0.72089102  -0.00000001  1
  Lu  Lu8  1  0.75000000  0.27910901  0.27910900  1
  Lu  Lu9  1  0.75000000  0.00000000  0.72089101  1
  Sb  Sb10  1  0.00000000  0.00000000  0.00000000  1
  Sb  Sb11  1  0.50000000  0.00000000  -0.00000000  1
  Sb  Sb12  1  0.25000000  0.62007502  1.00000001  1
  Sb  Sb13  1  0.25000000  0.37992501  0.37992500  1
  Sb  Sb14  1  0.25000000  0.00000000  0.62007501  1
  Sb  Sb15  1  0.75000000  0.37992501  -0.00000001  1
  Sb  Sb16  1  0.75000000  0.62007502  0.62007500  1
  Sb  Sb17  1  0.75000000  0.00000000  0.37992501  1
