# generated using pymatgen
data_Cs2CrO4
_symmetry_space_group_name_H-M   'P 1'
_cell_length_a   6.37523842
_cell_length_b   6.62787676
_cell_length_c   8.67039585
_cell_angle_alpha   89.97901917
_cell_angle_beta   89.93347168
_cell_angle_gamma   61.35050583
_symmetry_Int_Tables_number   1
_chemical_formula_structural   Cs2CrO4
_chemical_formula_sum   'Cs4 Cr2 O8'
_cell_volume   321.50728590
_cell_formula_units_Z   2
loop_
 _symmetry_equiv_pos_site_id
 _symmetry_equiv_pos_as_xyz
  1  'x, y, z'
loop_
 _atom_site_type_symbol
 _atom_site_label
 _atom_site_symmetry_multiplicity
 _atom_site_fract_x
 _atom_site_fract_y
 _atom_site_fract_z
 _atom_site_occupancy
  Cs  Cs0  1  0.97478202  0.05434400  0.11556301  1
  Cs  Cs1  1  0.02583397  0.94879500  0.61654699  1
  Cs  Cs2  1  0.34908500  0.30282300  0.41294600  1
  Cs  Cs3  1  0.65252699  0.69240200  0.91491099  1
  Cr  Cr4  1  0.32734900  0.34425800  0.90108399  1
  Cr  Cr5  1  0.67221899  0.65576200  0.39871800  1
  O  O6  1  0.81664300  0.36838600  0.41134401  1
  O  O7  1  0.18515999  0.63184500  0.91292199  1
  O  O8  1  0.38967500  0.22034400  0.07401500  1
  O  O9  1  0.61516299  0.77011400  0.57459000  1
  O  O10  1  0.41459099  0.74402900  0.30578000  1
  O  O11  1  0.15289900  0.25891100  0.81126499  1
  O  O12  1  0.84063799  0.74404600  0.30393400  1
  O  O13  1  0.58343300  0.26394100  0.80758600  1
