# generated using pymatgen
data_YbAlRh
_symmetry_space_group_name_H-M   'P 1'
_cell_length_a   4.06901693
_cell_length_b   7.00165176
_cell_length_c   7.91513109
_cell_angle_alpha   90.00000000
_cell_angle_beta   90.00000000
_cell_angle_gamma   90.00000000
_symmetry_Int_Tables_number   1
_chemical_formula_structural   YbAlRh
_chemical_formula_sum   'Yb4 Al4 Rh4'
_cell_volume   225.50081514
_cell_formula_units_Z   4
loop_
 _symmetry_equiv_pos_site_id
 _symmetry_equiv_pos_as_xyz
  1  'x, y, z'
loop_
 _atom_site_type_symbol
 _atom_site_label
 _atom_site_symmetry_multiplicity
 _atom_site_fract_x
 _atom_site_fract_y
 _atom_site_fract_z
 _atom_site_occupancy
  Yb  Yb0  1  0.25000000  0.52574802  0.18013300  1
  Yb  Yb1  1  0.75000001  0.47425202  0.81986699  1
  Yb  Yb2  1  0.25000000  0.02574800  0.31986700  1
  Yb  Yb3  1  0.75000001  0.97425203  0.68013299  1
  Al  Al4  1  0.75000001  0.36755801  0.44639899  1
  Al  Al5  1  0.25000000  0.13244200  0.94639899  1
  Al  Al6  1  0.75000001  0.86755803  0.05360100  1
  Al  Al7  1  0.25000000  0.63244202  0.55360099  1
  Rh  Rh8  1  0.25000000  0.27420301  0.62148499  1
  Rh  Rh9  1  0.75000001  0.22579701  0.12148500  1
  Rh  Rh10  1  0.25000000  0.77420303  0.87851499  1
  Rh  Rh11  1  0.75000001  0.72579702  0.37851500  1
