# generated using pymatgen
data_Hf8(CoSb)3
_symmetry_space_group_name_H-M   'P 1'
_cell_length_a   4.97446823
_cell_length_b   7.86181879
_cell_length_c   7.86181879
_cell_angle_alpha   84.25569153
_cell_angle_beta   71.55653381
_cell_angle_gamma   71.55653381
_symmetry_Int_Tables_number   1
_chemical_formula_structural   Hf8(CoSb)3
_chemical_formula_sum   'Hf8 Co3 Sb3'
_cell_volume   276.68918167
_cell_formula_units_Z   1
loop_
 _symmetry_equiv_pos_site_id
 _symmetry_equiv_pos_as_xyz
  1  'x, y, z'
loop_
 _atom_site_type_symbol
 _atom_site_label
 _atom_site_symmetry_multiplicity
 _atom_site_fract_x
 _atom_site_fract_y
 _atom_site_fract_z
 _atom_site_occupancy
  Hf  Hf0  1  0.30770998  0.27266700  0.11191299  1
  Hf  Hf1  1  0.69228996  0.72733300  0.88808698  1
  Hf  Hf2  1  0.41962297  0.88808700  0.27266698  1
  Hf  Hf3  1  0.91962296  0.27266700  0.88808699  1
  Hf  Hf4  1  0.19228998  0.88808700  0.72733298  1
  Hf  Hf5  1  0.58037697  0.11191300  0.72733299  1
  Hf  Hf6  1  0.08037699  0.72733300  0.11191298  1
  Hf  Hf7  1  0.80770996  0.11191300  0.27266699  1
  Co  Co8  1  0.24999998  1.00000000  -0.00000002  1
  Co  Co9  1  0.74999996  1.00000000  -0.00000003  1
  Sb  Sb10  1  0.86139895  0.77720100  0.49999998  1
  Sb  Sb11  1  0.63859997  0.50000000  0.22279998  1
  Co  Co12  1  0.13860099  0.22279900  0.49999999  1
  Sb  Sb13  1  0.36139998  0.50000000  0.77719999  1
