# generated using pymatgen
data_Sc3Zn(CoS4)2
_symmetry_space_group_name_H-M   'P 1'
_cell_length_a   7.21504402
_cell_length_b   7.21702051
_cell_length_c   7.21702051
_cell_angle_alpha   60.32555008
_cell_angle_beta   60.00905991
_cell_angle_gamma   60.00905991
_symmetry_Int_Tables_number   1
_chemical_formula_structural   Sc3Zn(CoS4)2
_chemical_formula_sum   'Sc3 Zn1 Co2 S8'
_cell_volume   266.41382209
_cell_formula_units_Z   1
loop_
 _symmetry_equiv_pos_site_id
 _symmetry_equiv_pos_as_xyz
  1  'x, y, z'
loop_
 _atom_site_type_symbol
 _atom_site_label
 _atom_site_symmetry_multiplicity
 _atom_site_fract_x
 _atom_site_fract_y
 _atom_site_fract_z
 _atom_site_occupancy
  Sc  Sc0  1  0.49999999  0.50000000  0.00000002  1
  Sc  Sc1  1  -0.00000000  0.50000000  0.00000001  1
  Sc  Sc2  1  0.99999999  0.50000000  0.50000003  1
  Zn  Zn3  1  0.00000000  0.00000000  0.00000000  1
  Co  Co4  1  0.37769899  0.87230100  0.37230103  1
  Co  Co5  1  0.62230100  0.12769900  0.62769902  1
  S  S6  1  0.23943799  0.76087600  0.76024804  1
  S  S7  1  0.23943800  0.26024800  0.26087601  1
  S  S8  1  0.76868599  0.75215000  0.25215003  1
  S  S9  1  0.22701399  0.75215000  0.25215003  1
  S  S10  1  0.76056199  0.23912400  0.23975202  1
  S  S11  1  0.76056199  0.73975200  0.73912404  1
  S  S12  1  0.23131400  0.24785000  0.74785002  1
  S  S13  1  0.77298599  0.24785000  0.74785002  1
