# generated using pymatgen
data_Li3MnFe3O8
_symmetry_space_group_name_H-M   'P 1'
_cell_length_a   5.94654417
_cell_length_b   5.94654417
_cell_length_c   5.98953962
_cell_angle_alpha   60.23717880
_cell_angle_beta   60.23717880
_cell_angle_gamma   60.00000000
_symmetry_Int_Tables_number   1
_chemical_formula_structural   Li3MnFe3O8
_chemical_formula_sum   'Li3 Mn1 Fe3 O8'
_cell_volume   150.29876164
_cell_formula_units_Z   1
loop_
 _symmetry_equiv_pos_site_id
 _symmetry_equiv_pos_as_xyz
  1  'x, y, z'
loop_
 _atom_site_type_symbol
 _atom_site_label
 _atom_site_symmetry_multiplicity
 _atom_site_fract_x
 _atom_site_fract_y
 _atom_site_fract_z
 _atom_site_occupancy
  Li  Li0  1  0.00000000  0.00000000  0.49999998  1
  Li  Li1  1  0.49999999  0.00000000  0.49999997  1
  Li  Li2  1  0.00000001  0.49999999  0.49999997  1
  Mn  Mn3  1  0.00000000  0.00000000  0.00000000  1
  Fe  Fe4  1  0.50000000  0.49999999  -0.00000002  1
  Fe  Fe5  1  0.00000001  0.49999999  -0.00000001  1
  Fe  Fe6  1  0.49999999  0.00000000  -0.00000001  1
  O  O7  1  0.74191200  0.74191198  0.77426394  1
  O  O8  1  0.22997200  0.22997199  0.78287996  1
  O  O9  1  0.75717599  0.22997199  0.78287995  1
  O  O10  1  0.25808800  0.25808799  0.22573598  1
  O  O11  1  0.22997201  0.75717598  0.78287995  1
  O  O12  1  0.77002800  0.77002798  0.21711996  1
  O  O13  1  0.24282401  0.77002798  0.21711997  1
  O  O14  1  0.77002799  0.24282399  0.21711997  1
