# generated using pymatgen
data_AsHPbO4
_symmetry_space_group_name_H-M   'P 1'
_cell_length_a   4.97294521
_cell_length_b   5.93595314
_cell_length_c   6.79012203
_cell_angle_alpha   90.00000000
_cell_angle_beta   90.00000000
_cell_angle_gamma   95.10183716
_symmetry_Int_Tables_number   1
_chemical_formula_structural   AsHPbO4
_chemical_formula_sum   'As2 H2 Pb2 O8'
_cell_volume   199.64466954
_cell_formula_units_Z   2
loop_
 _symmetry_equiv_pos_site_id
 _symmetry_equiv_pos_as_xyz
  1  'x, y, z'
loop_
 _atom_site_type_symbol
 _atom_site_label
 _atom_site_symmetry_multiplicity
 _atom_site_fract_x
 _atom_site_fract_y
 _atom_site_fract_z
 _atom_site_occupancy
  As  As0  1  0.49999997  0.74999998  0.79193400  1
  As  As1  1  0.49999998  0.24999999  0.20806600  1
  H  H2  1  0.49999997  0.49999999  0.50000000  1
  H  H3  1  0.49999998  0.00000000  0.50000000  1
  Pb  Pb4  1  -0.00000001  0.74999998  0.20309200  1
  Pb  Pb5  1  -0.00000000  0.24999999  0.79690800  1
  O  O6  1  0.63972297  0.55406898  0.64184400  1
  O  O7  1  0.36027697  0.94593097  0.64184400  1
  O  O8  1  0.36027698  0.44593099  0.35815600  1
  O  O9  1  0.63972297  0.05406900  0.35815600  1
  O  O10  1  0.75182096  0.89041798  0.92971600  1
  O  O11  1  0.24817898  0.60958198  0.92971600  1
  O  O12  1  0.24817899  0.10958200  0.07028400  1
  O  O13  1  0.75182096  0.39041799  0.07028400  1
