# generated using pymatgen
data_DyFeO3
_symmetry_space_group_name_H-M   'P 1'
_cell_length_a   5.27251577
_cell_length_b   5.61182213
_cell_length_c   7.67266178
_cell_angle_alpha   90.00000000
_cell_angle_beta   90.00000000
_cell_angle_gamma   90.00000000
_symmetry_Int_Tables_number   1
_chemical_formula_structural   DyFeO3
_chemical_formula_sum   'Dy4 Fe4 O12'
_cell_volume   227.02194461
_cell_formula_units_Z   4
loop_
 _symmetry_equiv_pos_site_id
 _symmetry_equiv_pos_as_xyz
  1  'x, y, z'
loop_
 _atom_site_type_symbol
 _atom_site_label
 _atom_site_symmetry_multiplicity
 _atom_site_fract_x
 _atom_site_fract_y
 _atom_site_fract_z
 _atom_site_occupancy
  Dy  Dy0  1  0.02110800  0.92838898  0.75000002  1
  Dy  Dy1  1  0.52110802  0.57161099  0.25000001  1
  Dy  Dy2  1  0.47889202  0.42838899  0.75000002  1
  Dy  Dy3  1  0.97889204  0.07161100  0.25000001  1
  Fe  Fe4  1  0.00000000  0.49999999  0.50000001  1
  Fe  Fe5  1  0.50000002  0.00000000  0.50000001  1
  Fe  Fe6  1  0.50000002  0.00000000  -0.00000000  1
  Fe  Fe7  1  0.00000000  0.49999999  0.00000000  1
  O  O8  1  0.68892503  0.30800299  0.43632801  1
  O  O9  1  0.18892501  0.19199700  0.56367202  1
  O  O10  1  0.81107503  0.80800298  0.06367200  1
  O  O11  1  0.31107501  0.69199698  0.93632803  1
  O  O12  1  0.31107501  0.69199698  0.56367202  1
  O  O13  1  0.81107503  0.80800298  0.43632801  1
  O  O14  1  0.18892501  0.19199700  0.93632803  1
  O  O15  1  0.68892503  0.30800299  0.06367200  1
  O  O16  1  0.12506701  0.45107999  0.25000001  1
  O  O17  1  0.62506703  0.04892000  0.75000002  1
  O  O18  1  0.37493302  0.95107998  0.25000001  1
  O  O19  1  0.87493304  0.54891999  0.75000002  1
