# generated using pymatgen
data_Ce3Au
_symmetry_space_group_name_H-M   'P 1'
_cell_length_a   4.08757019
_cell_length_b   6.92315388
_cell_length_c   10.14500523
_cell_angle_alpha   90.00000000
_cell_angle_beta   90.00000000
_cell_angle_gamma   107.17013550
_symmetry_Int_Tables_number   1
_chemical_formula_structural   Ce3Au
_chemical_formula_sum   'Ce6 Au2'
_cell_volume   274.29723634
_cell_formula_units_Z   2
loop_
 _symmetry_equiv_pos_site_id
 _symmetry_equiv_pos_as_xyz
  1  'x, y, z'
loop_
 _atom_site_type_symbol
 _atom_site_label
 _atom_site_symmetry_multiplicity
 _atom_site_fract_x
 _atom_site_fract_y
 _atom_site_fract_z
 _atom_site_occupancy
  Ce  Ce0  1  0.43154893  0.86309796  0.24999999  1
  Ce  Ce1  1  0.56845097  0.13690199  0.74999998  1
  Ce  Ce2  1  0.14215198  0.28430399  0.06056900  1
  Ce  Ce3  1  0.85784792  0.71569597  0.93943098  1
  Ce  Ce4  1  0.85784792  0.71569597  0.56056899  1
  Ce  Ce5  1  0.14215198  0.28430399  0.43943099  1
  Au  Au6  1  0.75284894  0.50569798  0.24999999  1
  Au  Au7  1  0.24715096  0.49430198  0.74999998  1
