# generated using pymatgen
data_Sm2Co17
_symmetry_space_group_name_H-M   'P 1'
_cell_length_a   6.32590675
_cell_length_b   6.32590675
_cell_length_c   6.32590675
_cell_angle_alpha   82.50746155
_cell_angle_beta   82.50745392
_cell_angle_gamma   82.50745392
_symmetry_Int_Tables_number   1
_chemical_formula_structural   Sm2Co17
_chemical_formula_sum   'Sm2 Co17'
_cell_volume   247.17891887
_cell_formula_units_Z   1
loop_
 _symmetry_equiv_pos_site_id
 _symmetry_equiv_pos_as_xyz
  1  'x, y, z'
loop_
 _atom_site_type_symbol
 _atom_site_label
 _atom_site_symmetry_multiplicity
 _atom_site_fract_x
 _atom_site_fract_y
 _atom_site_fract_z
 _atom_site_occupancy
  Sm  Sm0  1  0.64571704  0.64571698  0.64571699  1
  Sm  Sm1  1  0.35428302  0.35428299  0.35428299  1
  Co  Co2  1  0.89445106  0.89445097  0.89445099  1
  Co  Co3  1  0.10554901  0.10554900  0.10554900  1
  Co  Co4  1  0.71405306  0.99999996  0.28594698  1
  Co  Co5  1  0.64880904  0.64880898  0.14668398  1
  Co  Co6  1  0.00000000  0.00000000  0.50000001  1
  Co  Co7  1  0.00000002  0.49999998  0.00000001  1
  Co  Co8  1  0.50000001  0.00000000  -0.00000003  1
  Co  Co9  1  0.28594704  0.71405297  -0.00000000  1
  Co  Co10  1  0.00000001  0.28594699  0.71405303  1
  Co  Co11  1  0.28594701  0.00000000  0.71405300  1
  Co  Co12  1  0.71405303  0.28594699  0.99999999  1
  Co  Co13  1  0.64880902  0.14668399  0.64880898  1
  Co  Co14  1  0.00000003  0.71405297  0.28594702  1
  Co  Co15  1  0.85331604  0.35119099  0.35119096  1
  Co  Co16  1  0.35119102  0.35119099  0.85331601  1
  Co  Co17  1  0.35119104  0.85331597  0.35119101  1
  Co  Co18  1  0.14668403  0.64880898  0.64880902  1
