# generated using pymatgen
data_MnGe2SeS4
_symmetry_space_group_name_H-M   'P 1'
_cell_length_a   5.72884560
_cell_length_b   5.72884560
_cell_length_c   8.92143726
_cell_angle_alpha   96.11476898
_cell_angle_beta   96.11476898
_cell_angle_gamma   119.97964478
_symmetry_Int_Tables_number   1
_chemical_formula_structural   MnGe2SeS4
_chemical_formula_sum   'Mn2 Ge4 Se2 S8'
_cell_volume   247.80433629
_cell_formula_units_Z   2
loop_
 _symmetry_equiv_pos_site_id
 _symmetry_equiv_pos_as_xyz
  1  'x, y, z'
loop_
 _atom_site_type_symbol
 _atom_site_label
 _atom_site_symmetry_multiplicity
 _atom_site_fract_x
 _atom_site_fract_y
 _atom_site_fract_z
 _atom_site_occupancy
  Mn  Mn0  1  0.87707001  0.87707001  0.63177305  1
  Mn  Mn1  1  0.54436901  0.21107300  0.63240101  1
  Ge  Ge2  1  0.21107300  0.54436901  0.63240101  1
  Ge  Ge3  1  0.78892701  0.45563101  0.36759904  1
  Ge  Ge4  1  0.45563100  0.78892701  0.36759904  1
  Ge  Ge5  1  0.12293000  0.12293000  0.36822700  1
  Se  Se6  1  0.00000000  0.00000000  0.00000000  1
  Se  Se7  1  0.83222101  0.16777900  0.50000002  1
  S  S8  1  0.50000000  0.50000001  0.50000002  1
  S  S9  1  0.16777900  0.83222101  0.50000002  1
  S  S10  1  0.72120701  0.72120701  0.17727605  1
  S  S11  1  0.39617601  0.05888900  0.17772201  1
  S  S12  1  0.05888900  0.39617600  0.17772201  1
  S  S13  1  0.94111101  0.60382401  0.82227803  1
  S  S14  1  0.60382400  0.94111101  0.82227803  1
  S  S15  1  0.27879300  0.27879300  0.82272399  1
