# generated using pymatgen
data_Tb(FeSi)2
_symmetry_space_group_name_H-M   'P 1'
_cell_length_a   3.88246799
_cell_length_b   3.88246799
_cell_length_c   5.60474062
_cell_angle_alpha   110.26457977
_cell_angle_beta   110.26457977
_cell_angle_gamma   90.00000000
_symmetry_Int_Tables_number   1
_chemical_formula_structural   Tb(FeSi)2
_chemical_formula_sum   'Tb1 Fe2 Si2'
_cell_volume   73.65455457
_cell_formula_units_Z   1
loop_
 _symmetry_equiv_pos_site_id
 _symmetry_equiv_pos_as_xyz
  1  'x, y, z'
loop_
 _atom_site_type_symbol
 _atom_site_label
 _atom_site_symmetry_multiplicity
 _atom_site_fract_x
 _atom_site_fract_y
 _atom_site_fract_z
 _atom_site_occupancy
  Tb  Tb0  1  0.00000000  0.00000000  0.00000000  1
  Fe  Fe1  1  0.75000003  0.25000001  0.50000004  1
  Fe  Fe2  1  0.25000004  0.75000003  0.50000005  1
  Si  Si3  1  0.62852705  0.62852702  0.25705406  1
  Si  Si4  1  0.37147303  0.37147301  0.74294603  1
