# generated using pymatgen
data_LiFeF3
_symmetry_space_group_name_H-M   'P 1'
_cell_length_a   5.21330881
_cell_length_b   5.48990345
_cell_length_c   7.55573320
_cell_angle_alpha   86.03091431
_cell_angle_beta   89.87545776
_cell_angle_gamma   89.89870453
_symmetry_Int_Tables_number   1
_chemical_formula_structural   LiFeF3
_chemical_formula_sum   'Li4 Fe4 F12'
_cell_volume   215.72987282
_cell_formula_units_Z   4
loop_
 _symmetry_equiv_pos_site_id
 _symmetry_equiv_pos_as_xyz
  1  'x, y, z'
loop_
 _atom_site_type_symbol
 _atom_site_label
 _atom_site_symmetry_multiplicity
 _atom_site_fract_x
 _atom_site_fract_y
 _atom_site_fract_z
 _atom_site_occupancy
  Li  Li0  1  0.99640106  0.58319901  0.26259701  1
  Li  Li1  1  0.50508502  0.05413800  0.80653200  1
  Li  Li2  1  0.00612002  0.59246801  0.81001697  1
  Li  Li3  1  0.49457202  0.02341800  0.24701201  1
  Fe  Fe4  1  0.00167300  0.01692500  0.00167900  1
  Fe  Fe5  1  0.49936003  0.49964201  0.50430399  1
  Fe  Fe6  1  0.00002600  0.00375500  0.50176199  1
  Fe  Fe7  1  0.49982303  0.50110001  0.00095001  1
  F  F8  1  0.69461605  0.80734402  0.42293200  1
  F  F9  1  0.87466106  0.98709302  0.74038199  1
  F  F10  1  0.67362403  0.18780000  0.04770002  1
  F  F11  1  0.81341704  0.30789101  0.42300901  1
  F  F12  1  0.20820102  0.31046601  0.92900298  1
  F  F13  1  0.63894704  0.48859901  0.75063599  1
  F  F14  1  0.36428503  0.48148701  0.24854400  1
  F  F15  1  0.80471705  0.67841502  0.04916101  1
  F  F16  1  0.17634803  0.67987902  0.56469998  1
  F  F17  1  0.30572404  0.79276802  0.93643697  1
  F  F18  1  0.12114604  0.97338802  0.25913498  1
  F  F19  1  0.32125302  0.17262600  0.56470699  1
