# generated using pymatgen
data_MgSnAu3
_symmetry_space_group_name_H-M   'P 1'
_cell_length_a   4.53629017
_cell_length_b   4.53628969
_cell_length_c   5.69743013
_cell_angle_alpha   90.00000000
_cell_angle_beta   90.00000000
_cell_angle_gamma   120.00000000
_symmetry_Int_Tables_number   1
_chemical_formula_structural   MgSnAu3
_chemical_formula_sum   'Mg1 Sn1 Au3'
_cell_volume   101.53394207
_cell_formula_units_Z   1
loop_
 _symmetry_equiv_pos_site_id
 _symmetry_equiv_pos_as_xyz
  1  'x, y, z'
loop_
 _atom_site_type_symbol
 _atom_site_label
 _atom_site_symmetry_multiplicity
 _atom_site_fract_x
 _atom_site_fract_y
 _atom_site_fract_z
 _atom_site_occupancy
  Mg  Mg0  1  0.33333329  0.66666665  0.73615498  1
  Sn  Sn1  1  0.00000000  0.00000000  0.31254299  1
  Au  Au2  1  0.33333329  0.66666665  0.22768399  1
  Au  Au3  1  0.66666663  0.33333332  0.49220599  1
  Au  Au4  1  0.66666663  0.33333332  0.98141198  1
