# generated using pymatgen
data_LuGe2
_symmetry_space_group_name_H-M   'P 1'
_cell_length_a   4.06662607
_cell_length_b   4.21235085
_cell_length_c   7.40537739
_cell_angle_alpha   90.00000000
_cell_angle_beta   105.93653870
_cell_angle_gamma   90.00000000
_symmetry_Int_Tables_number   1
_chemical_formula_structural   LuGe2
_chemical_formula_sum   'Lu2 Ge4'
_cell_volume   121.97905207
_cell_formula_units_Z   2
loop_
 _symmetry_equiv_pos_site_id
 _symmetry_equiv_pos_as_xyz
  1  'x, y, z'
loop_
 _atom_site_type_symbol
 _atom_site_label
 _atom_site_symmetry_multiplicity
 _atom_site_fract_x
 _atom_site_fract_y
 _atom_site_fract_z
 _atom_site_occupancy
  Lu  Lu0  1  0.14697100  0.50000002  0.29394200  1
  Lu  Lu1  1  0.85302898  0.50000002  0.70605798  1
  Ge  Ge2  1  0.49999999  0.50000002  -0.00000001  1
  Ge  Ge3  1  0.00000000  0.00000000  0.00000000  1
  Ge  Ge4  1  0.68392798  1.00000004  0.36785599  1
  Ge  Ge5  1  0.31607199  0.00000000  0.63214399  1
