# generated using pymatgen
data_Li3V(OF4)2
_symmetry_space_group_name_H-M   'P 1'
_cell_length_a   5.95896101
_cell_length_b   5.95896101
_cell_length_c   5.95896101
_cell_angle_alpha   89.71781921
_cell_angle_beta   60.05033493
_cell_angle_gamma   119.72489929
_symmetry_Int_Tables_number   1
_chemical_formula_structural   Li3V(OF4)2
_chemical_formula_sum   'Li3 V1 O2 F8'
_cell_volume   149.98770700
_cell_formula_units_Z   1
loop_
 _symmetry_equiv_pos_site_id
 _symmetry_equiv_pos_as_xyz
  1  'x, y, z'
loop_
 _atom_site_type_symbol
 _atom_site_label
 _atom_site_symmetry_multiplicity
 _atom_site_fract_x
 _atom_site_fract_y
 _atom_site_fract_z
 _atom_site_occupancy
  Li  Li0  1  0.00000004  0.50000001  0.49999995  1
  Li  Li1  1  0.49999999  0.00000000  0.49999999  1
  Li  Li2  1  0.25000002  0.37826001  0.87173995  1
  V  V3  1  0.75000004  0.62174001  0.12825994  1
  O  O4  1  0.49999999  0.00000000  0.99999998  1
  O  O5  1  0.00000000  0.00000000  0.49999999  1
  F  F6  1  0.98050400  0.24705601  0.27243997  1
  F  F7  1  0.51949601  0.24705601  0.73344796  1
  F  F8  1  0.50833605  0.77082602  0.73750892  1
  F  F9  1  0.99166400  0.25415401  0.73750996  1
  F  F10  1  0.01949606  0.75294402  0.72755992  1
  F  F11  1  0.48050405  0.75294402  0.26655193  1
  F  F12  1  0.49166401  0.22917400  0.26249097  1
  F  F13  1  0.00833606  0.74584602  0.26248993  1
