# generated using pymatgen
data_Li2O2
_symmetry_space_group_name_H-M   'P 1'
_cell_length_a   2.98787808
_cell_length_b   2.98787785
_cell_length_c   8.22096539
_cell_angle_alpha   90.00000000
_cell_angle_beta   90.00000000
_cell_angle_gamma   120.00000000
_symmetry_Int_Tables_number   1
_chemical_formula_structural   Li2O2
_chemical_formula_sum   'Li3 O3'
_cell_volume   63.55930829
_cell_formula_units_Z   1
loop_
 _symmetry_equiv_pos_site_id
 _symmetry_equiv_pos_as_xyz
  1  'x, y, z'
loop_
 _atom_site_type_symbol
 _atom_site_label
 _atom_site_symmetry_multiplicity
 _atom_site_fract_x
 _atom_site_fract_y
 _atom_site_fract_z
 _atom_site_occupancy
  Li  Li0  1  0.33333329  0.66666664  0.64161297  1
  Li  Li1  1  0.66666663  0.33333332  0.35838698  1
  Li  Li2  1  0.00000000  0.00000000  0.00000000  1
  O  O3  1  0.33333329  0.66666664  0.22309899  1
  O  O4  1  0.66666663  0.33333332  0.77690096  1
  O  O5  1  0.00000000  0.00000000  0.49999998  1
