# generated using pymatgen
data_ZrH4
_symmetry_space_group_name_H-M   'P 1'
_cell_length_a   3.83932614
_cell_length_b   3.85392737
_cell_length_c   3.85392737
_cell_angle_alpha   89.77583313
_cell_angle_beta   90.00789642
_cell_angle_gamma   89.99210358
_symmetry_Int_Tables_number   1
_chemical_formula_structural   ZrH4
_chemical_formula_sum   'Zr1 H4'
_cell_volume   57.02413766
_cell_formula_units_Z   1
loop_
 _symmetry_equiv_pos_site_id
 _symmetry_equiv_pos_as_xyz
  1  'x, y, z'
loop_
 _atom_site_type_symbol
 _atom_site_label
 _atom_site_symmetry_multiplicity
 _atom_site_fract_x
 _atom_site_fract_y
 _atom_site_fract_z
 _atom_site_occupancy
  Zr  Zr0  1  0.00000002  0.49812301  0.49812301  1
  H  H1  1  0.49999999  0.00867900  0.00867898  1
  H  H2  1  0.48123101  0.49291501  0.99695200  1
  H  H3  1  0.51876903  0.99695201  0.49291500  1
  H  H4  1  0.00000004  0.98450801  0.98450803  1
