# generated using pymatgen
data_Ag3(SnS5)2
_symmetry_space_group_name_H-M   'P 1'
_cell_length_a   6.35187149
_cell_length_b   6.35187149
_cell_length_c   6.77260685
_cell_angle_alpha   62.03458786
_cell_angle_beta   62.03458786
_cell_angle_gamma   60.00000763
_symmetry_Int_Tables_number   1
_chemical_formula_structural   Ag3(SnS5)2
_chemical_formula_sum   'Ag3 Sn2 S10'
_cell_volume   198.94675244
_cell_formula_units_Z   1
loop_
 _symmetry_equiv_pos_site_id
 _symmetry_equiv_pos_as_xyz
  1  'x, y, z'
loop_
 _atom_site_type_symbol
 _atom_site_label
 _atom_site_symmetry_multiplicity
 _atom_site_fract_x
 _atom_site_fract_y
 _atom_site_fract_z
 _atom_site_occupancy
  Ag  Ag0  1  0.34107401  0.34107399  0.97677800  1
  Ag  Ag1  1  0.09300503  0.75443298  0.65461499  1
  Ag  Ag2  1  0.24556702  0.50205299  0.34538500  1
  Sn  Sn3  1  0.50205303  0.90699498  0.34538499  1
  Sn  Sn4  1  0.49794700  0.09300500  0.65461500  1
  S  S5  1  0.75443301  0.49794699  0.65461500  1
  S  S6  1  0.90699500  0.24556699  0.34538500  1
  S  S7  1  0.65892602  0.65892598  0.02322199  1
  S  S8  1  0.00000000  0.00000000  0.00000000  1
  S  S9  1  0.22071503  0.91333598  0.21793499  1
  S  S10  1  0.35198602  0.77928498  0.78206499  1
  S  S11  1  0.08666401  0.35198599  0.78206500  1
  S  S12  1  0.91333601  0.64801398  0.21793499  1
  S  S13  1  0.64801400  0.22071499  0.21793500  1
  S  S14  1  0.77928499  0.08666400  0.78206500  1
