# generated using pymatgen
data_LaAlNi4
_symmetry_space_group_name_H-M   'P 1'
_cell_length_a   4.22825909
_cell_length_b   5.31595993
_cell_length_c   5.31595945
_cell_angle_alpha   120.00000000
_cell_angle_beta   90.00000000
_cell_angle_gamma   90.00000000
_symmetry_Int_Tables_number   1
_chemical_formula_structural   LaAlNi4
_chemical_formula_sum   'La1 Al1 Ni4'
_cell_volume   103.47980010
_cell_formula_units_Z   1
loop_
 _symmetry_equiv_pos_site_id
 _symmetry_equiv_pos_as_xyz
  1  'x, y, z'
loop_
 _atom_site_type_symbol
 _atom_site_label
 _atom_site_symmetry_multiplicity
 _atom_site_fract_x
 _atom_site_fract_y
 _atom_site_fract_z
 _atom_site_occupancy
  La  La0  1  0.00000000  0.00000000  0.00000000  1
  Al  Al1  1  0.49999999  0.99999999  0.49999997  1
  Ni  Ni2  1  -0.00000000  0.66666666  0.33333332  1
  Ni  Ni3  1  0.99999998  0.33333333  0.66666668  1
  Ni  Ni4  1  0.49999999  0.50000000  0.50000000  1
  Ni  Ni5  1  0.49999999  0.50000000  -0.00000002  1
