# generated using pymatgen
data_SrLa4(NiO4)3
_symmetry_space_group_name_H-M   'P 1'
_cell_length_a   5.58639812
_cell_length_b   5.62915182
_cell_length_c   7.91297197
_cell_angle_alpha   89.82170105
_cell_angle_beta   90.03814697
_cell_angle_gamma   89.72547913
_symmetry_Int_Tables_number   1
_chemical_formula_structural   SrLa4(NiO4)3
_chemical_formula_sum   'Sr1 La4 Ni3 O12'
_cell_volume   248.83260394
_cell_formula_units_Z   1
loop_
 _symmetry_equiv_pos_site_id
 _symmetry_equiv_pos_as_xyz
  1  'x, y, z'
loop_
 _atom_site_type_symbol
 _atom_site_label
 _atom_site_symmetry_multiplicity
 _atom_site_fract_x
 _atom_site_fract_y
 _atom_site_fract_z
 _atom_site_occupancy
  Sr  Sr0  1  0.49999999  0.00000000  0.50000003  1
  La  La1  1  0.99555198  0.03284800  0.73864605  1
  La  La2  1  0.51031901  0.54660598  0.73751104  1
  La  La3  1  0.48968100  0.45339398  0.26248903  1
  La  La4  1  0.00444803  0.96715196  0.26135402  1
  Ni  Ni5  1  0.00000002  0.49999998  1.00000003  1
  Ni  Ni6  1  0.00000002  0.49999998  0.50000002  1
  Ni  Ni7  1  0.49999999  0.00000000  0.00000002  1
  O  O8  1  0.92208900  0.51446898  0.24873504  1
  O  O9  1  0.78547901  0.78240997  0.95665606  1
  O  O10  1  0.80042501  0.78179897  0.54060205  1
  O  O11  1  0.71629899  0.28722499  0.95624405  1
  O  O12  1  0.72063399  0.30147899  0.54085804  1
  O  O13  1  0.58169299  0.01962700  0.23741503  1
  O  O14  1  0.41830702  0.98037296  0.76258504  1
  O  O15  1  0.27936602  0.69852097  0.45914203  1
  O  O16  1  0.28370102  0.71277497  0.04375602  1
  O  O17  1  0.19957500  0.21820099  0.45939802  1
  O  O18  1  0.21452100  0.21758999  0.04334401  1
  O  O19  1  0.07791101  0.48553098  0.75126502  1
