# generated using pymatgen
data_Al7Ni5
_symmetry_space_group_name_H-M   'P 1'
_cell_length_a   3.69018292
_cell_length_b   5.95375681
_cell_length_c   7.09694672
_cell_angle_alpha   89.77715302
_cell_angle_beta   90.00000000
_cell_angle_gamma   90.00000000
_symmetry_Int_Tables_number   1
_chemical_formula_structural   Al7Ni5
_chemical_formula_sum   'Al7 Ni5'
_cell_volume   155.92194577
_cell_formula_units_Z   1
loop_
 _symmetry_equiv_pos_site_id
 _symmetry_equiv_pos_as_xyz
  1  'x, y, z'
loop_
 _atom_site_type_symbol
 _atom_site_label
 _atom_site_symmetry_multiplicity
 _atom_site_fract_x
 _atom_site_fract_y
 _atom_site_fract_z
 _atom_site_occupancy
  Al  Al0  1  0.00000000  0.53257602  0.68020900  1
  Al  Al1  1  0.00000000  0.03268200  0.82215800  1
  Al  Al2  1  0.50000001  0.46846001  0.32004100  1
  Al  Al3  1  0.50000001  0.96644803  0.17838901  1
  Al  Al4  1  -0.00000000  0.64731902  0.05736501  1
  Al  Al5  1  0.00000000  0.14482200  0.44173700  1
  Al  Al6  1  0.50000001  0.35228801  0.94095100  1
  Ni  Ni7  1  0.50000001  0.85333403  0.55875701  1
  Ni  Ni8  1  0.00000000  0.25837501  0.12671800  1
  Ni  Ni9  1  0.00000000  0.75362002  0.37167001  1
  Ni  Ni10  1  0.50000001  0.74446502  0.87617201  1
  Ni  Ni11  1  0.50000001  0.24561101  0.62583200  1
