# generated using pymatgen
data_Bi6Br5Cl
_symmetry_space_group_name_H-M   'P 1'
_cell_length_a   4.37858009
_cell_length_b   4.37858057
_cell_length_c   24.58757591
_cell_angle_alpha   90.00000000
_cell_angle_beta   90.00000000
_cell_angle_gamma   120.00000000
_symmetry_Int_Tables_number   1
_chemical_formula_structural   Bi6Br5Cl
_chemical_formula_sum   'Bi6 Br5 Cl1'
_cell_volume   408.23758794
_cell_formula_units_Z   1
loop_
 _symmetry_equiv_pos_site_id
 _symmetry_equiv_pos_as_xyz
  1  'x, y, z'
loop_
 _atom_site_type_symbol
 _atom_site_label
 _atom_site_symmetry_multiplicity
 _atom_site_fract_x
 _atom_site_fract_y
 _atom_site_fract_z
 _atom_site_occupancy
  Bi  Bi0  1  0.00000000  0.00000000  0.11659300  1
  Bi  Bi1  1  0.00000000  0.00000000  0.88340697  1
  Bi  Bi2  1  0.33333337  0.66666667  0.28746899  1
  Bi  Bi3  1  0.66666667  0.33333333  0.71253097  1
  Bi  Bi4  1  0.66666667  0.33333333  0.46480998  1
  Bi  Bi5  1  0.33333337  0.66666667  0.53518998  1
  Br  Br6  1  0.66666667  0.33333333  0.20338699  1
  Br  Br7  1  0.33333337  0.66666667  0.79661297  1
  Br  Br8  1  0.00000000  0.00000000  0.36073899  1
  Br  Br9  1  0.00000000  0.00000000  0.63926098  1
  Cl  Cl10  1  0.33333337  0.66666667  0.06669800  1
  Br  Br11  1  0.66666667  0.33333333  0.93330197  1
