# generated using pymatgen
data_ZrTi5
_symmetry_space_group_name_H-M   'P 1'
_cell_length_a   5.14774609
_cell_length_b   5.14774609
_cell_length_c   5.14774609
_cell_angle_alpha   92.31800079
_cell_angle_beta   118.67085266
_cell_angle_gamma   118.67085266
_symmetry_Int_Tables_number   1
_chemical_formula_structural   ZrTi5
_chemical_formula_sum   'Zr1 Ti5'
_cell_volume   98.30836957
_cell_formula_units_Z   1
loop_
 _symmetry_equiv_pos_site_id
 _symmetry_equiv_pos_as_xyz
  1  'x, y, z'
loop_
 _atom_site_type_symbol
 _atom_site_label
 _atom_site_symmetry_multiplicity
 _atom_site_fract_x
 _atom_site_fract_y
 _atom_site_fract_z
 _atom_site_occupancy
  Ti  Ti0  1  0.00000009  0.50000002  0.50000004  1
  Zr  Zr1  1  0.50000004  0.25000001  0.75000003  1
  Ti  Ti2  1  0.25000015  0.87500004  0.12500012  1
  Ti  Ti3  1  0.75000014  0.87500004  0.12500016  1
  Ti  Ti4  1  0.25000006  0.37500002  0.12500006  1
  Ti  Ti5  1  0.75000014  0.87500004  0.62500013  1
