# generated using pymatgen
data_YAg2
_symmetry_space_group_name_H-M   'P 1'
_cell_length_a   3.73021007
_cell_length_b   3.73021007
_cell_length_c   5.30067921
_cell_angle_alpha   110.60121918
_cell_angle_beta   110.60121918
_cell_angle_gamma   90.00000000
_symmetry_Int_Tables_number   1
_chemical_formula_structural   YAg2
_chemical_formula_sum   'Y1 Ag2'
_cell_volume   63.97623923
_cell_formula_units_Z   1
loop_
 _symmetry_equiv_pos_site_id
 _symmetry_equiv_pos_as_xyz
  1  'x, y, z'
loop_
 _atom_site_type_symbol
 _atom_site_label
 _atom_site_symmetry_multiplicity
 _atom_site_fract_x
 _atom_site_fract_y
 _atom_site_fract_z
 _atom_site_occupancy
  Y  Y0  1  0.00000000  0.00000000  0.00000000  1
  Ag  Ag1  1  0.33159002  0.33159000  0.66318004  1
  Ag  Ag2  1  0.66841004  0.66841001  0.33682007  1
