# generated using pymatgen
data_Ca4TeSe7
_symmetry_space_group_name_H-M   'P 1'
_cell_length_a   4.21209288
_cell_length_b   8.33166695
_cell_length_c   8.41749382
_cell_angle_alpha   89.99732971
_cell_angle_beta   90.00000000
_cell_angle_gamma   90.00000000
_symmetry_Int_Tables_number   1
_chemical_formula_structural   Ca4TeSe7
_chemical_formula_sum   'Ca4 Te1 Se7'
_cell_volume   295.40146547
_cell_formula_units_Z   1
loop_
 _symmetry_equiv_pos_site_id
 _symmetry_equiv_pos_as_xyz
  1  'x, y, z'
loop_
 _atom_site_type_symbol
 _atom_site_label
 _atom_site_symmetry_multiplicity
 _atom_site_fract_x
 _atom_site_fract_y
 _atom_site_fract_z
 _atom_site_occupancy
  Ca  Ca0  1  0.75430802  0.26974200  0.37489500  1
  Ca  Ca1  1  0.25430801  0.73025800  0.12510498  1
  Ca  Ca2  1  0.24569201  0.73025800  0.62510499  1
  Ca  Ca3  1  0.74569202  0.26974200  0.87489501  1
  Te  Te4  1  0.74127302  0.99996201  0.62489998  1
  Se  Se5  1  0.24127301  0.00003800  0.87510002  1
  Se  Se6  1  0.25872701  0.00003800  0.37510001  1
  Se  Se7  1  0.75872702  0.99996201  0.12489997  1
  Se  Se8  1  0.74907102  0.63570400  0.87504200  1
  Se  Se9  1  0.24907101  0.36429600  0.62495800  1
  Se  Se10  1  0.25092901  0.36429600  0.12495799  1
  Se  Se11  1  0.75092902  0.63570400  0.37504199  1
