# generated using pymatgen
data_Hf3Fe10
_symmetry_space_group_name_H-M   'P 1'
_cell_length_a   4.89768887
_cell_length_b   4.89768887
_cell_length_c   9.17238712
_cell_angle_alpha   74.51536560
_cell_angle_beta   74.51536560
_cell_angle_gamma   60.00001144
_symmetry_Int_Tables_number   1
_chemical_formula_structural   Hf3Fe10
_chemical_formula_sum   'Hf3 Fe10'
_cell_volume   181.26363259
_cell_formula_units_Z   1
loop_
 _symmetry_equiv_pos_site_id
 _symmetry_equiv_pos_as_xyz
  1  'x, y, z'
loop_
 _atom_site_type_symbol
 _atom_site_label
 _atom_site_symmetry_multiplicity
 _atom_site_fract_x
 _atom_site_fract_y
 _atom_site_fract_z
 _atom_site_occupancy
  Hf  Hf0  1  0.83461901  0.83461904  0.49614305  1
  Hf  Hf1  1  0.16538100  0.16538101  0.50385703  1
  Hf  Hf2  1  0.65624000  0.65624003  0.03128003  1
  Fe  Fe3  1  0.34376000  0.34376002  0.96872005  1
  Fe  Fe4  1  0.55112600  0.55112603  0.34662203  1
  Fe  Fe5  1  0.44887400  0.44887402  0.65337804  1
  Fe  Fe6  1  0.00000000  0.00000000  0.00000000  1
  Fe  Fe7  1  0.40633099  0.91078305  0.77210306  1
  Fe  Fe8  1  0.91078301  0.91078305  0.77210307  1
  Fe  Fe9  1  0.91078302  0.40633102  0.77210306  1
  Fe  Fe10  1  0.59366902  0.08921700  0.22789702  1
  Fe  Fe11  1  0.08921700  0.08921700  0.22789701  1
  Fe  Fe12  1  0.08921699  0.59366903  0.22789702  1
