# generated using pymatgen
data_La3VN9O5
_symmetry_space_group_name_H-M   'P 1'
_cell_length_a   4.43822193
_cell_length_b   7.60300016
_cell_length_c   8.51447010
_cell_angle_alpha   106.55477142
_cell_angle_beta   90.00000000
_cell_angle_gamma   106.97013092
_symmetry_Int_Tables_number   1
_chemical_formula_structural   La3VN9O5
_chemical_formula_sum   'La3 V1 N9 O5'
_cell_volume   262.32321818
_cell_formula_units_Z   1
loop_
 _symmetry_equiv_pos_site_id
 _symmetry_equiv_pos_as_xyz
  1  'x, y, z'
loop_
 _atom_site_type_symbol
 _atom_site_label
 _atom_site_symmetry_multiplicity
 _atom_site_fract_x
 _atom_site_fract_y
 _atom_site_fract_z
 _atom_site_occupancy
  V  V0  1  0.32332007  0.65899600  0.91492598  1
  La  La1  1  0.66432405  0.34100400  0.58507398  1
  La  La2  1  0.33567607  0.65899600  0.41492600  1
  La  La3  1  0.67668005  0.34100400  0.08507401  1
  N  N4  1  0.04354911  1.00000001  0.75000000  1
  N  N5  1  0.95645102  0.00000000  0.24999999  1
  O  O6  1  0.26519006  0.48794600  0.12224501  1
  O  O7  1  0.73252512  0.99789701  0.09169803  1
  N  N8  1  0.73449410  0.80239800  0.70134899  1
  N  N9  1  0.26550603  0.19760200  0.29865099  1
  N  N10  1  0.77724407  0.51205400  0.37775500  1
  N  N11  1  0.73462801  0.00210300  0.40830198  1
  N  N12  1  0.22275605  0.48794600  0.62224498  1
  N  N13  1  0.26747500  0.00210300  0.90830195  1
  N  N14  1  0.73481007  0.51205400  0.87775497  1
  O  O15  1  0.26537211  0.99789701  0.59169800  1
  O  O16  1  0.06790409  0.80239800  0.20134902  1
  O  O17  1  0.93209604  0.19760200  0.79865096  1
