# generated using pymatgen
data_Hf2AgTe4
_symmetry_space_group_name_H-M   'P 1'
_cell_length_a   4.00233221
_cell_length_b   6.95162249
_cell_length_c   7.28670120
_cell_angle_alpha   116.79827881
_cell_angle_beta   105.94012451
_cell_angle_gamma   90.00000000
_symmetry_Int_Tables_number   1
_chemical_formula_structural   Hf2AgTe4
_chemical_formula_sum   'Hf2 Ag1 Te4'
_cell_volume   172.18345121
_cell_formula_units_Z   1
loop_
 _symmetry_equiv_pos_site_id
 _symmetry_equiv_pos_as_xyz
  1  'x, y, z'
loop_
 _atom_site_type_symbol
 _atom_site_label
 _atom_site_symmetry_multiplicity
 _atom_site_fract_x
 _atom_site_fract_y
 _atom_site_fract_z
 _atom_site_occupancy
  Hf  Hf0  1  0.26017100  0.28432700  0.52034203  1
  Hf  Hf1  1  0.73896900  0.71632701  0.47793806  1
  Ag  Ag2  1  0.00105105  0.99989801  0.00210205  1
  Te  Te3  1  0.11676602  0.45052200  0.23353203  1
  Te  Te4  1  0.88222899  0.54921501  0.76445805  1
  Te  Te5  1  0.36562998  0.02334800  0.73126002  1
  Te  Te6  1  0.63518502  0.97636301  0.27037007  1
