# generated using pymatgen
data_LiMn2SbO6
_symmetry_space_group_name_H-M   'P 1'
_cell_length_a   5.14005661
_cell_length_b   5.32115984
_cell_length_c   7.58301163
_cell_angle_alpha   89.99063110
_cell_angle_beta   90.31382751
_cell_angle_gamma   89.99956512
_symmetry_Int_Tables_number   1
_chemical_formula_structural   LiMn2SbO6
_chemical_formula_sum   'Li2 Mn4 Sb2 O12'
_cell_volume   207.40031335
_cell_formula_units_Z   2
loop_
 _symmetry_equiv_pos_site_id
 _symmetry_equiv_pos_as_xyz
  1  'x, y, z'
loop_
 _atom_site_type_symbol
 _atom_site_label
 _atom_site_symmetry_multiplicity
 _atom_site_fract_x
 _atom_site_fract_y
 _atom_site_fract_z
 _atom_site_occupancy
  Li  Li0  1  0.01091394  0.94020603  0.24781399  1
  Li  Li1  1  0.48906598  0.44019401  0.25221300  1
  Mn  Mn2  1  0.51093297  0.55980502  0.74778700  1
  Mn  Mn3  1  0.98908601  0.05979300  0.75218600  1
  Mn  Mn4  1  0.00000197  0.50000602  0.99999300  1
  Mn  Mn5  1  0.50000301  0.00000200  0.50000500  1
  Sb  Sb6  1  0.99999898  0.49999902  0.50000000  1
  Sb  Sb7  1  0.50000001  0.00000000  0.00000000  1
  O  O8  1  0.13433797  0.43044601  0.74562000  1
  O  O9  1  0.18222599  0.18490801  0.06985500  1
  O  O10  1  0.17694399  0.18852101  0.42729100  1
  O  O11  1  0.32307696  0.68856702  0.07270199  1
  O  O12  1  0.31775596  0.68491902  0.43015699  1
  O  O13  1  0.36567794  0.93046203  0.75439399  1
  O  O14  1  0.63432200  0.06953700  0.24560600  1
  O  O15  1  0.68224299  0.31508101  0.56984300  1
  O  O16  1  0.67692199  0.31143301  0.92729800  1
  O  O17  1  0.81777396  0.81509003  0.93014500  1
  O  O18  1  0.82305596  0.81147803  0.57270999  1
  O  O19  1  0.86566097  0.56955302  0.25437900  1
