# generated using pymatgen
data_KCdCu(PbO4)3
_symmetry_space_group_name_H-M   'P 1'
_cell_length_a   5.96573400
_cell_length_b   5.96573400
_cell_length_c   7.68084335
_cell_angle_alpha   91.76978302
_cell_angle_beta   111.12544250
_cell_angle_gamma   119.74961090
_symmetry_Int_Tables_number   1
_chemical_formula_structural   KCdCu(PbO4)3
_chemical_formula_sum   'K1 Cd1 Cu1 Pb3 O12'
_cell_volume   213.83034324
_cell_formula_units_Z   1
loop_
 _symmetry_equiv_pos_site_id
 _symmetry_equiv_pos_as_xyz
  1  'x, y, z'
loop_
 _atom_site_type_symbol
 _atom_site_label
 _atom_site_symmetry_multiplicity
 _atom_site_fract_x
 _atom_site_fract_y
 _atom_site_fract_z
 _atom_site_occupancy
  K  K0  1  0.49999999  0.00000000  0.49999998  1
  Cu  Cu1  1  0.68403800  0.58559201  0.26962997  1
  Cd  Cd2  1  0.31596200  0.41440801  0.73037000  1
  Pb  Pb3  1  0.00000000  0.00000000  0.00000000  1
  Pb  Pb4  1  0.49999999  0.00000000  -0.00000003  1
  Pb  Pb5  1  0.00000001  0.50000001  0.00000001  1
  O  O6  1  0.01216700  0.26134500  0.27351201  1
  O  O7  1  0.98783299  0.73865501  0.72648797  1
  O  O8  1  0.91512198  0.20890300  0.12402496  1
  O  O9  1  0.08487801  0.79109701  0.87597502  1
  O  O10  1  0.46511999  0.23319500  0.18396998  1
  O  O11  1  0.95077499  0.71885001  0.18396996  1
  O  O12  1  0.53488000  0.76680501  0.81603000  1
  O  O13  1  0.04922500  0.28115000  0.81603002  1
  O  O14  1  0.48091200  0.72121501  0.20212699  1
  O  O15  1  0.51908799  0.27878500  0.79787299  1
  O  O16  1  0.15261300  0.33156000  0.48417300  1
  O  O17  1  0.84738699  0.66844001  0.51582697  1
