# generated using pymatgen
data_SrLa(MoO4)2
_symmetry_space_group_name_H-M   'P 1'
_cell_length_a   5.41709805
_cell_length_b   5.41709805
_cell_length_c   7.08398771
_cell_angle_alpha   112.47920227
_cell_angle_beta   112.47920227
_cell_angle_gamma   90.00000000
_symmetry_Int_Tables_number   1
_chemical_formula_structural   SrLa(MoO4)2
_chemical_formula_sum   'Sr1 La1 Mo2 O8'
_cell_volume   174.86835399
_cell_formula_units_Z   1
loop_
 _symmetry_equiv_pos_site_id
 _symmetry_equiv_pos_as_xyz
  1  'x, y, z'
loop_
 _atom_site_type_symbol
 _atom_site_label
 _atom_site_symmetry_multiplicity
 _atom_site_fract_x
 _atom_site_fract_y
 _atom_site_fract_z
 _atom_site_occupancy
  Sr  Sr0  1  0.74999999  0.25000000  0.50000000  1
  La  La1  1  0.00000000  0.00000000  0.00000000  1
  Mo  Mo2  1  0.24999999  0.74999999  0.49999999  1
  Mo  Mo3  1  0.49999999  0.49999999  -0.00000001  1
  O  O4  1  0.30820199  0.42148899  0.33550700  1
  O  O5  1  0.02730499  0.91401799  0.33550699  1
  O  O6  1  0.17148899  0.27730500  0.83550701  1
  O  O7  1  0.66401798  0.55820199  0.83550700  1
  O  O8  1  0.44179798  0.82851099  0.16449299  1
  O  O9  1  0.72269499  0.33598200  0.16449299  1
  O  O10  1  0.57851098  0.97269499  0.66449299  1
  O  O11  1  0.08598199  0.69179799  0.66449300  1
