# generated using pymatgen
data_CeI3
_symmetry_space_group_name_H-M   'P 1'
_cell_length_a   4.21518803
_cell_length_b   8.02369690
_cell_length_c   10.01992893
_cell_angle_alpha   90.00000000
_cell_angle_beta   90.00000000
_cell_angle_gamma   105.22862244
_symmetry_Int_Tables_number   1
_chemical_formula_structural   CeI3
_chemical_formula_sum   'Ce2 I6'
_cell_volume   326.98801953
_cell_formula_units_Z   2
loop_
 _symmetry_equiv_pos_site_id
 _symmetry_equiv_pos_as_xyz
  1  'x, y, z'
loop_
 _atom_site_type_symbol
 _atom_site_label
 _atom_site_symmetry_multiplicity
 _atom_site_fract_x
 _atom_site_fract_y
 _atom_site_fract_z
 _atom_site_occupancy
  Ce  Ce0  1  0.73834303  0.47668600  0.75000001  1
  Ce  Ce1  1  0.26165704  0.52331400  0.25000000  1
  I  I2  1  0.34535505  0.69071000  0.56752800  1
  I  I3  1  0.65464502  0.30929000  0.43247200  1
  I  I4  1  0.90988205  0.81976400  0.25000000  1
  I  I5  1  0.09011801  0.18023600  0.75000001  1
  I  I6  1  0.34535505  0.69071000  0.93247201  1
  I  I7  1  0.65464502  0.30929000  0.06752800  1
