# generated using pymatgen
data_Mg2In
_symmetry_space_group_name_H-M   'P 1'
_cell_length_a   3.20700002
_cell_length_b   6.24711990
_cell_length_c   7.49758291
_cell_angle_alpha   104.42385864
_cell_angle_beta   90.00000000
_cell_angle_gamma   104.87305450
_symmetry_Int_Tables_number   1
_chemical_formula_structural   Mg2In
_chemical_formula_sum   'Mg4 In2'
_cell_volume   140.27344543
_cell_formula_units_Z   2
loop_
 _symmetry_equiv_pos_site_id
 _symmetry_equiv_pos_as_xyz
  1  'x, y, z'
loop_
 _atom_site_type_symbol
 _atom_site_label
 _atom_site_symmetry_multiplicity
 _atom_site_fract_x
 _atom_site_fract_y
 _atom_site_fract_z
 _atom_site_occupancy
  Mg  Mg0  1  0.80377001  0.60754000  0.85753999  1
  Mg  Mg1  1  0.14125300  0.28250600  0.53027299  1
  Mg  Mg2  1  0.85874701  0.71749400  0.46972700  1
  Mg  Mg3  1  0.19623001  0.39246000  0.14246000  1
  In  In4  1  0.52428000  0.04856000  0.80405398  1
  In  In5  1  0.47572001  0.95144000  0.19594601  1
