# generated using pymatgen
data_CaBiPb3O7
_symmetry_space_group_name_H-M   'P 1'
_cell_length_a   5.52713203
_cell_length_b   5.99915791
_cell_length_c   6.85838032
_cell_angle_alpha   115.93553925
_cell_angle_beta   113.76255798
_cell_angle_gamma   90.00000000
_symmetry_Int_Tables_number   1
_chemical_formula_structural   CaBiPb3O7
_chemical_formula_sum   'Ca1 Bi1 Pb3 O7'
_cell_volume   182.82920435
_cell_formula_units_Z   1
loop_
 _symmetry_equiv_pos_site_id
 _symmetry_equiv_pos_as_xyz
  1  'x, y, z'
loop_
 _atom_site_type_symbol
 _atom_site_label
 _atom_site_symmetry_multiplicity
 _atom_site_fract_x
 _atom_site_fract_y
 _atom_site_fract_z
 _atom_site_occupancy
  Ca  Ca0  1  0.23932697  0.98932701  0.47865397  1
  Bi  Bi1  1  0.49999997  0.75000001  -0.00000003  1
  Pb  Pb2  1  0.23932698  0.48932700  0.47865398  1
  Pb  Pb3  1  0.76067298  0.01067300  0.52134597  1
  O  O4  1  0.49999998  0.25000000  -0.00000002  1
  Pb  Pb5  1  0.76067297  0.51067300  0.52134596  1
  O  O6  1  0.00000000  0.00000000  0.00000000  1
  O  O7  1  -0.00000001  0.50000000  -0.00000001  1
  O  O8  1  0.40903699  0.13546100  0.27092198  1
  O  O9  1  0.13811499  0.36453900  0.72907698  1
  O  O10  1  0.59096296  0.86453901  0.72907796  1
  O  O11  1  0.86188496  0.63546101  0.27092296  1
