# generated using pymatgen
data_CdCu4(SbO4)3
_symmetry_space_group_name_H-M   'P 1'
_cell_length_a   5.45861292
_cell_length_b   5.71171188
_cell_length_c   7.89637995
_cell_angle_alpha   92.18568420
_cell_angle_beta   90.80404663
_cell_angle_gamma   91.27111816
_symmetry_Int_Tables_number   1
_chemical_formula_structural   CdCu4(SbO4)3
_chemical_formula_sum   'Cd1 Cu4 Sb3 O12'
_cell_volume   245.92659542
_cell_formula_units_Z   1
loop_
 _symmetry_equiv_pos_site_id
 _symmetry_equiv_pos_as_xyz
  1  'x, y, z'
loop_
 _atom_site_type_symbol
 _atom_site_label
 _atom_site_symmetry_multiplicity
 _atom_site_fract_x
 _atom_site_fract_y
 _atom_site_fract_z
 _atom_site_occupancy
  Cu  Cu0  1  0.98246707  0.94260401  0.75511999  1
  Cu  Cu1  1  0.99942605  0.49906300  0.49739500  1
  Cu  Cu2  1  0.99557405  0.49892100  0.00103299  1
  Cu  Cu3  1  0.49858301  0.00084200  0.00138201  1
  Cd  Cd4  1  0.50257901  0.00282400  0.49745302  1
  Sb  Sb5  1  0.00811200  0.05991700  0.22470900  1
  Sb  Sb6  1  0.48256204  0.56420701  0.27288099  1
  Sb  Sb7  1  0.51028004  0.43969700  0.71832900  1
  O  O8  1  0.14072103  0.53511600  0.74844500  1
  O  O9  1  0.85253005  0.46644300  0.25313500  1
  O  O10  1  0.78899403  0.22725500  0.57999301  1
  O  O11  1  0.21376905  0.77740801  0.42129298  1
  O  O12  1  0.60663306  0.92457501  0.24322798  1
  O  O13  1  0.40779601  0.07591100  0.75635402  1
  O  O14  1  0.32986202  0.31706700  0.45618200  1
  O  O15  1  0.68324105  0.69574901  0.55163499  1
  O  O16  1  0.17585005  0.81976601  0.04127197  1
  O  O17  1  0.83088003  0.16609300  0.97687902  1
  O  O18  1  0.68076805  0.65974901  0.91473500  1
  O  O19  1  0.30937402  0.32679700  0.08854599  1
