# generated using pymatgen
data_YCo2SiC
_symmetry_space_group_name_H-M   'P 1'
_cell_length_a   3.89455199
_cell_length_b   5.69018316
_cell_length_c   6.79010105
_cell_angle_alpha   90.00000000
_cell_angle_beta   90.00000000
_cell_angle_gamma   110.01198578
_symmetry_Int_Tables_number   1
_chemical_formula_structural   YCo2SiC
_chemical_formula_sum   'Y2 Co4 Si2 C2'
_cell_volume   141.38805775
_cell_formula_units_Z   2
loop_
 _symmetry_equiv_pos_site_id
 _symmetry_equiv_pos_as_xyz
  1  'x, y, z'
loop_
 _atom_site_type_symbol
 _atom_site_label
 _atom_site_symmetry_multiplicity
 _atom_site_fract_x
 _atom_site_fract_y
 _atom_site_fract_z
 _atom_site_occupancy
  Y  Y0  1  0.94146196  0.88292402  0.74999999  1
  Y  Y1  1  0.05853799  0.11707600  0.25000000  1
  Co  Co2  1  0.66376498  0.32753001  0.93943099  1
  Co  Co3  1  0.66376498  0.32753001  0.56056900  1
  Co  Co4  1  0.33623497  0.67247001  0.06056900  1
  Co  Co5  1  0.33623497  0.67247001  0.43943100  1
  Si  Si6  1  0.22465098  0.44930201  0.74999999  1
  Si  Si7  1  0.77534897  0.55069801  0.25000000  1
  C  C8  1  0.49999995  1.00000002  0.50000000  1
  C  C9  1  0.49999995  1.00000002  0.99999999  1
