# generated using pymatgen
data_In2CuAgTe3Se
_symmetry_space_group_name_H-M   'P 1'
_cell_length_a   6.18183565
_cell_length_b   6.21889496
_cell_length_c   7.60612726
_cell_angle_alpha   66.24494171
_cell_angle_beta   66.39958954
_cell_angle_gamma   90.84327698
_symmetry_Int_Tables_number   1
_chemical_formula_structural   In2CuAgTe3Se
_chemical_formula_sum   'In2 Cu1 Ag1 Te3 Se1'
_cell_volume   239.79189771
_cell_formula_units_Z   1
loop_
 _symmetry_equiv_pos_site_id
 _symmetry_equiv_pos_as_xyz
  1  'x, y, z'
loop_
 _atom_site_type_symbol
 _atom_site_label
 _atom_site_symmetry_multiplicity
 _atom_site_fract_x
 _atom_site_fract_y
 _atom_site_fract_z
 _atom_site_occupancy
  In  In0  1  0.74187702  0.24187801  0.51624496  1
  In  In1  1  0.50601303  0.50601301  0.98797396  1
  Cu  Cu2  1  0.01047900  0.01047800  0.97904298  1
  Ag  Ag3  1  0.23902203  0.73902102  0.52195698  1
  Te  Te4  1  0.64658702  0.10974800  0.23579697  1
  Te  Te5  1  0.11761602  0.65445402  0.23579699  1
  Se  Se6  1  0.35637102  0.35254501  0.76159297  1
  Te  Te7  1  0.88203604  0.88586202  0.76159295  1
