# generated using pymatgen
data_Lu4(AlAs2)3
_symmetry_space_group_name_H-M   'P 1'
_cell_length_a   4.16146803
_cell_length_b   4.16146803
_cell_length_c   17.18022346
_cell_angle_alpha   83.04370880
_cell_angle_beta   83.04370880
_cell_angle_gamma   60.00000381
_symmetry_Int_Tables_number   1
_chemical_formula_structural   Lu4(AlAs2)3
_chemical_formula_sum   'Lu4 Al3 As6'
_cell_volume   255.13123952
_cell_formula_units_Z   1
loop_
 _symmetry_equiv_pos_site_id
 _symmetry_equiv_pos_as_xyz
  1  'x, y, z'
loop_
 _atom_site_type_symbol
 _atom_site_label
 _atom_site_symmetry_multiplicity
 _atom_site_fract_x
 _atom_site_fract_y
 _atom_site_fract_z
 _atom_site_occupancy
  Lu  Lu0  1  0.43362498  0.43362497  0.69912497  1
  Lu  Lu1  1  0.56637498  0.56637497  0.30087499  1
  Lu  Lu2  1  0.68162598  0.68162596  0.95512195  1
  Lu  Lu3  1  0.95035297  0.95035294  0.14894100  1
  Al  Al4  1  0.04964700  0.04964700  0.85105895  1
  Al  Al5  1  0.31837399  0.31837398  0.04487800  1
  Al  Al6  1  0.18513199  0.18513199  0.44460398  1
  As  As7  1  0.81486797  0.81486795  0.55539598  1
  As  As8  1  0.13524000  0.13523999  0.59427997  1
  As  As9  1  0.73347897  0.73347896  0.79956296  1
  As  As10  1  0.86475997  0.86475995  0.40571999  1
  As  As11  1  0.26652099  0.26652098  0.20043699  1
  As  As12  1  0.00000000  0.00000000  0.00000000  1
