# generated using pymatgen
data_NdAlGaSi
_symmetry_space_group_name_H-M   'P 1'
_cell_length_a   4.15768194
_cell_length_b   4.16713810
_cell_length_c   7.53720236
_cell_angle_alpha   90.00000000
_cell_angle_beta   106.01033020
_cell_angle_gamma   90.00000000
_symmetry_Int_Tables_number   1
_chemical_formula_structural   NdAlGaSi
_chemical_formula_sum   'Nd1 Al1 Ga1 Si1'
_cell_volume   125.52161218
_cell_formula_units_Z   1
loop_
 _symmetry_equiv_pos_site_id
 _symmetry_equiv_pos_as_xyz
  1  'x, y, z'
loop_
 _atom_site_type_symbol
 _atom_site_label
 _atom_site_symmetry_multiplicity
 _atom_site_fract_x
 _atom_site_fract_y
 _atom_site_fract_z
 _atom_site_occupancy
  Nd  Nd0  1  0.09599500  0.99999998  0.19198999  1
  Al  Al1  1  0.84881800  0.49999999  0.69763597  1
  Ga  Ga2  1  0.38102600  0.00000000  0.76205198  1
  Si  Si3  1  0.67416200  0.49999999  0.34832398  1
