# generated using pymatgen
data_SrCe4Al3Si7
_symmetry_space_group_name_H-M   'P 1'
_cell_length_a   4.20654202
_cell_length_b   4.20654202
_cell_length_c   21.78218079
_cell_angle_alpha   90.00000000
_cell_angle_beta   90.00000000
_cell_angle_gamma   120.00000000
_symmetry_Int_Tables_number   1
_chemical_formula_structural   SrCe4Al3Si7
_chemical_formula_sum   'Sr1 Ce4 Al3 Si7'
_cell_volume   333.79701756
_cell_formula_units_Z   1
loop_
 _symmetry_equiv_pos_site_id
 _symmetry_equiv_pos_as_xyz
  1  'x, y, z'
loop_
 _atom_site_type_symbol
 _atom_site_label
 _atom_site_symmetry_multiplicity
 _atom_site_fract_x
 _atom_site_fract_y
 _atom_site_fract_z
 _atom_site_occupancy
  Sr  Sr0  1  0.00000000  0.00000000  0.30097599  1
  Ce  Ce1  1  0.00000000  0.00000000  0.69902397  1
  Ce  Ce2  1  0.00000000  0.00000000  0.90122997  1
  Ce  Ce3  1  0.00000000  0.00000000  0.09877000  1
  Ce  Ce4  1  0.00000000  0.00000000  0.49999998  1
  Al  Al5  1  0.66666665  0.33333331  0.41196399  1
  Al  Al6  1  0.66666665  0.33333331  0.58803598  1
  Al  Al7  1  0.33333331  0.66666662  0.80895697  1
  Si  Si8  1  0.33333331  0.66666662  0.99999996  1
  Si  Si9  1  0.33333331  0.66666662  0.19104299  1
  Si  Si10  1  0.33333331  0.66666662  0.60629298  1
  Si  Si11  1  0.66666665  0.33333331  0.79270597  1
  Si  Si12  1  0.66666665  0.33333331  0.20729399  1
  Si  Si13  1  0.33333331  0.66666662  0.39370699  1
  Si  Si14  1  0.66666665  0.33333331  -0.00000000  1
