# generated using pymatgen
data_BeO
_symmetry_space_group_name_H-M   'P 1'
_cell_length_a   5.27623987
_cell_length_b   5.27624083
_cell_length_c   8.61197758
_cell_angle_alpha   90.00000000
_cell_angle_beta   90.00000000
_cell_angle_gamma   119.99999237
_symmetry_Int_Tables_number   1
_chemical_formula_structural   BeO
_chemical_formula_sum   'Be6 O6'
_cell_volume   207.62645887
_cell_formula_units_Z   6
loop_
 _symmetry_equiv_pos_site_id
 _symmetry_equiv_pos_as_xyz
  1  'x, y, z'
loop_
 _atom_site_type_symbol
 _atom_site_label
 _atom_site_symmetry_multiplicity
 _atom_site_fract_x
 _atom_site_fract_y
 _atom_site_fract_z
 _atom_site_occupancy
  Be  Be0  1  0.66666667  0.33333334  0.56242403  1
  Be  Be1  1  0.33333332  0.66666667  0.06242400  1
  Be  Be2  1  0.33333332  0.66666667  0.43757602  1
  Be  Be3  1  0.66666667  0.33333334  0.93757605  1
  O  O4  1  0.50000000  0.50000001  0.50000002  1
  Be  Be5  1  0.49999998  1.00000001  1.00000005  1
  Be  Be6  1  -0.00000002  0.50000001  -0.00000000  1
  O  O7  1  -0.00000002  0.50000001  0.50000002  1
  O  O8  1  0.66666667  0.33333334  0.75000004  1
  O  O9  1  0.33333332  0.66666667  0.25000001  1
  O  O10  1  0.50000000  0.50000001  1.00000005  1
  O  O11  1  0.49999998  1.00000001  0.50000002  1
