# generated using pymatgen
data_CeSi
_symmetry_space_group_name_H-M   'P 1'
_cell_length_a   3.90173507
_cell_length_b   5.84247780
_cell_length_c   8.15984535
_cell_angle_alpha   90.00000000
_cell_angle_beta   90.00000000
_cell_angle_gamma   90.00000000
_symmetry_Int_Tables_number   1
_chemical_formula_structural   CeSi
_chemical_formula_sum   'Ce4 Si4'
_cell_volume   186.01020681
_cell_formula_units_Z   4
loop_
 _symmetry_equiv_pos_site_id
 _symmetry_equiv_pos_as_xyz
  1  'x, y, z'
loop_
 _atom_site_type_symbol
 _atom_site_label
 _atom_site_symmetry_multiplicity
 _atom_site_fract_x
 _atom_site_fract_y
 _atom_site_fract_z
 _atom_site_occupancy
  Ce  Ce0  1  0.25000000  0.61454002  0.17956499  1
  Ce  Ce1  1  0.74999999  0.38546001  0.82043496  1
  Ce  Ce2  1  0.74999999  0.11454000  0.32043499  1
  Ce  Ce3  1  0.25000000  0.88546003  0.67956497  1
  Si  Si4  1  0.25000000  0.12519900  0.03661400  1
  Si  Si5  1  0.74999999  0.87480103  0.96338596  1
  Si  Si6  1  0.74999999  0.62519902  0.46338598  1
  Si  Si7  1  0.25000000  0.37480101  0.53661398  1
