# generated using pymatgen
data_Sr3Nb2O7
_symmetry_space_group_name_H-M   'P 1'
_cell_length_a   4.03660822
_cell_length_b   4.03660822
_cell_length_c   10.73980713
_cell_angle_alpha   100.83185577
_cell_angle_beta   100.83185577
_cell_angle_gamma   90.00000000
_symmetry_Int_Tables_number   1
_chemical_formula_structural   Sr3Nb2O7
_chemical_formula_sum   'Sr3 Nb2 O7'
_cell_volume   168.70315501
_cell_formula_units_Z   1
loop_
 _symmetry_equiv_pos_site_id
 _symmetry_equiv_pos_as_xyz
  1  'x, y, z'
loop_
 _atom_site_type_symbol
 _atom_site_label
 _atom_site_symmetry_multiplicity
 _atom_site_fract_x
 _atom_site_fract_y
 _atom_site_fract_z
 _atom_site_occupancy
  Sr  Sr0  1  0.68598297  0.68598297  0.37196600  1
  Sr  Sr1  1  0.32054199  0.32054198  0.64108399  1
  Sr  Sr2  1  0.48717098  0.48717098  0.97434199  1
  Nb  Nb3  1  0.89623396  0.89623396  0.79246800  1
  Nb  Nb4  1  0.09681500  0.09681500  0.19363000  1
  O  O5  1  0.80097897  0.80097896  0.60195800  1
  O  O6  1  0.19266599  0.19266599  0.38533199  1
  O  O7  1  0.90648796  0.40648798  0.81297599  1
  O  O8  1  0.40648799  0.90648796  0.81297599  1
  O  O9  1  0.09980500  0.59980497  0.19961000  1
  O  O10  1  0.59980497  0.09980500  0.19961000  1
  O  O11  1  0.00702400  0.00702400  0.01404800  1
