# generated using pymatgen
data_Lu2Ge7
_symmetry_space_group_name_H-M   'P 1'
_cell_length_a   3.95568609
_cell_length_b   4.02958584
_cell_length_c   10.82234383
_cell_angle_alpha   90.00000000
_cell_angle_beta   100.53030396
_cell_angle_gamma   90.00000000
_symmetry_Int_Tables_number   1
_chemical_formula_structural   Lu2Ge7
_chemical_formula_sum   'Lu2 Ge7'
_cell_volume   169.60046819
_cell_formula_units_Z   1
loop_
 _symmetry_equiv_pos_site_id
 _symmetry_equiv_pos_as_xyz
  1  'x, y, z'
loop_
 _atom_site_type_symbol
 _atom_site_label
 _atom_site_symmetry_multiplicity
 _atom_site_fract_x
 _atom_site_fract_y
 _atom_site_fract_z
 _atom_site_occupancy
  Lu  Lu0  1  0.77720299  0.50000002  0.55440600  1
  Lu  Lu1  1  0.11362300  0.50000002  0.22724700  1
  Ge  Ge2  1  0.55568599  1.00000004  0.11137101  1
  Ge  Ge3  1  0.49976599  0.50000002  0.99953099  1
  Ge  Ge4  1  0.38182199  0.50000002  0.76364499  1
  Ge  Ge5  1  0.99859698  0.00000000  0.99719400  1
  Ge  Ge6  1  0.87960398  0.00000000  0.75920800  1
  Ge  Ge7  1  0.66224499  0.00000000  0.32449000  1
  Ge  Ge8  1  0.23845400  0.00000000  0.47690800  1
