# generated using pymatgen
data_CeMg2
_symmetry_space_group_name_H-M   'P 1'
_cell_length_a   5.42343092
_cell_length_b   5.79177189
_cell_length_c   6.09817076
_cell_angle_alpha   61.64860535
_cell_angle_beta   90.00000000
_cell_angle_gamma   90.00000000
_symmetry_Int_Tables_number   1
_chemical_formula_structural   CeMg2
_chemical_formula_sum   'Ce2 Mg4'
_cell_volume   168.57506978
_cell_formula_units_Z   2
loop_
 _symmetry_equiv_pos_site_id
 _symmetry_equiv_pos_as_xyz
  1  'x, y, z'
loop_
 _atom_site_type_symbol
 _atom_site_label
 _atom_site_symmetry_multiplicity
 _atom_site_fract_x
 _atom_site_fract_y
 _atom_site_fract_z
 _atom_site_occupancy
  Ce  Ce0  1  0.25000000  0.29627401  1.00000003  1
  Ce  Ce1  1  0.75000001  0.70372602  -0.00000001  1
  Mg  Mg2  1  0.25000000  0.64982602  0.36902300  1
  Mg  Mg3  1  0.25000000  0.01884900  0.63097702  1
  Mg  Mg4  1  0.75000001  0.98115103  0.36902300  1
  Mg  Mg5  1  0.75000001  0.35017401  0.63097702  1
