# generated using pymatgen
data_MnSi3
_symmetry_space_group_name_H-M   'P 1'
_cell_length_a   4.30891895
_cell_length_b   4.30891895
_cell_length_c   7.42571640
_cell_angle_alpha   73.13396454
_cell_angle_beta   73.13396454
_cell_angle_gamma   59.99998474
_symmetry_Int_Tables_number   1
_chemical_formula_structural   MnSi3
_chemical_formula_sum   'Mn2 Si6'
_cell_volume   112.50036288
_cell_formula_units_Z   2
loop_
 _symmetry_equiv_pos_site_id
 _symmetry_equiv_pos_as_xyz
  1  'x, y, z'
loop_
 _atom_site_type_symbol
 _atom_site_label
 _atom_site_symmetry_multiplicity
 _atom_site_fract_x
 _atom_site_fract_y
 _atom_site_fract_z
 _atom_site_occupancy
  Mn  Mn0  1  0.50000000  0.50000000  0.50000001  1
  Mn  Mn1  1  0.00000000  0.00000000  0.00000000  1
  Si  Si2  1  0.62296500  0.62296501  0.13110499  1
  Si  Si3  1  0.12700000  0.12700000  0.61900002  1
  Si  Si4  1  0.87300001  0.87300001  0.38100000  1
  Si  Si5  1  0.37703500  0.37703500  0.86889502  1
  Si  Si6  1  0.25170200  0.25170200  0.24489400  1
  Si  Si7  1  0.74829801  0.74829801  0.75510601  1
