# generated using pymatgen
data_AgP2O5
_symmetry_space_group_name_H-M   'P 1'
_cell_length_a   5.22904682
_cell_length_b   5.64916229
_cell_length_c   7.70865297
_cell_angle_alpha   109.09857178
_cell_angle_beta   105.92804718
_cell_angle_gamma   94.84799194
_symmetry_Int_Tables_number   1
_chemical_formula_structural   AgP2O5
_chemical_formula_sum   'Ag2 P4 O10'
_cell_volume   203.07385404
_cell_formula_units_Z   2
loop_
 _symmetry_equiv_pos_site_id
 _symmetry_equiv_pos_as_xyz
  1  'x, y, z'
loop_
 _atom_site_type_symbol
 _atom_site_label
 _atom_site_symmetry_multiplicity
 _atom_site_fract_x
 _atom_site_fract_y
 _atom_site_fract_z
 _atom_site_occupancy
  Ag  Ag0  1  0.50000003  0.50000002  0.50000005  1
  Ag  Ag1  1  0.00000000  0.00000000  0.00000000  1
  P  P2  1  0.57520504  0.87519303  0.22275707  1
  P  P3  1  0.42479502  0.12480700  0.77724303  1
  P  P4  1  0.94062705  0.26656501  0.30747105  1
  P  P5  1  0.05937301  0.73343502  0.69252904  1
  O  O6  1  0.90983805  0.70522902  0.74875008  1
  O  O7  1  0.68476704  0.15882801  0.35968504  1
  O  O8  1  0.34921202  0.31229001  0.67730103  1
  O  O9  1  0.69318604  0.82205503  0.04858507  1
  O  O10  1  0.25765002  0.81983903  0.13368705  1
  O  O11  1  0.74235004  0.18016101  0.86631305  1
  O  O12  1  0.30681402  0.17794501  0.95141503  1
  O  O13  1  0.65078804  0.68771002  0.32269906  1
  O  O14  1  0.31523302  0.84117203  0.64031506  1
  O  O15  1  0.09016201  0.29477101  0.25125002  1
