# generated using pymatgen
data_CaLaMnRuO6
_symmetry_space_group_name_H-M   'P 1'
_cell_length_a   5.45520449
_cell_length_b   5.52810860
_cell_length_c   7.81994629
_cell_angle_alpha   89.96105957
_cell_angle_beta   90.35038757
_cell_angle_gamma   89.96952057
_symmetry_Int_Tables_number   1
_chemical_formula_structural   CaLaMnRuO6
_chemical_formula_sum   'Ca2 La2 Mn2 Ru2 O12'
_cell_volume   235.82133141
_cell_formula_units_Z   2
loop_
 _symmetry_equiv_pos_site_id
 _symmetry_equiv_pos_as_xyz
  1  'x, y, z'
loop_
 _atom_site_type_symbol
 _atom_site_label
 _atom_site_symmetry_multiplicity
 _atom_site_fract_x
 _atom_site_fract_y
 _atom_site_fract_z
 _atom_site_occupancy
  Ca  Ca0  1  0.50914500  0.45790999  0.24954899  1
  Ca  Ca1  1  0.00885500  0.04202100  0.74959798  1
  La  La2  1  0.99461701  0.96677299  0.25098498  1
  La  La3  1  0.49432500  0.53345699  0.75111498  1
  Mn  Mn4  1  0.99981701  0.49916199  0.49919398  1
  Mn  Mn5  1  0.49965900  0.00101900  0.99930497  1
  Ru  Ru6  1  0.49947901  0.99955399  0.50082998  1
  Ru  Ru7  1  0.99981301  0.50051499  0.00076999  1
  O  O8  1  0.92621001  0.47786799  0.74820397  1
  O  O9  1  0.42570100  0.02306100  0.24801499  1
  O  O10  1  0.77430100  0.21132300  0.03666999  1
  O  O11  1  0.27411300  0.28940500  0.53607598  1
  O  O12  1  0.78494500  0.21581700  0.45778198  1
  O  O13  1  0.28555600  0.28428000  0.95683497  1
  O  O14  1  0.70879001  0.71393999  0.04562299  1
  O  O15  1  0.20943500  0.78613399  0.54468698  1
  O  O16  1  0.72094401  0.70463699  0.46088798  1
  O  O17  1  0.22085500  0.79451199  0.96032397  1
  O  O18  1  0.58204401  0.97957599  0.75196798  1
  O  O19  1  0.08140400  0.51903599  0.25158099  1
