# generated using pymatgen
data_Ce2CdSe4
_symmetry_space_group_name_H-M   'P 1'
_cell_length_a   7.39907932
_cell_length_b   7.39907932
_cell_length_c   7.39907932
_cell_angle_alpha   109.00687408
_cell_angle_beta   109.70389557
_cell_angle_gamma   109.70389557
_symmetry_Int_Tables_number   1
_chemical_formula_structural   Ce2CdSe4
_chemical_formula_sum   'Ce4 Cd2 Se8'
_cell_volume   311.80978762
_cell_formula_units_Z   2
loop_
 _symmetry_equiv_pos_site_id
 _symmetry_equiv_pos_as_xyz
  1  'x, y, z'
loop_
 _atom_site_type_symbol
 _atom_site_label
 _atom_site_symmetry_multiplicity
 _atom_site_fract_x
 _atom_site_fract_y
 _atom_site_fract_z
 _atom_site_occupancy
  Ce  Ce0  1  0.37680402  0.12787201  0.00089003  1
  Ce  Ce1  1  0.87301804  0.24893202  0.87212806  1
  Ce  Ce2  1  0.62319608  0.62408605  0.75106810  1
  Ce  Ce3  1  0.00000006  0.50000004  0.50000006  1
  Cd  Cd4  1  0.12698213  0.99911007  0.37591412  1
  Cd  Cd5  1  0.50000010  0.75000006  0.25000011  1
  Se  Se6  1  0.88761212  0.86969306  0.61485714  1
  Se  Se7  1  0.11238809  0.72724405  0.98208108  1
  Se  Se8  1  0.25098605  0.37644003  0.77975805  1
  Se  Se9  1  0.59668203  0.22024202  0.47122805  1
  Se  Se10  1  0.40331811  0.87454606  0.62356012  1
  Se  Se11  1  0.74516301  0.01791800  0.13030703  1
  Se  Se12  1  0.25483705  0.38514403  0.27275605  1
  Se  Se13  1  0.74901407  0.52877204  0.12545410  1
