# generated using pymatgen
data_PrAgPb
_symmetry_space_group_name_H-M   'P 1'
_cell_length_a   4.92305183
_cell_length_b   4.92305183
_cell_length_c   7.78263092
_cell_angle_alpha   90.00000000
_cell_angle_beta   90.00000000
_cell_angle_gamma   120.00000000
_symmetry_Int_Tables_number   1
_chemical_formula_structural   PrAgPb
_chemical_formula_sum   'Pr2 Ag2 Pb2'
_cell_volume   163.35253696
_cell_formula_units_Z   2
loop_
 _symmetry_equiv_pos_site_id
 _symmetry_equiv_pos_as_xyz
  1  'x, y, z'
loop_
 _atom_site_type_symbol
 _atom_site_label
 _atom_site_symmetry_multiplicity
 _atom_site_fract_x
 _atom_site_fract_y
 _atom_site_fract_z
 _atom_site_occupancy
  Pr  Pr0  1  0.00000000  0.00000000  0.00680300  1
  Pr  Pr1  1  0.00000000  0.00000000  0.50680301  1
  Ag  Ag2  1  0.33333334  0.66666667  0.69940301  1
  Ag  Ag3  1  0.66666669  0.33333334  0.19940300  1
  Pb  Pb4  1  0.66666669  0.33333334  0.78659401  1
  Pb  Pb5  1  0.33333334  0.66666667  0.28659400  1
