# generated using pymatgen
data_Fe3Sb
_symmetry_space_group_name_H-M   'P 1'
_cell_length_a   3.96339989
_cell_length_b   3.96340084
_cell_length_c   5.14381981
_cell_angle_alpha   90.00000000
_cell_angle_beta   90.00000000
_cell_angle_gamma   119.99999237
_symmetry_Int_Tables_number   1
_chemical_formula_structural   Fe3Sb
_chemical_formula_sum   'Fe3 Sb1'
_cell_volume   69.97651367
_cell_formula_units_Z   1
loop_
 _symmetry_equiv_pos_site_id
 _symmetry_equiv_pos_as_xyz
  1  'x, y, z'
loop_
 _atom_site_type_symbol
 _atom_site_label
 _atom_site_symmetry_multiplicity
 _atom_site_fract_x
 _atom_site_fract_y
 _atom_site_fract_z
 _atom_site_occupancy
  Fe  Fe0  1  0.00000000  0.00000000  0.00000000  1
  Fe  Fe1  1  0.00000000  0.00000000  0.50000002  1
  Fe  Fe2  1  0.66666668  0.33333333  0.75000003  1
  Sb  Sb3  1  0.33333333  0.66666665  0.25000001  1
