# generated using pymatgen
data_Mg2Tc
_symmetry_space_group_name_H-M   'P 1'
_cell_length_a   3.35828304
_cell_length_b   3.35828304
_cell_length_c   12.49684143
_cell_angle_alpha   90.00000000
_cell_angle_beta   90.00000000
_cell_angle_gamma   90.00000000
_symmetry_Int_Tables_number   1
_chemical_formula_structural   Mg2Tc
_chemical_formula_sum   'Mg4 Tc2'
_cell_volume   140.94018990
_cell_formula_units_Z   2
loop_
 _symmetry_equiv_pos_site_id
 _symmetry_equiv_pos_as_xyz
  1  'x, y, z'
loop_
 _atom_site_type_symbol
 _atom_site_label
 _atom_site_symmetry_multiplicity
 _atom_site_fract_x
 _atom_site_fract_y
 _atom_site_fract_z
 _atom_site_occupancy
  Mg  Mg0  1  0.49999999  0.49999999  0.86814097  1
  Mg  Mg1  1  0.49999999  0.49999999  0.13185900  1
  Mg  Mg2  1  0.00000000  0.00000000  0.66476798  1
  Mg  Mg3  1  0.00000000  0.00000000  0.33523199  1
  Tc  Tc4  1  0.49999999  0.49999999  0.49999998  1
  Tc  Tc5  1  0.00000000  0.00000000  0.00000000  1
