# generated using pymatgen
data_Cs2NaP2O7
_symmetry_space_group_name_H-M   'P 1'
_cell_length_a   6.00838375
_cell_length_b   6.00838375
_cell_length_c   7.49294758
_cell_angle_alpha   90.06423950
_cell_angle_beta   113.60124969
_cell_angle_gamma   119.95427704
_symmetry_Int_Tables_number   1
_chemical_formula_structural   Cs2NaP2O7
_chemical_formula_sum   'Cs2 Na1 P2 O7'
_cell_volume   207.76582637
_cell_formula_units_Z   1
loop_
 _symmetry_equiv_pos_site_id
 _symmetry_equiv_pos_as_xyz
  1  'x, y, z'
loop_
 _atom_site_type_symbol
 _atom_site_label
 _atom_site_symmetry_multiplicity
 _atom_site_fract_x
 _atom_site_fract_y
 _atom_site_fract_z
 _atom_site_occupancy
  Cs  Cs0  1  0.44470701  0.21998401  0.66469097  1
  Cs  Cs1  1  0.55717301  0.77851602  0.33568895  1
  Na  Na2  1  0.00200499  0.99823303  0.00023795  1
  P  P3  1  0.16775900  0.57613302  0.74389195  1
  P  P4  1  0.84130803  0.41516401  0.25647197  1
  O  O5  1  0.49378401  0.74347502  0.81064994  1
  O  O6  1  0.06717500  0.31686601  0.81064996  1
  O  O7  1  0.52121602  0.25905501  0.20899898  1
  O  O8  1  0.94994403  0.68778302  0.20899896  1
  O  O9  1  0.04945000  0.73517202  0.78462194  1
  O  O10  1  0.92717303  0.25041901  0.17759198  1
  O  O11  1  0.02540500  0.47470101  0.50010596  1
