# generated using pymatgen
data_DyGaRh
_symmetry_space_group_name_H-M   'P 1'
_cell_length_a   4.43952894
_cell_length_b   6.82182693
_cell_length_c   7.64732695
_cell_angle_alpha   90.00000000
_cell_angle_beta   90.00000000
_cell_angle_gamma   90.00000000
_symmetry_Int_Tables_number   1
_chemical_formula_structural   DyGaRh
_chemical_formula_sum   'Dy4 Ga4 Rh4'
_cell_volume   231.60463528
_cell_formula_units_Z   4
loop_
 _symmetry_equiv_pos_site_id
 _symmetry_equiv_pos_as_xyz
  1  'x, y, z'
loop_
 _atom_site_type_symbol
 _atom_site_label
 _atom_site_symmetry_multiplicity
 _atom_site_fract_x
 _atom_site_fract_y
 _atom_site_fract_z
 _atom_site_occupancy
  Dy  Dy0  1  0.25000000  0.98402301  0.30259400  1
  Dy  Dy1  1  0.25000000  0.48402300  0.19740600  1
  Dy  Dy2  1  0.75000001  0.01597700  0.69740600  1
  Dy  Dy3  1  0.75000001  0.51597700  0.80259401  1
  Ga  Ga4  1  0.25000000  0.32610200  0.57314700  1
  Ga  Ga5  1  0.25000000  0.82610201  0.92685301  1
  Ga  Ga6  1  0.75000001  0.67389801  0.42685300  1
  Ga  Ga7  1  0.75000001  0.17389800  0.07314700  1
  Rh  Rh8  1  0.25000000  0.22441000  0.90065501  1
  Rh  Rh9  1  0.25000000  0.72441001  0.59934500  1
  Rh  Rh10  1  0.75000001  0.77559001  0.09934500  1
  Rh  Rh11  1  0.75000001  0.27559000  0.40065500  1
