# generated using pymatgen
data_Ca2TaTiO6
_symmetry_space_group_name_H-M   'P 1'
_cell_length_a   5.49263620
_cell_length_b   5.67608881
_cell_length_c   7.75294018
_cell_angle_alpha   90.00000000
_cell_angle_beta   90.00000000
_cell_angle_gamma   89.86543274
_symmetry_Int_Tables_number   1
_chemical_formula_structural   Ca2TaTiO6
_chemical_formula_sum   'Ca4 Ta2 Ti2 O12'
_cell_volume   241.71035279
_cell_formula_units_Z   2
loop_
 _symmetry_equiv_pos_site_id
 _symmetry_equiv_pos_as_xyz
  1  'x, y, z'
loop_
 _atom_site_type_symbol
 _atom_site_label
 _atom_site_symmetry_multiplicity
 _atom_site_fract_x
 _atom_site_fract_y
 _atom_site_fract_z
 _atom_site_occupancy
  Ca  Ca0  1  0.98692296  0.04347700  0.74999998  1
  Ca  Ca1  1  0.51375397  0.56232798  0.74999998  1
  Ca  Ca2  1  0.48624598  0.43767199  0.24999999  1
  Ca  Ca3  1  0.01307698  0.95652297  0.24999999  1
  Ta  Ta4  1  -0.00000001  0.49999999  0.00000000  1
  Ta  Ta5  1  -0.00000001  0.49999999  0.49999999  1
  Ti  Ti6  1  0.49999998  0.00000000  0.00000000  1
  Ti  Ti7  1  0.49999998  0.00000000  0.49999999  1
  O  O8  1  0.19631499  0.21286699  0.45209099  1
  O  O9  1  0.71024997  0.30178599  0.54527599  1
  O  O10  1  0.80368496  0.78713298  0.54790899  1
  O  O11  1  0.28974998  0.69821398  0.04527600  1
  O  O12  1  0.90610196  0.52841199  0.24999999  1
  O  O13  1  0.28974998  0.69821398  0.45472399  1
  O  O14  1  0.71024997  0.30178599  0.95472398  1
  O  O15  1  0.19631499  0.21286699  0.04790900  1
  O  O16  1  0.42139297  0.97953097  0.74999998  1
  O  O17  1  0.80368496  0.78713298  0.95209098  1
  O  O18  1  0.57860698  0.02046900  0.24999999  1
  O  O19  1  0.09389799  0.47158799  0.74999998  1
