# generated using pymatgen
data_Sc5Ir3
_symmetry_space_group_name_H-M   'P 1'
_cell_length_a   5.59993601
_cell_length_b   7.99383593
_cell_length_c   7.99383688
_cell_angle_alpha   120.00000000
_cell_angle_beta   90.00000000
_cell_angle_gamma   90.00000000
_symmetry_Int_Tables_number   1
_chemical_formula_structural   Sc5Ir3
_chemical_formula_sum   'Sc10 Ir6'
_cell_volume   309.90187793
_cell_formula_units_Z   2
loop_
 _symmetry_equiv_pos_site_id
 _symmetry_equiv_pos_as_xyz
  1  'x, y, z'
loop_
 _atom_site_type_symbol
 _atom_site_label
 _atom_site_symmetry_multiplicity
 _atom_site_fract_x
 _atom_site_fract_y
 _atom_site_fract_z
 _atom_site_occupancy
  Sc  Sc0  1  0.24800500  0.66666670  0.33333338  1
  Sc  Sc1  1  0.24800500  0.33333335  0.66666668  1
  Sc  Sc2  1  0.75199500  0.33333335  0.66666668  1
  Sc  Sc3  1  0.75199500  0.66666670  0.33333338  1
  Sc  Sc4  1  0.50000000  0.24590201  0.24590202  1
  Sc  Sc5  1  0.50000000  0.00000000  0.75409799  1
  Sc  Sc6  1  0.50000000  0.75409803  1.00000004  1
  Sc  Sc7  1  -0.00000000  0.75436703  0.75436705  1
  Sc  Sc8  1  1.00000000  1.00000004  0.24563307  1
  Sc  Sc9  1  -0.00000000  0.24563301  1.00000001  1
  Ir  Ir10  1  0.50000000  0.60771003  0.60771004  1
  Ir  Ir11  1  0.50000000  1.00000004  0.39229007  1
  Ir  Ir12  1  0.50000000  0.39229002  1.00000002  1
  Ir  Ir13  1  -0.00000000  0.39027002  0.39027002  1
  Ir  Ir14  1  0.00000000  0.00000000  0.60973000  1
  Ir  Ir15  1  -0.00000000  0.60973003  1.00000003  1
