# generated using pymatgen
data_Yb2Sc(B2C)3
_symmetry_space_group_name_H-M   'P 1'
_cell_length_a   3.59873009
_cell_length_b   6.61072397
_cell_length_c   6.61072397
_cell_angle_alpha   120.00000000
_cell_angle_beta   90.00000000
_cell_angle_gamma   90.00000000
_symmetry_Int_Tables_number   1
_chemical_formula_structural   Yb2Sc(B2C)3
_chemical_formula_sum   'Yb2 Sc1 B6 C3'
_cell_volume   136.20026547
_cell_formula_units_Z   1
loop_
 _symmetry_equiv_pos_site_id
 _symmetry_equiv_pos_as_xyz
  1  'x, y, z'
loop_
 _atom_site_type_symbol
 _atom_site_label
 _atom_site_symmetry_multiplicity
 _atom_site_fract_x
 _atom_site_fract_y
 _atom_site_fract_z
 _atom_site_occupancy
  Yb  Yb0  1  -0.00000000  0.66666667  0.33333334  1
  Yb  Yb1  1  -0.00000000  0.33333334  0.66666668  1
  Sc  Sc2  1  0.00000000  0.00000000  0.00000000  1
  B  B3  1  0.49999999  0.72840101  0.72840102  1
  B  B4  1  0.49999999  0.27159900  0.27159901  1
  B  B5  1  0.49999999  0.00000000  0.27159900  1
  B  B6  1  0.49999999  0.00000000  0.72840101  1
  B  B7  1  0.49999999  0.27159900  0.00000000  1
  B  B8  1  0.49999999  0.72840101  0.00000000  1
  C  C9  1  0.49999999  0.50000000  0.50000001  1
  C  C10  1  0.49999999  0.00000000  0.50000001  1
  C  C11  1  0.49999999  0.50000000  0.00000000  1
