# generated using pymatgen
data_Li5Sn
_symmetry_space_group_name_H-M   'P 1'
_cell_length_a   4.69252777
_cell_length_b   4.69252825
_cell_length_c   17.08968925
_cell_angle_alpha   90.00000000
_cell_angle_beta   90.00000000
_cell_angle_gamma   120.00000000
_symmetry_Int_Tables_number   1
_chemical_formula_structural   Li5Sn
_chemical_formula_sum   'Li15 Sn3'
_cell_volume   325.89563587
_cell_formula_units_Z   3
loop_
 _symmetry_equiv_pos_site_id
 _symmetry_equiv_pos_as_xyz
  1  'x, y, z'
loop_
 _atom_site_type_symbol
 _atom_site_label
 _atom_site_symmetry_multiplicity
 _atom_site_fract_x
 _atom_site_fract_y
 _atom_site_fract_z
 _atom_site_occupancy
  Li  Li0  1  0.00000000  0.00000000  0.50000002  1
  Li  Li1  1  0.00000000  0.00000000  0.32835901  1
  Li  Li2  1  0.00000000  0.00000000  0.67164103  1
  Li  Li3  1  0.00000000  0.00000000  0.16352801  1
  Li  Li4  1  0.00000000  0.00000000  0.83647204  1
  Li  Li5  1  0.66666672  0.33333336  0.05330500  1
  Li  Li6  1  0.33333339  0.66666672  0.94669504  1
  Li  Li7  1  0.66666672  0.33333336  0.55377202  1
  Li  Li8  1  0.33333339  0.66666672  0.44622802  1
  Li  Li9  1  0.66666672  0.33333336  0.71628203  1
  Li  Li10  1  0.33333339  0.66666672  0.28371801  1
  Li  Li11  1  0.66666672  0.33333336  0.88796104  1
  Li  Li12  1  0.33333339  0.66666672  0.11203900  1
  Li  Li13  1  0.00000000  0.00000000  0.00000000  1
  Sn  Sn14  1  0.66666672  0.33333336  0.22172801  1
  Sn  Sn15  1  0.33333339  0.66666672  0.77827203  1
  Li  Li16  1  0.66666672  0.33333336  0.39196302  1
  Sn  Sn17  1  0.33333339  0.66666672  0.60803703  1
