# generated using pymatgen
data_SmLu3
_symmetry_space_group_name_H-M   'P 1'
_cell_length_a   5.71233797
_cell_length_b   7.15045023
_cell_length_c   7.15044975
_cell_angle_alpha   120.00000000
_cell_angle_beta   90.00000000
_cell_angle_gamma   90.00000000
_symmetry_Int_Tables_number   1
_chemical_formula_structural   SmLu3
_chemical_formula_sum   'Sm2 Lu6'
_cell_volume   252.93636535
_cell_formula_units_Z   2
loop_
 _symmetry_equiv_pos_site_id
 _symmetry_equiv_pos_as_xyz
  1  'x, y, z'
loop_
 _atom_site_type_symbol
 _atom_site_label
 _atom_site_symmetry_multiplicity
 _atom_site_fract_x
 _atom_site_fract_y
 _atom_site_fract_z
 _atom_site_occupancy
  Sm  Sm0  1  0.25000000  0.16781399  0.33562799  1
  Sm  Sm1  1  0.25000000  0.66437197  0.83218598  1
  Lu  Lu2  1  0.25000000  0.16781399  0.83218599  1
  Lu  Lu3  1  0.75000000  0.83218596  0.66437197  1
  Lu  Lu4  1  0.75000000  0.33562798  0.16781399  1
  Lu  Lu5  1  0.75000000  0.83218596  0.16781398  1
  Lu  Lu6  1  0.75000000  0.33333332  0.66666665  1
  Lu  Lu7  1  0.25000000  0.66666664  0.33333331  1
