# generated using pymatgen
data_Yb4ScMnSb9
_symmetry_space_group_name_H-M   'P 1'
_cell_length_a   4.58797789
_cell_length_b   4.58797789
_cell_length_c   19.16566277
_cell_angle_alpha   90.00000000
_cell_angle_beta   90.00000000
_cell_angle_gamma   90.00000000
_symmetry_Int_Tables_number   1
_chemical_formula_structural   Yb4ScMnSb9
_chemical_formula_sum   'Yb4 Sc1 Mn1 Sb9'
_cell_volume   403.42840579
_cell_formula_units_Z   1
loop_
 _symmetry_equiv_pos_site_id
 _symmetry_equiv_pos_as_xyz
  1  'x, y, z'
loop_
 _atom_site_type_symbol
 _atom_site_label
 _atom_site_symmetry_multiplicity
 _atom_site_fract_x
 _atom_site_fract_y
 _atom_site_fract_z
 _atom_site_occupancy
  Yb  Yb0  1  0.50000001  0.00000000  0.11053100  1
  Yb  Yb1  1  0.50000001  0.00000000  0.61257398  1
  Yb  Yb2  1  0.00000000  0.50000001  0.88946896  1
  Yb  Yb3  1  0.00000000  0.50000001  0.38742598  1
  Sc  Sc4  1  0.50000001  0.50000001  0.49999998  1
  Sb  Sb5  1  0.00000000  0.00000000  0.00000000  1
  Mn  Mn6  1  0.00000000  0.00000000  0.49999998  1
  Sb  Sb7  1  0.50000001  0.50000001  0.75096197  1
  Sb  Sb8  1  0.50000001  0.50000001  0.24903799  1
  Sb  Sb9  1  0.00000000  0.00000000  0.75038797  1
  Sb  Sb10  1  0.00000000  0.00000000  0.24961199  1
  Sb  Sb11  1  0.50000001  0.00000000  0.92903296  1
  Sb  Sb12  1  0.50000001  0.00000000  0.42473298  1
  Sb  Sb13  1  0.00000000  0.50000001  0.07096700  1
  Sb  Sb14  1  0.00000000  0.50000001  0.57526698  1
