# generated using pymatgen
data_Ca2ZnWO6
_symmetry_space_group_name_H-M   'P 1'
_cell_length_a   5.42089701
_cell_length_b   5.63420677
_cell_length_c   7.69455576
_cell_angle_alpha   90.00000000
_cell_angle_beta   89.85150146
_cell_angle_gamma   90.00000000
_symmetry_Int_Tables_number   1
_chemical_formula_structural   Ca2ZnWO6
_chemical_formula_sum   'Ca4 Zn2 W2 O12'
_cell_volume   235.00983083
_cell_formula_units_Z   2
loop_
 _symmetry_equiv_pos_site_id
 _symmetry_equiv_pos_as_xyz
  1  'x, y, z'
loop_
 _atom_site_type_symbol
 _atom_site_label
 _atom_site_symmetry_multiplicity
 _atom_site_fract_x
 _atom_site_fract_y
 _atom_site_fract_z
 _atom_site_occupancy
  Ca  Ca0  1  0.48519700  0.56046702  0.24998002  1
  Ca  Ca1  1  0.01480300  0.06046700  0.25002000  1
  Ca  Ca2  1  0.98519700  0.93953304  0.74998004  1
  Ca  Ca3  1  0.51480300  0.43953302  0.75002003  1
  Zn  Zn4  1  0.50000000  0.00000000  0.50000002  1
  Zn  Zn5  1  0.00000000  0.50000002  -0.00000000  1
  W  W6  1  0.50000000  0.00000000  0.00000002  1
  W  W7  1  0.00000000  0.50000002  0.50000001  1
  O  O8  1  0.39988900  0.03409900  0.75728202  1
  O  O9  1  0.29257800  0.30832801  0.44928101  1
  O  O10  1  0.31375800  0.29046201  0.05303401  1
  O  O11  1  0.18624200  0.79046203  0.44696601  1
  O  O12  1  0.20742200  0.80832803  0.05071901  1
  O  O13  1  0.10011100  0.53409902  0.74271801  1
  O  O14  1  0.89988900  0.46590102  0.25728203  1
  O  O15  1  0.79257800  0.19167201  0.94928104  1
  O  O16  1  0.81375800  0.20953801  0.55303403  1
  O  O17  1  0.70742200  0.69167203  0.55071903  1
  O  O18  1  0.68624200  0.70953803  0.94696603  1
  O  O19  1  0.60011100  0.96590104  0.24271802  1
