# generated using pymatgen
data_HfCoGe
_symmetry_space_group_name_H-M   'P 1'
_cell_length_a   3.99257708
_cell_length_b   6.39038181
_cell_length_c   7.25923777
_cell_angle_alpha   90.00000000
_cell_angle_beta   90.00000000
_cell_angle_gamma   90.00000000
_symmetry_Int_Tables_number   1
_chemical_formula_structural   HfCoGe
_chemical_formula_sum   'Hf4 Co4 Ge4'
_cell_volume   185.21285973
_cell_formula_units_Z   4
loop_
 _symmetry_equiv_pos_site_id
 _symmetry_equiv_pos_as_xyz
  1  'x, y, z'
loop_
 _atom_site_type_symbol
 _atom_site_label
 _atom_site_symmetry_multiplicity
 _atom_site_fract_x
 _atom_site_fract_y
 _atom_site_fract_z
 _atom_site_occupancy
  Hf  Hf0  1  0.25000000  0.84052502  0.51132002  1
  Hf  Hf1  1  0.74999999  0.15947500  0.48868002  1
  Hf  Hf2  1  0.74999999  0.34052501  0.98868003  1
  Hf  Hf3  1  0.25000000  0.65947502  0.01132000  1
  Co  Co4  1  0.25000000  0.44183001  0.37533501  1
  Co  Co5  1  0.74999999  0.55817002  0.62466502  1
  Co  Co6  1  0.74999999  0.94183003  0.12466500  1
  Co  Co7  1  0.25000000  0.05817000  0.87533503  1
  Ge  Ge8  1  0.25000000  0.38382201  0.69806002  1
  Ge  Ge9  1  0.74999999  0.61617802  0.30194001  1
  Ge  Ge10  1  0.74999999  0.88382203  0.80194003  1
  Ge  Ge11  1  0.25000000  0.11617800  0.19806001  1
