# generated using pymatgen
data_ZnFeF5
_symmetry_space_group_name_H-M   'P 1'
_cell_length_a   5.18104887
_cell_length_b   5.18105698
_cell_length_c   7.43127489
_cell_angle_alpha   98.26886749
_cell_angle_beta   108.36073303
_cell_angle_gamma   109.96381378
_symmetry_Int_Tables_number   1
_chemical_formula_structural   ZnFeF5
_chemical_formula_sum   'Zn2 Fe2 F10'
_cell_volume   170.73728380
_cell_formula_units_Z   2
loop_
 _symmetry_equiv_pos_site_id
 _symmetry_equiv_pos_as_xyz
  1  'x, y, z'
loop_
 _atom_site_type_symbol
 _atom_site_label
 _atom_site_symmetry_multiplicity
 _atom_site_fract_x
 _atom_site_fract_y
 _atom_site_fract_z
 _atom_site_occupancy
  Zn  Zn0  1  0.79064702  0.53905798  0.25000201  1
  Zn  Zn1  1  0.21228701  0.46060298  0.74917402  1
  Fe  Fe2  1  0.00358400  0.00069600  0.99927102  1
  Fe  Fe3  1  0.50063603  0.99943297  0.49965801  1
  F  F4  1  0.86750600  0.11233500  0.74810602  1
  F  F5  1  0.13485203  0.88630297  0.25063401  1
  F  F6  1  0.36642001  0.21645799  0.62978502  1
  F  F7  1  0.10156902  0.73982497  0.87676802  1
  F  F8  1  0.64591102  0.71124098  0.95480202  1
  F  F9  1  0.25321402  0.68140698  0.54068901  1
  F  F10  1  0.35993701  0.29123199  0.04153000  1
  F  F11  1  0.74429201  0.31692099  0.45775801  1
  F  F12  1  0.90916801  0.26182099  0.12720600  1
  F  F13  1  0.63437502  0.78206897  0.36946101  1
