# generated using pymatgen
data_DyAu
_symmetry_space_group_name_H-M   'P 1'
_cell_length_a   3.86896992
_cell_length_b   4.67676306
_cell_length_c   5.79864120
_cell_angle_alpha   90.00000000
_cell_angle_beta   109.48803711
_cell_angle_gamma   90.00000000
_symmetry_Int_Tables_number   1
_chemical_formula_structural   DyAu
_chemical_formula_sum   'Dy2 Au2'
_cell_volume   98.91123151
_cell_formula_units_Z   2
loop_
 _symmetry_equiv_pos_site_id
 _symmetry_equiv_pos_as_xyz
  1  'x, y, z'
loop_
 _atom_site_type_symbol
 _atom_site_label
 _atom_site_symmetry_multiplicity
 _atom_site_fract_x
 _atom_site_fract_y
 _atom_site_fract_z
 _atom_site_occupancy
  Dy  Dy0  1  0.86376802  0.74999999  0.72753602  1
  Dy  Dy1  1  0.13623200  0.25000000  0.27246401  1
  Au  Au2  1  0.58630901  0.74999999  0.17261800  1
  Au  Au3  1  0.41369101  0.25000000  0.82738203  1
