# generated using pymatgen
data_Fe2(SiNi)3
_symmetry_space_group_name_H-M   'P 1'
_cell_length_a   4.48206186
_cell_length_b   4.48608017
_cell_length_c   4.48727226
_cell_angle_alpha   90.00000000
_cell_angle_beta   89.77252960
_cell_angle_gamma   90.00000000
_symmetry_Int_Tables_number   1
_chemical_formula_structural   Fe2(SiNi)3
_chemical_formula_sum   'Fe2 Si3 Ni3'
_cell_volume   90.22437354
_cell_formula_units_Z   1
loop_
 _symmetry_equiv_pos_site_id
 _symmetry_equiv_pos_as_xyz
  1  'x, y, z'
loop_
 _atom_site_type_symbol
 _atom_site_label
 _atom_site_symmetry_multiplicity
 _atom_site_fract_x
 _atom_site_fract_y
 _atom_site_fract_z
 _atom_site_occupancy
  Fe  Fe0  1  0.86553903  0.36332099  0.61108003  1
  Fe  Fe1  1  0.13446100  0.86332097  0.38892001  1
  Si  Si2  1  0.63925002  0.63643398  0.11443602  1
  Ni  Ni3  1  0.36075001  0.13643399  0.88556403  1
  Si  Si4  1  0.34667001  0.34345099  0.40597902  1
  Ni  Ni5  1  0.65333002  0.84345097  0.59402103  1
  Si  Si6  1  0.16063100  0.65679398  0.90697502  1
  Ni  Ni7  1  0.83936903  0.15679399  0.09302502  1
