# generated using pymatgen
data_Ga5Mo9
_symmetry_space_group_name_H-M   'P 1'
_cell_length_a   5.15244913
_cell_length_b   6.67815924
_cell_length_c   6.67815924
_cell_angle_alpha   69.40819550
_cell_angle_beta   80.39565277
_cell_angle_gamma   80.39565277
_symmetry_Int_Tables_number   1
_chemical_formula_structural   Ga5Mo9
_chemical_formula_sum   'Ga5 Mo9'
_cell_volume   210.63032593
_cell_formula_units_Z   1
loop_
 _symmetry_equiv_pos_site_id
 _symmetry_equiv_pos_as_xyz
  1  'x, y, z'
loop_
 _atom_site_type_symbol
 _atom_site_label
 _atom_site_symmetry_multiplicity
 _atom_site_fract_x
 _atom_site_fract_y
 _atom_site_fract_z
 _atom_site_occupancy
  Ga  Ga0  1  0.00000000  0.00000000  0.00000000  1
  Ga  Ga1  1  0.67928899  0.77848301  0.38160901  1
  Ga  Ga2  1  0.32071099  0.61839101  0.22151701  1
  Ga  Ga3  1  0.32071100  0.22151700  0.61839101  1
  Ga  Ga4  1  0.67928899  0.38160900  0.77848301  1
  Mo  Mo5  1  0.80218399  0.00273100  0.63861700  1
  Mo  Mo6  1  0.19781600  0.36138300  0.99726902  1
  Mo  Mo7  1  0.19781599  0.99726901  0.36138301  1
  Mo  Mo8  1  0.80218399  0.63861701  0.00273100  1
  Mo  Mo9  1  0.63058199  0.22394200  0.22394200  1
  Mo  Mo10  1  0.36941799  0.77605801  0.77605802  1
  Mo  Mo11  1  0.92866899  0.38753400  0.38753400  1
  Mo  Mo12  1  0.07133099  0.61246601  0.61246601  1
  Mo  Mo13  1  0.50000000  0.00000000  -0.00000000  1
