# generated using pymatgen
data_InSbTeSe
_symmetry_space_group_name_H-M   'P 1'
_cell_length_a   3.77002001
_cell_length_b   3.77002001
_cell_length_c   9.86647892
_cell_angle_alpha   78.98581696
_cell_angle_beta   78.98581696
_cell_angle_gamma   60.00000000
_symmetry_Int_Tables_number   1
_chemical_formula_structural   InSbTeSe
_chemical_formula_sum   'In1 Sb1 Te1 Se1'
_cell_volume   118.45304504
_cell_formula_units_Z   1
loop_
 _symmetry_equiv_pos_site_id
 _symmetry_equiv_pos_as_xyz
  1  'x, y, z'
loop_
 _atom_site_type_symbol
 _atom_site_label
 _atom_site_symmetry_multiplicity
 _atom_site_fract_x
 _atom_site_fract_y
 _atom_site_fract_z
 _atom_site_occupancy
  In  In0  1  0.21536500  0.21536500  0.35390501  1
  Sb  Sb1  1  0.78463501  0.78463500  0.64609500  1
  Te  Te2  1  0.39103500  0.39103500  0.82689502  1
  Se  Se3  1  0.60896501  0.60896500  0.17310499  1
