# generated using pymatgen
data_Hf2Ni2Sn
_symmetry_space_group_name_H-M   'P 1'
_cell_length_a   6.85395718
_cell_length_b   7.11124611
_cell_length_c   7.11124611
_cell_angle_alpha   90.00000000
_cell_angle_beta   90.00000000
_cell_angle_gamma   90.00000000
_symmetry_Int_Tables_number   1
_chemical_formula_structural   Hf2Ni2Sn
_chemical_formula_sum   'Hf8 Ni8 Sn4'
_cell_volume   346.60338907
_cell_formula_units_Z   4
loop_
 _symmetry_equiv_pos_site_id
 _symmetry_equiv_pos_as_xyz
  1  'x, y, z'
loop_
 _atom_site_type_symbol
 _atom_site_label
 _atom_site_symmetry_multiplicity
 _atom_site_fract_x
 _atom_site_fract_y
 _atom_site_fract_z
 _atom_site_occupancy
  Hf  Hf0  1  0.00000000  0.18331400  0.18331400  1
  Hf  Hf1  1  0.49999999  0.68331399  0.31668600  1
  Hf  Hf2  1  0.49999999  0.31668600  0.68331399  1
  Hf  Hf3  1  0.00000000  0.81668599  0.81668599  1
  Hf  Hf4  1  0.00000000  0.65494599  0.34505399  1
  Hf  Hf5  1  0.49999999  0.84505399  0.84505399  1
  Hf  Hf6  1  0.49999999  0.15494600  0.15494600  1
  Hf  Hf7  1  0.00000000  0.34505399  0.65494599  1
  Ni  Ni8  1  0.28476799  0.37463499  0.37463499  1
  Ni  Ni9  1  0.78476798  0.87463499  0.12536500  1
  Ni  Ni10  1  0.78476798  0.12536500  0.87463499  1
  Ni  Ni11  1  0.28476799  0.62536499  0.62536499  1
  Ni  Ni12  1  0.21523199  0.12536500  0.87463499  1
  Ni  Ni13  1  0.21523199  0.87463499  0.12536500  1
  Ni  Ni14  1  0.71523198  0.37463499  0.37463499  1
  Ni  Ni15  1  0.71523198  0.62536499  0.62536499  1
  Sn  Sn16  1  0.24999999  0.49999999  0.00000000  1
  Sn  Sn17  1  0.74999998  0.49999999  0.00000000  1
  Sn  Sn18  1  0.24999999  0.00000000  0.49999999  1
  Sn  Sn19  1  0.74999998  0.00000000  0.49999999  1
