# generated using pymatgen
data_RbNiS2
_symmetry_space_group_name_H-M   'P 1'
_cell_length_a   5.37102032
_cell_length_b   6.64715624
_cell_length_c   6.64715624
_cell_angle_alpha   63.76598358
_cell_angle_beta   78.46385193
_cell_angle_gamma   101.53614807
_symmetry_Int_Tables_number   1
_chemical_formula_structural   RbNiS2
_chemical_formula_sum   'Rb2 Ni2 S4'
_cell_volume   197.02371411
_cell_formula_units_Z   2
loop_
 _symmetry_equiv_pos_site_id
 _symmetry_equiv_pos_as_xyz
  1  'x, y, z'
loop_
 _atom_site_type_symbol
 _atom_site_label
 _atom_site_symmetry_multiplicity
 _atom_site_fract_x
 _atom_site_fract_y
 _atom_site_fract_z
 _atom_site_occupancy
  Rb  Rb0  1  0.74999997  0.64188202  0.64188202  1
  Rb  Rb1  1  0.24999998  0.35811801  0.35811801  1
  Ni  Ni2  1  0.24999996  0.99792003  0.99792001  1
  Ni  Ni3  1  0.74999999  0.00208000  0.00208002  1
  S  S4  1  0.40275796  0.91556603  0.29667099  1
  S  S5  1  0.09724199  0.29667101  0.91556602  1
  S  S6  1  0.90275796  0.70332902  0.08443401  1
  S  S7  1  0.59724199  0.08443400  0.70332903  1
