# generated using pymatgen
data_LiV2O2F3
_symmetry_space_group_name_H-M   'P 1'
_cell_length_a   3.95895600
_cell_length_b   5.36727095
_cell_length_c   10.14719105
_cell_angle_alpha   89.85963440
_cell_angle_beta   90.00000000
_cell_angle_gamma   111.64196014
_symmetry_Int_Tables_number   1
_chemical_formula_structural   LiV2O2F3
_chemical_formula_sum   'Li2 V4 O4 F6'
_cell_volume   200.41536858
_cell_formula_units_Z   2
loop_
 _symmetry_equiv_pos_site_id
 _symmetry_equiv_pos_as_xyz
  1  'x, y, z'
loop_
 _atom_site_type_symbol
 _atom_site_label
 _atom_site_symmetry_multiplicity
 _atom_site_fract_x
 _atom_site_fract_y
 _atom_site_fract_z
 _atom_site_occupancy
  Li  Li0  1  0.86858406  0.73716800  0.05408303  1
  Li  Li1  1  0.13141602  0.26283200  0.94591703  1
  V  V2  1  0.86212006  0.72424000  0.44566003  1
  V  V3  1  0.81089505  0.62179000  0.74445904  1
  V  V4  1  0.18910503  0.37821000  0.25554102  1
  V  V5  1  0.13788002  0.27576000  0.55434002  1
  O  O6  1  0.95808008  0.91616000  0.61963304  1
  O  O7  1  0.30594305  0.61188600  0.42192603  1
  O  O8  1  0.69405703  0.38811400  0.57807402  1
  O  O9  1  0.04192001  0.08384000  0.38036701  1
  F  F10  1  0.95085608  0.90171200  0.88009305  1
  F  F11  1  0.30813905  0.61627800  0.09641502  1
  F  F12  1  0.73766104  0.47532200  0.26063602  1
  F  F13  1  0.26233904  0.52467800  0.73936403  1
  F  F14  1  0.69186103  0.38372200  0.90358503  1
  F  F15  1  0.04914401  0.09828800  0.11990701  1
