# generated using pymatgen
data_CsNdAgSe3
_symmetry_space_group_name_H-M   'P 1'
_cell_length_a   4.36275196
_cell_length_b   8.47050667
_cell_length_c   11.38591862
_cell_angle_alpha   90.00000000
_cell_angle_beta   90.00000000
_cell_angle_gamma   104.92331696
_symmetry_Int_Tables_number   1
_chemical_formula_structural   CsNdAgSe3
_chemical_formula_sum   'Cs2 Nd2 Ag2 Se6'
_cell_volume   406.57165016
_cell_formula_units_Z   2
loop_
 _symmetry_equiv_pos_site_id
 _symmetry_equiv_pos_as_xyz
  1  'x, y, z'
loop_
 _atom_site_type_symbol
 _atom_site_label
 _atom_site_symmetry_multiplicity
 _atom_site_fract_x
 _atom_site_fract_y
 _atom_site_fract_z
 _atom_site_occupancy
  Cs  Cs0  1  0.74314702  0.48629400  0.25000001  1
  Cs  Cs1  1  0.25685301  0.51370600  0.75000003  1
  Nd  Nd2  1  0.00000000  0.00000000  0.00000000  1
  Nd  Nd3  1  0.00000000  0.00000000  0.50000002  1
  Ag  Ag4  1  0.45961302  0.91922600  0.25000001  1
  Ag  Ag5  1  0.54038701  0.08077400  0.75000003  1
  Se  Se6  1  0.38094102  0.76188200  0.04895900  1
  Se  Se7  1  0.61905901  0.23811800  0.95104103  1
  Se  Se8  1  0.61905901  0.23811800  0.54895902  1
  Se  Se9  1  0.38094102  0.76188200  0.45104102  1
  Se  Se10  1  0.05962300  0.11924600  0.25000001  1
  Se  Se11  1  0.94037703  0.88075400  0.75000003  1
