# generated using pymatgen
data_Ce4CoOs7
_symmetry_space_group_name_H-M   'P 1'
_cell_length_a   5.42783594
_cell_length_b   5.42783546
_cell_length_c   9.16348076
_cell_angle_alpha   90.00000000
_cell_angle_beta   90.00000000
_cell_angle_gamma   120.00000763
_symmetry_Int_Tables_number   1
_chemical_formula_structural   Ce4CoOs7
_chemical_formula_sum   'Ce4 Co1 Os7'
_cell_volume   233.79997335
_cell_formula_units_Z   1
loop_
 _symmetry_equiv_pos_site_id
 _symmetry_equiv_pos_as_xyz
  1  'x, y, z'
loop_
 _atom_site_type_symbol
 _atom_site_label
 _atom_site_symmetry_multiplicity
 _atom_site_fract_x
 _atom_site_fract_y
 _atom_site_fract_z
 _atom_site_occupancy
  Ce  Ce0  1  0.33333338  0.66666666  0.56185101  1
  Ce  Ce1  1  0.66666669  0.33333333  0.43814901  1
  Ce  Ce2  1  0.66666669  0.33333333  0.06092100  1
  Ce  Ce3  1  0.33333338  0.66666666  0.93907902  1
  Co  Co4  1  0.00000000  0.00000000  0.50000001  1
  Os  Os5  1  0.00000000  0.00000000  0.00000000  1
  Os  Os6  1  0.34019401  0.17009700  0.74248102  1
  Os  Os7  1  0.82990305  0.65980599  0.74248102  1
  Os  Os8  1  0.82990302  0.17009700  0.74248102  1
  Os  Os9  1  0.65980606  0.82990299  0.25751901  1
  Os  Os10  1  0.17009702  0.34019400  0.25751901  1
  Os  Os11  1  0.17009705  0.82990299  0.25751901  1
