# generated using pymatgen
data_MnF3
_symmetry_space_group_name_H-M   'P 1'
_cell_length_a   5.32107878
_cell_length_b   5.58565283
_cell_length_c   7.54186296
_cell_angle_alpha   90.00000000
_cell_angle_beta   90.00000000
_cell_angle_gamma   90.00000000
_symmetry_Int_Tables_number   1
_chemical_formula_structural   MnF3
_chemical_formula_sum   'Mn4 F12'
_cell_volume   224.15697883
_cell_formula_units_Z   4
loop_
 _symmetry_equiv_pos_site_id
 _symmetry_equiv_pos_as_xyz
  1  'x, y, z'
loop_
 _atom_site_type_symbol
 _atom_site_label
 _atom_site_symmetry_multiplicity
 _atom_site_fract_x
 _atom_site_fract_y
 _atom_site_fract_z
 _atom_site_occupancy
  Mn  Mn0  1  0.00000000  0.50000002  -0.00000000  1
  Mn  Mn1  1  0.00000000  0.50000002  0.50000000  1
  Mn  Mn2  1  0.50000002  0.00000000  0.00000000  1
  Mn  Mn3  1  0.50000002  0.00000000  0.50000000  1
  F  F4  1  0.08422700  0.51178402  0.25000000  1
  F  F5  1  0.22335201  0.80565102  0.96087900  1
  F  F6  1  0.22335201  0.80565102  0.53912100  1
  F  F7  1  0.27664801  0.30565101  0.96087900  1
  F  F8  1  0.27664801  0.30565101  0.53912100  1
  F  F9  1  0.41577302  0.01178400  0.25000000  1
  F  F10  1  0.58422702  0.98821603  0.75000000  1
  F  F11  1  0.72335203  0.69434902  0.03912100  1
  F  F12  1  0.72335203  0.69434902  0.46087900  1
  F  F13  1  0.77664803  0.19434901  0.03912100  1
  F  F14  1  0.77664803  0.19434901  0.46087900  1
  F  F15  1  0.91577304  0.48821602  0.75000000  1
