# generated using pymatgen
data_Ba8Tl5
_symmetry_space_group_name_H-M   'P 1'
_cell_length_a   5.97503805
_cell_length_b   10.46708012
_cell_length_c   10.46708012
_cell_angle_alpha   85.32723236
_cell_angle_beta   73.41601562
_cell_angle_gamma   73.41601562
_symmetry_Int_Tables_number   1
_chemical_formula_structural   Ba8Tl5
_chemical_formula_sum   'Ba8 Tl5'
_cell_volume   601.29494382
_cell_formula_units_Z   1
loop_
 _symmetry_equiv_pos_site_id
 _symmetry_equiv_pos_as_xyz
  1  'x, y, z'
loop_
 _atom_site_type_symbol
 _atom_site_label
 _atom_site_symmetry_multiplicity
 _atom_site_fract_x
 _atom_site_fract_y
 _atom_site_fract_z
 _atom_site_occupancy
  Ba  Ba0  1  0.50000000  0.00000000  0.00000000  1
  Ba  Ba1  1  0.81336899  0.29799799  0.07526502  1
  Ba  Ba2  1  0.18663098  0.70200198  0.92473502  1
  Ba  Ba3  1  0.11136700  0.07526500  0.70200099  1
  Ba  Ba4  1  0.88863297  0.92473498  0.29799904  1
  Ba  Ba5  1  0.87529498  0.51264899  0.73676201  1
  Ba  Ba6  1  0.12470499  0.48735099  0.26323802  1
  Ba  Ba7  1  0.38794398  0.73676198  0.48735003  1
  Tl  Tl8  1  0.61205599  0.26323799  0.51265000  1
  Tl  Tl9  1  0.59903898  0.66348298  0.13843903  1
  Tl  Tl10  1  0.40096099  0.33651699  0.86156100  1
  Tl  Tl11  1  0.26252299  0.13843800  0.33651700  1
  Tl  Tl12  1  0.73747698  0.86156198  0.66348303  1
