# generated using pymatgen
data_UFeS8
_symmetry_space_group_name_H-M   'P 1'
_cell_length_a   6.84671497
_cell_length_b   6.84671497
_cell_length_c   7.88700485
_cell_angle_alpha   113.89496613
_cell_angle_beta   113.89496613
_cell_angle_gamma   90.26306152
_symmetry_Int_Tables_number   1
_chemical_formula_structural   UFeS8
_chemical_formula_sum   'U2 Fe2 S16'
_cell_volume   302.70436335
_cell_formula_units_Z   2
loop_
 _symmetry_equiv_pos_site_id
 _symmetry_equiv_pos_as_xyz
  1  'x, y, z'
loop_
 _atom_site_type_symbol
 _atom_site_label
 _atom_site_symmetry_multiplicity
 _atom_site_fract_x
 _atom_site_fract_y
 _atom_site_fract_z
 _atom_site_occupancy
  U  U0  1  0.61571503  0.38428502  0.25000001  1
  U  U1  1  0.38428503  0.61571503  0.75000001  1
  Fe  Fe2  1  0.00000000  0.00000000  0.50000000  1
  Fe  Fe3  1  0.00000000  0.00000000  0.00000000  1
  S  S4  1  0.00000001  0.50000002  0.00000001  1
  S  S5  1  0.50000002  0.00000000  0.50000000  1
  S  S6  1  0.91254905  0.65477103  0.82522502  1
  S  S7  1  0.65477105  0.91254904  0.32522502  1
  S  S8  1  0.08745101  0.34522901  0.17477501  1
  S  S9  1  0.34522902  0.08745100  0.67477500  1
  S  S10  1  0.90385904  0.09614100  0.75000001  1
  S  S11  1  0.09614103  0.90385904  0.25000002  1
  S  S12  1  0.27277202  0.49707302  0.99419801  1
  S  S13  1  0.72722804  0.50292702  0.00580201  1
  S  S14  1  0.49707303  0.27277201  0.49419801  1
  S  S15  1  0.99586304  0.29656401  0.49661601  1
  S  S16  1  0.29656404  0.99586304  0.99661602  1
  S  S17  1  0.70343603  0.00413700  0.00338401  1
  S  S18  1  0.50292704  0.72722803  0.50580202  1
  S  S19  1  0.00413702  0.70343603  0.50338401  1
