# generated using pymatgen
data_YAgGe
_symmetry_space_group_name_H-M   'P 1'
_cell_length_a   4.68249798
_cell_length_b   4.68249798
_cell_length_c   7.61726093
_cell_angle_alpha   90.00000000
_cell_angle_beta   90.00000000
_cell_angle_gamma   120.00000000
_symmetry_Int_Tables_number   1
_chemical_formula_structural   YAgGe
_chemical_formula_sum   'Y2 Ag2 Ge2'
_cell_volume   144.63875056
_cell_formula_units_Z   2
loop_
 _symmetry_equiv_pos_site_id
 _symmetry_equiv_pos_as_xyz
  1  'x, y, z'
loop_
 _atom_site_type_symbol
 _atom_site_label
 _atom_site_symmetry_multiplicity
 _atom_site_fract_x
 _atom_site_fract_y
 _atom_site_fract_z
 _atom_site_occupancy
  Y  Y0  1  0.00000000  0.00000000  0.01471500  1
  Y  Y1  1  0.00000000  0.00000000  0.51471500  1
  Ag  Ag2  1  0.33333332  0.66666663  0.28230300  1
  Ag  Ag3  1  0.66666666  0.33333332  0.78230301  1
  Ge  Ge4  1  0.33333332  0.66666663  0.69398201  1
  Ge  Ge5  1  0.66666666  0.33333332  0.19398200  1
