# generated using pymatgen
data_MgIn5
_symmetry_space_group_name_H-M   'P 1'
_cell_length_a   3.67976189
_cell_length_b   6.26986504
_cell_length_c   7.03432083
_cell_angle_alpha   106.90924072
_cell_angle_beta   90.00000000
_cell_angle_gamma   107.06451416
_symmetry_Int_Tables_number   1
_chemical_formula_structural   MgIn5
_chemical_formula_sum   'Mg1 In5'
_cell_volume   147.79285861
_cell_formula_units_Z   1
loop_
 _symmetry_equiv_pos_site_id
 _symmetry_equiv_pos_as_xyz
  1  'x, y, z'
loop_
 _atom_site_type_symbol
 _atom_site_label
 _atom_site_symmetry_multiplicity
 _atom_site_fract_x
 _atom_site_fract_y
 _atom_site_fract_z
 _atom_site_occupancy
  Mg  Mg0  1  0.50000002  0.00000000  0.50000001  1
  In  In1  1  0.82468109  0.64936203  0.67173506  1
  In  In2  1  0.17161704  0.34323402  0.84453905  1
  In  In3  1  0.50000002  0.00000000  0.00000000  1
  In  In4  1  0.82838309  0.65676603  0.15546105  1
  In  In5  1  0.17531904  0.35063802  0.32826503  1
