# generated using pymatgen
data_Sc2VB2Ir5
_symmetry_space_group_name_H-M   'P 1'
_cell_length_a   2.92306495
_cell_length_b   9.51364040
_cell_length_c   9.51364040
_cell_angle_alpha   90.00000000
_cell_angle_beta   90.00000000
_cell_angle_gamma   90.00000000
_symmetry_Int_Tables_number   1
_chemical_formula_structural   Sc2VB2Ir5
_chemical_formula_sum   'Sc4 V2 B4 Ir10'
_cell_volume   264.56471928
_cell_formula_units_Z   2
loop_
 _symmetry_equiv_pos_site_id
 _symmetry_equiv_pos_as_xyz
  1  'x, y, z'
loop_
 _atom_site_type_symbol
 _atom_site_label
 _atom_site_symmetry_multiplicity
 _atom_site_fract_x
 _atom_site_fract_y
 _atom_site_fract_z
 _atom_site_occupancy
  Sc  Sc0  1  0.00000000  0.82406397  0.32406399  1
  Sc  Sc1  1  1.00000002  0.17593599  0.67593597  1
  Sc  Sc2  1  -0.00000000  0.32406399  0.17593599  1
  Sc  Sc3  1  0.00000000  0.67593597  0.82406397  1
  V  V4  1  0.00000000  0.49999998  0.49999998  1
  V  V5  1  0.00000000  0.00000000  0.00000000  1
  B  B6  1  1.00000002  0.62378997  0.12378999  1
  B  B7  1  -0.00000000  0.37620998  0.87620996  1
  B  B8  1  0.00000000  0.12378999  0.37620998  1
  B  B9  1  0.00000000  0.87620996  0.62378997  1
  Ir  Ir10  1  0.50000001  0.49999998  0.00000000  1
  Ir  Ir11  1  0.50000001  0.00000000  0.49999998  1
  Ir  Ir12  1  0.50000001  0.71358497  0.57209498  1
  Ir  Ir13  1  0.50000001  0.28641499  0.42790498  1
  Ir  Ir14  1  0.50000001  0.21358499  0.92790496  1
  Ir  Ir15  1  0.50000001  0.78641497  0.07209500  1
  Ir  Ir16  1  0.50000001  0.42790498  0.71358497  1
  Ir  Ir17  1  0.50000001  0.57209498  0.28641499  1
  Ir  Ir18  1  0.50000001  0.07209500  0.21358499  1
  Ir  Ir19  1  0.50000001  0.92790496  0.78641497  1
