# generated using pymatgen
data_LiMn3O4
_symmetry_space_group_name_H-M   'P 1'
_cell_length_a   5.26094103
_cell_length_b   6.12252378
_cell_length_c   6.23134995
_cell_angle_alpha   61.42379761
_cell_angle_beta   76.25157166
_cell_angle_gamma   74.54926300
_symmetry_Int_Tables_number   1
_chemical_formula_structural   LiMn3O4
_chemical_formula_sum   'Li2 Mn6 O8'
_cell_volume   168.44582850
_cell_formula_units_Z   2
loop_
 _symmetry_equiv_pos_site_id
 _symmetry_equiv_pos_as_xyz
  1  'x, y, z'
loop_
 _atom_site_type_symbol
 _atom_site_label
 _atom_site_symmetry_multiplicity
 _atom_site_fract_x
 _atom_site_fract_y
 _atom_site_fract_z
 _atom_site_occupancy
  Li  Li0  1  0.01433100  0.47941601  0.01104400  1
  Li  Li1  1  0.98573699  0.02061900  0.48882995  1
  Mn  Mn2  1  0.00698400  0.99674003  0.00325800  1
  Mn  Mn3  1  0.99320799  0.50318602  0.49649895  1
  Mn  Mn4  1  0.49984099  0.25013701  0.24990198  1
  Mn  Mn5  1  0.49967499  0.74980902  0.25037698  1
  Mn  Mn6  1  0.49984399  0.25026401  0.75002297  1
  Mn  Mn7  1  0.50003199  0.74982602  0.75034497  1
  O  O8  1  0.74015299  0.37283501  0.36047396  1
  O  O9  1  0.72767499  0.91165303  0.86497496  1
  O  O10  1  0.27231199  0.58829702  0.63520698  1
  O  O11  1  0.25994800  0.12718900  0.13929999  1
  O  O12  1  0.24721699  0.60542002  0.13406399  1
  O  O13  1  0.25784900  0.13032600  0.64007198  1
  O  O14  1  0.74224199  0.36970901  0.85966595  1
  O  O15  1  0.75295299  0.89457603  0.36596496  1
