# generated using pymatgen
data_Mn3OF5
_symmetry_space_group_name_H-M   'P 1'
_cell_length_a   5.85634089
_cell_length_b   5.87383080
_cell_length_c   7.72521067
_cell_angle_alpha   72.31034851
_cell_angle_beta   72.11537933
_cell_angle_gamma   70.60481262
_symmetry_Int_Tables_number   1
_chemical_formula_structural   Mn3OF5
_chemical_formula_sum   'Mn6 O2 F10'
_cell_volume   232.43673198
_cell_formula_units_Z   2
loop_
 _symmetry_equiv_pos_site_id
 _symmetry_equiv_pos_as_xyz
  1  'x, y, z'
loop_
 _atom_site_type_symbol
 _atom_site_label
 _atom_site_symmetry_multiplicity
 _atom_site_fract_x
 _atom_site_fract_y
 _atom_site_fract_z
 _atom_site_occupancy
  Mn  Mn0  1  0.00000000  0.00000000  0.00000000  1
  Mn  Mn1  1  0.36903803  0.30418500  0.16159197  1
  Mn  Mn2  1  0.00000000  0.00000000  0.50000001  1
  Mn  Mn3  1  0.32734603  0.31885500  0.67499898  1
  Mn  Mn4  1  0.67265406  0.68114499  0.32500094  1
  Mn  Mn5  1  0.63096206  0.69581499  0.83840795  1
  O  O6  1  0.67068402  0.01702700  0.15789098  1
  O  O7  1  0.32931607  0.98297299  0.84210894  1
  F  F8  1  0.05844604  0.61917999  0.16182796  1
  F  F9  1  0.69862804  0.31845600  0.49206896  1
  F  F10  1  0.75890007  0.77230399  0.53939993  1
  F  F11  1  0.10746901  0.09365300  0.19942099  1
  F  F12  1  0.43280804  0.43381999  0.86599997  1
  F  F13  1  0.56719205  0.56617999  0.13399995  1
  F  F14  1  0.89253108  0.90634699  0.80057892  1
  F  F15  1  0.24110002  0.22769600  0.46059999  1
  F  F16  1  0.30137205  0.68154399  0.50793096  1
  F  F17  1  0.94155405  0.38082000  0.83817196  1
