# generated using pymatgen
data_HgS
_symmetry_space_group_name_H-M   'P 1'
_cell_length_a   5.88274002
_cell_length_b   5.88274002
_cell_length_c   11.76904964
_cell_angle_alpha   90.00000000
_cell_angle_beta   90.00000000
_cell_angle_gamma   90.00000000
_symmetry_Int_Tables_number   1
_chemical_formula_structural   HgS
_chemical_formula_sum   'Hg7 S7'
_cell_volume   407.28714828
_cell_formula_units_Z   7
loop_
 _symmetry_equiv_pos_site_id
 _symmetry_equiv_pos_as_xyz
  1  'x, y, z'
loop_
 _atom_site_type_symbol
 _atom_site_label
 _atom_site_symmetry_multiplicity
 _atom_site_fract_x
 _atom_site_fract_y
 _atom_site_fract_z
 _atom_site_occupancy
  Hg  Hg0  1  0.00000000  0.50000000  0.25907101  1
  Hg  Hg1  1  0.50000000  0.00000000  0.74092902  1
  Hg  Hg2  1  0.00000000  0.50000000  0.74092902  1
  Hg  Hg3  1  0.50000000  0.00000000  0.25907101  1
  Hg  Hg4  1  0.00000000  0.00000000  0.00000000  1
  Hg  Hg5  1  0.50000000  0.50000000  0.50000002  1
  Hg  Hg6  1  0.27299000  0.27299000  0.11434800  1
  S  S7  1  0.72701000  0.72701000  0.11434800  1
  S  S8  1  0.27299000  0.72701000  0.88565203  1
  S  S9  1  0.72701000  0.27299000  0.88565203  1
  S  S10  1  0.24565500  0.24565500  0.60754202  1
  S  S11  1  0.75434500  0.75434500  0.60754202  1
  S  S12  1  0.24565500  0.75434500  0.39245801  1
  S  S13  1  0.75434500  0.24565500  0.39245801  1
