# generated using pymatgen
data_Ca2NiWO6
_symmetry_space_group_name_H-M   'P 1'
_cell_length_a   5.36553478
_cell_length_b   5.73874521
_cell_length_c   7.71885395
_cell_angle_alpha   90.00000000
_cell_angle_beta   89.63254547
_cell_angle_gamma   90.00000000
_symmetry_Int_Tables_number   1
_chemical_formula_structural   Ca2NiWO6
_chemical_formula_sum   'Ca4 Ni2 W2 O12'
_cell_volume   237.66971768
_cell_formula_units_Z   2
loop_
 _symmetry_equiv_pos_site_id
 _symmetry_equiv_pos_as_xyz
  1  'x, y, z'
loop_
 _atom_site_type_symbol
 _atom_site_label
 _atom_site_symmetry_multiplicity
 _atom_site_fract_x
 _atom_site_fract_y
 _atom_site_fract_z
 _atom_site_occupancy
  Ca  Ca0  1  0.02204300  0.42866298  0.25294699  1
  Ca  Ca1  1  0.97795698  0.57133698  0.74705295  1
  Ca  Ca2  1  0.47795699  0.92866297  0.24705298  1
  Ca  Ca3  1  0.52204299  0.07133700  0.75294696  1
  Ni  Ni4  1  0.00000000  0.00000000  0.49999999  1
  Ni  Ni5  1  0.49999999  0.49999998  -0.00000002  1
  W  W6  1  0.00000000  0.00000000  0.00000000  1
  W  W7  1  0.49999999  0.49999998  0.49999997  1
  O  O8  1  0.88324198  0.04460900  0.24729396  1
  O  O9  1  0.11675800  0.95539096  0.75270598  1
  O  O10  1  0.61675799  0.54460898  0.25270597  1
  O  O11  1  0.38324199  0.45539098  0.74729397  1
  O  O12  1  0.18532600  0.70338097  0.06334199  1
  O  O13  1  0.81467398  0.29661899  0.93665795  1
  O  O14  1  0.31467399  0.20338099  0.43665798  1
  O  O15  1  0.68532599  0.79661897  0.56334196  1
  O  O16  1  0.30811199  0.19192899  0.05341299  1
  O  O17  1  0.69188799  0.80807097  0.94658695  1
  O  O18  1  0.19188800  0.69192897  0.44658698  1
  O  O19  1  0.80811198  0.30807099  0.55341296  1
