# generated using pymatgen
data_Nd(Al2Fe)4
_symmetry_space_group_name_H-M   'P 1'
_cell_length_a   5.15093517
_cell_length_b   6.72711229
_cell_length_c   6.72711277
_cell_angle_alpha   81.57160950
_cell_angle_beta   67.48973846
_cell_angle_gamma   67.48974609
_symmetry_Int_Tables_number   1
_chemical_formula_structural   Nd(Al2Fe)4
_chemical_formula_sum   'Nd1 Al8 Fe4'
_cell_volume   198.93432879
_cell_formula_units_Z   1
loop_
 _symmetry_equiv_pos_site_id
 _symmetry_equiv_pos_as_xyz
  1  'x, y, z'
loop_
 _atom_site_type_symbol
 _atom_site_label
 _atom_site_symmetry_multiplicity
 _atom_site_fract_x
 _atom_site_fract_y
 _atom_site_fract_z
 _atom_site_occupancy
  Nd  Nd0  1  0.00000000  0.00000000  0.00000000  1
  Al  Al1  1  0.49999997  0.00000000  0.50000002  1
  Al  Al2  1  0.00000000  0.00000000  0.50000000  1
  Al  Al3  1  0.50000000  0.50000000  0.00000005  1
  Al  Al4  1  0.00000002  0.50000000  0.00000003  1
  Al  Al5  1  0.33666401  0.66333599  0.66333605  1
  Al  Al6  1  0.66333598  0.33666400  0.33666405  1
  Al  Al7  1  0.00000003  0.66333599  0.33666403  1
  Al  Al8  1  0.00000002  0.33666400  0.66333602  1
  Fe  Fe9  1  0.27474600  0.22525400  0.22525402  1
  Fe  Fe10  1  0.72525400  0.77474599  0.77474607  1
  Fe  Fe11  1  0.49999998  0.22525400  0.77474603  1
  Fe  Fe12  1  0.50000001  0.77474599  0.22525406  1
