# generated using pymatgen
data_CsUMnSe3
_symmetry_space_group_name_H-M   'P 1'
_cell_length_a   4.10802984
_cell_length_b   8.38403130
_cell_length_c   10.86332607
_cell_angle_alpha   90.00000000
_cell_angle_beta   90.00000000
_cell_angle_gamma   104.18132019
_symmetry_Int_Tables_number   1
_chemical_formula_structural   CsUMnSe3
_chemical_formula_sum   'Cs2 U2 Mn2 Se6'
_cell_volume   362.75084373
_cell_formula_units_Z   2
loop_
 _symmetry_equiv_pos_site_id
 _symmetry_equiv_pos_as_xyz
  1  'x, y, z'
loop_
 _atom_site_type_symbol
 _atom_site_label
 _atom_site_symmetry_multiplicity
 _atom_site_fract_x
 _atom_site_fract_y
 _atom_site_fract_z
 _atom_site_occupancy
  Cs  Cs0  1  0.74036300  0.48072599  0.25000000  1
  Cs  Cs1  1  0.25963698  0.51927398  0.74999999  1
  U  U2  1  0.00000000  0.00000000  0.50000000  1
  U  U3  1  0.00000000  0.00000000  0.00000000  1
  Mn  Mn4  1  0.53383802  0.06767600  0.74999999  1
  Mn  Mn5  1  0.46616196  0.93232397  0.25000000  1
  Se  Se6  1  0.05289100  0.10578200  0.25000000  1
  Se  Se7  1  0.94710898  0.89421797  0.74999999  1
  Se  Se8  1  0.38568697  0.77137398  0.06519000  1
  Se  Se9  1  0.61431301  0.22862599  0.93480999  1
  Se  Se10  1  0.61431301  0.22862599  0.56519000  1
  Se  Se11  1  0.38568697  0.77137398  0.43481000  1
