# generated using pymatgen
data_Ce5Si3C
_symmetry_space_group_name_H-M   'P 1'
_cell_length_a   6.49644709
_cell_length_b   8.54581833
_cell_length_c   8.54581833
_cell_angle_alpha   60.00000000
_cell_angle_beta   90.00000000
_cell_angle_gamma   90.00000000
_symmetry_Int_Tables_number   1
_chemical_formula_structural   Ce5Si3C
_chemical_formula_sum   'Ce10 Si6 C2'
_cell_volume   410.87890953
_cell_formula_units_Z   2
loop_
 _symmetry_equiv_pos_site_id
 _symmetry_equiv_pos_as_xyz
  1  'x, y, z'
loop_
 _atom_site_type_symbol
 _atom_site_label
 _atom_site_symmetry_multiplicity
 _atom_site_fract_x
 _atom_site_fract_y
 _atom_site_fract_z
 _atom_site_occupancy
  Ce  Ce0  1  0.00000000  0.66666665  0.66666665  1
  Ce  Ce1  1  0.00000000  0.33333333  0.33333333  1
  Ce  Ce2  1  0.49999999  0.33333333  0.33333333  1
  Ce  Ce3  1  0.49999999  0.66666665  0.66666665  1
  Ce  Ce4  1  0.25000000  0.22245600  -0.00000001  1
  Ce  Ce5  1  0.25000000  0.00000000  0.77754401  1
  Ce  Ce6  1  0.25000000  0.77754398  0.22245598  1
  Ce  Ce7  1  0.74999999  0.77754398  -0.00000003  1
  Ce  Ce8  1  0.74999999  0.00000000  0.22245600  1
  Ce  Ce9  1  0.74999999  0.22245600  0.77754400  1
  Si  Si10  1  0.25000000  0.59172999  -0.00000002  1
  Si  Si11  1  0.25000000  0.00000000  0.40827001  1
  Si  Si12  1  0.25000000  0.40826999  0.59172999  1
  Si  Si13  1  0.74999999  0.40826999  -0.00000001  1
  Si  Si14  1  0.74999999  0.00000000  0.59173001  1
  Si  Si15  1  0.74999999  0.59172999  0.40826999  1
  C  C16  1  0.00000000  0.00000000  0.00000000  1
  C  C17  1  0.49999999  0.00000000  0.00000000  1
