# generated using pymatgen
data_BaBi3
_symmetry_space_group_name_H-M   'P 1'
_cell_length_a   5.07293081
_cell_length_b   5.07293081
_cell_length_c   9.84826088
_cell_angle_alpha   90.00000000
_cell_angle_beta   90.00000000
_cell_angle_gamma   90.00000000
_symmetry_Int_Tables_number   1
_chemical_formula_structural   BaBi3
_chemical_formula_sum   'Ba2 Bi6'
_cell_volume   253.44132065
_cell_formula_units_Z   2
loop_
 _symmetry_equiv_pos_site_id
 _symmetry_equiv_pos_as_xyz
  1  'x, y, z'
loop_
 _atom_site_type_symbol
 _atom_site_label
 _atom_site_symmetry_multiplicity
 _atom_site_fract_x
 _atom_site_fract_y
 _atom_site_fract_z
 _atom_site_occupancy
  Ba  Ba0  1  0.00000000  0.00000000  0.50000001  1
  Ba  Ba1  1  0.00000000  0.00000000  0.00000000  1
  Bi  Bi2  1  0.50000002  0.00000000  0.24577800  1
  Bi  Bi3  1  0.50000002  0.00000000  0.75422201  1
  Bi  Bi4  1  0.00000000  0.50000002  0.24577800  1
  Bi  Bi5  1  0.00000000  0.50000002  0.75422201  1
  Bi  Bi6  1  0.50000002  0.50000002  0.00000000  1
  Bi  Bi7  1  0.50000002  0.50000002  0.50000001  1
