# generated using pymatgen
data_Ta4BeBC3
_symmetry_space_group_name_H-M   'P 1'
_cell_length_a   3.33529806
_cell_length_b   3.33529806
_cell_length_c   22.16093636
_cell_angle_alpha   90.00000000
_cell_angle_beta   90.00000000
_cell_angle_gamma   120.00000000
_symmetry_Int_Tables_number   1
_chemical_formula_structural   Ta4BeBC3
_chemical_formula_sum   'Ta8 Be2 B2 C6'
_cell_volume   213.49516313
_cell_formula_units_Z   2
loop_
 _symmetry_equiv_pos_site_id
 _symmetry_equiv_pos_as_xyz
  1  'x, y, z'
loop_
 _atom_site_type_symbol
 _atom_site_label
 _atom_site_symmetry_multiplicity
 _atom_site_fract_x
 _atom_site_fract_y
 _atom_site_fract_z
 _atom_site_occupancy
  Ta  Ta0  1  0.33333335  0.66666670  0.94234798  1
  Ta  Ta1  1  0.66666667  0.33333335  0.05765200  1
  Ta  Ta2  1  0.66666667  0.33333335  0.44234799  1
  Ta  Ta3  1  0.33333335  0.66666670  0.55765199  1
  Ta  Ta4  1  0.00000000  0.00000000  0.84152799  1
  Ta  Ta5  1  0.00000000  0.00000000  0.65847299  1
  Ta  Ta6  1  0.00000000  0.00000000  0.15847300  1
  Ta  Ta7  1  0.00000000  0.00000000  0.34152699  1
  Be  Be8  1  0.33333335  0.66666670  0.25000000  1
  Be  Be9  1  0.66666667  0.33333335  0.74999999  1
  B  B10  1  0.33333335  0.66666670  0.37324399  1
  B  B11  1  0.66666667  0.33333335  0.62675599  1
  C  C12  1  0.00000000  0.00000000  0.74999999  1
  C  C13  1  0.66666667  0.33333335  0.87324399  1
  C  C14  1  0.00000000  0.00000000  0.00000000  1
  C  C15  1  0.33333335  0.66666670  0.12675600  1
  C  C16  1  0.00000000  0.00000000  0.49999999  1
  C  C17  1  0.00000000  0.00000000  0.25000000  1
