# generated using pymatgen
data_Yb(EuSi)2
_symmetry_space_group_name_H-M   'P 1'
_cell_length_a   5.88002014
_cell_length_b   5.90638876
_cell_length_c   8.40391064
_cell_angle_alpha   102.27793121
_cell_angle_beta   90.00000000
_cell_angle_gamma   119.85242462
_symmetry_Int_Tables_number   1
_chemical_formula_structural   Yb(EuSi)2
_chemical_formula_sum   'Yb2 Eu4 Si4'
_cell_volume   245.41080210
_cell_formula_units_Z   2
loop_
 _symmetry_equiv_pos_site_id
 _symmetry_equiv_pos_as_xyz
  1  'x, y, z'
loop_
 _atom_site_type_symbol
 _atom_site_label
 _atom_site_symmetry_multiplicity
 _atom_site_fract_x
 _atom_site_fract_y
 _atom_site_fract_z
 _atom_site_occupancy
  Eu  Eu0  1  0.20861696  0.70429098  0.35221302  1
  Eu  Eu1  1  0.50432597  0.29570899  0.14778701  1
  Eu  Eu2  1  0.79138297  0.29570899  0.64778700  1
  Eu  Eu3  1  0.49567396  0.70429098  0.85221301  1
  Yb  Yb4  1  0.85394998  0.00000000  0.25000000  1
  Yb  Yb5  1  0.14605000  0.00000000  0.74999999  1
  Si  Si6  1  0.99958496  0.27358499  0.00261001  1
  Si  Si7  1  0.72599995  0.72641498  0.49739002  1
  Si  Si8  1  0.00041497  0.72641498  0.99739001  1
  Si  Si9  1  0.27399998  0.27358499  0.50261000  1
