# generated using pymatgen
data_MgVN2
_symmetry_space_group_name_H-M   'P 1'
_cell_length_a   5.23264408
_cell_length_b   5.54573822
_cell_length_c   6.37452793
_cell_angle_alpha   90.00000000
_cell_angle_beta   90.00000000
_cell_angle_gamma   90.00000000
_symmetry_Int_Tables_number   1
_chemical_formula_structural   MgVN2
_chemical_formula_sum   'Mg4 V4 N8'
_cell_volume   184.98162459
_cell_formula_units_Z   4
loop_
 _symmetry_equiv_pos_site_id
 _symmetry_equiv_pos_as_xyz
  1  'x, y, z'
loop_
 _atom_site_type_symbol
 _atom_site_label
 _atom_site_symmetry_multiplicity
 _atom_site_fract_x
 _atom_site_fract_y
 _atom_site_fract_z
 _atom_site_occupancy
  Mg  Mg0  1  0.00175200  0.58890198  0.87888401  1
  Mg  Mg1  1  0.50175199  0.41109798  0.12111600  1
  Mg  Mg2  1  0.50175199  0.91109796  0.37888400  1
  Mg  Mg3  1  0.00175200  0.08890200  0.62111601  1
  V  V4  1  0.99837198  0.57499698  0.37311600  1
  V  V5  1  0.49837199  0.42500298  0.62688401  1
  V  V6  1  0.49837199  0.92500296  0.87311601  1
  V  V7  1  0.99837198  0.07499700  0.12688400  1
  N  N8  1  0.35573099  0.56576298  0.38883000  1
  N  N9  1  0.85573099  0.43423698  0.61117001  1
  N  N10  1  0.85573099  0.93423696  0.88883001  1
  N  N11  1  0.35573099  0.06576300  0.11117000  1
  N  N12  1  0.39414499  0.60314698  0.85988801  1
  N  N13  1  0.89414499  0.39685298  0.14011200  1
  N  N14  1  0.89414499  0.89685296  0.35988800  1
  N  N15  1  0.39414499  0.10314700  0.64011201  1
