# generated using pymatgen
data_Sr2Cu2O5
_symmetry_space_group_name_H-M   'P 1'
_cell_length_a   3.92537403
_cell_length_b   5.48569679
_cell_length_c   10.54424763
_cell_angle_alpha   90.00000000
_cell_angle_beta   90.00000000
_cell_angle_gamma   90.00000000
_symmetry_Int_Tables_number   1
_chemical_formula_structural   Sr2Cu2O5
_chemical_formula_sum   'Sr4 Cu4 O10'
_cell_volume   227.05362556
_cell_formula_units_Z   2
loop_
 _symmetry_equiv_pos_site_id
 _symmetry_equiv_pos_as_xyz
  1  'x, y, z'
loop_
 _atom_site_type_symbol
 _atom_site_label
 _atom_site_symmetry_multiplicity
 _atom_site_fract_x
 _atom_site_fract_y
 _atom_site_fract_z
 _atom_site_occupancy
  Sr  Sr0  1  0.50000000  0.19408301  0.86299703  1
  Sr  Sr1  1  0.50000000  0.80591703  0.13700300  1
  Sr  Sr2  1  0.50000000  0.69408303  0.63700302  1
  Sr  Sr3  1  0.50000000  0.30591701  0.36299701  1
  Cu  Cu4  1  -0.00000000  0.20378501  0.60495702  1
  Cu  Cu5  1  -0.00000000  0.79621503  0.39504301  1
  Cu  Cu6  1  0.00000000  0.70378503  0.89504303  1
  Cu  Cu7  1  0.00000000  0.29621501  0.10495700  1
  O  O8  1  0.00000000  0.50000002  0.50000002  1
  O  O9  1  0.00000000  0.00000000  0.00000000  1
  O  O10  1  0.00000000  0.41690302  0.79067903  1
  O  O11  1  -0.00000000  0.58309702  0.20932101  1
  O  O12  1  0.00000000  0.91690303  0.70932103  1
  O  O13  1  0.00000000  0.08309700  0.29067901  1
  O  O14  1  0.50000000  0.21422201  0.60413802  1
  O  O15  1  0.50000000  0.78577803  0.39586201  1
  O  O16  1  0.50000000  0.28577801  0.10413800  1
  O  O17  1  0.50000000  0.71422203  0.89586203  1
