# generated using pymatgen
data_Al
_symmetry_space_group_name_H-M   'P 1'
_cell_length_a   4.92780209
_cell_length_b   7.29171705
_cell_length_c   7.29171705
_cell_angle_alpha   83.64203644
_cell_angle_beta   70.25077057
_cell_angle_gamma   70.25077057
_symmetry_Int_Tables_number   1
_chemical_formula_structural   Al
_chemical_formula_sum   Al16
_cell_volume   232.08950154
_cell_formula_units_Z   16
loop_
 _symmetry_equiv_pos_site_id
 _symmetry_equiv_pos_as_xyz
  1  'x, y, z'
loop_
 _atom_site_type_symbol
 _atom_site_label
 _atom_site_symmetry_multiplicity
 _atom_site_fract_x
 _atom_site_fract_y
 _atom_site_fract_z
 _atom_site_occupancy
  Al  Al0  1  0.24999999  0.00000000  0.00000001  1
  Al  Al1  1  0.74999998  0.00000000  0.00000002  1
  Al  Al2  1  0.16620403  0.50194199  0.16564897  1
  Al  Al3  1  0.83379601  0.49805799  0.83435099  1
  Al  Al4  1  0.33379505  0.83435099  0.49805796  1
  Al  Al5  1  0.66620499  0.16564900  0.50194200  1
  Al  Al6  1  0.57791204  0.69767699  0.14649797  1
  Al  Al7  1  0.42208801  0.30232300  0.85350199  1
  Al  Al8  1  0.07791301  0.14649800  0.69767699  1
  Al  Al9  1  0.92208704  0.85350199  0.30232297  1
  Al  Al10  1  0.75000002  0.49999999  0.49999999  1
  Al  Al11  1  0.25000003  0.49999999  0.49999998  1
  Al  Al12  1  0.72535304  0.85061099  0.69868297  1
  Al  Al13  1  0.27464700  0.14938900  0.30131700  1
  Al  Al14  1  0.77464700  0.30131700  0.14938900  1
  Al  Al15  1  0.22535305  0.69868299  0.85061096  1
