# generated using pymatgen
data_Lu3Ni2Ge3
_symmetry_space_group_name_H-M   'P 1'
_cell_length_a   4.15733624
_cell_length_b   5.45660877
_cell_length_c   13.83636665
_cell_angle_alpha   90.00000000
_cell_angle_beta   90.00000000
_cell_angle_gamma   112.39223480
_symmetry_Int_Tables_number   1
_chemical_formula_structural   Lu3Ni2Ge3
_chemical_formula_sum   'Lu6 Ni4 Ge6'
_cell_volume   290.21030161
_cell_formula_units_Z   2
loop_
 _symmetry_equiv_pos_site_id
 _symmetry_equiv_pos_as_xyz
  1  'x, y, z'
loop_
 _atom_site_type_symbol
 _atom_site_label
 _atom_site_symmetry_multiplicity
 _atom_site_fract_x
 _atom_site_fract_y
 _atom_site_fract_z
 _atom_site_occupancy
  Lu  Lu0  1  0.41334604  0.82669204  0.39062701  1
  Lu  Lu1  1  0.58665398  0.17330801  0.60937302  1
  Lu  Lu2  1  0.58665398  0.17330801  0.89062702  1
  Lu  Lu3  1  0.41334604  0.82669204  0.10937300  1
  Lu  Lu4  1  0.86392201  0.72784403  0.75000002  1
  Lu  Lu5  1  0.13607801  0.27215601  0.25000001  1
  Ni  Ni6  1  0.70215499  0.40431002  0.39940501  1
  Ni  Ni7  1  0.29784503  0.59569003  0.60059502  1
  Ni  Ni8  1  0.29784503  0.59569003  0.89940502  1
  Ni  Ni9  1  0.70215499  0.40431002  0.10059500  1
  Ge  Ge10  1  0.12235301  0.24470601  0.46158901  1
  Ge  Ge11  1  0.87764701  0.75529404  0.53841101  1
  Ge  Ge12  1  0.83985400  0.67970803  0.25000001  1
  Ge  Ge13  1  0.16014602  0.32029202  0.75000002  1
  Ge  Ge14  1  0.12235301  0.24470601  0.03841100  1
  Ge  Ge15  1  0.87764701  0.75529404  0.96158902  1
