# generated using pymatgen
data_LaCeO4
_symmetry_space_group_name_H-M   'P 1'
_cell_length_a   3.95255828
_cell_length_b   3.95255828
_cell_length_c   6.89060450
_cell_angle_alpha   73.33306885
_cell_angle_beta   73.33306885
_cell_angle_gamma   59.99999619
_symmetry_Int_Tables_number   1
_chemical_formula_structural   LaCeO4
_chemical_formula_sum   'La1 Ce1 O4'
_cell_volume   87.96664195
_cell_formula_units_Z   1
loop_
 _symmetry_equiv_pos_site_id
 _symmetry_equiv_pos_as_xyz
  1  'x, y, z'
loop_
 _atom_site_type_symbol
 _atom_site_label
 _atom_site_symmetry_multiplicity
 _atom_site_fract_x
 _atom_site_fract_y
 _atom_site_fract_z
 _atom_site_occupancy
  La  La0  1  0.75742101  0.75742099  0.72773702  1
  Ce  Ce1  1  0.24257900  0.24257900  0.27226301  1
  O  O2  1  0.87637202  0.87637199  0.37088402  1
  O  O3  1  0.12362800  0.12362800  0.62911600  1
  O  O4  1  0.37162401  0.37162400  0.88512801  1
  O  O5  1  0.62837601  0.62837599  0.11487201  1
