# generated using pymatgen
data_YAlCo
_symmetry_space_group_name_H-M   'P 1'
_cell_length_a   5.31312704
_cell_length_b   5.31320763
_cell_length_c   8.69144630
_cell_angle_alpha   90.00000000
_cell_angle_beta   90.00000000
_cell_angle_gamma   119.08066559
_symmetry_Int_Tables_number   1
_chemical_formula_structural   YAlCo
_chemical_formula_sum   'Y4 Al4 Co4'
_cell_volume   214.42667497
_cell_formula_units_Z   4
loop_
 _symmetry_equiv_pos_site_id
 _symmetry_equiv_pos_as_xyz
  1  'x, y, z'
loop_
 _atom_site_type_symbol
 _atom_site_label
 _atom_site_symmetry_multiplicity
 _atom_site_fract_x
 _atom_site_fract_y
 _atom_site_fract_z
 _atom_site_occupancy
  Y  Y0  1  0.33404796  0.66596599  0.55466698  1
  Y  Y1  1  0.66833296  0.33168899  0.42623699  1
  Y  Y2  1  0.66833296  0.33168899  0.07376300  1
  Y  Y3  1  0.33404796  0.66596599  0.94533297  1
  Al  Al4  1  0.99522396  0.00483400  0.48383998  1
  Al  Al5  1  0.99522396  0.00483400  0.01616000  1
  Al  Al6  1  0.33993698  0.16574000  0.74999997  1
  Al  Al7  1  0.83426194  0.66010299  0.74999997  1
  Co  Co8  1  0.83342396  0.16661300  0.74999997  1
  Co  Co9  1  0.64271994  0.81904799  0.24999999  1
  Co  Co10  1  0.18082598  0.35714799  0.24999999  1
  Co  Co11  1  0.17362096  0.82636899  0.24999999  1
