# generated using pymatgen
data_Mn5O4F9
_symmetry_space_group_name_H-M   'P 1'
_cell_length_a   4.66472387
_cell_length_b   5.66668987
_cell_length_c   7.87869453
_cell_angle_alpha   85.96365356
_cell_angle_beta   88.79196930
_cell_angle_gamma   88.55907440
_symmetry_Int_Tables_number   1
_chemical_formula_structural   Mn5O4F9
_chemical_formula_sum   'Mn5 O4 F9'
_cell_volume   207.64059886
_cell_formula_units_Z   1
loop_
 _symmetry_equiv_pos_site_id
 _symmetry_equiv_pos_as_xyz
  1  'x, y, z'
loop_
 _atom_site_type_symbol
 _atom_site_label
 _atom_site_symmetry_multiplicity
 _atom_site_fract_x
 _atom_site_fract_y
 _atom_site_fract_z
 _atom_site_occupancy
  Mn  Mn0  1  0.52003602  0.83170300  0.64877700  1
  Mn  Mn1  1  0.50000002  0.50000000  0.00000001  1
  Mn  Mn2  1  0.47996401  0.16829700  0.35122299  1
  Mn  Mn3  1  0.01509600  0.34027800  0.68521699  1
  Mn  Mn4  1  0.98490403  0.65972200  0.31478300  1
  O  O5  1  0.00000000  0.00000000  0.00000000  1
  O  O6  1  0.80817503  0.71024700  0.09160701  1
  O  O7  1  0.68862402  0.53858000  0.76532199  1
  O  O8  1  0.70801502  0.87499600  0.42630800  1
  F  F9  1  0.29198501  0.12500400  0.57369199  1
  F  F10  1  0.31137601  0.46142000  0.23467800  1
  F  F11  1  0.19182501  0.28975300  0.90839298  1
  F  F12  1  0.80202402  0.36689900  0.44289000  1
  F  F13  1  0.79408902  0.03834100  0.77192098  1
  F  F14  1  0.70274802  0.19727300  0.11226900  1
  F  F15  1  0.29725201  0.80272700  0.88773099  1
  F  F16  1  0.20591101  0.96165900  0.22807901  1
  F  F17  1  0.19797601  0.63310100  0.55710999  1
