# generated using pymatgen
data_Al2N
_symmetry_space_group_name_H-M   'P 1'
_cell_length_a   4.32056713
_cell_length_b   4.75226021
_cell_length_c   4.75226021
_cell_angle_alpha   60.00000000
_cell_angle_beta   90.00000000
_cell_angle_gamma   90.00000000
_symmetry_Int_Tables_number   1
_chemical_formula_structural   Al2N
_chemical_formula_sum   'Al6 N3'
_cell_volume   84.50293894
_cell_formula_units_Z   3
loop_
 _symmetry_equiv_pos_site_id
 _symmetry_equiv_pos_as_xyz
  1  'x, y, z'
loop_
 _atom_site_type_symbol
 _atom_site_label
 _atom_site_symmetry_multiplicity
 _atom_site_fract_x
 _atom_site_fract_y
 _atom_site_fract_z
 _atom_site_occupancy
  Al  Al0  1  0.25200299  0.33025599  0.66974398  1
  Al  Al1  1  0.25200299  0.00000000  0.33025599  1
  Al  Al2  1  0.25200299  0.66974398  0.99999997  1
  Al  Al3  1  0.74799698  0.33025599  -0.00000000  1
  Al  Al4  1  0.74799698  0.66974398  0.33025598  1
  Al  Al5  1  0.74799698  0.00000000  0.66974398  1
  N  N6  1  0.49999998  0.66666664  0.66666664  1
  N  N7  1  0.49999998  0.33333332  0.33333332  1
  N  N8  1  0.00000000  0.00000000  0.00000000  1
