# generated using pymatgen
data_YRu2
_symmetry_space_group_name_H-M   'P 1'
_cell_length_a   5.32261181
_cell_length_b   5.32261276
_cell_length_c   8.81031036
_cell_angle_alpha   90.00000000
_cell_angle_beta   90.00000000
_cell_angle_gamma   119.99999237
_symmetry_Int_Tables_number   1
_chemical_formula_structural   YRu2
_chemical_formula_sum   'Y4 Ru8'
_cell_volume   216.15811126
_cell_formula_units_Z   4
loop_
 _symmetry_equiv_pos_site_id
 _symmetry_equiv_pos_as_xyz
  1  'x, y, z'
loop_
 _atom_site_type_symbol
 _atom_site_label
 _atom_site_symmetry_multiplicity
 _atom_site_fract_x
 _atom_site_fract_y
 _atom_site_fract_z
 _atom_site_occupancy
  Y  Y0  1  0.66666667  0.33333332  0.56520098  1
  Y  Y1  1  0.33333330  0.66666664  0.43479898  1
  Y  Y2  1  0.33333330  0.66666664  0.06520100  1
  Y  Y3  1  0.66666667  0.33333332  0.93479896  1
  Ru  Ru4  1  0.00000000  0.00000000  0.49999998  1
  Ru  Ru5  1  0.00000000  0.00000000  0.00000000  1
  Ru  Ru6  1  0.17260998  0.34521998  0.74999997  1
  Ru  Ru7  1  0.17260995  0.82738996  0.74999997  1
  Ru  Ru8  1  0.65477997  0.82738996  0.74999997  1
  Ru  Ru9  1  0.82738999  0.65477997  0.24999999  1
  Ru  Ru10  1  0.82739002  0.17260999  0.24999999  1
  Ru  Ru11  1  0.34522000  0.17260999  0.24999999  1
