# generated using pymatgen
data_In2Pd
_symmetry_space_group_name_H-M   'P 1'
_cell_length_a   4.78229189
_cell_length_b   6.84536123
_cell_length_c   9.63144112
_cell_angle_alpha   90.00000000
_cell_angle_beta   90.00000000
_cell_angle_gamma   89.53527832
_symmetry_Int_Tables_number   1
_chemical_formula_structural   In2Pd
_chemical_formula_sum   'In8 Pd4'
_cell_volume   315.28945014
_cell_formula_units_Z   4
loop_
 _symmetry_equiv_pos_site_id
 _symmetry_equiv_pos_as_xyz
  1  'x, y, z'
loop_
 _atom_site_type_symbol
 _atom_site_label
 _atom_site_symmetry_multiplicity
 _atom_site_fract_x
 _atom_site_fract_y
 _atom_site_fract_z
 _atom_site_occupancy
  In  In0  1  0.33538704  0.33279200  0.62470799  1
  In  In1  1  0.83538709  0.83279199  0.37529200  1
  In  In2  1  0.49115008  0.75596999  0.62694399  1
  In  In3  1  0.49669803  0.25066100  0.12471300  1
  In  In4  1  0.99115004  0.25597000  0.37305600  1
  In  In5  1  0.99669809  0.75066099  0.87528699  1
  In  In6  1  0.49654308  0.75001299  0.12358700  1
  In  In7  1  0.99654304  0.25001300  0.87641299  1
  Pd  Pd8  1  0.00453409  0.99408699  0.63006399  1
  Pd  Pd9  1  0.50453405  0.49408700  0.36993600  1
  Pd  Pd10  1  0.00908909  0.99977699  0.12036900  1
  Pd  Pd11  1  0.50908905  0.49977700  0.87963099  1
