# generated using pymatgen
data_Tb(GaFe)6
_symmetry_space_group_name_H-M   'P 1'
_cell_length_a   5.05047989
_cell_length_b   6.59346104
_cell_length_c   6.59346104
_cell_angle_alpha   80.69176483
_cell_angle_beta   67.48088837
_cell_angle_gamma   67.48088837
_symmetry_Int_Tables_number   1
_chemical_formula_structural   Tb(GaFe)6
_chemical_formula_sum   'Tb1 Ga6 Fe6'
_cell_volume   187.32790893
_cell_formula_units_Z   1
loop_
 _symmetry_equiv_pos_site_id
 _symmetry_equiv_pos_as_xyz
  1  'x, y, z'
loop_
 _atom_site_type_symbol
 _atom_site_label
 _atom_site_symmetry_multiplicity
 _atom_site_fract_x
 _atom_site_fract_y
 _atom_site_fract_z
 _atom_site_occupancy
  Tb  Tb0  1  0.00000000  0.00000000  0.00000000  1
  Ga  Ga1  1  -0.00000000  0.66593902  0.33406097  1
  Ga  Ga2  1  -0.00000000  0.33406101  0.66593900  1
  Ga  Ga3  1  0.34357301  0.65642702  0.65642697  1
  Ga  Ga4  1  0.65642702  0.34357301  0.34357298  1
  Ga  Ga5  1  0.31852401  0.18147601  0.18147599  1
  Ga  Ga6  1  0.68147602  0.81852403  0.81852396  1
  Fe  Fe7  1  0.50000001  0.24502301  0.75497700  1
  Fe  Fe8  1  0.50000001  0.75497702  0.24502296  1
  Fe  Fe9  1  -0.00000000  0.50000002  -0.00000003  1
  Fe  Fe10  1  0.50000001  0.50000002  -0.00000004  1
  Fe  Fe11  1  0.00000000  0.00000000  0.50000001  1
  Fe  Fe12  1  0.50000002  0.00000000  0.50000000  1
