# generated using pymatgen
data_Sr8Sn7Bi
_symmetry_space_group_name_H-M   'P 1'
_cell_length_a   6.66984606
_cell_length_b   6.67585993
_cell_length_c   13.85016823
_cell_angle_alpha   101.24237061
_cell_angle_beta   101.22141266
_cell_angle_gamma   100.78099823
_symmetry_Int_Tables_number   1
_chemical_formula_structural   Sr8Sn7Bi
_chemical_formula_sum   'Sr8 Sn7 Bi1'
_cell_volume   576.85503022
_cell_formula_units_Z   1
loop_
 _symmetry_equiv_pos_site_id
 _symmetry_equiv_pos_as_xyz
  1  'x, y, z'
loop_
 _atom_site_type_symbol
 _atom_site_label
 _atom_site_symmetry_multiplicity
 _atom_site_fract_x
 _atom_site_fract_y
 _atom_site_fract_z
 _atom_site_occupancy
  Sr  Sr0  1  0.91861900  0.22012700  0.63995899  1
  Sr  Sr1  1  0.94566700  0.24444500  0.15497098  1
  Sr  Sr2  1  0.58072000  0.28413100  0.35865399  1
  Sr  Sr3  1  0.04304097  0.84064299  0.34447900  1
  Sr  Sr4  1  0.52647100  0.32917100  0.85781501  1
  Sr  Sr5  1  0.08314697  0.78699299  0.84434001  1
  Sr  Sr6  1  0.48767398  0.69036899  0.65446600  1
  Sr  Sr7  1  0.47475898  0.67450399  0.14293998  1
  Bi  Bi8  1  0.55523398  0.80046499  0.42731699  1
  Sn  Sn9  1  0.64426398  0.89427599  0.93183400  1
  Sn  Sn10  1  0.96561399  0.71521599  0.07041597  1
  Sn  Sn11  1  0.36674100  0.12718300  0.57409800  1
  Sn  Sn12  1  0.37877800  0.12280500  0.07334799  1
  Sn  Sn13  1  0.04443599  0.30348300  0.92595502  1
  Sn  Sn14  1  0.96161399  0.71100399  0.56738198  1
  Sn  Sn15  1  0.14256399  0.39465999  0.42813600  1
