# generated using pymatgen
data_Ba3NbCrSe7
_symmetry_space_group_name_H-M   'P 1'
_cell_length_a   5.09981012
_cell_length_b   5.09981012
_cell_length_c   13.70841694
_cell_angle_alpha   100.72003174
_cell_angle_beta   100.72003174
_cell_angle_gamma   90.00000000
_symmetry_Int_Tables_number   1
_chemical_formula_structural   Ba3NbCrSe7
_chemical_formula_sum   'Ba3 Nb1 Cr1 Se7'
_cell_volume   343.97241148
_cell_formula_units_Z   1
loop_
 _symmetry_equiv_pos_site_id
 _symmetry_equiv_pos_as_xyz
  1  'x, y, z'
loop_
 _atom_site_type_symbol
 _atom_site_label
 _atom_site_symmetry_multiplicity
 _atom_site_fract_x
 _atom_site_fract_y
 _atom_site_fract_z
 _atom_site_occupancy
  Ba  Ba0  1  0.18308499  0.18308499  0.36616999  1
  Ba  Ba1  1  0.81691496  0.81691497  0.63382996  1
  Ba  Ba2  1  0.00000000  0.00000000  0.00000000  1
  Nb  Nb3  1  0.40161598  0.40161599  0.80323197  1
  Cr  Cr4  1  0.59838397  0.59838398  0.19676798  1
  Se  Se5  1  0.40403698  0.90403697  0.80807396  1
  Se  Se6  1  0.90403697  0.40403699  0.80807396  1
  Se  Se7  1  0.59596298  0.09596300  0.19192599  1
  Se  Se8  1  0.09596299  0.59596298  0.19192599  1
  Se  Se9  1  0.69278697  0.69278698  0.38557397  1
  Se  Se10  1  0.49999998  0.49999998  -0.00000001  1
  Se  Se11  1  0.30721299  0.30721299  0.61442598  1
