# generated using pymatgen
data_Sr4Ta3TiO12
_symmetry_space_group_name_H-M   'P 1'
_cell_length_a   5.58451986
_cell_length_b   5.65928984
_cell_length_c   7.92403507
_cell_angle_alpha   90.00000000
_cell_angle_beta   89.90475464
_cell_angle_gamma   90.00000000
_symmetry_Int_Tables_number   1
_chemical_formula_structural   Sr4Ta3TiO12
_chemical_formula_sum   'Sr4 Ta3 Ti1 O12'
_cell_volume   250.43415880
_cell_formula_units_Z   1
loop_
 _symmetry_equiv_pos_site_id
 _symmetry_equiv_pos_as_xyz
  1  'x, y, z'
loop_
 _atom_site_type_symbol
 _atom_site_label
 _atom_site_symmetry_multiplicity
 _atom_site_fract_x
 _atom_site_fract_y
 _atom_site_fract_z
 _atom_site_occupancy
  Sr  Sr0  1  0.50841301  0.46068401  0.74934001  1
  Sr  Sr1  1  0.99158702  0.96068403  0.75066003  1
  Sr  Sr2  1  0.49158701  0.53931602  0.25066002  1
  Sr  Sr3  1  0.00841300  0.03931600  0.24934000  1
  Ta  Ta4  1  0.00000000  0.50000001  -0.00000000  1
  Ta  Ta5  1  0.50000001  0.00000000  0.50000002  1
  Ta  Ta6  1  0.50000001  0.00000000  0.00000002  1
  Ti  Ti7  1  0.00000000  0.50000001  0.49999999  1
  O  O8  1  0.08345300  0.52247202  0.74255799  1
  O  O9  1  0.41654701  0.02247200  0.75744201  1
  O  O10  1  0.91654702  0.47752801  0.25744204  1
  O  O11  1  0.58345301  0.97752803  0.24255802  1
  O  O12  1  0.29715601  0.28261401  0.04575001  1
  O  O13  1  0.20284400  0.78261402  0.45425000  1
  O  O14  1  0.70284402  0.71738602  0.95425002  1
  O  O15  1  0.79715602  0.21738601  0.54575003  1
  O  O16  1  0.78122802  0.20336701  0.95689502  1
  O  O17  1  0.71877202  0.70336702  0.54310503  1
  O  O18  1  0.21877201  0.79663302  0.04310501  1
  O  O19  1  0.28122801  0.29663301  0.45689501  1
