# generated using pymatgen
data_MgHg5
_symmetry_space_group_name_H-M   'P 1'
_cell_length_a   5.60898829
_cell_length_b   5.60898829
_cell_length_c   6.45220327
_cell_angle_alpha   64.23654175
_cell_angle_beta   64.23654175
_cell_angle_gamma   59.99999619
_symmetry_Int_Tables_number   1
_chemical_formula_structural   MgHg5
_chemical_formula_sum   'Mg1 Hg5'
_cell_volume   152.05018570
_cell_formula_units_Z   1
loop_
 _symmetry_equiv_pos_site_id
 _symmetry_equiv_pos_as_xyz
  1  'x, y, z'
loop_
 _atom_site_type_symbol
 _atom_site_label
 _atom_site_symmetry_multiplicity
 _atom_site_fract_x
 _atom_site_fract_y
 _atom_site_fract_z
 _atom_site_occupancy
  Mg  Mg0  1  0.00000000  0.00000000  0.00000000  1
  Hg  Hg1  1  0.84225005  0.15775000  0.49999996  1
  Hg  Hg2  1  0.15775003  0.50000001  0.49999997  1
  Hg  Hg3  1  0.50000007  0.84225002  0.49999993  1
  Hg  Hg4  1  0.66191007  0.66191002  0.01426993  1
  Hg  Hg5  1  0.33809003  0.33809001  0.98572998  1
