# generated using pymatgen
data_Sc5Mn6O9
_symmetry_space_group_name_H-M   'P 1'
_cell_length_a   5.54928780
_cell_length_b   5.60542107
_cell_length_c   6.68407106
_cell_angle_alpha   90.00000000
_cell_angle_beta   90.00000000
_cell_angle_gamma   92.33727264
_symmetry_Int_Tables_number   1
_chemical_formula_structural   Sc5Mn6O9
_chemical_formula_sum   'Sc5 Mn6 O9'
_cell_volume   207.74237798
_cell_formula_units_Z   1
loop_
 _symmetry_equiv_pos_site_id
 _symmetry_equiv_pos_as_xyz
  1  'x, y, z'
loop_
 _atom_site_type_symbol
 _atom_site_label
 _atom_site_symmetry_multiplicity
 _atom_site_fract_x
 _atom_site_fract_y
 _atom_site_fract_z
 _atom_site_occupancy
  Sc  Sc0  1  0.90690404  0.31657701  0.40276300  1
  Sc  Sc1  1  0.59309604  0.68342303  0.90276299  1
  Sc  Sc2  1  0.09309602  0.68342303  0.59723699  1
  Sc  Sc3  1  0.40690402  0.31657701  0.09723700  1
  Mn  Mn4  1  0.72660203  0.05398000  0.16330600  1
  Sc  Sc5  1  0.77339805  0.94602004  0.66330599  1
  Mn  Mn6  1  0.27339803  0.94602004  0.83669399  1
  Mn  Mn7  1  0.22660201  0.05398000  0.33669400  1
  Mn  Mn8  1  0.57450103  0.65007103  0.36229000  1
  Mn  Mn9  1  0.92549904  0.34992901  0.86228999  1
  Mn  Mn10  1  0.42549902  0.34992901  0.63770999  1
  O  O11  1  0.07450102  0.65007103  0.13771000  1
  O  O12  1  0.60363403  0.22856201  0.85115299  1
  O  O13  1  0.89636605  0.77143803  0.35115300  1
  O  O14  1  0.39636603  0.77143803  0.14884700  1
  O  O15  1  0.10363401  0.22856201  0.64884699  1
  O  O16  1  0.54948903  0.30310001  0.37763700  1
  O  O17  1  0.95051105  0.69690003  0.87763699  1
  O  O18  1  0.45051103  0.69690003  0.62236299  1
  O  O19  1  0.04948901  0.30310001  0.12236300  1
