# generated using pymatgen
data_Dy5YTl2
_symmetry_space_group_name_H-M   'P 1'
_cell_length_a   5.54883718
_cell_length_b   6.93169403
_cell_length_c   6.93169308
_cell_angle_alpha   120.00000763
_cell_angle_beta   90.00000000
_cell_angle_gamma   90.00000000
_symmetry_Int_Tables_number   1
_chemical_formula_structural   Dy5YTl2
_chemical_formula_sum   'Dy5 Y1 Tl2'
_cell_volume   230.89327789
_cell_formula_units_Z   1
loop_
 _symmetry_equiv_pos_site_id
 _symmetry_equiv_pos_as_xyz
  1  'x, y, z'
loop_
 _atom_site_type_symbol
 _atom_site_label
 _atom_site_symmetry_multiplicity
 _atom_site_fract_x
 _atom_site_fract_y
 _atom_site_fract_z
 _atom_site_occupancy
  Dy  Dy0  1  0.74999998  0.82634302  0.17365805  1
  Dy  Dy1  1  0.74999998  0.34731501  0.17365802  1
  Y  Y2  1  0.74999998  0.82634302  0.65268605  1
  Dy  Dy3  1  0.24999999  0.17365700  0.82634201  1
  Dy  Dy4  1  0.24999999  0.65268502  0.82634204  1
  Dy  Dy5  1  0.24999999  0.17365700  0.34731401  1
  Tl  Tl6  1  0.24999999  0.66666668  0.33333337  1
  Tl  Tl7  1  0.74999998  0.33333334  0.66666668  1
