# generated using pymatgen
data_La2Ag2S3
_symmetry_space_group_name_H-M   'P 1'
_cell_length_a   4.83503819
_cell_length_b   4.83503819
_cell_length_c   8.72193050
_cell_angle_alpha   106.09179688
_cell_angle_beta   106.09179688
_cell_angle_gamma   90.00000000
_symmetry_Int_Tables_number   1
_chemical_formula_structural   La2Ag2S3
_chemical_formula_sum   'La2 Ag2 S3'
_cell_volume   187.57991679
_cell_formula_units_Z   1
loop_
 _symmetry_equiv_pos_site_id
 _symmetry_equiv_pos_as_xyz
  1  'x, y, z'
loop_
 _atom_site_type_symbol
 _atom_site_label
 _atom_site_symmetry_multiplicity
 _atom_site_fract_x
 _atom_site_fract_y
 _atom_site_fract_z
 _atom_site_occupancy
  La  La0  1  0.67592900  0.67592898  0.35185804  1
  La  La1  1  0.32407100  0.32407099  0.64814202  1
  Ag  Ag2  1  0.49999999  0.00000000  0.00000001  1
  Ag  Ag3  1  0.99999999  0.49999999  1.00000004  1
  S  S4  1  0.86484300  0.86484298  0.72968605  1
  S  S5  1  0.13515700  0.13515700  0.27031401  1
  S  S6  1  0.50000000  0.49999999  1.00000003  1
