# generated using pymatgen
data_Pr4Te5As2
_symmetry_space_group_name_H-M   'P 1'
_cell_length_a   4.36363888
_cell_length_b   4.36363888
_cell_length_c   17.57540321
_cell_angle_alpha   90.00000000
_cell_angle_beta   90.00000000
_cell_angle_gamma   90.00000000
_symmetry_Int_Tables_number   1
_chemical_formula_structural   Pr4Te5As2
_chemical_formula_sum   'Pr4 Te5 As2'
_cell_volume   334.65930303
_cell_formula_units_Z   1
loop_
 _symmetry_equiv_pos_site_id
 _symmetry_equiv_pos_as_xyz
  1  'x, y, z'
loop_
 _atom_site_type_symbol
 _atom_site_label
 _atom_site_symmetry_multiplicity
 _atom_site_fract_x
 _atom_site_fract_y
 _atom_site_fract_z
 _atom_site_occupancy
  Pr  Pr0  1  0.50000001  0.00000000  0.36203500  1
  Pr  Pr1  1  0.50000001  0.00000000  0.87194699  1
  Pr  Pr2  1  -0.00000000  0.50000001  0.12805300  1
  Pr  Pr3  1  -0.00000000  0.50000001  0.63796499  1
  Te  Te4  1  0.50000001  0.00000000  0.18007400  1
  Te  Te5  1  0.50000001  0.00000000  0.68997799  1
  Te  Te6  1  -0.00000000  0.50000001  0.31002200  1
  Te  Te7  1  -0.00000000  0.50000001  0.81992599  1
  As  As8  1  0.50000001  0.50000001  0.49999999  1
  Te  Te9  1  0.00000000  0.00000000  0.00000000  1
  As  As10  1  0.00000000  0.00000000  0.49999999  1
