# generated using pymatgen
data_TbPdO2
_symmetry_space_group_name_H-M   'P 1'
_cell_length_a   3.53956604
_cell_length_b   3.53956604
_cell_length_c   12.66485023
_cell_angle_alpha   90.00000000
_cell_angle_beta   90.00000000
_cell_angle_gamma   120.00000000
_symmetry_Int_Tables_number   1
_chemical_formula_structural   TbPdO2
_chemical_formula_sum   'Tb2 Pd2 O4'
_cell_volume   137.41392020
_cell_formula_units_Z   2
loop_
 _symmetry_equiv_pos_site_id
 _symmetry_equiv_pos_as_xyz
  1  'x, y, z'
loop_
 _atom_site_type_symbol
 _atom_site_label
 _atom_site_symmetry_multiplicity
 _atom_site_fract_x
 _atom_site_fract_y
 _atom_site_fract_z
 _atom_site_occupancy
  Tb  Tb0  1  0.00000000  0.00000000  0.00000000  1
  Tb  Tb1  1  0.00000000  0.00000000  0.49999999  1
  Pd  Pd2  1  0.33333332  0.66666664  0.25000000  1
  Pd  Pd3  1  0.66666666  0.33333332  0.74999999  1
  O  O4  1  0.33333332  0.66666664  0.41168299  1
  O  O5  1  0.66666666  0.33333332  0.91168298  1
  O  O6  1  0.33333332  0.66666664  0.08831700  1
  O  O7  1  0.66666666  0.33333332  0.58831699  1
