# generated using pymatgen
data_DyGa3
_symmetry_space_group_name_H-M   'P 1'
_cell_length_a   4.94835806
_cell_length_b   5.31827211
_cell_length_c   6.08450222
_cell_angle_alpha   90.00000000
_cell_angle_beta   90.00000000
_cell_angle_gamma   90.00000000
_symmetry_Int_Tables_number   1
_chemical_formula_structural   DyGa3
_chemical_formula_sum   'Dy2 Ga6'
_cell_volume   160.12410886
_cell_formula_units_Z   2
loop_
 _symmetry_equiv_pos_site_id
 _symmetry_equiv_pos_as_xyz
  1  'x, y, z'
loop_
 _atom_site_type_symbol
 _atom_site_label
 _atom_site_symmetry_multiplicity
 _atom_site_fract_x
 _atom_site_fract_y
 _atom_site_fract_z
 _atom_site_occupancy
  Dy  Dy0  1  0.49999999  0.32982899  -0.00000000  1
  Dy  Dy1  1  0.00000000  0.67017099  0.49999998  1
  Ga  Ga2  1  0.00000000  0.15589200  0.25223299  1
  Ga  Ga3  1  0.49999999  0.84410798  0.24776699  1
  Ga  Ga4  1  0.00000000  0.15589200  0.74776697  1
  Ga  Ga5  1  0.49999999  0.84410798  0.75223297  1
  Ga  Ga6  1  0.00000000  0.66905299  0.00000000  1
  Ga  Ga7  1  0.49999999  0.33094699  0.49999998  1
