# generated using pymatgen
data_PrNiBi
_symmetry_space_group_name_H-M   'P 1'
_cell_length_a   4.54018688
_cell_length_b   7.37289286
_cell_length_c   8.03890228
_cell_angle_alpha   90.00000000
_cell_angle_beta   90.00000000
_cell_angle_gamma   90.00000000
_symmetry_Int_Tables_number   1
_chemical_formula_structural   PrNiBi
_chemical_formula_sum   'Pr4 Ni4 Bi4'
_cell_volume   269.09671857
_cell_formula_units_Z   4
loop_
 _symmetry_equiv_pos_site_id
 _symmetry_equiv_pos_as_xyz
  1  'x, y, z'
loop_
 _atom_site_type_symbol
 _atom_site_label
 _atom_site_symmetry_multiplicity
 _atom_site_fract_x
 _atom_site_fract_y
 _atom_site_fract_z
 _atom_site_occupancy
  Pr  Pr0  1  0.25000001  0.51290501  0.19534899  1
  Pr  Pr1  1  0.75000002  0.48709501  0.80465097  1
  Pr  Pr2  1  0.75000002  0.98709502  0.69534898  1
  Pr  Pr3  1  0.25000001  0.01290500  0.30465099  1
  Ni  Ni4  1  0.25000001  0.77223402  0.89727997  1
  Ni  Ni5  1  0.75000002  0.22776600  0.10272000  1
  Ni  Ni6  1  0.75000002  0.72776601  0.39727999  1
  Ni  Ni7  1  0.25000001  0.27223401  0.60271998  1
  Bi  Bi8  1  0.25000001  0.67402501  0.57421298  1
  Bi  Bi9  1  0.75000002  0.32597501  0.42578699  1
  Bi  Bi10  1  0.75000002  0.82597502  0.07421300  1
  Bi  Bi11  1  0.25000001  0.17402500  0.92578697  1
