# generated using pymatgen
data_Hf3(AgPb2)5
_symmetry_space_group_name_H-M   'P 1'
_cell_length_a   6.03313303
_cell_length_b   8.22227192
_cell_length_c   8.22227192
_cell_angle_alpha   120.00000000
_cell_angle_beta   90.00000000
_cell_angle_gamma   90.00000000
_symmetry_Int_Tables_number   1
_chemical_formula_structural   Hf3(AgPb2)5
_chemical_formula_sum   'Hf3 Ag5 Pb10'
_cell_volume   353.22969294
_cell_formula_units_Z   1
loop_
 _symmetry_equiv_pos_site_id
 _symmetry_equiv_pos_as_xyz
  1  'x, y, z'
loop_
 _atom_site_type_symbol
 _atom_site_label
 _atom_site_symmetry_multiplicity
 _atom_site_fract_x
 _atom_site_fract_y
 _atom_site_fract_z
 _atom_site_occupancy
  Hf  Hf0  1  0.78864300  0.00000000  0.64621398  1
  Hf  Hf1  1  0.78864300  0.35378600  0.35378598  1
  Hf  Hf2  1  0.78864300  0.64621400  -0.00000002  1
  Ag  Ag3  1  0.08260900  0.68860000  0.68859996  1
  Ag  Ag4  1  0.08260900  0.31140000  -0.00000001  1
  Ag  Ag5  1  0.08260900  0.00000000  0.31139999  1
  Ag  Ag6  1  0.50211700  0.66666666  0.33333330  1
  Ag  Ag7  1  0.35185200  0.00000000  -0.00000000  1
  Pb  Pb8  1  0.50211700  0.33333333  0.66666663  1
  Pb  Pb9  1  0.28875200  0.00000000  0.64199698  1
  Pb  Pb10  1  0.28875200  0.35800300  0.35800298  1
  Pb  Pb11  1  0.28875200  0.64199700  0.99999995  1
  Pb  Pb12  1  0.58029200  0.68822800  0.68822796  1
  Pb  Pb13  1  0.58029200  0.31177200  -0.00000001  1
  Pb  Pb14  1  0.58029200  0.00000000  0.31177199  1
  Pb  Pb15  1  0.01323200  0.66666666  0.33333330  1
  Pb  Pb16  1  0.83819900  0.00000000  -0.00000000  1
  Pb  Pb17  1  0.01323200  0.33333333  0.66666663  1
