# generated using pymatgen
data_Sr2YBiO6
_symmetry_space_group_name_H-M   'P 1'
_cell_length_a   5.92669916
_cell_length_b   6.10161018
_cell_length_c   8.47261524
_cell_angle_alpha   90.00000000
_cell_angle_beta   89.98117828
_cell_angle_gamma   90.00000000
_symmetry_Int_Tables_number   1
_chemical_formula_structural   Sr2YBiO6
_chemical_formula_sum   'Sr4 Y2 Bi2 O12'
_cell_volume   306.39015234
_cell_formula_units_Z   2
loop_
 _symmetry_equiv_pos_site_id
 _symmetry_equiv_pos_as_xyz
  1  'x, y, z'
loop_
 _atom_site_type_symbol
 _atom_site_label
 _atom_site_symmetry_multiplicity
 _atom_site_fract_x
 _atom_site_fract_y
 _atom_site_fract_z
 _atom_site_occupancy
  Sr  Sr0  1  0.01288300  0.45217499  0.25231801  1
  Sr  Sr1  1  0.98711702  0.54782498  0.74768207  1
  Sr  Sr2  1  0.48711701  0.95217497  0.24768203  1
  Sr  Sr3  1  0.51288301  0.04782500  0.75231805  1
  Y  Y4  1  0.00000000  0.00000000  0.50000002  1
  Y  Y5  1  0.50000001  0.49999998  0.00000002  1
  Bi  Bi6  1  0.00000000  0.00000000  0.00000000  1
  Bi  Bi7  1  0.50000001  0.49999998  0.50000004  1
  O  O8  1  0.90503902  0.03775400  0.24371505  1
  O  O9  1  0.09496100  0.96224597  0.75628503  1
  O  O10  1  0.59496101  0.53775398  0.25628504  1
  O  O11  1  0.40503901  0.46224599  0.74371505  1
  O  O12  1  0.19804000  0.71279098  0.05370501  1
  O  O13  1  0.80196002  0.28720899  0.94629507  1
  O  O14  1  0.30196001  0.21279099  0.44629503  1
  O  O15  1  0.69804001  0.78720898  0.55370505  1
  O  O16  1  0.29146101  0.19987499  0.04653501  1
  O  O17  1  0.70853801  0.80012498  0.95346507  1
  O  O18  1  0.20853800  0.69987498  0.45346503  1
  O  O19  1  0.79146202  0.30012499  0.54653506  1
