# generated using pymatgen
data_Mn2SnO4
_symmetry_space_group_name_H-M   'P 1'
_cell_length_a   6.05092192
_cell_length_b   6.05092192
_cell_length_c   6.05092287
_cell_angle_alpha   60.28546524
_cell_angle_beta   60.28546524
_cell_angle_gamma   60.28546906
_symmetry_Int_Tables_number   1
_chemical_formula_structural   Mn2SnO4
_chemical_formula_sum   'Mn4 Sn2 O8'
_cell_volume   157.66904858
_cell_formula_units_Z   2
loop_
 _symmetry_equiv_pos_site_id
 _symmetry_equiv_pos_as_xyz
  1  'x, y, z'
loop_
 _atom_site_type_symbol
 _atom_site_label
 _atom_site_symmetry_multiplicity
 _atom_site_fract_x
 _atom_site_fract_y
 _atom_site_fract_z
 _atom_site_occupancy
  Mn  Mn0  1  0.00748800  0.00748800  0.00748800  1
  Mn  Mn1  1  0.62540706  0.62540701  0.62540692  1
  Mn  Mn2  1  0.24416702  0.24416700  0.24416697  1
  Mn  Mn3  1  0.12295904  0.62569201  0.62569194  1
  Sn  Sn4  1  0.62569203  0.12295900  0.62569195  1
  Sn  Sn5  1  0.62569206  0.62569201  0.12295894  1
  O  O6  1  0.38149904  0.38149901  0.82916894  1
  O  O7  1  0.38149907  0.82916902  0.38149893  1
  O  O8  1  0.82916906  0.38149901  0.38149894  1
  O  O9  1  0.38027504  0.38027501  0.38027495  1
  O  O10  1  0.87195009  0.87195002  0.87194989  1
  O  O11  1  0.41552007  0.86933702  0.86933691  1
  O  O12  1  0.86933706  0.41552001  0.86933692  1
  O  O13  1  0.86933709  0.86933702  0.41551990  1
