# generated using pymatgen
data_ZrTiCN
_symmetry_space_group_name_H-M   'P 1'
_cell_length_a   3.09317040
_cell_length_b   3.09317040
_cell_length_c   5.38925600
_cell_angle_alpha   73.32302856
_cell_angle_beta   73.32302856
_cell_angle_gamma   59.99998856
_symmetry_Int_Tables_number   1
_chemical_formula_structural   ZrTiCN
_chemical_formula_sum   'Zr1 Ti1 C1 N1'
_cell_volume   42.13172836
_cell_formula_units_Z   1
loop_
 _symmetry_equiv_pos_site_id
 _symmetry_equiv_pos_as_xyz
  1  'x, y, z'
loop_
 _atom_site_type_symbol
 _atom_site_label
 _atom_site_symmetry_multiplicity
 _atom_site_fract_x
 _atom_site_fract_y
 _atom_site_fract_z
 _atom_site_occupancy
  Zr  Zr0  1  0.74694101  0.74694103  0.75917704  1
  Ti  Ti1  1  0.25439200  0.25439201  0.23682401  1
  C  C2  1  0.99795602  0.99795604  0.00613202  1
  N  N3  1  0.50071001  0.50071002  0.49787002  1
