# generated using pymatgen
data_Sm3Lu
_symmetry_space_group_name_H-M   'P 1'
_cell_length_a   5.60050917
_cell_length_b   7.16565180
_cell_length_c   7.16565228
_cell_angle_alpha   60.00000000
_cell_angle_beta   90.00000000
_cell_angle_gamma   90.00000000
_symmetry_Int_Tables_number   1
_chemical_formula_structural   Sm3Lu
_chemical_formula_sum   'Sm6 Lu2'
_cell_volume   249.04026752
_cell_formula_units_Z   2
loop_
 _symmetry_equiv_pos_site_id
 _symmetry_equiv_pos_as_xyz
  1  'x, y, z'
loop_
 _atom_site_type_symbol
 _atom_site_label
 _atom_site_symmetry_multiplicity
 _atom_site_fract_x
 _atom_site_fract_y
 _atom_site_fract_z
 _atom_site_occupancy
  Sm  Sm0  1  0.24999999  0.33333335  0.33333333  1
  Sm  Sm1  1  0.74999998  0.66666669  0.66666665  1
  Sm  Sm2  1  0.74999998  0.66709603  0.16645198  1
  Sm  Sm3  1  0.74999998  0.16645201  0.16645200  1
  Sm  Sm4  1  0.74999998  0.16645201  0.66709600  1
  Sm  Sm5  1  0.24999999  0.33290401  0.83354799  1
  Lu  Lu6  1  0.24999999  0.83354803  0.83354798  1
  Lu  Lu7  1  0.24999999  0.83354803  0.33290398  1
