# generated using pymatgen
data_BaCe(TlH3)2
_symmetry_space_group_name_H-M   'P 1'
_cell_length_a   4.99544477
_cell_length_b   5.30076122
_cell_length_c   5.30076122
_cell_angle_alpha   90.00000000
_cell_angle_beta   90.00000000
_cell_angle_gamma   90.00000000
_symmetry_Int_Tables_number   1
_chemical_formula_structural   BaCe(TlH3)2
_chemical_formula_sum   'Ba1 Ce1 Tl2 H6'
_cell_volume   140.36235467
_cell_formula_units_Z   1
loop_
 _symmetry_equiv_pos_site_id
 _symmetry_equiv_pos_as_xyz
  1  'x, y, z'
loop_
 _atom_site_type_symbol
 _atom_site_label
 _atom_site_symmetry_multiplicity
 _atom_site_fract_x
 _atom_site_fract_y
 _atom_site_fract_z
 _atom_site_occupancy
  Ba  Ba0  1  0.41406702  0.49999998  0.49999998  1
  Ce  Ce1  1  0.44708702  0.00000000  0.00000000  1
  Tl  Tl2  1  0.99985305  0.00000000  0.49999998  1
  Tl  Tl3  1  0.99985305  0.49999998  0.00000000  1
  H  H4  1  0.27283001  0.25714699  0.25714699  1
  H  H5  1  0.27283001  0.25714699  0.74285297  1
  H  H6  1  0.82919804  0.00000000  0.00000000  1
  H  H7  1  0.77162303  0.49999998  0.49999998  1
  H  H8  1  0.27283001  0.74285297  0.74285297  1
  H  H9  1  0.27283001  0.74285297  0.25714699  1
