# generated using pymatgen
data_K4Hg5
_symmetry_space_group_name_H-M   'P 1'
_cell_length_a   5.67288017
_cell_length_b   7.00871849
_cell_length_c   11.49110222
_cell_angle_alpha   74.28735352
_cell_angle_beta   75.70952606
_cell_angle_gamma   66.12756348
_symmetry_Int_Tables_number   1
_chemical_formula_structural   K4Hg5
_chemical_formula_sum   'K4 Hg5'
_cell_volume   397.26502593
_cell_formula_units_Z   1
loop_
 _symmetry_equiv_pos_site_id
 _symmetry_equiv_pos_as_xyz
  1  'x, y, z'
loop_
 _atom_site_type_symbol
 _atom_site_label
 _atom_site_symmetry_multiplicity
 _atom_site_fract_x
 _atom_site_fract_y
 _atom_site_fract_z
 _atom_site_occupancy
  K  K0  1  0.90447689  0.80142902  0.38961700  1
  K  K1  1  0.09552298  0.19857101  0.61038299  1
  K  K2  1  0.24361296  0.34521001  0.16756400  1
  K  K3  1  0.75638691  0.65479002  0.83243599  1
  Hg  Hg4  1  0.00000000  0.00000000  0.00000000  1
  Hg  Hg5  1  0.60970294  0.39043701  0.39015700  1
  Hg  Hg6  1  0.39029693  0.60956302  0.60984299  1
  Hg  Hg7  1  0.54493391  0.74262902  0.16750300  1
  Hg  Hg8  1  0.45506596  0.25737101  0.83249699  1
