# generated using pymatgen
data_Ce2Mg
_symmetry_space_group_name_H-M   'P 1'
_cell_length_a   3.67866397
_cell_length_b   5.48139381
_cell_length_c   8.74122143
_cell_angle_alpha   90.00000000
_cell_angle_beta   102.14699554
_cell_angle_gamma   90.00000000
_symmetry_Int_Tables_number   1
_chemical_formula_structural   Ce2Mg
_chemical_formula_sum   'Ce4 Mg2'
_cell_volume   172.31350374
_cell_formula_units_Z   2
loop_
 _symmetry_equiv_pos_site_id
 _symmetry_equiv_pos_as_xyz
  1  'x, y, z'
loop_
 _atom_site_type_symbol
 _atom_site_label
 _atom_site_symmetry_multiplicity
 _atom_site_fract_x
 _atom_site_fract_y
 _atom_site_fract_z
 _atom_site_occupancy
  Ce  Ce0  1  0.59352301  0.75000003  0.18704600  1
  Ce  Ce1  1  0.27360500  0.75000003  0.54721000  1
  Ce  Ce2  1  0.40647700  0.25000001  0.81295400  1
  Ce  Ce3  1  0.72639501  0.25000001  0.45279000  1
  Mg  Mg4  1  0.93478001  0.75000003  0.86956001  1
  Mg  Mg5  1  0.06522000  0.25000001  0.13044000  1
