# generated using pymatgen
data_CaYMnSnO6
_symmetry_space_group_name_H-M   'P 1'
_cell_length_a   5.50178623
_cell_length_b   5.72762489
_cell_length_c   7.89615059
_cell_angle_alpha   90.00000000
_cell_angle_beta   89.76287842
_cell_angle_gamma   90.00000000
_symmetry_Int_Tables_number   1
_chemical_formula_structural   CaYMnSnO6
_chemical_formula_sum   'Ca2 Y2 Mn2 Sn2 O12'
_cell_volume   248.82269129
_cell_formula_units_Z   2
loop_
 _symmetry_equiv_pos_site_id
 _symmetry_equiv_pos_as_xyz
  1  'x, y, z'
loop_
 _atom_site_type_symbol
 _atom_site_label
 _atom_site_symmetry_multiplicity
 _atom_site_fract_x
 _atom_site_fract_y
 _atom_site_fract_z
 _atom_site_occupancy
  Ca  Ca0  1  0.48810898  0.19780000  0.24868702  1
  Ca  Ca1  1  0.98810896  0.80220001  0.74868704  1
  Y  Y2  1  0.51491298  0.31178801  0.75280702  1
  Y  Y3  1  0.01491300  0.68821201  0.25280700  1
  Mn  Mn4  1  0.00146300  0.24684100  0.50026900  1
  Mn  Mn5  1  0.50146298  0.75315901  0.00026902  1
  Sn  Sn6  1  0.50056598  0.75454701  0.50084502  1
  Sn  Sn7  1  0.00056600  0.24545300  0.00084500  1
  O  O8  1  0.18623799  0.95136202  0.05700701  1
  O  O9  1  0.68623797  0.04863800  0.55700703  1
  O  O10  1  0.80468397  0.53798401  0.94466104  1
  O  O11  1  0.30468399  0.46201601  0.44466101  1
  O  O12  1  0.19962799  0.94108502  0.44718201  1
  O  O13  1  0.69962797  0.05891500  0.94718203  1
  O  O14  1  0.79336397  0.55374101  0.54853503  1
  O  O15  1  0.29336399  0.44625901  0.04853501  1
  O  O16  1  0.60758397  0.78665601  0.25513403  1
  O  O17  1  0.10758400  0.21334400  0.75513401  1
  O  O18  1  0.40345098  0.71285601  0.74487302  1
  O  O19  1  0.90345096  0.28714401  0.24487304  1
