# generated using pymatgen
data_Sr2TbSbO6
_symmetry_space_group_name_H-M   'P 1'
_cell_length_a   6.00320244
_cell_length_b   6.06989670
_cell_length_c   8.52283859
_cell_angle_alpha   89.65267181
_cell_angle_beta   90.34316254
_cell_angle_gamma   89.78169250
_symmetry_Int_Tables_number   1
_chemical_formula_structural   Sr2TbSbO6
_chemical_formula_sum   'Sr4 Tb2 Sb2 O12'
_cell_volume   310.54859601
_cell_formula_units_Z   2
loop_
 _symmetry_equiv_pos_site_id
 _symmetry_equiv_pos_as_xyz
  1  'x, y, z'
loop_
 _atom_site_type_symbol
 _atom_site_label
 _atom_site_symmetry_multiplicity
 _atom_site_fract_x
 _atom_site_fract_y
 _atom_site_fract_z
 _atom_site_occupancy
  Sr  Sr0  1  0.49355407  0.53044251  0.74959080  1
  Sr  Sr1  1  0.50644591  0.46955747  0.25040917  1
  Sr  Sr2  1  0.00852419  0.03925713  0.74870576  1
  Sr  Sr3  1  0.99147579  0.96074285  0.25129422  1
  Tb  Tb4  1  0.00000000  0.49999999  0.00000001  1
  Tb  Tb5  1  0.49999999  0.00000000  0.49999998  1
  Sb  Sb6  1  0.49999999  0.00000000  -0.00000000  1
  Sb  Sb7  1  0.00000000  0.49999999  0.49999999  1
  O  O8  1  0.76806492  0.19449651  0.04375419  1
  O  O9  1  0.73442900  0.69983803  0.46703022  1
  O  O10  1  0.23193506  0.80550347  0.95624578  1
  O  O11  1  0.26557098  0.30016194  0.53296975  1
  O  O12  1  0.69914424  0.73525624  0.03898846  1
  O  O13  1  0.80956881  0.22770343  0.45734226  1
  O  O14  1  0.30085574  0.26474373  0.96101151  1
  O  O15  1  0.19043117  0.77229654  0.54265771  1
  O  O16  1  0.58343839  0.99181613  0.76803648  1
  O  O17  1  0.93565902  0.46762756  0.73237888  1
  O  O18  1  0.41656159  0.00818385  0.23196349  1
  O  O19  1  0.06434096  0.53237242  0.26762109  1
