# generated using pymatgen
data_CsSO3
_symmetry_space_group_name_H-M   'P 1'
_cell_length_a   6.42837381
_cell_length_b   6.42837286
_cell_length_c   12.17196274
_cell_angle_alpha   90.00000000
_cell_angle_beta   90.00000000
_cell_angle_gamma   120.00000763
_symmetry_Int_Tables_number   1
_chemical_formula_structural   CsSO3
_chemical_formula_sum   'Cs4 S4 O12'
_cell_volume   435.60554022
_cell_formula_units_Z   4
loop_
 _symmetry_equiv_pos_site_id
 _symmetry_equiv_pos_as_xyz
  1  'x, y, z'
loop_
 _atom_site_type_symbol
 _atom_site_label
 _atom_site_symmetry_multiplicity
 _atom_site_fract_x
 _atom_site_fract_y
 _atom_site_fract_z
 _atom_site_occupancy
  Cs  Cs0  1  0.33333337  0.66666669  0.75517402  1
  Cs  Cs1  1  0.00000000  0.00000000  0.99485002  1
  Cs  Cs2  1  0.66666670  0.33333335  0.25517401  1
  Cs  Cs3  1  0.00000000  0.00000000  0.49485001  1
  S  S4  1  0.66666670  0.33333335  0.77921302  1
  S  S5  1  0.33333337  0.66666669  0.27921301  1
  S  S6  1  0.66666670  0.33333335  0.59823101  1
  S  S7  1  0.33333337  0.66666669  0.09823100  1
  O  O8  1  0.58987705  0.79493903  0.30837301  1
  O  O9  1  0.92248905  0.46124502  0.56696801  1
  O  O10  1  0.79493803  0.20506101  0.80837302  1
  O  O11  1  0.46124404  0.53875502  0.06696800  1
  O  O12  1  0.53875604  0.46124502  0.56696801  1
  O  O13  1  0.07751103  0.53875502  0.06696800  1
  O  O14  1  0.79493805  0.58987602  0.80837302  1
  O  O15  1  0.20506204  0.79493903  0.30837301  1
  O  O16  1  0.41012302  0.20506101  0.80837302  1
  O  O17  1  0.20506203  0.41012402  0.30837301  1
  O  O18  1  0.46124406  0.92248804  0.06696800  1
  O  O19  1  0.53875602  0.07751200  0.56696801  1
