# generated using pymatgen
data_LaIn2Rh
_symmetry_space_group_name_H-M   'P 1'
_cell_length_a   4.48742008
_cell_length_b   5.85618496
_cell_length_c   7.50635815
_cell_angle_alpha   90.00000000
_cell_angle_beta   90.00000000
_cell_angle_gamma   112.52801514
_symmetry_Int_Tables_number   1
_chemical_formula_structural   LaIn2Rh
_chemical_formula_sum   'La2 In4 Rh2'
_cell_volume   182.20828492
_cell_formula_units_Z   2
loop_
 _symmetry_equiv_pos_site_id
 _symmetry_equiv_pos_as_xyz
  1  'x, y, z'
loop_
 _atom_site_type_symbol
 _atom_site_label
 _atom_site_symmetry_multiplicity
 _atom_site_fract_x
 _atom_site_fract_y
 _atom_site_fract_z
 _atom_site_occupancy
  La  La0  1  0.93200201  0.86400400  0.74999999  1
  La  La1  1  0.06799800  0.13599600  0.25000000  1
  In  In2  1  0.35775202  0.71550400  0.44997299  1
  In  In3  1  0.64224800  0.28449600  0.55002699  1
  In  In4  1  0.35775202  0.71550400  0.05002700  1
  In  In5  1  0.64224800  0.28449600  0.94997298  1
  Rh  Rh6  1  0.78702700  0.57405400  0.25000000  1
  Rh  Rh7  1  0.21297301  0.42594600  0.74999999  1
