# generated using pymatgen
data_Sr2YMoO6
_symmetry_space_group_name_H-M   'P 1'
_cell_length_a   5.89824009
_cell_length_b   5.98219109
_cell_length_c   8.33871269
_cell_angle_alpha   90.00000000
_cell_angle_beta   90.69671631
_cell_angle_gamma   90.00000000
_symmetry_Int_Tables_number   1
_chemical_formula_structural   Sr2YMoO6
_chemical_formula_sum   'Sr4 Y2 Mo2 O12'
_cell_volume   294.20471546
_cell_formula_units_Z   2
loop_
 _symmetry_equiv_pos_site_id
 _symmetry_equiv_pos_as_xyz
  1  'x, y, z'
loop_
 _atom_site_type_symbol
 _atom_site_label
 _atom_site_symmetry_multiplicity
 _atom_site_fract_x
 _atom_site_fract_y
 _atom_site_fract_z
 _atom_site_occupancy
  Sr  Sr0  1  0.51168999  0.53727099  0.74917199  1
  Sr  Sr1  1  0.01169000  0.96272899  0.24917199  1
  Sr  Sr2  1  0.48830999  0.46272899  0.25082800  1
  Sr  Sr3  1  0.98830999  0.03727100  0.75082800  1
  Y  Y4  1  0.00000000  0.49999999  0.49999999  1
  Y  Y5  1  0.49999999  0.00000000  0.00000001  1
  Mo  Mo6  1  0.49999999  0.00000000  0.50000000  1
  Mo  Mo7  1  0.99999999  0.49999999  0.99999999  1
  O  O8  1  0.76668899  0.80155999  0.54109500  1
  O  O9  1  0.26668900  0.69843999  0.04109500  1
  O  O10  1  0.23331100  0.19844000  0.45890499  1
  O  O11  1  0.73331099  0.30156000  0.95890499  1
  O  O12  1  0.79977999  0.77158199  0.94789099  1
  O  O13  1  0.29978000  0.72841799  0.44789099  1
  O  O14  1  0.20022000  0.22841800  0.05210900  1
  O  O15  1  0.70021999  0.27158200  0.55210900  1
  O  O16  1  0.41036599  0.97577699  0.73142499  1
  O  O17  1  0.91036599  0.52422299  0.23142501  1
  O  O18  1  0.58963399  0.02422300  0.26857500  1
  O  O19  1  0.08963400  0.47577699  0.76857498  1
