# generated using pymatgen
data_YAlNi
_symmetry_space_group_name_H-M   'P 1'
_cell_length_a   5.40768957
_cell_length_b   5.40862274
_cell_length_c   8.69585896
_cell_angle_alpha   90.00000000
_cell_angle_beta   90.00000000
_cell_angle_gamma   119.23519135
_symmetry_Int_Tables_number   1
_chemical_formula_structural   YAlNi
_chemical_formula_sum   'Y4 Al4 Ni4'
_cell_volume   221.94083755
_cell_formula_units_Z   4
loop_
 _symmetry_equiv_pos_site_id
 _symmetry_equiv_pos_as_xyz
  1  'x, y, z'
loop_
 _atom_site_type_symbol
 _atom_site_label
 _atom_site_symmetry_multiplicity
 _atom_site_fract_x
 _atom_site_fract_y
 _atom_site_fract_z
 _atom_site_occupancy
  Y  Y0  1  0.33315605  0.66685203  0.55737100  1
  Y  Y1  1  0.66731003  0.33269102  0.42957700  1
  Y  Y2  1  0.66731003  0.33269102  0.07042300  1
  Y  Y3  1  0.33315605  0.66685203  0.94262900  1
  Al  Al4  1  0.99754102  0.00238600  0.48723700  1
  Al  Al5  1  0.99754102  0.00238600  0.01276300  1
  Al  Al6  1  0.34442602  0.17079801  0.75000000  1
  Al  Al7  1  0.82919605  0.65555203  0.75000000  1
  Ni  Ni8  1  0.83078903  0.16923501  0.75000000  1
  Ni  Ni9  1  0.64637206  0.82324604  0.25000000  1
  Ni  Ni10  1  0.17680102  0.35366502  0.25000000  1
  Ni  Ni11  1  0.17640105  0.82364504  0.25000000  1
