# generated using pymatgen
data_SmSiPt
_symmetry_space_group_name_H-M   'P 1'
_cell_length_a   4.04306507
_cell_length_b   4.20148420
_cell_length_c   4.20148325
_cell_angle_alpha   120.00000763
_cell_angle_beta   90.00000000
_cell_angle_gamma   90.00000000
_symmetry_Int_Tables_number   1
_chemical_formula_structural   SmSiPt
_chemical_formula_sum   'Sm1 Si1 Pt1'
_cell_volume   61.80828608
_cell_formula_units_Z   1
loop_
 _symmetry_equiv_pos_site_id
 _symmetry_equiv_pos_as_xyz
  1  'x, y, z'
loop_
 _atom_site_type_symbol
 _atom_site_label
 _atom_site_symmetry_multiplicity
 _atom_site_fract_x
 _atom_site_fract_y
 _atom_site_fract_z
 _atom_site_occupancy
  Sm  Sm0  1  -0.00000000  0.66666665  0.33333335  1
  Si  Si1  1  0.49999999  0.33333332  0.66666668  1
  Pt  Pt2  1  0.49999999  0.00000000  -0.00000000  1
