# generated using pymatgen
data_Y4Ta2MoC7
_symmetry_space_group_name_H-M   'P 1'
_cell_length_a   3.37880802
_cell_length_b   7.95956802
_cell_length_c   8.21465683
_cell_angle_alpha   118.97798920
_cell_angle_beta   90.00000000
_cell_angle_gamma   90.00000000
_symmetry_Int_Tables_number   1
_chemical_formula_structural   Y4Ta2MoC7
_chemical_formula_sum   'Y4 Ta2 Mo1 C7'
_cell_volume   193.26541239
_cell_formula_units_Z   1
loop_
 _symmetry_equiv_pos_site_id
 _symmetry_equiv_pos_as_xyz
  1  'x, y, z'
loop_
 _atom_site_type_symbol
 _atom_site_label
 _atom_site_symmetry_multiplicity
 _atom_site_fract_x
 _atom_site_fract_y
 _atom_site_fract_z
 _atom_site_occupancy
  Y  Y0  1  -0.00000000  0.50000000  0.99999998  1
  Y  Y1  1  0.50000000  0.92285001  0.25873301  1
  Y  Y2  1  0.50000000  0.07715000  0.74126698  1
  Y  Y3  1  0.50000000  0.33588300  0.25873300  1
  Ta  Ta4  1  0.50000000  0.66411701  0.74126699  1
  Ta  Ta5  1  -0.00000000  0.28535100  0.57070199  1
  Mo  Mo6  1  0.99999999  0.71464901  0.42929800  1
  C  C7  1  0.50000000  0.37563800  0.75127598  1
  C  C8  1  0.50000000  0.62436201  0.24872401  1
  C  C9  1  0.00000000  0.00000000  0.00000000  1
  C  C10  1  0.99999999  0.82918601  0.99999998  1
  C  C11  1  -0.00000000  0.17081400  0.99999997  1
  C  C12  1  0.00000000  0.00000000  0.49999998  1
  C  C13  1  -0.00000000  0.50000000  0.49999999  1
