# generated using pymatgen
data_Pr2Sm
_symmetry_space_group_name_H-M   'P 1'
_cell_length_a   3.54558825
_cell_length_b   3.54558825
_cell_length_c   16.85601425
_cell_angle_alpha   83.96288300
_cell_angle_beta   83.96288300
_cell_angle_gamma   59.99999619
_symmetry_Int_Tables_number   1
_chemical_formula_structural   Pr2Sm
_chemical_formula_sum   'Pr4 Sm2'
_cell_volume   182.15272808
_cell_formula_units_Z   2
loop_
 _symmetry_equiv_pos_site_id
 _symmetry_equiv_pos_as_xyz
  1  'x, y, z'
loop_
 _atom_site_type_symbol
 _atom_site_label
 _atom_site_symmetry_multiplicity
 _atom_site_fract_x
 _atom_site_fract_y
 _atom_site_fract_z
 _atom_site_occupancy
  Pr  Pr0  1  0.99967396  0.99967398  0.00097798  1
  Pr  Pr1  1  0.50010198  0.50010199  0.49969397  1
  Pr  Pr2  1  0.61187697  0.61187699  0.16436898  1
  Pr  Pr3  1  0.11118700  0.11118700  0.66643897  1
  Sm  Sm4  1  0.88859696  0.88859698  0.33420897  1
  Sm  Sm5  1  0.38856198  0.38856199  0.83431396  1
