# generated using pymatgen
data_CeMgSi
_symmetry_space_group_name_H-M   'P 1'
_cell_length_a   4.06486607
_cell_length_b   4.06486607
_cell_length_c   8.28394699
_cell_angle_alpha   104.20227814
_cell_angle_beta   104.20227814
_cell_angle_gamma   90.00000000
_symmetry_Int_Tables_number   1
_chemical_formula_structural   CeMgSi
_chemical_formula_sum   'Ce2 Mg2 Si2'
_cell_volume   128.37340356
_cell_formula_units_Z   2
loop_
 _symmetry_equiv_pos_site_id
 _symmetry_equiv_pos_as_xyz
  1  'x, y, z'
loop_
 _atom_site_type_symbol
 _atom_site_label
 _atom_site_symmetry_multiplicity
 _atom_site_fract_x
 _atom_site_fract_y
 _atom_site_fract_z
 _atom_site_occupancy
  Ce  Ce0  1  0.67414597  0.67414598  0.34829197  1
  Ce  Ce1  1  0.32585398  0.32585399  0.65170798  1
  Mg  Mg2  1  0.49999999  0.00000000  -0.00000001  1
  Mg  Mg3  1  -0.00000001  0.49999999  0.99999998  1
  Si  Si4  1  0.12181999  0.12182000  0.24363999  1
  Si  Si5  1  0.87817996  0.87817998  0.75635996  1
