# generated using pymatgen
data_Cs3PbOF5
_symmetry_space_group_name_H-M   'P 1'
_cell_length_a   6.50752783
_cell_length_b   6.59698915
_cell_length_c   6.50752783
_cell_angle_alpha   119.55241394
_cell_angle_beta   90.00000000
_cell_angle_gamma   119.55241394
_symmetry_Int_Tables_number   1
_chemical_formula_structural   Cs3PbOF5
_chemical_formula_sum   'Cs3 Pb1 O1 F5'
_cell_volume   200.18656625
_cell_formula_units_Z   1
loop_
 _symmetry_equiv_pos_site_id
 _symmetry_equiv_pos_as_xyz
  1  'x, y, z'
loop_
 _atom_site_type_symbol
 _atom_site_label
 _atom_site_symmetry_multiplicity
 _atom_site_fract_x
 _atom_site_fract_y
 _atom_site_fract_z
 _atom_site_occupancy
  Cs  Cs0  1  0.49918503  0.99837003  0.49918503  1
  Cs  Cs1  1  0.98173404  0.96346803  0.98173404  1
  Cs  Cs2  1  0.24237402  0.48474801  0.74237403  1
  Pb  Pb3  1  0.74237403  0.48474801  0.24237402  1
  O  O4  1  0.77977003  0.55954002  0.77977003  1
  F  F5  1  0.78399502  0.01733700  0.78399502  1
  F  F6  1  0.78399502  0.01733700  0.23334201  1
  F  F7  1  0.23334201  0.01733700  0.78399502  1
  F  F8  1  0.23334201  0.01733700  0.23334201  1
  F  F9  1  0.21989001  0.43978001  0.21989001  1
