# generated using pymatgen
data_CaRhO3
_symmetry_space_group_name_H-M   'P 1'
_cell_length_a   5.35601616
_cell_length_b   5.69150019
_cell_length_c   7.73688078
_cell_angle_alpha   90.00000000
_cell_angle_beta   90.00000000
_cell_angle_gamma   90.00000000
_symmetry_Int_Tables_number   1
_chemical_formula_structural   CaRhO3
_chemical_formula_sum   'Ca4 Rh4 O12'
_cell_volume   235.84927075
_cell_formula_units_Z   4
loop_
 _symmetry_equiv_pos_site_id
 _symmetry_equiv_pos_as_xyz
  1  'x, y, z'
loop_
 _atom_site_type_symbol
 _atom_site_label
 _atom_site_symmetry_multiplicity
 _atom_site_fract_x
 _atom_site_fract_y
 _atom_site_fract_z
 _atom_site_occupancy
  Ca  Ca0  1  0.51978598  0.06558500  0.25000001  1
  Ca  Ca1  1  0.48021399  0.93441497  0.75000002  1
  Ca  Ca2  1  0.98021397  0.56558498  0.25000001  1
  Ca  Ca3  1  0.01978600  0.43441499  0.75000002  1
  Rh  Rh4  1  0.00000000  0.00000000  0.50000001  1
  Rh  Rh5  1  0.00000000  0.00000000  0.00000000  1
  Rh  Rh6  1  0.49999999  0.49999998  0.50000001  1
  Rh  Rh7  1  0.49999999  0.49999998  0.00000000  1
  O  O8  1  0.31143099  0.19537399  0.94636103  1
  O  O9  1  0.60922898  0.54274898  0.75000002  1
  O  O10  1  0.39077099  0.45725098  0.25000001  1
  O  O11  1  0.81143098  0.30462599  0.44636101  1
  O  O12  1  0.81143098  0.30462599  0.05363900  1
  O  O13  1  0.68856898  0.80462597  0.05363900  1
  O  O14  1  0.18856899  0.69537398  0.55363902  1
  O  O15  1  0.10922900  0.95725097  0.25000001  1
  O  O16  1  0.68856898  0.80462597  0.44636101  1
  O  O17  1  0.18856899  0.69537398  0.94636103  1
  O  O18  1  0.31143099  0.19537399  0.55363902  1
  O  O19  1  0.89077097  0.04274900  0.75000002  1
