# generated using pymatgen
data_Ti3NiN
_symmetry_space_group_name_H-M   'P 1'
_cell_length_a   3.11909604
_cell_length_b   5.31579018
_cell_length_c   7.69123793
_cell_angle_alpha   90.00000000
_cell_angle_beta   90.00000000
_cell_angle_gamma   107.06044006
_symmetry_Int_Tables_number   1
_chemical_formula_structural   Ti3NiN
_chemical_formula_sum   'Ti6 Ni2 N2'
_cell_volume   121.91266125
_cell_formula_units_Z   2
loop_
 _symmetry_equiv_pos_site_id
 _symmetry_equiv_pos_as_xyz
  1  'x, y, z'
loop_
 _atom_site_type_symbol
 _atom_site_label
 _atom_site_symmetry_multiplicity
 _atom_site_fract_x
 _atom_site_fract_y
 _atom_site_fract_z
 _atom_site_occupancy
  Ti  Ti0  1  0.12653502  0.25306999  0.44905300  1
  Ti  Ti1  1  0.54529000  0.09058000  0.75000001  1
  Ti  Ti2  1  0.45471006  0.90941998  0.25000000  1
  Ti  Ti3  1  0.12653502  0.25306999  0.05094700  1
  Ti  Ti4  1  0.87346504  0.74692998  0.94905301  1
  Ti  Ti5  1  0.87346504  0.74692998  0.55094701  1
  Ni  Ni6  1  0.24164203  0.48328399  0.75000001  1
  Ni  Ni7  1  0.75835803  0.51671599  0.25000000  1
  N  N8  1  0.50000006  0.99999998  0.50000000  1
  N  N9  1  0.50000006  0.99999998  1.00000001  1
