# generated using pymatgen
data_Sc2N3
_symmetry_space_group_name_H-M   'P 1'
_cell_length_a   3.59059000
_cell_length_b   3.59058976
_cell_length_c   12.44423866
_cell_angle_alpha   90.00000000
_cell_angle_beta   90.00000000
_cell_angle_gamma   120.00000000
_symmetry_Int_Tables_number   1
_chemical_formula_structural   Sc2N3
_chemical_formula_sum   'Sc4 N6'
_cell_volume   138.94104744
_cell_formula_units_Z   2
loop_
 _symmetry_equiv_pos_site_id
 _symmetry_equiv_pos_as_xyz
  1  'x, y, z'
loop_
 _atom_site_type_symbol
 _atom_site_label
 _atom_site_symmetry_multiplicity
 _atom_site_fract_x
 _atom_site_fract_y
 _atom_site_fract_z
 _atom_site_occupancy
  Sc  Sc0  1  0.00000000  0.00000000  0.00000000  1
  Sc  Sc1  1  0.00000000  0.00000000  0.50000001  1
  Sc  Sc2  1  0.66666666  0.33333334  0.75000002  1
  Sc  Sc3  1  0.33333332  0.66666668  0.25000001  1
  N  N4  1  0.66666666  0.33333334  0.91690702  1
  N  N5  1  0.66666666  0.33333334  0.58309302  1
  N  N6  1  0.00000000  0.00000000  0.75000002  1
  N  N7  1  0.00000000  0.00000000  0.25000001  1
  N  N8  1  0.33333332  0.66666668  0.08309300  1
  N  N9  1  0.33333332  0.66666668  0.41690701  1
