# generated using pymatgen
data_VAs
_symmetry_space_group_name_H-M   'P 1'
_cell_length_a   3.89827991
_cell_length_b   3.89827967
_cell_length_c   5.24730110
_cell_angle_alpha   90.00000000
_cell_angle_beta   90.00000000
_cell_angle_gamma   120.00000000
_symmetry_Int_Tables_number   1
_chemical_formula_structural   VAs
_chemical_formula_sum   'V2 As2'
_cell_volume   69.05778259
_cell_formula_units_Z   2
loop_
 _symmetry_equiv_pos_site_id
 _symmetry_equiv_pos_as_xyz
  1  'x, y, z'
loop_
 _atom_site_type_symbol
 _atom_site_label
 _atom_site_symmetry_multiplicity
 _atom_site_fract_x
 _atom_site_fract_y
 _atom_site_fract_z
 _atom_site_occupancy
  V  V0  1  0.00000000  0.00000000  0.24951800  1
  V  V1  1  0.00000000  0.00000000  0.75048199  1
  As  As2  1  0.33333329  0.66666662  0.49999999  1
  As  As3  1  0.66666666  0.33333331  0.99999998  1
