# generated using pymatgen
data_SmInSn2
_symmetry_space_group_name_H-M   'P 1'
_cell_length_a   4.69256687
_cell_length_b   4.69948292
_cell_length_c   9.37640285
_cell_angle_alpha   90.00000000
_cell_angle_beta   90.00000000
_cell_angle_gamma   90.00000000
_symmetry_Int_Tables_number   1
_chemical_formula_structural   SmInSn2
_chemical_formula_sum   'Sm2 In2 Sn4'
_cell_volume   206.77441653
_cell_formula_units_Z   2
loop_
 _symmetry_equiv_pos_site_id
 _symmetry_equiv_pos_as_xyz
  1  'x, y, z'
loop_
 _atom_site_type_symbol
 _atom_site_label
 _atom_site_symmetry_multiplicity
 _atom_site_fract_x
 _atom_site_fract_y
 _atom_site_fract_z
 _atom_site_occupancy
  Sm  Sm0  1  0.00000000  0.00000000  0.24797100  1
  Sm  Sm1  1  0.00000000  0.00000000  0.75202901  1
  In  In2  1  0.50000001  0.50000001  0.25095800  1
  In  In3  1  0.50000001  0.50000001  0.74904201  1
  Sn  Sn4  1  0.00000000  0.50000001  0.50000001  1
  Sn  Sn5  1  0.00000000  0.50000001  0.00000000  1
  Sn  Sn6  1  0.50000001  0.00000000  0.50000001  1
  Sn  Sn7  1  0.50000001  0.00000000  0.00000000  1
