# generated using pymatgen
data_Sm3Lu
_symmetry_space_group_name_H-M   'P 1'
_cell_length_a   5.72169113
_cell_length_b   7.24374199
_cell_length_c   7.24374151
_cell_angle_alpha   120.00000000
_cell_angle_beta   90.00000000
_cell_angle_gamma   90.00000000
_symmetry_Int_Tables_number   1
_chemical_formula_structural   Sm3Lu
_chemical_formula_sum   'Sm6 Lu2'
_cell_volume   260.00455665
_cell_formula_units_Z   2
loop_
 _symmetry_equiv_pos_site_id
 _symmetry_equiv_pos_as_xyz
  1  'x, y, z'
loop_
 _atom_site_type_symbol
 _atom_site_label
 _atom_site_symmetry_multiplicity
 _atom_site_fract_x
 _atom_site_fract_y
 _atom_site_fract_z
 _atom_site_occupancy
  Sm  Sm0  1  0.74999998  0.83242898  0.16757096  1
  Sm  Sm1  1  0.74999998  0.33514199  0.16757098  1
  Sm  Sm2  1  0.74999998  0.83242898  0.66485796  1
  Sm  Sm3  1  0.24999999  0.16757100  0.83242899  1
  Sm  Sm4  1  0.24999999  0.66485799  0.83242897  1
  Sm  Sm5  1  0.24999999  0.16757100  0.33514199  1
  Lu  Lu6  1  0.24999999  0.66666665  0.33333330  1
  Lu  Lu7  1  0.74999998  0.33333333  0.66666665  1
