# generated using pymatgen
data_NdRh3S4
_symmetry_space_group_name_H-M   'P 1'
_cell_length_a   6.79680586
_cell_length_b   6.79680586
_cell_length_c   6.79680586
_cell_angle_alpha   90.00000000
_cell_angle_beta   90.00000000
_cell_angle_gamma   90.00000000
_symmetry_Int_Tables_number   1
_chemical_formula_structural   NdRh3S4
_chemical_formula_sum   'Nd2 Rh6 S8'
_cell_volume   313.98911681
_cell_formula_units_Z   2
loop_
 _symmetry_equiv_pos_site_id
 _symmetry_equiv_pos_as_xyz
  1  'x, y, z'
loop_
 _atom_site_type_symbol
 _atom_site_label
 _atom_site_symmetry_multiplicity
 _atom_site_fract_x
 _atom_site_fract_y
 _atom_site_fract_z
 _atom_site_occupancy
  Nd  Nd0  1  0.50000001  0.50000001  0.50000001  1
  Nd  Nd1  1  0.00000000  0.00000000  0.00000000  1
  Rh  Rh2  1  0.75000002  0.00000000  0.50000001  1
  Rh  Rh3  1  0.50000001  0.75000002  0.00000000  1
  Rh  Rh4  1  0.00000000  0.50000001  0.75000002  1
  Rh  Rh5  1  0.00000000  0.50000001  0.25000001  1
  Rh  Rh6  1  0.25000001  0.00000000  0.50000001  1
  Rh  Rh7  1  0.50000001  0.25000001  0.00000000  1
  S  S8  1  0.75000002  0.25000001  0.25000001  1
  S  S9  1  0.25000001  0.25000001  0.75000002  1
  S  S10  1  0.25000001  0.75000002  0.25000001  1
  S  S11  1  0.75000002  0.75000002  0.75000002  1
  S  S12  1  0.25000001  0.75000002  0.75000002  1
  S  S13  1  0.75000002  0.75000002  0.25000001  1
  S  S14  1  0.25000001  0.25000001  0.25000001  1
  S  S15  1  0.75000002  0.25000001  0.75000002  1
