# generated using pymatgen
data_NdMn12
_symmetry_space_group_name_H-M   'P 1'
_cell_length_a   4.71345377
_cell_length_b   6.34102583
_cell_length_c   6.34102583
_cell_angle_alpha   82.06013489
_cell_angle_beta   68.18176270
_cell_angle_gamma   68.18176270
_symmetry_Int_Tables_number   1
_chemical_formula_structural   NdMn12
_chemical_formula_sum   'Nd1 Mn12'
_cell_volume   163.34213260
_cell_formula_units_Z   1
loop_
 _symmetry_equiv_pos_site_id
 _symmetry_equiv_pos_as_xyz
  1  'x, y, z'
loop_
 _atom_site_type_symbol
 _atom_site_label
 _atom_site_symmetry_multiplicity
 _atom_site_fract_x
 _atom_site_fract_y
 _atom_site_fract_z
 _atom_site_occupancy
  Nd  Nd0  1  0.00000000  0.00000000  0.00000000  1
  Mn  Mn1  1  0.36808505  0.63191498  0.63191497  1
  Mn  Mn2  1  0.63191504  0.36808499  0.36808499  1
  Mn  Mn3  1  0.00000003  0.63191498  0.36808497  1
  Mn  Mn4  1  0.00000002  0.36808499  0.63191497  1
  Mn  Mn5  1  0.50000003  0.22700599  0.77299398  1
  Mn  Mn6  1  0.50000006  0.77299397  0.22700598  1
  Mn  Mn7  1  0.72700607  0.77299397  0.77299397  1
  Mn  Mn8  1  0.27299402  0.22700599  0.22700599  1
  Mn  Mn9  1  0.50000002  0.00000000  0.50000000  1
  Mn  Mn10  1  0.00000000  0.00000000  0.49999999  1
  Mn  Mn11  1  0.50000004  0.49999998  -0.00000001  1
  Mn  Mn12  1  0.00000002  0.49999998  -0.00000002  1
