# generated using pymatgen
data_LiMn3O10
_symmetry_space_group_name_H-M   'P 1'
_cell_length_a   3.87538290
_cell_length_b   6.22736406
_cell_length_c   7.42487383
_cell_angle_alpha   89.99897766
_cell_angle_beta   90.00000000
_cell_angle_gamma   90.00000000
_symmetry_Int_Tables_number   1
_chemical_formula_structural   LiMn3O10
_chemical_formula_sum   'Li1 Mn3 O10'
_cell_volume   179.18760005
_cell_formula_units_Z   1
loop_
 _symmetry_equiv_pos_site_id
 _symmetry_equiv_pos_as_xyz
  1  'x, y, z'
loop_
 _atom_site_type_symbol
 _atom_site_label
 _atom_site_symmetry_multiplicity
 _atom_site_fract_x
 _atom_site_fract_y
 _atom_site_fract_z
 _atom_site_occupancy
  Li  Li0  1  0.00000000  0.00223200  0.99971702  1
  Mn  Mn1  1  0.00000000  0.00275900  0.49932001  1
  Mn  Mn2  1  0.00000000  0.53418899  0.74967203  1
  Mn  Mn3  1  0.00000000  0.47080200  0.24968702  1
  O  O4  1  0.50000001  0.00857400  0.99884502  1
  O  O5  1  0.50000001  0.00888300  0.50091101  1
  O  O6  1  0.50000001  0.56988999  0.74951204  1
  O  O7  1  0.50000001  0.44135200  0.24948502  1
  O  O8  1  0.00000000  0.31876500  0.93650603  1
  O  O9  1  -0.00000000  0.88046099  0.74956305  1
  O  O10  1  0.00000000  0.69515499  0.43170403  1
  O  O11  1  0.00000000  0.32025300  0.56131102  1
  O  O12  1  0.00000000  0.12795700  0.24955901  1
  O  O13  1  0.00000000  0.69372899  0.06620702  1
