# generated using pymatgen
data_MgTi2O4
_symmetry_space_group_name_H-M   'P 1'
_cell_length_a   5.80529213
_cell_length_b   5.80529022
_cell_length_c   6.26071787
_cell_angle_alpha   117.58018494
_cell_angle_beta   117.57944489
_cell_angle_gamma   90.07962036
_symmetry_Int_Tables_number   1
_chemical_formula_structural   MgTi2O4
_chemical_formula_sum   'Mg2 Ti4 O8'
_cell_volume   159.39471742
_cell_formula_units_Z   2
loop_
 _symmetry_equiv_pos_site_id
 _symmetry_equiv_pos_as_xyz
  1  'x, y, z'
loop_
 _atom_site_type_symbol
 _atom_site_label
 _atom_site_symmetry_multiplicity
 _atom_site_fract_x
 _atom_site_fract_y
 _atom_site_fract_z
 _atom_site_occupancy
  Mg  Mg0  1  0.37499990  0.62499995  0.24999993  1
  Mg  Mg1  1  0.62499991  0.37499997  0.74999994  1
  Ti  Ti2  1  -0.00000006  0.49999996  0.49999997  1
  Ti  Ti3  1  0.00000000  0.00000000  0.00000000  1
  Ti  Ti4  1  -0.00000013  0.99999992  0.49999993  1
  Ti  Ti5  1  0.49999884  0.99999892  0.99999891  1
  O  O6  1  0.22264595  0.24606098  0.49230897  1
  O  O7  1  0.75375192  0.23033698  0.00769193  1
  O  O8  1  0.75394285  0.77735494  0.00769189  1
  O  O9  1  0.77735385  0.75393994  0.50769190  1
  O  O10  1  0.23033689  0.75374894  0.50769194  1
  O  O11  1  0.24624789  0.76966294  0.99230894  1
  O  O12  1  0.76966292  0.24625098  0.49230894  1
  O  O13  1  0.24605695  0.22264598  0.99230898  1
