# generated using pymatgen
data_HfSi2
_symmetry_space_group_name_H-M   'P 1'
_cell_length_a   6.73574209
_cell_length_b   7.58120155
_cell_length_c   7.03806591
_cell_angle_alpha   117.65708923
_cell_angle_beta   90.00000000
_cell_angle_gamma   116.37471008
_symmetry_Int_Tables_number   1
_chemical_formula_structural   HfSi2
_chemical_formula_sum   'Hf6 Si12'
_cell_volume   275.40118000
_cell_formula_units_Z   6
loop_
 _symmetry_equiv_pos_site_id
 _symmetry_equiv_pos_as_xyz
  1  'x, y, z'
loop_
 _atom_site_type_symbol
 _atom_site_label
 _atom_site_symmetry_multiplicity
 _atom_site_fract_x
 _atom_site_fract_y
 _atom_site_fract_z
 _atom_site_occupancy
  Hf  Hf0  1  0.48710801  0.39232600  0.94616302  1
  Hf  Hf1  1  0.09478203  0.60767400  0.05383701  1
  Hf  Hf2  1  0.06844702  0.56976400  0.53488202  1
  Hf  Hf3  1  0.49868301  0.43023700  0.46511902  1
  Hf  Hf4  1  0.90528303  0.99329800  0.74664903  1
  Hf  Hf5  1  0.91198499  0.00670200  0.25335100  1
  Si  Si6  1  0.24679600  0.00000000  0.50000001  1
  Si  Si7  1  0.24679600  0.00000000  0.00000000  1
  Si  Si8  1  0.49596403  0.74746100  0.90920403  1
  Si  Si9  1  0.74850300  0.25253900  0.09079601  1
  Si  Si10  1  0.49596403  0.74746100  0.33825702  1
  Si  Si11  1  0.74850300  0.25253900  0.66174301  1
  Si  Si12  1  0.48020003  0.94367800  0.72183903  1
  Si  Si13  1  0.53652199  0.05632200  0.27816100  1
  Si  Si14  1  0.16155901  0.33478600  0.67143602  1
  Si  Si15  1  0.82677302  0.66521400  0.32856402  1
  Si  Si16  1  0.16155901  0.33478600  0.16335001  1
  Si  Si17  1  0.82677302  0.66521400  0.83665003  1
