# generated using pymatgen
data_Ho
_symmetry_space_group_name_H-M   'P 1'
_cell_length_a   6.10625601
_cell_length_b   6.10625601
_cell_length_c   6.56370687
_cell_angle_alpha   62.27987289
_cell_angle_beta   62.27987289
_cell_angle_gamma   60.00000000
_symmetry_Int_Tables_number   1
_chemical_formula_structural   Ho
_chemical_formula_sum   Ho6
_cell_volume   178.78060004
_cell_formula_units_Z   6
loop_
 _symmetry_equiv_pos_site_id
 _symmetry_equiv_pos_as_xyz
  1  'x, y, z'
loop_
 _atom_site_type_symbol
 _atom_site_label
 _atom_site_symmetry_multiplicity
 _atom_site_fract_x
 _atom_site_fract_y
 _atom_site_fract_z
 _atom_site_occupancy
  Ho  Ho0  1  0.16205700  0.50000000  0.50000003  1
  Ho  Ho1  1  0.83794300  0.16205700  0.50000004  1
  Ho  Ho2  1  0.50000000  0.83794300  0.50000004  1
  Ho  Ho3  1  0.33205600  0.33205600  0.00383201  1
  Ho  Ho4  1  0.66794400  0.66794400  0.99616806  1
  Ho  Ho5  1  0.00000000  0.00000000  0.00000000  1
