# generated using pymatgen
data_BaGeF4
_symmetry_space_group_name_H-M   'P 1'
_cell_length_a   5.84697819
_cell_length_b   5.84697819
_cell_length_c   6.71954823
_cell_angle_alpha   115.78989410
_cell_angle_beta   115.78989410
_cell_angle_gamma   90.00000000
_symmetry_Int_Tables_number   1
_chemical_formula_structural   BaGeF4
_chemical_formula_sum   'Ba2 Ge2 F8'
_cell_volume   181.09109850
_cell_formula_units_Z   2
loop_
 _symmetry_equiv_pos_site_id
 _symmetry_equiv_pos_as_xyz
  1  'x, y, z'
loop_
 _atom_site_type_symbol
 _atom_site_label
 _atom_site_symmetry_multiplicity
 _atom_site_fract_x
 _atom_site_fract_y
 _atom_site_fract_z
 _atom_site_occupancy
  Ba  Ba0  1  0.25000000  0.25000000  0.50000000  1
  Ba  Ba1  1  0.75000001  0.74999999  0.50000003  1
  Ge  Ge2  1  0.50000002  0.99999999  1.00000002  1
  Ge  Ge3  1  0.00000002  0.49999999  0.00000002  1
  F  F4  1  0.46591900  0.29469000  0.26060901  1
  F  F5  1  0.53408101  0.70530999  0.73939102  1
  F  F6  1  0.79469002  0.96591899  0.26060905  1
  F  F7  1  0.96591900  0.46591899  0.26060903  1
  F  F8  1  0.70530999  0.20531000  0.73939100  1
  F  F9  1  0.20531000  0.03408100  0.73939098  1
  F  F10  1  0.03408102  0.53408099  0.73939100  1
  F  F11  1  0.29469002  0.79468999  0.26060903  1
