# generated using pymatgen
data_Y6InTe4
_symmetry_space_group_name_H-M   'P 1'
_cell_length_a   4.07317019
_cell_length_b   9.48286057
_cell_length_c   9.48286057
_cell_angle_alpha   62.35498047
_cell_angle_beta   77.59826660
_cell_angle_gamma   77.59826660
_symmetry_Int_Tables_number   1
_chemical_formula_structural   Y6InTe4
_chemical_formula_sum   'Y6 In1 Te4'
_cell_volume   314.07503588
_cell_formula_units_Z   1
loop_
 _symmetry_equiv_pos_site_id
 _symmetry_equiv_pos_as_xyz
  1  'x, y, z'
loop_
 _atom_site_type_symbol
 _atom_site_label
 _atom_site_symmetry_multiplicity
 _atom_site_fract_x
 _atom_site_fract_y
 _atom_site_fract_z
 _atom_site_occupancy
  Y  Y0  1  0.12540997  0.29058801  0.45859303  1
  Y  Y1  1  0.87459093  0.54140602  0.70941203  1
  Y  Y2  1  0.31641697  0.30850001  0.05866600  1
  Y  Y3  1  0.68358291  0.94133404  0.69150004  1
  Y  Y4  1  0.35990692  0.90256204  0.37762403  1
  Y  Y5  1  0.64009293  0.62237603  0.09743801  1
  In  In6  1  0.99999996  0.00398500  0.99601502  1
  Te  Te7  1  0.49999996  0.26293201  0.73706803  1
  Te  Te8  1  0.99999992  0.66407103  0.33592901  1
  Te  Te9  1  0.23688394  0.68966903  0.83656405  1
  Te  Te10  1  0.76311696  0.16343501  0.31033100  1
