# generated using pymatgen
data_Al2SiNi5
_symmetry_space_group_name_H-M   'P 1'
_cell_length_a   3.41069603
_cell_length_b   3.41069603
_cell_length_c   9.60930157
_cell_angle_alpha   90.00000000
_cell_angle_beta   90.00000000
_cell_angle_gamma   90.00000000
_symmetry_Int_Tables_number   1
_chemical_formula_structural   Al2SiNi5
_chemical_formula_sum   'Al2 Si1 Ni5'
_cell_volume   111.78353882
_cell_formula_units_Z   1
loop_
 _symmetry_equiv_pos_site_id
 _symmetry_equiv_pos_as_xyz
  1  'x, y, z'
loop_
 _atom_site_type_symbol
 _atom_site_label
 _atom_site_symmetry_multiplicity
 _atom_site_fract_x
 _atom_site_fract_y
 _atom_site_fract_z
 _atom_site_occupancy
  Al  Al0  1  0.50000000  0.50000000  0.75322503  1
  Al  Al1  1  0.00000000  0.00000000  0.50000002  1
  Si  Si2  1  0.50000000  0.50000000  0.24677501  1
  Ni  Ni3  1  0.00000000  0.00000000  0.00000000  1
  Ni  Ni4  1  0.00000000  0.00000000  0.25186701  1
  Ni  Ni5  1  0.50000000  0.50000000  0.00000000  1
  Ni  Ni6  1  0.00000000  0.00000000  0.74813303  1
  Ni  Ni7  1  0.50000000  0.50000000  0.50000002  1
