# generated using pymatgen
data_Hf10Sn7Ge
_symmetry_space_group_name_H-M   'P 1'
_cell_length_a   5.94534922
_cell_length_b   8.68111420
_cell_length_c   8.68111420
_cell_angle_alpha   120.00000000
_cell_angle_beta   90.00000000
_cell_angle_gamma   90.00000000
_symmetry_Int_Tables_number   1
_chemical_formula_structural   Hf10Sn7Ge
_chemical_formula_sum   'Hf10 Sn7 Ge1'
_cell_volume   388.02431362
_cell_formula_units_Z   1
loop_
 _symmetry_equiv_pos_site_id
 _symmetry_equiv_pos_as_xyz
  1  'x, y, z'
loop_
 _atom_site_type_symbol
 _atom_site_label
 _atom_site_symmetry_multiplicity
 _atom_site_fract_x
 _atom_site_fract_y
 _atom_site_fract_z
 _atom_site_occupancy
  Hf  Hf0  1  -0.00000000  0.33333332  0.66666663  1
  Hf  Hf1  1  0.99999996  0.66666665  0.33333331  1
  Hf  Hf2  1  0.49999998  0.66666665  0.33333331  1
  Hf  Hf3  1  0.49999998  0.33333332  0.66666663  1
  Hf  Hf4  1  0.24999999  0.26370199  -0.00000000  1
  Hf  Hf5  1  0.24999999  0.73629798  0.73629795  1
  Hf  Hf6  1  0.24999999  0.00000000  0.26370199  1
  Hf  Hf7  1  0.74999997  0.73629798  -0.00000001  1
  Hf  Hf8  1  0.74999997  0.26370199  0.26370198  1
  Hf  Hf9  1  0.74999997  0.99999997  0.73629795  1
  Sn  Sn10  1  0.24999999  0.60531998  -0.00000001  1
  Sn  Sn11  1  0.24999999  0.39467999  0.39467997  1
  Sn  Sn12  1  0.24999999  0.00000000  0.60531997  1
  Sn  Sn13  1  0.74999997  0.39467999  -0.00000001  1
  Sn  Sn14  1  0.74999997  0.60531998  0.60531996  1
  Sn  Sn15  1  0.74999997  0.99999997  0.39467996  1
  Ge  Ge16  1  0.00000000  0.00000000  0.00000000  1
  Sn  Sn17  1  0.49999998  0.00000000  -0.00000000  1
