# generated using pymatgen
data_Nb5Ga3
_symmetry_space_group_name_H-M   'P 1'
_cell_length_a   5.10810995
_cell_length_b   7.75590515
_cell_length_c   7.75590515
_cell_angle_alpha   83.77452087
_cell_angle_beta   70.77342987
_cell_angle_gamma   70.77342987
_symmetry_Int_Tables_number   1
_chemical_formula_structural   Nb5Ga3
_chemical_formula_sum   'Nb10 Ga6'
_cell_volume   273.95237253
_cell_formula_units_Z   2
loop_
 _symmetry_equiv_pos_site_id
 _symmetry_equiv_pos_as_xyz
  1  'x, y, z'
loop_
 _atom_site_type_symbol
 _atom_site_label
 _atom_site_symmetry_multiplicity
 _atom_site_fract_x
 _atom_site_fract_y
 _atom_site_fract_z
 _atom_site_occupancy
  Nb  Nb0  1  0.25000000  0.49999999  0.50000003  1
  Nb  Nb1  1  0.75000000  0.49999999  0.50000004  1
  Nb  Nb2  1  0.77833900  0.29722899  0.14609203  1
  Nb  Nb3  1  0.22166100  0.70277098  0.85390804  1
  Nb  Nb4  1  0.72166000  0.85390798  0.70277206  1
  Nb  Nb5  1  0.27834000  0.14609200  0.29722801  1
  Nb  Nb6  1  0.92443201  0.85390798  0.29722806  1
  Nb  Nb7  1  0.07556800  0.14609200  0.70277200  1
  Nb  Nb8  1  0.42443100  0.29722899  0.85390801  1
  Nb  Nb9  1  0.57556900  0.70277098  0.14609205  1
  Ga  Ga10  1  0.75000001  0.99999998  0.00000007  1
  Ga  Ga11  1  0.25000000  0.99999998  0.00000007  1
  Ga  Ga12  1  0.33421900  0.83156298  0.50000005  1
  Ga  Ga13  1  0.66578100  0.16843700  0.50000001  1
  Ga  Ga14  1  0.16578200  0.49999999  0.16843603  1
  Ga  Ga15  1  0.83421800  0.49999999  0.83156403  1
