# generated using pymatgen
data_Ba2Hg3Pb
_symmetry_space_group_name_H-M   'P 1'
_cell_length_a   5.27906799
_cell_length_b   6.66146517
_cell_length_c   6.66333151
_cell_angle_alpha   79.69987488
_cell_angle_beta   66.66364288
_cell_angle_gamma   66.65671539
_symmetry_Int_Tables_number   1
_chemical_formula_structural   Ba2Hg3Pb
_chemical_formula_sum   'Ba2 Hg3 Pb1'
_cell_volume   197.47858047
_cell_formula_units_Z   1
loop_
 _symmetry_equiv_pos_site_id
 _symmetry_equiv_pos_as_xyz
  1  'x, y, z'
loop_
 _atom_site_type_symbol
 _atom_site_label
 _atom_site_symmetry_multiplicity
 _atom_site_fract_x
 _atom_site_fract_y
 _atom_site_fract_z
 _atom_site_occupancy
  Ba  Ba0  1  0.54304300  0.20673099  0.70718302  1
  Ba  Ba1  1  0.45695704  0.79326897  0.29281700  1
  Hg  Hg2  1  0.16031502  0.40198798  0.27738200  1
  Hg  Hg3  1  0.83968502  0.59801197  0.72261802  1
  Hg  Hg4  1  0.83925000  0.21957299  0.10192703  1
  Pb  Pb5  1  0.16075004  0.78042697  0.89807299  1
