# generated using pymatgen
data_Cs2PaBi3Te4
_symmetry_space_group_name_H-M   'P 1'
_cell_length_a   8.87400341
_cell_length_b   8.87400341
_cell_length_c   8.87400341
_cell_angle_alpha   60.00000000
_cell_angle_beta   60.00000000
_cell_angle_gamma   60.00000000
_symmetry_Int_Tables_number   1
_chemical_formula_structural   Cs2PaBi3Te4
_chemical_formula_sum   'Cs2 Pa1 Bi3 Te4'
_cell_volume   494.13290601
_cell_formula_units_Z   1
loop_
 _symmetry_equiv_pos_site_id
 _symmetry_equiv_pos_as_xyz
  1  'x, y, z'
loop_
 _atom_site_type_symbol
 _atom_site_label
 _atom_site_symmetry_multiplicity
 _atom_site_fract_x
 _atom_site_fract_y
 _atom_site_fract_z
 _atom_site_occupancy
  Cs  Cs0  1  0.25000000  0.25000000  0.25000000  1
  Cs  Cs1  1  0.75000000  0.75000000  0.75000000  1
  Pa  Pa2  1  0.00000000  0.00000000  0.00000000  1
  Bi  Bi3  1  0.50000000  0.50000000  0.50000000  1
  Bi  Bi4  1  0.26484300  0.73515700  0.26484300  1
  Bi  Bi5  1  0.26484300  0.26484300  0.73515700  1
  Te  Te6  1  0.73515700  0.26484300  0.73515700  1
  Te  Te7  1  0.26484300  0.73515700  0.73515700  1
  Te  Te8  1  0.73515700  0.26484300  0.26484300  1
  Te  Te9  1  0.73515700  0.73515700  0.26484300  1
