# generated using pymatgen
data_Cs3SnAu8
_symmetry_space_group_name_H-M   'P 1'
_cell_length_a   6.46482801
_cell_length_b   6.46482801
_cell_length_c   9.01643085
_cell_angle_alpha   111.00826263
_cell_angle_beta   111.00826263
_cell_angle_gamma   90.00000000
_symmetry_Int_Tables_number   1
_chemical_formula_structural   Cs3SnAu8
_chemical_formula_sum   'Cs3 Sn1 Au8'
_cell_volume   324.80965383
_cell_formula_units_Z   1
loop_
 _symmetry_equiv_pos_site_id
 _symmetry_equiv_pos_as_xyz
  1  'x, y, z'
loop_
 _atom_site_type_symbol
 _atom_site_label
 _atom_site_symmetry_multiplicity
 _atom_site_fract_x
 _atom_site_fract_y
 _atom_site_fract_z
 _atom_site_occupancy
  Cs  Cs0  1  0.00000000  0.00000000  0.00000000  1
  Cs  Cs1  1  0.12982198  0.62982199  0.25964398  1
  Cs  Cs2  1  0.37017797  0.87017798  0.74035596  1
  Sn  Sn3  1  0.77599997  0.56244999  0.55199996  1
  Au  Au4  1  0.08547699  0.39424599  0.78849199  1
  Au  Au5  1  0.70301498  0.39424599  0.78849197  1
  Au  Au6  1  0.77599996  0.98954998  0.55199995  1
  Au  Au7  1  0.01044999  0.22400000  0.44799999  1
  Au  Au8  1  0.43754999  0.22400000  0.44799998  1
  Au  Au9  1  0.60575398  0.29698499  0.21150798  1
  Au  Au10  1  0.60575396  0.91452298  0.21150795  1
  Au  Au11  1  0.49999998  0.49999999  -0.00000003  1
