# generated using pymatgen
data_Ba5Sb3
_symmetry_space_group_name_H-M   'P 1'
_cell_length_a   7.91081095
_cell_length_b   10.13541985
_cell_length_c   10.13541985
_cell_angle_alpha   120.00000000
_cell_angle_beta   90.00000000
_cell_angle_gamma   90.00000000
_symmetry_Int_Tables_number   1
_chemical_formula_structural   Ba5Sb3
_chemical_formula_sum   'Ba10 Sb6'
_cell_volume   703.77708882
_cell_formula_units_Z   2
loop_
 _symmetry_equiv_pos_site_id
 _symmetry_equiv_pos_as_xyz
  1  'x, y, z'
loop_
 _atom_site_type_symbol
 _atom_site_label
 _atom_site_symmetry_multiplicity
 _atom_site_fract_x
 _atom_site_fract_y
 _atom_site_fract_z
 _atom_site_occupancy
  Ba  Ba0  1  0.25000000  1.00000001  0.25578699  1
  Ba  Ba1  1  0.75000000  0.00000000  0.74421300  1
  Ba  Ba2  1  0.75000000  0.74421301  0.99999999  1
  Ba  Ba3  1  0.25000000  0.74421301  0.74421299  1
  Ba  Ba4  1  0.25000000  0.25578700  -0.00000000  1
  Ba  Ba5  1  0.75000000  0.25578700  0.25578700  1
  Ba  Ba6  1  0.50000000  0.66666667  0.33333333  1
  Ba  Ba7  1  1.00000001  0.33333334  0.66666666  1
  Ba  Ba8  1  0.50000000  0.33333334  0.66666666  1
  Ba  Ba9  1  -0.00000000  0.66666667  0.33333333  1
  Sb  Sb10  1  0.25000000  0.39111800  0.39111799  1
  Sb  Sb11  1  0.75000000  0.39111800  -0.00000000  1
  Sb  Sb12  1  0.75000000  0.00000000  0.39111800  1
  Sb  Sb13  1  0.25000000  0.00000000  0.60888200  1
  Sb  Sb14  1  0.25000000  0.60888201  -0.00000001  1
  Sb  Sb15  1  0.75000000  0.60888201  0.60888199  1
