# generated using pymatgen
data_Tl3CuF4
_symmetry_space_group_name_H-M   'P 1'
_cell_length_a   6.32733393
_cell_length_b   6.43655777
_cell_length_c   8.04813671
_cell_angle_alpha   90.00000000
_cell_angle_beta   90.00000000
_cell_angle_gamma   90.00000000
_symmetry_Int_Tables_number   1
_chemical_formula_structural   Tl3CuF4
_chemical_formula_sum   'Tl6 Cu2 F8'
_cell_volume   327.77043055
_cell_formula_units_Z   2
loop_
 _symmetry_equiv_pos_site_id
 _symmetry_equiv_pos_as_xyz
  1  'x, y, z'
loop_
 _atom_site_type_symbol
 _atom_site_label
 _atom_site_symmetry_multiplicity
 _atom_site_fract_x
 _atom_site_fract_y
 _atom_site_fract_z
 _atom_site_occupancy
  Tl  Tl0  1  0.25000000  0.65099702  0.69575402  1
  Tl  Tl1  1  0.25000000  0.15099701  0.80424603  1
  Tl  Tl2  1  0.75000001  0.34900301  0.30424601  1
  Tl  Tl3  1  0.75000001  0.84900303  0.19575401  1
  Cu  Cu4  1  0.00000000  0.00000000  0.50000002  1
  Cu  Cu5  1  0.50000001  0.50000002  0.00000000  1
  Tl  Tl6  1  0.50000001  0.00000000  0.50000002  1
  Tl  Tl7  1  0.00000000  0.50000002  0.00000000  1
  F  F8  1  0.25000000  0.41980102  0.38125801  1
  F  F9  1  0.25000000  0.91980103  0.11874200  1
  F  F10  1  0.75000001  0.58019902  0.61874202  1
  F  F11  1  0.75000001  0.08019900  0.88125803  1
  F  F12  1  0.25000000  0.44213002  0.87335503  1
  F  F13  1  0.25000000  0.94213003  0.62664502  1
  F  F14  1  0.75000001  0.55787002  0.12664500  1
  F  F15  1  0.75000001  0.05787000  0.37335501  1
