# generated using pymatgen
data_Lu11Ni2Bi5
_symmetry_space_group_name_H-M   'P 1'
_cell_length_a   4.01858187
_cell_length_b   7.82350111
_cell_length_c   15.03516483
_cell_angle_alpha   90.00000000
_cell_angle_beta   90.00000000
_cell_angle_gamma   104.88190460
_symmetry_Int_Tables_number   1
_chemical_formula_structural   Lu11Ni2Bi5
_chemical_formula_sum   'Lu11 Ni2 Bi5'
_cell_volume   456.84071891
_cell_formula_units_Z   1
loop_
 _symmetry_equiv_pos_site_id
 _symmetry_equiv_pos_as_xyz
  1  'x, y, z'
loop_
 _atom_site_type_symbol
 _atom_site_label
 _atom_site_symmetry_multiplicity
 _atom_site_fract_x
 _atom_site_fract_y
 _atom_site_fract_z
 _atom_site_occupancy
  Lu  Lu0  1  0.04004800  0.08009600  0.87672301  1
  Lu  Lu1  1  0.95995197  0.91990397  0.12327700  1
  Lu  Lu2  1  0.95995197  0.91990397  0.37672300  1
  Lu  Lu3  1  0.04004800  0.08009600  0.62327701  1
  Lu  Lu4  1  0.25880198  0.51760398  0.37248700  1
  Lu  Lu5  1  0.74119799  0.48239598  0.62751301  1
  Lu  Lu6  1  0.74119799  0.48239598  0.87248701  1
  Lu  Lu7  1  0.25880198  0.51760398  0.12751300  1
  Lu  Lu8  1  0.39498796  0.78997597  0.75000001  1
  Lu  Lu9  1  0.60501201  0.21002399  0.25000000  1
  Ni  Ni10  1  0.58748501  0.17496999  0.75000001  1
  Lu  Lu11  1  0.41251496  0.82502997  0.25000000  1
  Bi  Bi12  1  0.18532898  0.37065799  0.75000001  1
  Ni  Ni13  1  0.81467099  0.62934198  0.25000000  1
  Bi  Bi14  1  0.38463996  0.76927997  0.96025601  1
  Bi  Bi15  1  0.61536001  0.23071999  0.03974400  1
  Bi  Bi16  1  0.61536001  0.23071999  0.46025601  1
  Bi  Bi17  1  0.38463996  0.76927997  0.53974401  1
