# generated using pymatgen
data_CoS
_symmetry_space_group_name_H-M   'P 1'
_cell_length_a   3.15394092
_cell_length_b   5.19101000
_cell_length_c   5.84953213
_cell_angle_alpha   90.00000000
_cell_angle_beta   90.00000000
_cell_angle_gamma   90.00000000
_symmetry_Int_Tables_number   1
_chemical_formula_structural   CoS
_chemical_formula_sum   'Co4 S4'
_cell_volume   95.76935208
_cell_formula_units_Z   4
loop_
 _symmetry_equiv_pos_site_id
 _symmetry_equiv_pos_as_xyz
  1  'x, y, z'
loop_
 _atom_site_type_symbol
 _atom_site_label
 _atom_site_symmetry_multiplicity
 _atom_site_fract_x
 _atom_site_fract_y
 _atom_site_fract_z
 _atom_site_occupancy
  Co  Co0  1  0.25000001  0.50440000  0.69593298  1
  Co  Co1  1  0.75000002  0.49560000  0.30406699  1
  Co  Co2  1  0.25000001  0.00440000  0.80406698  1
  Co  Co3  1  0.75000002  0.99560000  0.19593300  1
  S  S4  1  0.25000001  0.68672800  0.06932900  1
  S  S5  1  0.75000002  0.31327200  0.93067098  1
  S  S6  1  0.25000001  0.18672800  0.43067099  1
  S  S7  1  0.75000002  0.81327200  0.56932899  1
