# generated using pymatgen
data_Rb2NbAgS4
_symmetry_space_group_name_H-M   'P 1'
_cell_length_a   5.96465206
_cell_length_b   7.38939571
_cell_length_c   11.93209934
_cell_angle_alpha   84.21042633
_cell_angle_beta   75.52595520
_cell_angle_gamma   66.19686127
_symmetry_Int_Tables_number   1
_chemical_formula_structural   Rb2NbAgS4
_chemical_formula_sum   'Rb4 Nb2 Ag2 S8'
_cell_volume   465.90221975
_cell_formula_units_Z   2
loop_
 _symmetry_equiv_pos_site_id
 _symmetry_equiv_pos_as_xyz
  1  'x, y, z'
loop_
 _atom_site_type_symbol
 _atom_site_label
 _atom_site_symmetry_multiplicity
 _atom_site_fract_x
 _atom_site_fract_y
 _atom_site_fract_z
 _atom_site_occupancy
  Rb  Rb0  1  0.93035396  0.50000002  0.13929200  1
  Rb  Rb1  1  0.81964599  0.00000000  0.36070801  1
  Rb  Rb2  1  0.56964596  0.50000002  0.86070800  1
  Rb  Rb3  1  0.18035400  0.00000000  0.63929201  1
  Nb  Nb4  1  0.74999996  0.50000002  0.50000000  1
  Nb  Nb5  1  0.00000000  0.00000000  0.00000000  1
  Ag  Ag6  1  0.24999997  0.50000002  0.50000000  1
  Ag  Ag7  1  0.49999999  0.00000000  0.00000001  1
  S  S8  1  0.17008099  0.20448201  0.88429100  1
  S  S9  1  0.25885395  0.79551804  0.11570899  1
  S  S10  1  0.62543698  0.20448201  0.11570901  1
  S  S11  1  0.94562794  0.79551804  0.88429100  1
  S  S12  1  0.57991897  0.29551801  0.61570901  1
  S  S13  1  0.80437195  0.70448203  0.61570900  1
  S  S14  1  0.12456298  0.29551801  0.38429100  1
  S  S15  1  0.49114595  0.70448203  0.38429099  1
