# generated using pymatgen
data_Tl3CuCl2O3
_symmetry_space_group_name_H-M   'P 1'
_cell_length_a   4.11613321
_cell_length_b   4.18091106
_cell_length_c   9.98318005
_cell_angle_alpha   77.91970825
_cell_angle_beta   78.10340881
_cell_angle_gamma   89.99745941
_symmetry_Int_Tables_number   1
_chemical_formula_structural   Tl3CuCl2O3
_chemical_formula_sum   'Tl3 Cu1 Cl2 O3'
_cell_volume   164.22267234
_cell_formula_units_Z   1
loop_
 _symmetry_equiv_pos_site_id
 _symmetry_equiv_pos_as_xyz
  1  'x, y, z'
loop_
 _atom_site_type_symbol
 _atom_site_label
 _atom_site_symmetry_multiplicity
 _atom_site_fract_x
 _atom_site_fract_y
 _atom_site_fract_z
 _atom_site_occupancy
  Tl  Tl0  1  0.68705596  0.68705998  0.62590205  1
  Tl  Tl1  1  0.31294498  0.31293899  0.37409802  1
  Tl  Tl2  1  0.49999797  0.00000200  0.00000001  1
  Cu  Cu3  1  0.00000000  0.49999999  0.00000001  1
  Cl  Cl4  1  0.09964299  0.09957400  0.80102003  1
  Cl  Cl5  1  0.90035695  0.90042498  0.19898004  1
  O  O6  1  0.49999997  0.50000099  0.00000002  1
  O  O7  1  0.24995399  0.74995298  0.50009404  1
  O  O8  1  0.75004696  0.25004599  0.49990603  1
