# generated using pymatgen
data_ScTiO4
_symmetry_space_group_name_H-M   'P 1'
_cell_length_a   4.88539076
_cell_length_b   5.11810732
_cell_length_c   5.85340786
_cell_angle_alpha   90.00000000
_cell_angle_beta   90.00000000
_cell_angle_gamma   91.63352203
_symmetry_Int_Tables_number   1
_chemical_formula_structural   ScTiO4
_chemical_formula_sum   'Sc2 Ti2 O8'
_cell_volume   146.29886314
_cell_formula_units_Z   2
loop_
 _symmetry_equiv_pos_site_id
 _symmetry_equiv_pos_as_xyz
  1  'x, y, z'
loop_
 _atom_site_type_symbol
 _atom_site_label
 _atom_site_symmetry_multiplicity
 _atom_site_fract_x
 _atom_site_fract_y
 _atom_site_fract_z
 _atom_site_occupancy
  Sc  Sc0  1  0.50000000  0.24999999  0.67358202  1
  Sc  Sc1  1  0.49999997  0.74999998  0.32642201  1
  Ti  Ti2  1  -0.00000002  0.24999999  0.17203000  1
  Ti  Ti3  1  -0.00000005  0.74999998  0.82796902  1
  O  O4  1  0.74667202  0.10696800  0.37106201  1
  O  O5  1  0.25332798  0.39303199  0.37106201  1
  O  O6  1  0.25332795  0.89303198  0.62893702  1
  O  O7  1  0.74667199  0.60696799  0.62893702  1
  O  O8  1  0.79012502  0.06136600  0.89516202  1
  O  O9  1  0.20987498  0.43863399  0.89516202  1
  O  O10  1  0.20987495  0.93863398  0.10483700  1
  O  O11  1  0.79012499  0.56136599  0.10483700  1
