# generated using pymatgen
data_SrLa3Ta2(FeO6)2
_symmetry_space_group_name_H-M   'P 1'
_cell_length_a   5.53110790
_cell_length_b   5.71406364
_cell_length_c   7.81460905
_cell_angle_alpha   91.30342865
_cell_angle_beta   90.24795532
_cell_angle_gamma   92.21002960
_symmetry_Int_Tables_number   1
_chemical_formula_structural   SrLa3Ta2(FeO6)2
_chemical_formula_sum   'Sr1 La3 Ta2 Fe2 O12'
_cell_volume   246.73060348
_cell_formula_units_Z   1
loop_
 _symmetry_equiv_pos_site_id
 _symmetry_equiv_pos_as_xyz
  1  'x, y, z'
loop_
 _atom_site_type_symbol
 _atom_site_label
 _atom_site_symmetry_multiplicity
 _atom_site_fract_x
 _atom_site_fract_y
 _atom_site_fract_z
 _atom_site_occupancy
  Sr  Sr0  1  0.49863299  0.00652900  0.24861500  1
  La  La1  1  0.99912798  0.50664900  0.74814500  1
  La  La2  1  0.50121101  0.99351299  0.75132500  1
  La  La3  1  0.00097101  0.49328400  0.25187100  1
  Ta  Ta4  1  0.99991999  0.99996799  0.49998900  1
  Ta  Ta5  1  0.50006700  0.50002700  -0.00000000  1
  Fe  Fe6  1  0.50004600  0.49994900  0.50001000  1
  Fe  Fe7  1  0.99999097  0.00005200  0.00007900  1
  O  O8  1  0.20975300  0.31059400  0.50936200  1
  O  O9  1  0.70862200  0.81169600  0.00912400  1
  O  O10  1  0.02741102  0.94133099  0.76030500  1
  O  O11  1  0.52728099  0.44117700  0.26000900  1
  O  O12  1  0.29357001  0.79588000  0.46009300  1
  O  O13  1  0.79479898  0.29715100  0.96054401  1
  O  O14  1  0.79030299  0.68929700  0.49066200  1
  O  O15  1  0.29133200  0.18843500  0.99084800  1
  O  O16  1  0.70631798  0.20398100  0.53985400  1
  O  O17  1  0.20533701  0.70299100  0.03950300  1
  O  O18  1  0.97261697  0.05863500  0.23967000  1
  O  O19  1  0.47268900  0.55886400  0.73999100  1
