# generated using pymatgen
data_K2MoO4
_symmetry_space_group_name_H-M   'P 1'
_cell_length_a   6.29049397
_cell_length_b   7.04594946
_cell_length_c   7.69784403
_cell_angle_alpha   113.24726105
_cell_angle_beta   90.00000000
_cell_angle_gamma   116.51235962
_symmetry_Int_Tables_number   1
_chemical_formula_structural   K2MoO4
_chemical_formula_sum   'K4 Mo2 O8'
_cell_volume   274.00308380
_cell_formula_units_Z   2
loop_
 _symmetry_equiv_pos_site_id
 _symmetry_equiv_pos_as_xyz
  1  'x, y, z'
loop_
 _atom_site_type_symbol
 _atom_site_label
 _atom_site_symmetry_multiplicity
 _atom_site_fract_x
 _atom_site_fract_y
 _atom_site_fract_z
 _atom_site_occupancy
  K  K0  1  0.49288307  0.98576600  0.76709200  1
  K  K1  1  0.50711700  0.01423400  0.23290800  1
  K  K2  1  0.84382805  0.68765600  0.25174200  1
  K  K3  1  0.15617202  0.31234400  0.74825800  1
  Mo  Mo4  1  0.82387805  0.64775600  0.77105800  1
  Mo  Mo5  1  0.17612202  0.35224400  0.22894200  1
  O  O6  1  0.62076605  0.71432100  0.92228300  1
  O  O7  1  0.90644502  0.28567900  0.07771700  1
  O  O8  1  0.37923402  0.28567900  0.07771700  1
  O  O9  1  0.09355505  0.71432100  0.92228300  1
  O  O10  1  0.08825201  0.17650400  0.36370600  1
  O  O11  1  0.91174806  0.82349600  0.63629400  1
  O  O12  1  0.66578603  0.33157200  0.61216700  1
  O  O13  1  0.33421405  0.66842800  0.38783300  1
