# generated using pymatgen
data_Sr2LuBiO6
_symmetry_space_group_name_H-M   'P 1'
_cell_length_a   5.79715109
_cell_length_b   5.85139418
_cell_length_c   8.21363354
_cell_angle_alpha   90.00000000
_cell_angle_beta   90.07295227
_cell_angle_gamma   90.00000000
_symmetry_Int_Tables_number   1
_chemical_formula_structural   Sr2LuBiO6
_chemical_formula_sum   'Sr4 Lu2 Bi2 O12'
_cell_volume   278.61785524
_cell_formula_units_Z   2
loop_
 _symmetry_equiv_pos_site_id
 _symmetry_equiv_pos_as_xyz
  1  'x, y, z'
loop_
 _atom_site_type_symbol
 _atom_site_label
 _atom_site_symmetry_multiplicity
 _atom_site_fract_x
 _atom_site_fract_y
 _atom_site_fract_z
 _atom_site_occupancy
  Sr  Sr0  1  0.49272599  0.03405300  0.74919201  1
  Sr  Sr1  1  0.00727400  0.53405298  0.75080801  1
  Sr  Sr2  1  0.99272598  0.46594699  0.24919201  1
  Sr  Sr3  1  0.50727399  0.96594697  0.25080801  1
  Lu  Lu4  1  0.49999999  0.49999998  0.00000000  1
  Lu  Lu5  1  0.00000000  0.99999997  0.50000001  1
  Bi  Bi6  1  0.49999999  0.49999998  0.50000001  1
  Bi  Bi7  1  0.00000000  0.00000000  0.00000000  1
  O  O8  1  0.42439099  0.51938098  0.23966001  1
  O  O9  1  0.07560900  0.01938100  0.26034000  1
  O  O10  1  0.57560899  0.48061899  0.76034001  1
  O  O11  1  0.92439099  0.98061897  0.73966002  1
  O  O12  1  0.27567200  0.79541498  0.53829201  1
  O  O13  1  0.22432800  0.29541499  0.96170802  1
  O  O14  1  0.72432799  0.20458499  0.46170801  1
  O  O15  1  0.77567199  0.70458498  0.03829200  1
  O  O16  1  0.70268499  0.22406499  0.04137900  1
  O  O17  1  0.79731499  0.72406498  0.45862101  1
  O  O18  1  0.29731500  0.77593498  0.95862102  1
  O  O19  1  0.20268500  0.27593499  0.54137901  1
