# generated using pymatgen
data_YZnSn
_symmetry_space_group_name_H-M   'P 1'
_cell_length_a   4.52208805
_cell_length_b   4.52208710
_cell_length_c   15.35451031
_cell_angle_alpha   90.00000000
_cell_angle_beta   90.00000000
_cell_angle_gamma   120.00000763
_symmetry_Int_Tables_number   1
_chemical_formula_structural   YZnSn
_chemical_formula_sum   'Y4 Zn4 Sn4'
_cell_volume   271.92210011
_cell_formula_units_Z   4
loop_
 _symmetry_equiv_pos_site_id
 _symmetry_equiv_pos_as_xyz
  1  'x, y, z'
loop_
 _atom_site_type_symbol
 _atom_site_label
 _atom_site_symmetry_multiplicity
 _atom_site_fract_x
 _atom_site_fract_y
 _atom_site_fract_z
 _atom_site_occupancy
  Y  Y0  1  0.00000000  0.00000000  0.74999998  1
  Y  Y1  1  0.00000000  0.00000000  0.24999999  1
  Y  Y2  1  0.00000000  0.00000000  0.00000000  1
  Y  Y3  1  0.00000000  0.00000000  0.49999999  1
  Zn  Zn4  1  0.66666666  0.33333333  0.84126598  1
  Zn  Zn5  1  0.33333334  0.66666667  0.15873400  1
  Zn  Zn6  1  0.33333334  0.66666667  0.34126599  1
  Zn  Zn7  1  0.66666666  0.33333333  0.65873399  1
  Sn  Sn8  1  0.66666666  0.33333333  0.38709299  1
  Sn  Sn9  1  0.33333334  0.66666667  0.61290699  1
  Sn  Sn10  1  0.33333334  0.66666667  0.88709298  1
  Sn  Sn11  1  0.66666666  0.33333333  0.11290700  1
