# generated using pymatgen
data_Li2MoOF2
_symmetry_space_group_name_H-M   'P 1'
_cell_length_a   4.05722189
_cell_length_b   4.05722189
_cell_length_c   5.91966248
_cell_angle_alpha   110.04087067
_cell_angle_beta   110.04087067
_cell_angle_gamma   90.00000000
_symmetry_Int_Tables_number   1
_chemical_formula_structural   Li2MoOF2
_chemical_formula_sum   'Li2 Mo1 O1 F2'
_cell_volume   85.23561970
_cell_formula_units_Z   1
loop_
 _symmetry_equiv_pos_site_id
 _symmetry_equiv_pos_as_xyz
  1  'x, y, z'
loop_
 _atom_site_type_symbol
 _atom_site_label
 _atom_site_symmetry_multiplicity
 _atom_site_fract_x
 _atom_site_fract_y
 _atom_site_fract_z
 _atom_site_occupancy
  Li  Li0  1  0.75000005  0.25000001  0.50000006  1
  Li  Li1  1  0.00000000  0.00000000  0.00000000  1
  Mo  Mo2  1  0.20285602  0.20285601  0.40571203  1
  O  O3  1  0.54714403  0.04714400  0.09428803  1
  F  F4  1  0.79714408  0.79714405  0.59428810  1
  F  F5  1  0.95285607  0.45285603  0.90571210  1
