# generated using pymatgen
data_Lu2InNi2
_symmetry_space_group_name_H-M   'P 1'
_cell_length_a   3.38895392
_cell_length_b   7.74233913
_cell_length_c   7.74233913
_cell_angle_alpha   90.00000000
_cell_angle_beta   90.00000000
_cell_angle_gamma   90.00000000
_symmetry_Int_Tables_number   1
_chemical_formula_structural   Lu2InNi2
_chemical_formula_sum   'Lu4 In2 Ni4'
_cell_volume   203.14682799
_cell_formula_units_Z   2
loop_
 _symmetry_equiv_pos_site_id
 _symmetry_equiv_pos_as_xyz
  1  'x, y, z'
loop_
 _atom_site_type_symbol
 _atom_site_label
 _atom_site_symmetry_multiplicity
 _atom_site_fract_x
 _atom_site_fract_y
 _atom_site_fract_z
 _atom_site_occupancy
  Lu  Lu0  1  0.50000001  0.66309999  0.83689999  1
  Lu  Lu1  1  0.50000001  0.33689999  0.16310000  1
  Lu  Lu2  1  0.50000001  0.83689999  0.33689999  1
  Lu  Lu3  1  0.50000001  0.16310000  0.66309999  1
  In  In4  1  0.00000000  0.49999999  0.49999999  1
  In  In5  1  0.00000000  0.00000000  0.00000000  1
  Ni  Ni6  1  0.00000000  0.85822199  0.64177799  1
  Ni  Ni7  1  0.00000000  0.64177799  0.14177800  1
  Ni  Ni8  1  0.00000000  0.14177800  0.35822199  1
  Ni  Ni9  1  0.00000000  0.35822199  0.85822199  1
