# generated using pymatgen
data_CuTcSn2O3
_symmetry_space_group_name_H-M   'P 1'
_cell_length_a   5.47227669
_cell_length_b   5.47227573
_cell_length_c   5.47227573
_cell_angle_alpha   109.47122192
_cell_angle_beta   109.47121429
_cell_angle_gamma   109.47122192
_symmetry_Int_Tables_number   1
_chemical_formula_structural   CuTcSn2O3
_chemical_formula_sum   'Tc1 Cu1 Sn2 O3'
_cell_volume   126.14850902
_cell_formula_units_Z   1
loop_
 _symmetry_equiv_pos_site_id
 _symmetry_equiv_pos_as_xyz
  1  'x, y, z'
loop_
 _atom_site_type_symbol
 _atom_site_label
 _atom_site_symmetry_multiplicity
 _atom_site_fract_x
 _atom_site_fract_y
 _atom_site_fract_z
 _atom_site_occupancy
  Tc  Tc0  1  0.00000000  0.00000000  0.00000000  1
  Cu  Cu1  1  0.70593799  0.00000000  0.70593806  1
  Sn  Sn2  1  0.29406200  0.00000000  0.29406202  1
  Sn  Sn3  1  0.70593797  0.70593802  1.00000008  1
  O  O4  1  0.29406199  0.29406201  0.00000001  1
  O  O5  1  -0.00000001  0.29406201  0.29406201  1
  O  O6  1  0.99999997  0.70593802  0.70593808  1
