# generated using pymatgen
data_NiP
_symmetry_space_group_name_H-M   'P 1'
_cell_length_a   3.12595367
_cell_length_b   5.61943150
_cell_length_c   5.61943150
_cell_angle_alpha   116.64275360
_cell_angle_beta   100.68593597
_cell_angle_gamma   100.68593597
_symmetry_Int_Tables_number   1
_chemical_formula_structural   NiP
_chemical_formula_sum   'Ni3 P3'
_cell_volume   82.54732554
_cell_formula_units_Z   3
loop_
 _symmetry_equiv_pos_site_id
 _symmetry_equiv_pos_as_xyz
  1  'x, y, z'
loop_
 _atom_site_type_symbol
 _atom_site_label
 _atom_site_symmetry_multiplicity
 _atom_site_fract_x
 _atom_site_fract_y
 _atom_site_fract_z
 _atom_site_occupancy
  Ni  Ni0  1  0.60351706  0.26386301  1.00000003  1
  Ni  Ni1  1  0.33965415  0.73613703  0.73613706  1
  Ni  Ni2  1  0.60351721  1.00000005  0.26386310  1
  P  P3  1  0.88029614  0.66297703  1.00000007  1
  P  P4  1  0.21731907  0.33702302  0.33702303  1
  P  P5  1  0.88029601  0.00000000  0.66297702  1
