# generated using pymatgen
data_K4Te2IrCCl12
_symmetry_space_group_name_H-M   'P 1'
_cell_length_a   8.32995319
_cell_length_b   8.32995319
_cell_length_c   9.06021118
_cell_angle_alpha   93.63165283
_cell_angle_beta   93.63165283
_cell_angle_gamma   118.29012299
_symmetry_Int_Tables_number   1
_chemical_formula_structural   K4Te2IrCCl12
_chemical_formula_sum   'K4 Te2 Ir1 C1 Cl12'
_cell_volume   549.34367475
_cell_formula_units_Z   1
loop_
 _symmetry_equiv_pos_site_id
 _symmetry_equiv_pos_as_xyz
  1  'x, y, z'
loop_
 _atom_site_type_symbol
 _atom_site_label
 _atom_site_symmetry_multiplicity
 _atom_site_fract_x
 _atom_site_fract_y
 _atom_site_fract_z
 _atom_site_occupancy
  K  K0  1  0.55261600  0.88526403  0.60383493  1
  K  K1  1  0.88526402  0.55261602  0.10383493  1
  K  K2  1  0.49388500  0.82871702  0.10676693  1
  K  K3  1  0.82871702  0.49388501  0.60676694  1
  Te  Te4  1  0.22409700  0.32037501  0.79098898  1
  Ir  Ir5  1  0.32037501  0.22409701  0.29098897  1
  C  C6  1  0.04508000  0.14429400  0.93211300  1
  Te  Te7  1  0.14429400  0.04508000  0.43211299  1
  Cl  Cl8  1  0.51194901  0.48455601  0.94327396  1
  Cl  Cl9  1  0.48455601  0.51194901  0.44327395  1
  Cl  Cl10  1  0.87472101  0.85101902  0.78816892  1
  Cl  Cl11  1  0.85101901  0.87472102  0.28816891  1
  Cl  Cl12  1  0.19964299  0.59909402  0.82126097  1
  Cl  Cl13  1  0.59909402  0.19964301  0.32126096  1
  Cl  Cl14  1  0.33785801  0.13066300  0.66737598  1
  Cl  Cl15  1  0.13066300  0.33785801  0.16737598  1
  Cl  Cl16  1  0.23080901  0.02702800  0.05670099  1
  Cl  Cl17  1  0.02702799  0.23080901  0.55670099  1
  Cl  Cl18  1  0.17594998  0.77078202  0.39591395  1
  Cl  Cl19  1  0.77078203  0.17595001  0.89591396  1
