# generated using pymatgen
data_Li5Mn3(CoO5)2
_symmetry_space_group_name_H-M   'P 1'
_cell_length_a   2.87567830
_cell_length_b   5.09764433
_cell_length_c   13.16763878
_cell_angle_alpha   80.40922546
_cell_angle_beta   83.73734283
_cell_angle_gamma   73.62163544
_symmetry_Int_Tables_number   1
_chemical_formula_structural   Li5Mn3(CoO5)2
_chemical_formula_sum   'Li5 Mn3 Co2 O10'
_cell_volume   182.21151097
_cell_formula_units_Z   1
loop_
 _symmetry_equiv_pos_site_id
 _symmetry_equiv_pos_as_xyz
  1  'x, y, z'
loop_
 _atom_site_type_symbol
 _atom_site_label
 _atom_site_symmetry_multiplicity
 _atom_site_fract_x
 _atom_site_fract_y
 _atom_site_fract_z
 _atom_site_occupancy
  Li  Li0  1  0.90000892  0.50022299  0.69988003  1
  Li  Li1  1  0.40004799  0.00005500  0.20002701  1
  Li  Li2  1  0.70187092  0.48270099  0.11380101  1
  Li  Li3  1  0.09821393  0.51729399  0.28624601  1
  Li  Li4  1  0.48870292  0.53647299  0.48584102  1
  Mn  Mn5  1  0.31121693  0.46352299  0.91413703  1
  Mn  Mn6  1  0.78653598  0.04197900  0.38454802  1
  Mn  Mn7  1  0.61000986  0.97481898  0.80638203  1
  Co  Co8  1  0.01366388  0.95776198  0.01535100  1
  Co  Co9  1  0.19022299  0.02525000  0.59360902  1
  O  O10  1  0.64865189  0.73964899  0.96331703  1
  O  O11  1  0.15134096  0.26026400  0.43671201  1
  O  O12  1  0.05397490  0.75136299  0.14129701  1
  O  O13  1  0.74610795  0.24858500  0.25874701  1
  O  O14  1  0.42005389  0.80625399  0.35310501  1
  O  O15  1  0.38007297  0.19357900  0.04695501  1
  O  O16  1  0.82487588  0.80860399  0.54093402  1
  O  O17  1  0.97482796  0.19139900  0.85912803  1
  O  O18  1  0.24424390  0.75538699  0.75596402  1
  O  O19  1  0.55535396  0.24483800  0.64402002  1
