# generated using pymatgen
data_In2TeSe
_symmetry_space_group_name_H-M   'P 1'
_cell_length_a   6.30548334
_cell_length_b   6.35333681
_cell_length_c   7.53719664
_cell_angle_alpha   114.89626312
_cell_angle_beta   114.69568634
_cell_angle_gamma   90.06694794
_symmetry_Int_Tables_number   1
_chemical_formula_structural   In2TeSe
_chemical_formula_sum   'In4 Te2 Se2'
_cell_volume   243.02676748
_cell_formula_units_Z   2
loop_
 _symmetry_equiv_pos_site_id
 _symmetry_equiv_pos_as_xyz
  1  'x, y, z'
loop_
 _atom_site_type_symbol
 _atom_site_label
 _atom_site_symmetry_multiplicity
 _atom_site_fract_x
 _atom_site_fract_y
 _atom_site_fract_z
 _atom_site_occupancy
  In  In0  1  0.50917795  0.50917900  0.01835697  1
  In  In1  1  0.24063394  0.74063500  0.48126894  1
  In  In2  1  0.74573596  0.24573600  0.49147198  1
  In  In3  1  0.00494100  0.00494000  0.00988100  1
  Te  Te4  1  0.12586396  0.63111900  0.73843494  1
  Te  Te5  1  0.61257098  0.10731600  0.73843498  1
  Se  Se6  1  0.36720196  0.39916400  0.26107597  1
  Se  Se7  1  0.89387392  0.86191200  0.26107594  1
