# generated using pymatgen
data_ThSi
_symmetry_space_group_name_H-M   'P 1'
_cell_length_a   4.51671791
_cell_length_b   5.47434092
_cell_length_c   7.22417307
_cell_angle_alpha   90.00000000
_cell_angle_beta   90.00000000
_cell_angle_gamma   90.00000000
_symmetry_Int_Tables_number   1
_chemical_formula_structural   ThSi
_chemical_formula_sum   'Th4 Si4'
_cell_volume   178.62529098
_cell_formula_units_Z   4
loop_
 _symmetry_equiv_pos_site_id
 _symmetry_equiv_pos_as_xyz
  1  'x, y, z'
loop_
 _atom_site_type_symbol
 _atom_site_label
 _atom_site_symmetry_multiplicity
 _atom_site_fract_x
 _atom_site_fract_y
 _atom_site_fract_z
 _atom_site_occupancy
  Th  Th0  1  0.25000000  0.63010201  0.68019699  1
  Th  Th1  1  0.75000001  0.13010200  0.81980299  1
  Th  Th2  1  0.25000000  0.86989801  0.18019700  1
  Th  Th3  1  0.75000001  0.36989801  0.31980300  1
  Si  Si4  1  0.25000000  0.12016500  0.53339299  1
  Si  Si5  1  0.75000001  0.62016501  0.96660699  1
  Si  Si6  1  0.25000000  0.37983501  0.03339300  1
  Si  Si7  1  0.75000001  0.87983501  0.46660700  1
