# generated using pymatgen
data_Lu6CoBi2
_symmetry_space_group_name_H-M   'P 1'
_cell_length_a   4.13423014
_cell_length_b   8.24353790
_cell_length_c   8.24353790
_cell_angle_alpha   120.00000000
_cell_angle_beta   90.00000000
_cell_angle_gamma   90.00000000
_symmetry_Int_Tables_number   1
_chemical_formula_structural   Lu6CoBi2
_chemical_formula_sum   'Lu6 Co1 Bi2'
_cell_volume   243.30585407
_cell_formula_units_Z   1
loop_
 _symmetry_equiv_pos_site_id
 _symmetry_equiv_pos_as_xyz
  1  'x, y, z'
loop_
 _atom_site_type_symbol
 _atom_site_label
 _atom_site_symmetry_multiplicity
 _atom_site_fract_x
 _atom_site_fract_y
 _atom_site_fract_z
 _atom_site_occupancy
  Lu  Lu0  1  0.49999998  0.77160700  0.77160697  1
  Lu  Lu1  1  0.49999998  0.00000000  0.22839299  1
  Lu  Lu2  1  0.49999998  0.22839300  -0.00000001  1
  Lu  Lu3  1  -0.00000000  0.38986600  0.38986598  1
  Lu  Lu4  1  0.99999997  0.00000000  0.61013399  1
  Lu  Lu5  1  -0.00000000  0.61013400  -0.00000001  1
  Co  Co6  1  0.00000000  0.00000000  0.00000000  1
  Bi  Bi7  1  0.49999998  0.66666667  0.33333331  1
  Bi  Bi8  1  0.49999998  0.33333333  0.66666664  1
