# generated using pymatgen
data_LuAgGe
_symmetry_space_group_name_H-M   'P 1'
_cell_length_a   4.59628582
_cell_length_b   4.59628630
_cell_length_c   7.19482517
_cell_angle_alpha   90.00000000
_cell_angle_beta   90.00000000
_cell_angle_gamma   120.00000000
_symmetry_Int_Tables_number   1
_chemical_formula_structural   LuAgGe
_chemical_formula_sum   'Lu2 Ag2 Ge2'
_cell_volume   131.63305997
_cell_formula_units_Z   2
loop_
 _symmetry_equiv_pos_site_id
 _symmetry_equiv_pos_as_xyz
  1  'x, y, z'
loop_
 _atom_site_type_symbol
 _atom_site_label
 _atom_site_symmetry_multiplicity
 _atom_site_fract_x
 _atom_site_fract_y
 _atom_site_fract_z
 _atom_site_occupancy
  Lu  Lu0  1  0.00000000  0.00000000  0.03184000  1
  Lu  Lu1  1  0.00000000  0.00000000  0.53183999  1
  Ag  Ag2  1  0.33333339  0.66666672  0.80077998  1
  Ag  Ag3  1  0.66666672  0.33333336  0.30077999  1
  Ge  Ge4  1  0.33333339  0.66666672  0.19248100  1
  Ge  Ge5  1  0.66666672  0.33333336  0.69248098  1
