# generated using pymatgen
data_CeMg2
_symmetry_space_group_name_H-M   'P 1'
_cell_length_a   4.66127777
_cell_length_b   4.66664982
_cell_length_c   7.85261154
_cell_angle_alpha   90.00000000
_cell_angle_beta   107.26538086
_cell_angle_gamma   90.00000000
_symmetry_Int_Tables_number   1
_chemical_formula_structural   CeMg2
_chemical_formula_sum   'Ce2 Mg4'
_cell_volume   163.11749168
_cell_formula_units_Z   2
loop_
 _symmetry_equiv_pos_site_id
 _symmetry_equiv_pos_as_xyz
  1  'x, y, z'
loop_
 _atom_site_type_symbol
 _atom_site_label
 _atom_site_symmetry_multiplicity
 _atom_site_fract_x
 _atom_site_fract_y
 _atom_site_fract_z
 _atom_site_occupancy
  Ce  Ce0  1  0.14826001  1.00000004  0.29651999  1
  Ce  Ce1  1  0.85174004  0.00000000  0.70347997  1
  Mg  Mg2  1  0.50000002  0.00000000  -0.00000001  1
  Mg  Mg3  1  0.00000000  0.50000002  -0.00000000  1
  Mg  Mg4  1  0.32686101  0.50000002  0.65372198  1
  Mg  Mg5  1  0.67313903  0.50000002  0.34627798  1
