# generated using pymatgen
data_ScGePd
_symmetry_space_group_name_H-M   'P 1'
_cell_length_a   3.60997891
_cell_length_b   7.15682411
_cell_length_c   7.15682364
_cell_angle_alpha   120.00000000
_cell_angle_beta   90.00000000
_cell_angle_gamma   90.00000000
_symmetry_Int_Tables_number   1
_chemical_formula_structural   ScGePd
_chemical_formula_sum   'Sc3 Ge3 Pd3'
_cell_volume   160.13119918
_cell_formula_units_Z   3
loop_
 _symmetry_equiv_pos_site_id
 _symmetry_equiv_pos_as_xyz
  1  'x, y, z'
loop_
 _atom_site_type_symbol
 _atom_site_label
 _atom_site_symmetry_multiplicity
 _atom_site_fract_x
 _atom_site_fract_y
 _atom_site_fract_z
 _atom_site_occupancy
  Sc  Sc0  1  0.50000001  0.60200298  0.99999998  1
  Sc  Sc1  1  0.50000001  0.00000000  0.60200300  1
  Sc  Sc2  1  0.50000001  0.39799699  0.39799699  1
  Ge  Ge3  1  0.50000001  0.00000000  -0.00000000  1
  Ge  Ge4  1  1.00000002  0.66666665  0.33333331  1
  Ge  Ge5  1  -0.00000000  0.33333332  0.66666666  1
  Pd  Pd6  1  1.00000002  0.99999997  0.26521897  1
  Pd  Pd7  1  -0.00000000  0.73478098  0.73478098  1
  Pd  Pd8  1  -0.00000000  0.26521899  -0.00000001  1
