# generated using pymatgen
data_HoSi
_symmetry_space_group_name_H-M   'P 1'
_cell_length_a   4.10628605
_cell_length_b   5.78480816
_cell_length_c   7.09709740
_cell_angle_alpha   114.05086517
_cell_angle_beta   106.81565094
_cell_angle_gamma   90.00000000
_symmetry_Int_Tables_number   1
_chemical_formula_structural   HoSi
_chemical_formula_sum   'Ho3 Si3'
_cell_volume   146.01976096
_cell_formula_units_Z   3
loop_
 _symmetry_equiv_pos_site_id
 _symmetry_equiv_pos_as_xyz
  1  'x, y, z'
loop_
 _atom_site_type_symbol
 _atom_site_label
 _atom_site_symmetry_multiplicity
 _atom_site_fract_x
 _atom_site_fract_y
 _atom_site_fract_z
 _atom_site_occupancy
  Ho  Ho0  1  0.00000000  0.00000000  0.00000000  1
  Ho  Ho1  1  0.32937498  0.32937499  0.65874998  1
  Ho  Ho2  1  0.67062496  0.67062499  0.34124998  1
  Si  Si3  1  -0.00000001  0.49999999  0.00000001  1
  Si  Si4  1  0.33446597  0.83446599  0.66893199  1
  Si  Si5  1  0.66553398  0.16553400  0.33106797  1
