# generated using pymatgen
data_ZrC
_symmetry_space_group_name_H-M   'P 1'
_cell_length_a   3.22796774
_cell_length_b   3.22796774
_cell_length_c   11.08205891
_cell_angle_alpha   81.62570190
_cell_angle_beta   81.62570190
_cell_angle_gamma   60.00000763
_symmetry_Int_Tables_number   1
_chemical_formula_structural   ZrC
_chemical_formula_sum   'Zr4 C4'
_cell_volume   98.57795985
_cell_formula_units_Z   4
loop_
 _symmetry_equiv_pos_site_id
 _symmetry_equiv_pos_as_xyz
  1  'x, y, z'
loop_
 _atom_site_type_symbol
 _atom_site_label
 _atom_site_symmetry_multiplicity
 _atom_site_fract_x
 _atom_site_fract_y
 _atom_site_fract_z
 _atom_site_occupancy
  Zr  Zr0  1  0.99576201  0.99576197  0.01271403  1
  Zr  Zr1  1  0.75094001  0.75093998  0.74717999  1
  Zr  Zr2  1  0.50357500  0.50357499  0.48927500  1
  Zr  Zr3  1  0.24911900  0.24911899  0.25264300  1
  C  C4  1  0.87679001  0.87678998  0.36963001  1
  C  C5  1  0.62035800  0.62035798  0.13892601  1
  C  C6  1  0.37067600  0.37067599  0.88797198  1
  C  C7  1  0.13278000  0.13278000  0.60165998  1
