# generated using pymatgen
data_Ca2Cu3
_symmetry_space_group_name_H-M   'P 1'
_cell_length_a   5.98805523
_cell_length_b   9.46263218
_cell_length_c   9.46263218
_cell_angle_alpha   119.87207031
_cell_angle_beta   90.00000000
_cell_angle_gamma   90.00000000
_symmetry_Int_Tables_number   1
_chemical_formula_structural   Ca2Cu3
_chemical_formula_sum   'Ca8 Cu12'
_cell_volume   464.94197463
_cell_formula_units_Z   4
loop_
 _symmetry_equiv_pos_site_id
 _symmetry_equiv_pos_as_xyz
  1  'x, y, z'
loop_
 _atom_site_type_symbol
 _atom_site_label
 _atom_site_symmetry_multiplicity
 _atom_site_fract_x
 _atom_site_fract_y
 _atom_site_fract_z
 _atom_site_occupancy
  Ca  Ca0  1  0.41631198  0.33327201  0.66666668  1
  Ca  Ca1  1  0.91631196  0.66666668  0.33327200  1
  Ca  Ca2  1  0.24301799  0.12907800  0.87092203  1
  Ca  Ca3  1  0.24401999  0.74150002  0.87040702  1
  Ca  Ca4  1  0.24401999  0.12959300  0.25850001  1
  Ca  Ca5  1  0.74301797  0.87092202  0.12907800  1
  Ca  Ca6  1  0.74401997  0.25850001  0.12959300  1
  Ca  Ca7  1  0.74401997  0.87040702  0.74150002  1
  Cu  Cu8  1  0.47157498  0.54095701  0.45904301  1
  Cu  Cu9  1  0.47176098  0.91787103  0.45878601  1
  Cu  Cu10  1  0.47176098  0.54121401  0.08212900  1
  Cu  Cu11  1  0.97157496  0.45904301  0.54095701  1
  Cu  Cu12  1  0.97176096  0.08212900  0.54121402  1
  Cu  Cu13  1  0.97176096  0.45878601  0.91787103  1
  Cu  Cu14  1  0.19890199  0.81241302  0.18758700  1
  Cu  Cu15  1  0.19881499  0.37516501  0.18739200  1
  Cu  Cu16  1  0.19881499  0.81260802  0.62483501  1
  Cu  Cu17  1  0.69890197  0.18758701  0.81241302  1
  Cu  Cu18  1  0.69881497  0.62483502  0.81260802  1
  Cu  Cu19  1  0.69881497  0.18739201  0.37516501  1
