# generated using pymatgen
data_Li2N
_symmetry_space_group_name_H-M   'P 1'
_cell_length_a   4.54333687
_cell_length_b   4.90589809
_cell_length_c   4.90589762
_cell_angle_alpha   120.00000000
_cell_angle_beta   90.00000000
_cell_angle_gamma   90.00000000
_symmetry_Int_Tables_number   1
_chemical_formula_structural   Li2N
_chemical_formula_sum   'Li6 N3'
_cell_volume   94.69838532
_cell_formula_units_Z   3
loop_
 _symmetry_equiv_pos_site_id
 _symmetry_equiv_pos_as_xyz
  1  'x, y, z'
loop_
 _atom_site_type_symbol
 _atom_site_label
 _atom_site_symmetry_multiplicity
 _atom_site_fract_x
 _atom_site_fract_y
 _atom_site_fract_z
 _atom_site_occupancy
  Li  Li0  1  0.24631901  0.33631499  0.33631500  1
  Li  Li1  1  0.75368102  0.33631499  -0.00000001  1
  Li  Li2  1  0.75368102  0.00000000  0.33631501  1
  Li  Li3  1  0.24631901  0.00000000  0.66368502  1
  Li  Li4  1  0.24631901  0.66368498  -0.00000002  1
  Li  Li5  1  0.75368102  0.66368498  0.66368499  1
  N  N6  1  0.00000000  0.00000000  0.00000000  1
  N  N7  1  0.50000001  0.66666664  0.33333332  1
  N  N8  1  0.50000001  0.33333332  0.66666667  1
