# generated using pymatgen
data_La(GaAu)2
_symmetry_space_group_name_H-M   'P 1'
_cell_length_a   4.41608620
_cell_length_b   4.41608620
_cell_length_c   10.47469139
_cell_angle_alpha   90.00000000
_cell_angle_beta   90.00000000
_cell_angle_gamma   90.00000000
_symmetry_Int_Tables_number   1
_chemical_formula_structural   La(GaAu)2
_chemical_formula_sum   'La2 Ga4 Au4'
_cell_volume   204.27551776
_cell_formula_units_Z   2
loop_
 _symmetry_equiv_pos_site_id
 _symmetry_equiv_pos_as_xyz
  1  'x, y, z'
loop_
 _atom_site_type_symbol
 _atom_site_label
 _atom_site_symmetry_multiplicity
 _atom_site_fract_x
 _atom_site_fract_y
 _atom_site_fract_z
 _atom_site_occupancy
  La  La0  1  -0.00000000  0.49999998  0.24800299  1
  La  La1  1  0.49999998  0.00000000  0.75199697  1
  Ga  Ga2  1  0.00000000  0.00000000  0.49999998  1
  Ga  Ga3  1  0.49999998  0.49999998  0.49999998  1
  Ga  Ga4  1  -0.00000000  0.49999998  0.86930397  1
  Ga  Ga5  1  0.49999998  0.00000000  0.13069600  1
  Au  Au6  1  0.00000000  0.00000000  0.00000000  1
  Au  Au7  1  0.49999998  0.49999998  0.00000000  1
  Au  Au8  1  -0.00000000  0.49999998  0.63014298  1
  Au  Au9  1  0.49999998  0.00000000  0.36985699  1
