# generated using pymatgen
data_SrLa3Mn2Cr2O12
_symmetry_space_group_name_H-M   'P 1'
_cell_length_a   5.55027294
_cell_length_b   5.61141777
_cell_length_c   7.85616922
_cell_angle_alpha   90.00000000
_cell_angle_beta   90.00000000
_cell_angle_gamma   89.82308960
_symmetry_Int_Tables_number   1
_chemical_formula_structural   SrLa3Mn2Cr2O12
_chemical_formula_sum   'Sr1 La3 Mn2 Cr2 O12'
_cell_volume   244.67844020
_cell_formula_units_Z   1
loop_
 _symmetry_equiv_pos_site_id
 _symmetry_equiv_pos_as_xyz
  1  'x, y, z'
loop_
 _atom_site_type_symbol
 _atom_site_label
 _atom_site_symmetry_multiplicity
 _atom_site_fract_x
 _atom_site_fract_y
 _atom_site_fract_z
 _atom_site_occupancy
  Sr  Sr0  1  0.49412199  0.53121200  0.49999999  1
  La  La1  1  0.01324700  0.04311600  0.49999999  1
  La  La2  1  0.50783699  0.45528700  0.00000000  1
  La  La3  1  0.99219898  0.95896700  0.00000000  1
  Mn  Mn4  1  0.49992297  0.99723400  0.25131999  1
  Mn  Mn5  1  0.00121698  0.50078500  0.74892798  1
  Cr  Cr6  1  0.49992297  0.99723400  0.74867998  1
  Cr  Cr7  1  0.00121698  0.50078500  0.25107199  1
  O  O8  1  0.20473298  0.79448200  0.28563199  1
  O  O9  1  0.27927799  0.28076700  0.71785598  1
  O  O10  1  0.78313700  0.21612500  0.79478398  1
  O  O11  1  0.71560299  0.71425600  0.20292799  1
  O  O12  1  0.78313700  0.21612500  0.20521599  1
  O  O13  1  0.71560299  0.71425600  0.79707198  1
  O  O14  1  0.20473298  0.79448200  0.71436798  1
  O  O15  1  0.27927799  0.28076700  0.28214399  1
  O  O16  1  0.58186298  0.99181500  0.49999999  1
  O  O17  1  0.94135799  0.47951400  0.49999999  1
  O  O18  1  0.42392100  0.01481500  0.00000000  1
  O  O19  1  0.07766798  0.51797700  0.00000000  1
