# generated using pymatgen
data_LiTl(Cu3Cl4)2
_symmetry_space_group_name_H-M   'P 1'
_cell_length_a   5.40475178
_cell_length_b   7.43462515
_cell_length_c   9.41910172
_cell_angle_alpha   90.00000000
_cell_angle_beta   106.67268372
_cell_angle_gamma   90.00000000
_symmetry_Int_Tables_number   1
_chemical_formula_structural   LiTl(Cu3Cl4)2
_chemical_formula_sum   'Li1 Tl1 Cu6 Cl8'
_cell_volume   362.56962217
_cell_formula_units_Z   1
loop_
 _symmetry_equiv_pos_site_id
 _symmetry_equiv_pos_as_xyz
  1  'x, y, z'
loop_
 _atom_site_type_symbol
 _atom_site_label
 _atom_site_symmetry_multiplicity
 _atom_site_fract_x
 _atom_site_fract_y
 _atom_site_fract_z
 _atom_site_occupancy
  Tl  Tl0  1  0.91796105  0.24999999  0.36430902  1
  Li  Li1  1  0.55365203  0.74999998  0.63569101  1
  Cu  Cu2  1  0.86847305  0.24999999  0.78139802  1
  Cu  Cu3  1  0.08707500  0.74999998  0.21860200  1
  Cu  Cu4  1  0.99448505  0.49999999  0.00000003  1
  Cu  Cu5  1  0.99448505  0.00000000  0.00000003  1
  Cu  Cu6  1  0.36963902  0.24999999  0.78463401  1
  Cu  Cu7  1  0.58500503  0.74999998  0.21536602  1
  Cl  Cl8  1  0.32116202  0.50833599  0.21803501  1
  Cl  Cl9  1  0.10312701  0.49166399  0.78196500  1
  Cl  Cl10  1  0.53633603  0.24999999  0.58678401  1
  Cl  Cl11  1  0.94955205  0.74999998  0.41321602  1
  Cl  Cl12  1  0.73566104  0.24999999  0.98512502  1
  Cl  Cl13  1  0.75053604  0.74999998  0.01487502  1
  Cl  Cl14  1  0.32116202  0.99166398  0.21803501  1
  Cl  Cl15  1  0.10312701  0.00833600  0.78196500  1
