# generated using pymatgen
data_Sr(AlGe)2
_symmetry_space_group_name_H-M   'P 1'
_cell_length_a   4.31421185
_cell_length_b   4.31421185
_cell_length_c   6.36943579
_cell_angle_alpha   109.79557037
_cell_angle_beta   109.79557037
_cell_angle_gamma   90.00000000
_symmetry_Int_Tables_number   1
_chemical_formula_structural   Sr(AlGe)2
_chemical_formula_sum   'Sr1 Al2 Ge2'
_cell_volume   104.06908191
_cell_formula_units_Z   1
loop_
 _symmetry_equiv_pos_site_id
 _symmetry_equiv_pos_as_xyz
  1  'x, y, z'
loop_
 _atom_site_type_symbol
 _atom_site_label
 _atom_site_symmetry_multiplicity
 _atom_site_fract_x
 _atom_site_fract_y
 _atom_site_fract_z
 _atom_site_occupancy
  Sr  Sr0  1  0.00000000  0.00000000  0.00000000  1
  Al  Al1  1  0.75000003  0.25000001  0.49999999  1
  Al  Al2  1  0.25000001  0.75000003  0.49999999  1
  Ge  Ge3  1  0.60991903  0.60991902  0.21983800  1
  Ge  Ge4  1  0.39008102  0.39008101  0.78016198  1
