# generated using pymatgen
data_VF2
_symmetry_space_group_name_H-M   'P 1'
_cell_length_a   3.13109303
_cell_length_b   6.52754021
_cell_length_c   6.77205276
_cell_angle_alpha   90.00000000
_cell_angle_beta   90.00000000
_cell_angle_gamma   90.00000000
_symmetry_Int_Tables_number   1
_chemical_formula_structural   VF2
_chemical_formula_sum   'V4 F8'
_cell_volume   138.40948720
_cell_formula_units_Z   4
loop_
 _symmetry_equiv_pos_site_id
 _symmetry_equiv_pos_as_xyz
  1  'x, y, z'
loop_
 _atom_site_type_symbol
 _atom_site_label
 _atom_site_symmetry_multiplicity
 _atom_site_fract_x
 _atom_site_fract_y
 _atom_site_fract_z
 _atom_site_occupancy
  V  V0  1  0.48358200  0.00000000  0.50000002  1
  V  V1  1  0.51641800  0.49999998  0.00000000  1
  V  V2  1  0.99878599  0.49999998  0.50000002  1
  V  V3  1  0.00121400  0.00000000  0.00000000  1
  F  F4  1  0.50072900  0.00000000  0.80996703  1
  F  F5  1  0.50072900  0.00000000  0.19003301  1
  F  F6  1  0.00533600  0.29311399  -0.00000000  1
  F  F7  1  0.99466399  0.20688599  0.50000002  1
  F  F8  1  0.00533600  0.70688598  0.00000000  1
  F  F9  1  0.99466399  0.79311397  0.50000002  1
  F  F10  1  0.49927100  0.49999998  0.30996701  1
  F  F11  1  0.49927100  0.49999998  0.69003302  1
