# generated using pymatgen
data_Y2NiO2
_symmetry_space_group_name_H-M   'P 1'
_cell_length_a   3.04005599
_cell_length_b   5.81290293
_cell_length_c   8.71168041
_cell_angle_alpha   75.41887665
_cell_angle_beta   79.95104980
_cell_angle_gamma   74.84020233
_symmetry_Int_Tables_number   1
_chemical_formula_structural   Y2NiO2
_chemical_formula_sum   'Y4 Ni2 O4'
_cell_volume   142.82956021
_cell_formula_units_Z   2
loop_
 _symmetry_equiv_pos_site_id
 _symmetry_equiv_pos_as_xyz
  1  'x, y, z'
loop_
 _atom_site_type_symbol
 _atom_site_label
 _atom_site_symmetry_multiplicity
 _atom_site_fract_x
 _atom_site_fract_y
 _atom_site_fract_z
 _atom_site_occupancy
  Y  Y0  1  0.69080105  0.46376001  0.15457600  1
  Y  Y1  1  0.69081110  0.96376102  0.65455500  1
  Y  Y2  1  0.30918900  0.03623900  0.34544502  1
  Y  Y3  1  0.30919906  0.53624001  0.84542401  1
  Ni  Ni4  1  0.00000006  0.50000001  0.50000000  1
  Ni  Ni5  1  0.00000200  0.00000000  1.00000003  1
  O  O6  1  0.36621202  0.20064700  0.06690000  1
  O  O7  1  0.36620308  0.70067201  0.56689200  1
  O  O8  1  0.63379603  0.29932801  0.43310802  1
  O  O9  1  0.63378709  0.79935301  0.93310001  1
