# generated using pymatgen
data_NaSrY2Ti3O8
_symmetry_space_group_name_H-M   'P 1'
_cell_length_a   3.72877407
_cell_length_b   3.72877407
_cell_length_c   15.91360664
_cell_angle_alpha   96.72804260
_cell_angle_beta   96.72804260
_cell_angle_gamma   90.00000000
_symmetry_Int_Tables_number   1
_chemical_formula_structural   NaSrY2Ti3O8
_chemical_formula_sum   'Na1 Sr1 Y2 Ti3 O8'
_cell_volume   218.20083413
_cell_formula_units_Z   1
loop_
 _symmetry_equiv_pos_site_id
 _symmetry_equiv_pos_as_xyz
  1  'x, y, z'
loop_
 _atom_site_type_symbol
 _atom_site_label
 _atom_site_symmetry_multiplicity
 _atom_site_fract_x
 _atom_site_fract_y
 _atom_site_fract_z
 _atom_site_occupancy
  Na  Na0  1  0.10831500  0.10831500  0.21663000  1
  Sr  Sr1  1  0.89168499  0.89168499  0.78337001  1
  Y  Y2  1  0.00000000  0.00000000  0.00000000  1
  Y  Y3  1  0.45480900  0.45480899  0.90961800  1
  Ti  Ti4  1  0.54519100  0.54519099  0.09038201  1
  Ti  Ti5  1  0.30023800  0.30023800  0.60047600  1
  Ti  Ti6  1  0.69976199  0.69976199  0.39952401  1
  O  O7  1  0.54948099  0.04948100  0.09896200  1
  O  O8  1  0.45051900  0.95051899  0.90103800  1
  O  O9  1  0.04948100  0.54948099  0.09896200  1
  O  O10  1  0.95051899  0.45051899  0.90103800  1
  O  O11  1  0.19916800  0.19916800  0.39833600  1
  O  O12  1  0.80083199  0.80083199  0.60166401  1
  O  O13  1  0.36594300  0.36594299  0.73188600  1
  O  O14  1  0.63405699  0.63405699  0.26811401  1
