# generated using pymatgen
data_Sr8InSi3Te2
_symmetry_space_group_name_H-M   'P 1'
_cell_length_a   8.29060364
_cell_length_b   8.29060364
_cell_length_c   8.37348461
_cell_angle_alpha   109.45218658
_cell_angle_beta   109.45218658
_cell_angle_gamma   108.98531342
_symmetry_Int_Tables_number   1
_chemical_formula_structural   Sr8InSi3Te2
_chemical_formula_sum   'Sr8 In1 Si3 Te2'
_cell_volume   445.88859142
_cell_formula_units_Z   1
loop_
 _symmetry_equiv_pos_site_id
 _symmetry_equiv_pos_as_xyz
  1  'x, y, z'
loop_
 _atom_site_type_symbol
 _atom_site_label
 _atom_site_symmetry_multiplicity
 _atom_site_fract_x
 _atom_site_fract_y
 _atom_site_fract_z
 _atom_site_occupancy
  Sr  Sr0  1  0.00018404  0.64416203  0.49806905  1
  Sr  Sr1  1  0.50197004  0.50167903  0.14720408  1
  Sr  Sr2  1  0.35456006  0.85290304  0.35467010  1
  Sr  Sr3  1  0.64416201  0.00018400  0.99806903  1
  Sr  Sr4  1  0.50167904  0.50197003  0.64720407  1
  Sr  Sr5  1  0.85290304  0.35456002  0.85467008  1
  Sr  Sr6  1  0.14142307  0.99983005  0.99942009  1
  Sr  Sr7  1  0.99983003  0.14142301  0.49942007  1
  In  In8  1  0.36188201  0.12446401  0.74859303  1
  Si  Si9  1  0.12446403  0.36188202  0.24859304  1
  Te  Te10  1  0.76581907  0.88480504  0.63133312  1
  Si  Si11  1  0.24336605  0.62295503  0.87071006  1
  Si  Si12  1  0.62295503  0.24336601  0.37071006  1
  Te  Te13  1  0.88480507  0.76581904  0.13133312  1
