# generated using pymatgen
data_TlV2As
_symmetry_space_group_name_H-M   'P 1'
_cell_length_a   3.58894658
_cell_length_b   3.58894658
_cell_length_c   9.45329762
_cell_angle_alpha   79.05742645
_cell_angle_beta   79.05742645
_cell_angle_gamma   59.99999237
_symmetry_Int_Tables_number   1
_chemical_formula_structural   TlV2As
_chemical_formula_sum   'Tl1 V2 As1'
_cell_volume   102.88597816
_cell_formula_units_Z   1
loop_
 _symmetry_equiv_pos_site_id
 _symmetry_equiv_pos_as_xyz
  1  'x, y, z'
loop_
 _atom_site_type_symbol
 _atom_site_label
 _atom_site_symmetry_multiplicity
 _atom_site_fract_x
 _atom_site_fract_y
 _atom_site_fract_z
 _atom_site_occupancy
  Tl  Tl0  1  0.10744600  0.10744600  0.67766102  1
  V  V1  1  0.60741299  0.60741297  0.17776003  1
  V  V2  1  0.99207899  0.99207896  0.02376405  1
  As  As3  1  0.22266100  0.22266099  0.33201602  1
