# generated using pymatgen
data_Ba2MgGa9
_symmetry_space_group_name_H-M   'P 1'
_cell_length_a   4.84720802
_cell_length_b   8.53668022
_cell_length_c   8.53668022
_cell_angle_alpha   60.21733475
_cell_angle_beta   73.50660706
_cell_angle_gamma   73.50660706
_symmetry_Int_Tables_number   1
_chemical_formula_structural   Ba2MgGa9
_chemical_formula_sum   'Ba2 Mg1 Ga9'
_cell_volume   289.60190018
_cell_formula_units_Z   1
loop_
 _symmetry_equiv_pos_site_id
 _symmetry_equiv_pos_as_xyz
  1  'x, y, z'
loop_
 _atom_site_type_symbol
 _atom_site_label
 _atom_site_symmetry_multiplicity
 _atom_site_fract_x
 _atom_site_fract_y
 _atom_site_fract_z
 _atom_site_occupancy
  Ba  Ba0  1  0.96701200  0.28298800  0.78298798  1
  Ba  Ba1  1  0.03298797  0.71701201  0.21701200  1
  Mg  Mg2  1  0.70973399  0.54026600  0.04026598  1
  Ga  Ga3  1  0.29026599  0.45973400  0.95973399  1
  Ga  Ga4  1  0.19254599  0.21021000  0.40469800  1
  Ga  Ga5  1  0.80745400  0.09530200  0.28978998  1
  Ga  Ga6  1  0.80745398  0.78979001  0.59530198  1
  Ga  Ga7  1  0.19254597  0.90469801  0.71021000  1
  Ga  Ga8  1  0.62087897  0.90323701  0.85500499  1
  Ga  Ga9  1  0.37911998  0.64499500  0.59676399  1
  Ga  Ga10  1  0.37912100  0.09676300  0.14499499  1
  Ga  Ga11  1  0.62087999  0.35500500  0.40323599  1
