# generated using pymatgen
data_Na5HfFeO4
_symmetry_space_group_name_H-M   'P 1'
_cell_length_a   6.02196598
_cell_length_b   6.02431250
_cell_length_c   6.67517996
_cell_angle_alpha   89.84717560
_cell_angle_beta   89.69422913
_cell_angle_gamma   60.01288605
_symmetry_Int_Tables_number   1
_chemical_formula_structural   Na5HfFeO4
_chemical_formula_sum   'Na5 Hf1 Fe1 O4'
_cell_volume   209.74402262
_cell_formula_units_Z   1
loop_
 _symmetry_equiv_pos_site_id
 _symmetry_equiv_pos_as_xyz
  1  'x, y, z'
loop_
 _atom_site_type_symbol
 _atom_site_label
 _atom_site_symmetry_multiplicity
 _atom_site_fract_x
 _atom_site_fract_y
 _atom_site_fract_z
 _atom_site_occupancy
  Na  Na0  1  0.66414402  0.67171200  -0.00000003  1
  Na  Na1  1  0.66455202  0.67089600  0.49999997  1
  Na  Na2  1  0.33778501  0.32443000  -0.00000002  1
  Na  Na3  1  0.99801300  0.00593600  0.83342297  1
  Na  Na4  1  0.99605100  0.00593600  0.16657696  1
  Hf  Hf5  1  0.32136500  0.02136100  0.76010400  1
  Fe  Fe6  1  0.65727400  0.02136100  0.23989597  1
  O  O7  1  0.66239301  0.32949500  0.76315998  1
  O  O8  1  0.00811201  0.32949500  0.23684000  1
  O  O9  1  0.32226902  0.67035400  0.24057498  1
  O  O10  1  0.00737702  0.67035400  0.75942501  1
