# generated using pymatgen
data_Ba2Cl2O
_symmetry_space_group_name_H-M   'P 1'
_cell_length_a   5.22443008
_cell_length_b   5.23107004
_cell_length_c   5.23381186
_cell_angle_alpha   90.57097626
_cell_angle_beta   90.00000000
_cell_angle_gamma   90.00000000
_symmetry_Int_Tables_number   1
_chemical_formula_structural   Ba2Cl2O
_chemical_formula_sum   'Ba2 Cl2 O1'
_cell_volume   143.02962439
_cell_formula_units_Z   1
loop_
 _symmetry_equiv_pos_site_id
 _symmetry_equiv_pos_as_xyz
  1  'x, y, z'
loop_
 _atom_site_type_symbol
 _atom_site_label
 _atom_site_symmetry_multiplicity
 _atom_site_fract_x
 _atom_site_fract_y
 _atom_site_fract_z
 _atom_site_occupancy
  Ba  Ba0  1  0.00000000  0.49993900  0.04176702  1
  Ba  Ba1  1  0.49999999  0.96750399  0.00203705  1
  Cl  Cl2  1  0.00000000  0.03092200  0.51674500  1
  Cl  Cl3  1  0.49999999  0.50172100  0.49693603  1
  O  O4  1  0.00000000  0.99991399  0.01481605  1
