# generated using pymatgen
data_YAlNi
_symmetry_space_group_name_H-M   'P 1'
_cell_length_a   5.31047678
_cell_length_b   5.31071281
_cell_length_c   8.35304832
_cell_angle_alpha   90.00000000
_cell_angle_beta   90.00000000
_cell_angle_gamma   119.06835175
_symmetry_Int_Tables_number   1
_chemical_formula_structural   YAlNi
_chemical_formula_sum   'Y4 Al4 Ni4'
_cell_volume   205.90315137
_cell_formula_units_Z   4
loop_
 _symmetry_equiv_pos_site_id
 _symmetry_equiv_pos_as_xyz
  1  'x, y, z'
loop_
 _atom_site_type_symbol
 _atom_site_label
 _atom_site_symmetry_multiplicity
 _atom_site_fract_x
 _atom_site_fract_y
 _atom_site_fract_z
 _atom_site_occupancy
  Y  Y0  1  0.33361696  0.66645096  0.54784498  1
  Y  Y1  1  0.67040900  0.32959198  0.42455498  1
  Y  Y2  1  0.67040900  0.32959198  0.07544500  1
  Y  Y3  1  0.33361696  0.66645096  0.95215496  1
  Al  Al4  1  0.99600003  0.00386600  0.48071198  1
  Al  Al5  1  0.99600003  0.00386600  0.01928800  1
  Al  Al6  1  0.33897500  0.16597799  0.74999997  1
  Al  Al7  1  0.83401498  0.66103296  0.74999997  1
  Ni  Ni8  1  0.83233302  0.16764699  0.74999997  1
  Ni  Ni9  1  0.65139896  0.82911295  0.24999999  1
  Ni  Ni10  1  0.17086698  0.34881198  0.24999999  1
  Ni  Ni11  1  0.17235795  0.82759795  0.24999999  1
