# generated using pymatgen
data_HfO2
_symmetry_space_group_name_H-M   'P 1'
_cell_length_a   4.83701420
_cell_length_b   5.76034832
_cell_length_c   5.79890060
_cell_angle_alpha   112.46350861
_cell_angle_beta   90.00000000
_cell_angle_gamma   90.00000000
_symmetry_Int_Tables_number   1
_chemical_formula_structural   HfO2
_chemical_formula_sum   'Hf4 O8'
_cell_volume   149.31436326
_cell_formula_units_Z   4
loop_
 _symmetry_equiv_pos_site_id
 _symmetry_equiv_pos_as_xyz
  1  'x, y, z'
loop_
 _atom_site_type_symbol
 _atom_site_label
 _atom_site_symmetry_multiplicity
 _atom_site_fract_x
 _atom_site_fract_y
 _atom_site_fract_z
 _atom_site_occupancy
  Hf  Hf0  1  0.50001498  0.74880198  0.25006501  1
  Hf  Hf1  1  0.00001500  0.75119798  0.74993501  1
  Hf  Hf2  1  0.49999698  0.25119499  0.74993701  1
  Hf  Hf3  1  0.99999696  0.24880499  0.25006300  1
  O  O4  1  0.30158899  0.90150698  0.60347501  1
  O  O5  1  0.80158897  0.59849299  0.39652501  1
  O  O6  1  0.69854497  0.09851200  0.39641300  1
  O  O7  1  0.19854499  0.40148799  0.60358701  1
  O  O8  1  0.30293799  0.39805599  0.10418500  1
  O  O9  1  0.19691599  0.89807998  0.10407201  1
  O  O10  1  0.80293797  0.10194400  0.89581501  1
  O  O11  1  0.69691597  0.60191999  0.89592801  1
