# generated using pymatgen
data_NaTbMnSb2O7
_symmetry_space_group_name_H-M   'P 1'
_cell_length_a   5.49776983
_cell_length_b   5.49776983
_cell_length_c   6.78883362
_cell_angle_alpha   113.88565826
_cell_angle_beta   113.88565826
_cell_angle_gamma   90.00000000
_symmetry_Int_Tables_number   1
_chemical_formula_structural   NaTbMnSb2O7
_chemical_formula_sum   'Na1 Tb1 Mn1 Sb2 O7'
_cell_volume   168.22186034
_cell_formula_units_Z   1
loop_
 _symmetry_equiv_pos_site_id
 _symmetry_equiv_pos_as_xyz
  1  'x, y, z'
loop_
 _atom_site_type_symbol
 _atom_site_label
 _atom_site_symmetry_multiplicity
 _atom_site_fract_x
 _atom_site_fract_y
 _atom_site_fract_z
 _atom_site_occupancy
  Na  Na0  1  0.00000000  0.00000000  0.00000000  1
  Tb  Tb1  1  0.75000004  0.25000001  0.50000003  1
  Sb  Sb2  1  0.50000003  0.50000002  0.00000003  1
  Sb  Sb3  1  0.25000003  0.75000003  0.50000003  1
  O  O4  1  0.39733703  0.36127302  0.19355502  1
  Mn  Mn5  1  0.35266304  0.88872704  0.30644504  1
  O  O6  1  0.95378205  0.41771802  0.30644403  1
  O  O7  1  0.16771802  0.60266303  0.80644503  1
  O  O8  1  0.11127401  0.04621900  0.69355601  1
  O  O9  1  0.79621805  0.83228204  0.19355604  1
  O  O10  1  0.58228204  0.64733703  0.69355504  1
  O  O11  1  0.63872603  0.20378101  0.80644402  1
