# generated using pymatgen
data_Y10InGe5
_symmetry_space_group_name_H-M   'P 1'
_cell_length_a   6.73534012
_cell_length_b   8.85247612
_cell_length_c   8.85247707
_cell_angle_alpha   60.00000381
_cell_angle_beta   90.00000000
_cell_angle_gamma   90.00000000
_symmetry_Int_Tables_number   1
_chemical_formula_structural   Y10InGe5
_chemical_formula_sum   'Y10 In1 Ge5'
_cell_volume   457.10898130
_cell_formula_units_Z   1
loop_
 _symmetry_equiv_pos_site_id
 _symmetry_equiv_pos_as_xyz
  1  'x, y, z'
loop_
 _atom_site_type_symbol
 _atom_site_label
 _atom_site_symmetry_multiplicity
 _atom_site_fract_x
 _atom_site_fract_y
 _atom_site_fract_z
 _atom_site_occupancy
  Y  Y0  1  0.25000000  0.24496499  0.75503498  1
  Y  Y1  1  0.74999999  0.75503498  0.24496501  1
  Y  Y2  1  0.74999999  0.24496499  0.99999997  1
  Y  Y3  1  0.25000000  0.00000000  0.24496499  1
  Y  Y4  1  0.25000000  0.75503498  0.99999998  1
  Y  Y5  1  0.74999999  0.00000000  0.75503497  1
  Y  Y6  1  0.49999999  0.33333333  0.33333333  1
  Y  Y7  1  -0.00000000  0.66666665  0.66666666  1
  Y  Y8  1  0.49999999  0.66666665  0.66666666  1
  Y  Y9  1  0.99999998  0.33333333  0.33333333  1
  Ge  Ge10  1  0.25000000  0.00000000  0.60721898  1
  In  In11  1  0.74999999  0.60721899  0.99999998  1
  Ge  Ge12  1  0.74999999  0.39278099  0.60721899  1
  Ge  Ge13  1  0.25000000  0.60721899  0.39278100  1
  Ge  Ge14  1  0.25000000  0.39278099  0.99999997  1
  Ge  Ge15  1  0.74999999  0.00000000  0.39278099  1
