# generated using pymatgen
data_LiAgF3
_symmetry_space_group_name_H-M   'P 1'
_cell_length_a   3.82987928
_cell_length_b   3.82987928
_cell_length_c   9.96227455
_cell_angle_alpha   88.58628845
_cell_angle_beta   88.58628845
_cell_angle_gamma   89.37261200
_symmetry_Int_Tables_number   1
_chemical_formula_structural   LiAgF3
_chemical_formula_sum   'Li2 Ag2 F6'
_cell_volume   146.02963509
_cell_formula_units_Z   2
loop_
 _symmetry_equiv_pos_site_id
 _symmetry_equiv_pos_as_xyz
  1  'x, y, z'
loop_
 _atom_site_type_symbol
 _atom_site_label
 _atom_site_symmetry_multiplicity
 _atom_site_fract_x
 _atom_site_fract_y
 _atom_site_fract_z
 _atom_site_occupancy
  Li  Li0  1  0.51157302  0.51157300  0.23504799  1
  Li  Li1  1  0.52065202  0.52065200  0.72033901  1
  Ag  Ag2  1  0.94043504  0.94043499  0.45129898  1
  Ag  Ag3  1  0.00923600  0.00923600  0.92004803  1
  F  F4  1  0.51876600  0.01829700  0.80078602  1
  F  F5  1  0.01829702  0.51876600  0.80078602  1
  F  F6  1  0.53549600  0.01927300  0.29391300  1
  F  F7  1  0.01927303  0.53549600  0.29391300  1
  F  F8  1  0.55586902  0.55586900  0.52138600  1
  F  F9  1  0.51340402  0.51340400  0.06348198  1
