# generated using pymatgen
data_CeSiIr2
_symmetry_space_group_name_H-M   'P 1'
_cell_length_a   3.99302912
_cell_length_b   4.13295984
_cell_length_c   9.59891987
_cell_angle_alpha   90.00000000
_cell_angle_beta   102.00480652
_cell_angle_gamma   90.00000000
_symmetry_Int_Tables_number   1
_chemical_formula_structural   CeSiIr2
_chemical_formula_sum   'Ce2 Si2 Ir4'
_cell_volume   154.94682346
_cell_formula_units_Z   2
loop_
 _symmetry_equiv_pos_site_id
 _symmetry_equiv_pos_as_xyz
  1  'x, y, z'
loop_
 _atom_site_type_symbol
 _atom_site_label
 _atom_site_symmetry_multiplicity
 _atom_site_fract_x
 _atom_site_fract_y
 _atom_site_fract_z
 _atom_site_occupancy
  Ce  Ce0  1  0.60083899  0.25000001  0.20167901  1
  Ce  Ce1  1  0.39916099  0.75000003  0.79832100  1
  Si  Si2  1  0.82474198  0.25000001  0.64948401  1
  Si  Si3  1  0.17525800  0.75000003  0.35051600  1
  Ir  Ir4  1  0.95110198  0.25000001  0.90220401  1
  Ir  Ir5  1  0.04889800  0.75000003  0.09779600  1
  Ir  Ir6  1  0.25115899  0.25000001  0.50231800  1
  Ir  Ir7  1  0.74884098  0.75000003  0.49768201  1
