# generated using pymatgen
data_KYBeF6
_symmetry_space_group_name_H-M   'P 1'
_cell_length_a   5.86026096
_cell_length_b   6.43438053
_cell_length_c   7.11590052
_cell_angle_alpha   113.05333710
_cell_angle_beta   90.00000000
_cell_angle_gamma   90.00000000
_symmetry_Int_Tables_number   1
_chemical_formula_structural   KYBeF6
_chemical_formula_sum   'K2 Y2 Be2 F12'
_cell_volume   246.89245372
_cell_formula_units_Z   2
loop_
 _symmetry_equiv_pos_site_id
 _symmetry_equiv_pos_as_xyz
  1  'x, y, z'
loop_
 _atom_site_type_symbol
 _atom_site_label
 _atom_site_symmetry_multiplicity
 _atom_site_fract_x
 _atom_site_fract_y
 _atom_site_fract_z
 _atom_site_occupancy
  K  K0  1  0.75000000  0.07130100  0.20340800  1
  K  K1  1  0.25000000  0.92869901  0.79659200  1
  Y  Y2  1  0.75000000  0.38828000  0.81972299  1
  Y  Y3  1  0.25000000  0.61172001  0.18027701  1
  Be  Be4  1  0.75000000  0.76705501  0.53575100  1
  Be  Be5  1  0.25000000  0.23294500  0.46424899  1
  F  F6  1  0.96521001  0.76718901  0.40504700  1
  F  F7  1  0.03479000  0.23281100  0.59495299  1
  F  F8  1  0.46521000  0.23281100  0.59495299  1
  F  F9  1  0.53479000  0.76718901  0.40504700  1
  F  F10  1  0.75000000  0.55867101  0.59185500  1
  F  F11  1  0.25000000  0.44132900  0.40814500  1
  F  F12  1  0.99860401  0.67982101  0.96570499  1
  F  F13  1  0.00139600  0.32017900  0.03429501  1
  F  F14  1  0.49860400  0.32017900  0.03429501  1
  F  F15  1  0.50139600  0.67982101  0.96570499  1
  F  F16  1  0.75000000  0.98843601  0.73617700  1
  F  F17  1  0.25000000  0.01156400  0.26382299  1
