# generated using pymatgen
data_LaHfN2
_symmetry_space_group_name_H-M   'P 1'
_cell_length_a   5.46400833
_cell_length_b   5.46400833
_cell_length_c   5.46400833
_cell_angle_alpha   102.23027039
_cell_angle_beta   113.20857239
_cell_angle_gamma   113.20857239
_symmetry_Int_Tables_number   1
_chemical_formula_structural   LaHfN2
_chemical_formula_sum   'La2 Hf2 N4'
_cell_volume   124.09995820
_cell_formula_units_Z   2
loop_
 _symmetry_equiv_pos_site_id
 _symmetry_equiv_pos_as_xyz
  1  'x, y, z'
loop_
 _atom_site_type_symbol
 _atom_site_label
 _atom_site_symmetry_multiplicity
 _atom_site_fract_x
 _atom_site_fract_y
 _atom_site_fract_z
 _atom_site_occupancy
  La  La0  1  0.49999998  0.25000000  0.74999999  1
  La  La1  1  0.49999998  0.74999999  0.25000001  1
  Hf  Hf2  1  -0.00000001  0.49999999  0.50000001  1
  Hf  Hf3  1  0.00000000  0.00000000  0.00000000  1
  N  N4  1  0.49999998  0.76154999  0.73845000  1
  N  N5  1  0.02310000  0.26155000  0.76155000  1
  N  N6  1  0.49999998  0.23845000  0.26154999  1
  N  N7  1  0.97689997  0.73844999  0.23845000  1
