# generated using pymatgen
data_YNi4Au
_symmetry_space_group_name_H-M   'P 1'
_cell_length_a   4.89145231
_cell_length_b   4.89145231
_cell_length_c   4.89145231
_cell_angle_alpha   60.00000000
_cell_angle_beta   60.00000000
_cell_angle_gamma   60.00000000
_symmetry_Int_Tables_number   1
_chemical_formula_structural   YNi4Au
_chemical_formula_sum   'Y1 Ni4 Au1'
_cell_volume   82.75580618
_cell_formula_units_Z   1
loop_
 _symmetry_equiv_pos_site_id
 _symmetry_equiv_pos_as_xyz
  1  'x, y, z'
loop_
 _atom_site_type_symbol
 _atom_site_label
 _atom_site_symmetry_multiplicity
 _atom_site_fract_x
 _atom_site_fract_y
 _atom_site_fract_z
 _atom_site_occupancy
  Y  Y0  1  0.00000000  0.00000000  0.00000000  1
  Ni  Ni1  1  0.37527299  0.87417897  0.37527399  1
  Ni  Ni2  1  0.37527299  0.37527399  0.37527399  1
  Ni  Ni3  1  0.37527299  0.37527399  0.87417897  1
  Ni  Ni4  1  0.87417797  0.37527399  0.37527399  1
  Au  Au5  1  0.74999998  0.74999998  0.74999998  1
