# generated using pymatgen
data_BaSn2Pd
_symmetry_space_group_name_H-M   'P 1'
_cell_length_a   4.46527576
_cell_length_b   6.31947422
_cell_length_c   8.18888664
_cell_angle_alpha   90.00000000
_cell_angle_beta   90.00000000
_cell_angle_gamma   110.68898010
_symmetry_Int_Tables_number   1
_chemical_formula_structural   BaSn2Pd
_chemical_formula_sum   'Ba2 Sn4 Pd2'
_cell_volume   216.17399709
_cell_formula_units_Z   2
loop_
 _symmetry_equiv_pos_site_id
 _symmetry_equiv_pos_as_xyz
  1  'x, y, z'
loop_
 _atom_site_type_symbol
 _atom_site_label
 _atom_site_symmetry_multiplicity
 _atom_site_fract_x
 _atom_site_fract_y
 _atom_site_fract_z
 _atom_site_occupancy
  Ba  Ba0  1  0.94614108  0.89228201  0.75000003  1
  Ba  Ba1  1  0.05385901  0.10771800  0.25000001  1
  Sn  Sn2  1  0.33507204  0.67014400  0.44447702  1
  Sn  Sn3  1  0.66492805  0.32985600  0.55552302  1
  Sn  Sn4  1  0.33507204  0.67014400  0.05552300  1
  Sn  Sn5  1  0.66492805  0.32985600  0.94447704  1
  Pd  Pd6  1  0.77965206  0.55930400  0.25000001  1
  Pd  Pd7  1  0.22034803  0.44069600  0.75000003  1
