# generated using pymatgen
data_In2GaCuSe4
_symmetry_space_group_name_H-M   'P 1'
_cell_length_a   6.14910793
_cell_length_b   6.14910793
_cell_length_c   7.33794355
_cell_angle_alpha   114.77108765
_cell_angle_beta   114.77108765
_cell_angle_gamma   90.00000000
_symmetry_Int_Tables_number   1
_chemical_formula_structural   In2GaCuSe4
_chemical_formula_sum   'In2 Ga1 Cu1 Se4'
_cell_volume   223.50308237
_cell_formula_units_Z   1
loop_
 _symmetry_equiv_pos_site_id
 _symmetry_equiv_pos_as_xyz
  1  'x, y, z'
loop_
 _atom_site_type_symbol
 _atom_site_label
 _atom_site_symmetry_multiplicity
 _atom_site_fract_x
 _atom_site_fract_y
 _atom_site_fract_z
 _atom_site_occupancy
  In  In0  1  0.24999999  0.75000000  0.49999997  1
  In  In1  1  0.00000000  0.00000000  0.00000000  1
  Ga  Ga2  1  0.49999999  0.50000000  0.99999996  1
  Cu  Cu3  1  0.75000000  0.25000000  0.49999998  1
  Se  Se4  1  0.10654299  0.60332800  0.73894897  1
  Se  Se5  1  0.63240600  0.13562100  0.73894998  1
  Se  Se6  1  0.39667100  0.36759400  0.26105098  1
  Se  Se7  1  0.86437899  0.89345600  0.26104996  1
