# generated using pymatgen
data_Mn(SnSe2)2
_symmetry_space_group_name_H-M   'P 1'
_cell_length_a   4.05524349
_cell_length_b   4.05524349
_cell_length_c   13.79791451
_cell_angle_alpha   81.54971313
_cell_angle_beta   81.54971313
_cell_angle_gamma   60.00000763
_symmetry_Int_Tables_number   1
_chemical_formula_structural   Mn(SnSe2)2
_chemical_formula_sum   'Mn1 Sn2 Se4'
_cell_volume   193.65731848
_cell_formula_units_Z   1
loop_
 _symmetry_equiv_pos_site_id
 _symmetry_equiv_pos_as_xyz
  1  'x, y, z'
loop_
 _atom_site_type_symbol
 _atom_site_label
 _atom_site_symmetry_multiplicity
 _atom_site_fract_x
 _atom_site_fract_y
 _atom_site_fract_z
 _atom_site_occupancy
  Mn  Mn0  1  0.77000897  0.77000900  0.68997304  1
  Sn  Sn1  1  0.00297300  0.00297300  0.99108102  1
  Sn  Sn2  1  0.23277099  0.23277100  0.30168701  1
  Se  Se3  1  0.29677399  0.29677400  0.10967801  1
  Se  Se4  1  0.70406797  0.70406800  0.88779604  1
  Se  Se5  1  0.87479297  0.87479300  0.37562104  1
  Se  Se6  1  0.11461300  0.11461300  0.65616102  1
