# generated using pymatgen
data_CuAsP2
_symmetry_space_group_name_H-M   'P 1'
_cell_length_a   5.73982620
_cell_length_b   5.74425983
_cell_length_c   6.15036869
_cell_angle_alpha   62.16123581
_cell_angle_beta   90.00000000
_cell_angle_gamma   90.00000000
_symmetry_Int_Tables_number   1
_chemical_formula_structural   CuAsP2
_chemical_formula_sum   'Cu3 As3 P6'
_cell_volume   179.31495838
_cell_formula_units_Z   3
loop_
 _symmetry_equiv_pos_site_id
 _symmetry_equiv_pos_as_xyz
  1  'x, y, z'
loop_
 _atom_site_type_symbol
 _atom_site_label
 _atom_site_symmetry_multiplicity
 _atom_site_fract_x
 _atom_site_fract_y
 _atom_site_fract_z
 _atom_site_occupancy
  Cu  Cu0  1  0.00000000  0.24972200  0.00000001  1
  Cu  Cu1  1  0.49999998  0.75027801  0.00000002  1
  Cu  Cu2  1  0.74999997  0.36570201  0.26859600  1
  As  As3  1  0.24999999  0.86585102  0.26829801  1
  As  As4  1  0.74999997  0.13414900  0.73170198  1
  As  As5  1  0.24999999  0.63429801  0.73140399  1
  P  P6  1  0.00000000  0.75018801  0.99999999  1
  P  P7  1  0.49999998  0.24981200  0.99999998  1
  P  P8  1  0.09320800  0.09388100  0.49906999  1
  P  P9  1  0.40679199  0.40704901  0.49906999  1
  P  P10  1  0.90679197  0.59295101  0.50093000  1
  P  P11  1  0.59320798  0.90611902  0.50093000  1
