# generated using pymatgen
data_Cr3AsF12
_symmetry_space_group_name_H-M   'P 1'
_cell_length_a   6.53930759
_cell_length_b   6.53930759
_cell_length_c   6.53930759
_cell_angle_alpha   109.47122192
_cell_angle_beta   109.47122192
_cell_angle_gamma   109.47122192
_symmetry_Int_Tables_number   1
_chemical_formula_structural   Cr3AsF12
_chemical_formula_sum   'Cr3 As1 F12'
_cell_volume   215.26498179
_cell_formula_units_Z   1
loop_
 _symmetry_equiv_pos_site_id
 _symmetry_equiv_pos_as_xyz
  1  'x, y, z'
loop_
 _atom_site_type_symbol
 _atom_site_label
 _atom_site_symmetry_multiplicity
 _atom_site_fract_x
 _atom_site_fract_y
 _atom_site_fract_z
 _atom_site_occupancy
  As  As0  1  0.50000004  0.50000002  0.50000004  1
  Cr  Cr1  1  0.00000000  0.00000000  0.50000000  1
  Cr  Cr2  1  1.00000004  0.50000002  0.00000005  1
  Cr  Cr3  1  0.50000007  1.00000004  0.00000007  1
  F  F4  1  0.23260502  0.26722601  0.49983002  1
  F  F5  1  0.76739505  0.73277403  0.50017006  1
  F  F6  1  0.23260505  0.73277503  0.96538005  1
  F  F7  1  0.76739502  0.26722501  0.03462003  1
  F  F8  1  0.73277504  0.50017002  0.76739604  1
  F  F9  1  0.26722503  0.49983002  0.23260403  1
  F  F10  1  0.26722500  0.03462000  0.76739501  1
  F  F11  1  0.73277507  0.96538004  0.23260507  1
  F  F12  1  0.96537902  0.23260401  0.73277404  1
  F  F13  1  0.03462105  0.76739603  0.26722604  1
  F  F14  1  0.49983002  0.23260501  0.26722502  1
  F  F15  1  0.50017005  0.76739503  0.73277505  1
