# generated using pymatgen
data_BaLiMn2VO7
_symmetry_space_group_name_H-M   'P 1'
_cell_length_a   5.51137209
_cell_length_b   5.51137209
_cell_length_c   8.76911068
_cell_angle_alpha   71.68450928
_cell_angle_beta   71.68450928
_cell_angle_gamma   60.00000000
_symmetry_Int_Tables_number   1
_chemical_formula_structural   BaLiMn2VO7
_chemical_formula_sum   'Ba1 Li1 Mn2 V1 O7'
_cell_volume   214.95524420
_cell_formula_units_Z   1
loop_
 _symmetry_equiv_pos_site_id
 _symmetry_equiv_pos_as_xyz
  1  'x, y, z'
loop_
 _atom_site_type_symbol
 _atom_site_label
 _atom_site_symmetry_multiplicity
 _atom_site_fract_x
 _atom_site_fract_y
 _atom_site_fract_z
 _atom_site_occupancy
  Ba  Ba0  1  0.49999996  0.49999999  0.50000001  1
  Mn  Mn1  1  0.92931493  0.92931498  0.21205504  1
  Li  Li2  1  0.07068499  0.07068500  0.78794497  1
  V  V3  1  0.72071495  0.72071498  0.83785500  1
  Mn  Mn4  1  0.27928498  0.27928499  0.16214501  1
  O  O5  1  0.57122994  0.97533097  0.29134603  1
  O  O6  1  0.97533095  0.16209300  0.29134602  1
  O  O7  1  0.16209297  0.57122999  0.29134601  1
  O  O8  1  0.83790696  0.02466900  0.70865399  1
  O  O9  1  0.02466898  0.42876999  0.70865398  1
  O  O10  1  0.00000000  0.00000000  0.00000000  1
  O  O11  1  0.42876995  0.83790698  0.70865401  1
