# generated using pymatgen
data_GePd2
_symmetry_space_group_name_H-M   'P 1'
_cell_length_a   3.29442191
_cell_length_b   4.84940195
_cell_length_c   6.77531767
_cell_angle_alpha   78.61885834
_cell_angle_beta   75.92927551
_cell_angle_gamma   70.14304352
_symmetry_Int_Tables_number   1
_chemical_formula_structural   GePd2
_chemical_formula_sum   'Ge2 Pd4'
_cell_volume   97.96774988
_cell_formula_units_Z   2
loop_
 _symmetry_equiv_pos_site_id
 _symmetry_equiv_pos_as_xyz
  1  'x, y, z'
loop_
 _atom_site_type_symbol
 _atom_site_label
 _atom_site_symmetry_multiplicity
 _atom_site_fract_x
 _atom_site_fract_y
 _atom_site_fract_z
 _atom_site_occupancy
  Ge  Ge0  1  0.15375594  0.88597503  0.80651297  1
  Ge  Ge1  1  0.84624402  0.11402500  0.19348698  1
  Pd  Pd2  1  0.40403699  0.29872601  0.89319997  1
  Pd  Pd3  1  0.59596297  0.70127403  0.10679998  1
  Pd  Pd4  1  0.85189198  0.76149903  0.53471696  1
  Pd  Pd5  1  0.14810799  0.23850101  0.46528298  1
