# generated using pymatgen
data_PrVGe3
_symmetry_space_group_name_H-M   'P 1'
_cell_length_a   5.62582779
_cell_length_b   6.26380205
_cell_length_c   6.26380253
_cell_angle_alpha   60.00000000
_cell_angle_beta   90.00000000
_cell_angle_gamma   90.00000000
_symmetry_Int_Tables_number   1
_chemical_formula_structural   PrVGe3
_chemical_formula_sum   'Pr2 V2 Ge6'
_cell_volume   191.15829494
_cell_formula_units_Z   2
loop_
 _symmetry_equiv_pos_site_id
 _symmetry_equiv_pos_as_xyz
  1  'x, y, z'
loop_
 _atom_site_type_symbol
 _atom_site_label
 _atom_site_symmetry_multiplicity
 _atom_site_fract_x
 _atom_site_fract_y
 _atom_site_fract_z
 _atom_site_occupancy
  Pr  Pr0  1  0.75000003  0.66666667  0.66666662  1
  Pr  Pr1  1  0.25000001  0.33333334  0.33333331  1
  V  V2  1  0.00000000  0.00000000  0.00000000  1
  V  V3  1  0.50000002  0.00000000  0.00000000  1
  Ge  Ge4  1  0.75000003  0.61126700  0.19436597  1
  Ge  Ge5  1  0.75000003  0.19436700  0.61126597  1
  Ge  Ge6  1  0.75000003  0.19436700  0.19436599  1
  Ge  Ge7  1  0.25000001  0.80563301  0.80563395  1
  Ge  Ge8  1  0.25000001  0.80563301  0.38873396  1
  Ge  Ge9  1  0.25000001  0.38873300  0.80563396  1
