# generated using pymatgen
data_DyGe
_symmetry_space_group_name_H-M   'P 1'
_cell_length_a   3.96508408
_cell_length_b   5.77893877
_cell_length_c   7.92956400
_cell_angle_alpha   90.00000000
_cell_angle_beta   90.00000000
_cell_angle_gamma   90.00000000
_symmetry_Int_Tables_number   1
_chemical_formula_structural   DyGe
_chemical_formula_sum   'Dy4 Ge4'
_cell_volume   181.69785577
_cell_formula_units_Z   4
loop_
 _symmetry_equiv_pos_site_id
 _symmetry_equiv_pos_as_xyz
  1  'x, y, z'
loop_
 _atom_site_type_symbol
 _atom_site_label
 _atom_site_symmetry_multiplicity
 _atom_site_fract_x
 _atom_site_fract_y
 _atom_site_fract_z
 _atom_site_occupancy
  Dy  Dy0  1  0.25000000  0.37977802  0.67906100  1
  Dy  Dy1  1  0.25000000  0.12022200  0.17906100  1
  Dy  Dy2  1  0.74999999  0.60836102  0.32231300  1
  Dy  Dy3  1  0.74999999  0.89163904  0.82231300  1
  Ge  Ge4  1  0.25000000  0.87260603  0.53670600  1
  Ge  Ge5  1  0.25000000  0.62739402  0.03670600  1
  Ge  Ge6  1  0.74999999  0.12671401  0.46191900  1
  Ge  Ge7  1  0.74999999  0.37328601  0.96191900  1
