# generated using pymatgen
data_In7Bi9
_symmetry_space_group_name_H-M   'P 1'
_cell_length_a   6.48365450
_cell_length_b   6.48365450
_cell_length_c   10.60243607
_cell_angle_alpha   90.00000000
_cell_angle_beta   90.00000000
_cell_angle_gamma   104.69586182
_symmetry_Int_Tables_number   1
_chemical_formula_structural   In7Bi9
_chemical_formula_sum   'In7 Bi9'
_cell_volume   431.12214119
_cell_formula_units_Z   1
loop_
 _symmetry_equiv_pos_site_id
 _symmetry_equiv_pos_as_xyz
  1  'x, y, z'
loop_
 _atom_site_type_symbol
 _atom_site_label
 _atom_site_symmetry_multiplicity
 _atom_site_fract_x
 _atom_site_fract_y
 _atom_site_fract_z
 _atom_site_occupancy
  In  In0  1  0.61713798  0.61713798  0.75000000  1
  In  In1  1  0.38286199  0.38286199  0.25000000  1
  In  In2  1  0.20502298  0.79497698  0.50000000  1
  In  In3  1  0.20502298  0.79497698  0.99999999  1
  In  In4  1  0.79497698  0.20502299  0.50000000  1
  In  In5  1  0.79497698  0.20502299  -0.00000000  1
  Bi  Bi6  1  0.00203200  0.00203200  0.75000000  1
  In  In7  1  0.99796796  0.99796797  0.25000000  1
  Bi  Bi8  1  0.30211999  0.30211999  0.95678299  1
  Bi  Bi9  1  0.69787997  0.69787998  0.04321700  1
  Bi  Bi10  1  0.30211999  0.30211999  0.54321700  1
  Bi  Bi11  1  0.69787997  0.69787998  0.45678300  1
  Bi  Bi12  1  0.51601199  0.06155900  0.75000000  1
  Bi  Bi13  1  0.93844097  0.48398799  0.25000000  1
  Bi  Bi14  1  0.48398798  0.93844098  0.25000000  1
  Bi  Bi15  1  0.06155899  0.51601199  0.75000000  1
