# generated using pymatgen
data_Mn5CuS9
_symmetry_space_group_name_H-M   'P 1'
_cell_length_a   6.79079056
_cell_length_b   6.79079056
_cell_length_c   6.79079056
_cell_angle_alpha   60.00000000
_cell_angle_beta   60.00000000
_cell_angle_gamma   60.00000000
_symmetry_Int_Tables_number   1
_chemical_formula_structural   Mn5CuS9
_chemical_formula_sum   'Mn5 Cu1 S9'
_cell_volume   221.43486948
_cell_formula_units_Z   1
loop_
 _symmetry_equiv_pos_site_id
 _symmetry_equiv_pos_as_xyz
  1  'x, y, z'
loop_
 _atom_site_type_symbol
 _atom_site_label
 _atom_site_symmetry_multiplicity
 _atom_site_fract_x
 _atom_site_fract_y
 _atom_site_fract_z
 _atom_site_occupancy
  Mn  Mn0  1  0.49999999  0.00000000  0.49999999  1
  Mn  Mn1  1  -0.00000000  0.49999999  0.49999999  1
  Mn  Mn2  1  0.49999999  0.49999999  -0.00000000  1
  Mn  Mn3  1  -0.00000000  0.99999999  0.49999999  1
  Mn  Mn4  1  0.49999999  0.00000000  -0.00000000  1
  Cu  Cu5  1  -0.00000000  0.49999999  -0.00000000  1
  S  S6  1  0.00000000  0.00000000  0.00000000  1
  S  S7  1  0.21968700  0.78031299  0.21968700  1
  S  S8  1  0.74999999  0.74999999  0.74999999  1
  S  S9  1  0.21968700  0.78031299  0.78031299  1
  S  S10  1  0.21968700  0.21968700  0.78031299  1
  S  S11  1  0.78031299  0.21968700  0.21968700  1
  S  S12  1  0.78031299  0.78031299  0.21968700  1
  S  S13  1  0.25000000  0.25000000  0.25000000  1
  S  S14  1  0.78031299  0.21968700  0.78031299  1
