# generated using pymatgen
data_K
_symmetry_space_group_name_H-M   'P 1'
_cell_length_a   12.29908371
_cell_length_b   12.29908371
_cell_length_c   12.29908371
_cell_angle_alpha   90.00000000
_cell_angle_beta   90.00000000
_cell_angle_gamma   90.00000000
_symmetry_Int_Tables_number   1
_chemical_formula_structural   K
_chemical_formula_sum   K20
_cell_volume   1860.45115431
_cell_formula_units_Z   20
loop_
 _symmetry_equiv_pos_site_id
 _symmetry_equiv_pos_as_xyz
  1  'x, y, z'
loop_
 _atom_site_type_symbol
 _atom_site_label
 _atom_site_symmetry_multiplicity
 _atom_site_fract_x
 _atom_site_fract_y
 _atom_site_fract_z
 _atom_site_occupancy
  K  K0  1  0.87500002  0.70278302  0.04721700  1
  K  K1  1  0.06276800  0.06276800  0.06276800  1
  K  K2  1  0.20278300  0.45278301  0.12500000  1
  K  K3  1  0.81276802  0.31276801  0.18723200  1
  K  K4  1  0.45278301  0.12500000  0.20278300  1
  K  K5  1  0.54721701  0.62500001  0.29721701  1
  K  K6  1  0.18723200  0.81276802  0.31276801  1
  K  K7  1  0.79721702  0.95278302  0.37500001  1
  K  K8  1  0.93723202  0.56276801  0.43723201  1
  K  K9  1  0.12500000  0.20278300  0.45278301  1
  K  K10  1  0.62500001  0.29721701  0.54721701  1
  K  K11  1  0.43723201  0.93723202  0.56276801  1
  K  K12  1  0.29721701  0.54721701  0.62500001  1
  K  K13  1  0.68723202  0.68723202  0.68723202  1
  K  K14  1  0.04721700  0.87500002  0.70278302  1
  K  K15  1  0.95278302  0.37500001  0.79721702  1
  K  K16  1  0.31276801  0.18723200  0.81276802  1
  K  K17  1  0.70278302  0.04721700  0.87500002  1
  K  K18  1  0.56276801  0.43723201  0.93723202  1
  K  K19  1  0.37500001  0.79721702  0.95278302  1
