# generated using pymatgen
data_NaBiPb2Se5
_symmetry_space_group_name_H-M   'P 1'
_cell_length_a   4.90519381
_cell_length_b   4.90519381
_cell_length_c   11.78866196
_cell_angle_alpha   90.00000000
_cell_angle_beta   90.00000000
_cell_angle_gamma   120.00000763
_symmetry_Int_Tables_number   1
_chemical_formula_structural   NaBiPb2Se5
_chemical_formula_sum   'Na1 Bi1 Pb2 Se5'
_cell_volume   245.64473207
_cell_formula_units_Z   1
loop_
 _symmetry_equiv_pos_site_id
 _symmetry_equiv_pos_as_xyz
  1  'x, y, z'
loop_
 _atom_site_type_symbol
 _atom_site_label
 _atom_site_symmetry_multiplicity
 _atom_site_fract_x
 _atom_site_fract_y
 _atom_site_fract_z
 _atom_site_occupancy
  Na  Na0  1  0.34019800  0.34050999  0.00018100  1
  Bi  Bi1  1  0.65949000  0.99968797  0.66684700  1
  Pb  Pb2  1  0.00031198  0.65980198  0.33351400  1
  Pb  Pb3  1  0.67086703  0.00424800  0.91883200  1
  Se  Se4  1  0.99575202  0.66661898  0.58549800  1
  Se  Se5  1  0.33333334  0.32908532  0.25216500  1
  Se  Se6  1  0.00417298  0.67132298  0.08095400  1
  Se  Se7  1  0.66715000  0.99582597  0.41428800  1
  Se  Se8  1  0.32867600  0.33284899  0.74762100  1
