# generated using pymatgen
data_SmFe5(CuO6)2
_symmetry_space_group_name_H-M   'P 1'
_cell_length_a   6.35704374
_cell_length_b   6.35704374
_cell_length_c   6.35704374
_cell_angle_alpha   109.47122192
_cell_angle_beta   109.47122192
_cell_angle_gamma   109.47122192
_symmetry_Int_Tables_number   1
_chemical_formula_structural   SmFe5(CuO6)2
_chemical_formula_sum   'Sm1 Fe5 Cu2 O12'
_cell_volume   197.76238365
_cell_formula_units_Z   1
loop_
 _symmetry_equiv_pos_site_id
 _symmetry_equiv_pos_as_xyz
  1  'x, y, z'
loop_
 _atom_site_type_symbol
 _atom_site_label
 _atom_site_symmetry_multiplicity
 _atom_site_fract_x
 _atom_site_fract_y
 _atom_site_fract_z
 _atom_site_occupancy
  Sm  Sm0  1  0.00000000  0.00000000  0.00000000  1
  Fe  Fe1  1  0.50000002  0.00000000  0.00000001  1
  Fe  Fe2  1  0.00000000  0.00000000  0.50000001  1
  Fe  Fe3  1  0.00000003  0.50000003  1.00000005  1
  Fe  Fe4  1  0.50000005  0.50000003  0.50000005  1
  Fe  Fe5  1  0.00000003  0.50000003  0.50000004  1
  Cu  Cu6  1  0.50000005  0.50000003  0.00000004  1
  Cu  Cu7  1  0.50000002  0.00000000  0.50000002  1
  O  O8  1  0.48874203  0.18402301  0.30471803  1
  O  O9  1  0.51125807  0.81597705  0.69528207  1
  O  O10  1  0.12069506  0.81597605  0.30471906  1
  O  O11  1  0.87930504  0.18402401  0.69528105  1
  O  O12  1  0.18402405  0.69528204  0.87930506  1
  O  O13  1  0.81597604  0.30471802  0.12069504  1
  O  O14  1  0.81597607  0.69528104  0.51125707  1
  O  O15  1  0.18402403  0.30471902  0.48874303  1
  O  O16  1  0.30471902  0.12069501  0.81597703  1
  O  O17  1  0.69528108  0.87930506  0.18402307  1
  O  O18  1  0.69528105  0.51125703  0.81597606  1
  O  O19  1  0.30471904  0.48874303  0.18402404  1
