# generated using pymatgen
data_Zr4Si7Ru
_symmetry_space_group_name_H-M   'P 1'
_cell_length_a   4.91369057
_cell_length_b   4.91349602
_cell_length_c   7.95633078
_cell_angle_alpha   90.00000000
_cell_angle_beta   90.00000000
_cell_angle_gamma   118.47962952
_symmetry_Int_Tables_number   1
_chemical_formula_structural   Zr4Si7Ru
_chemical_formula_sum   'Zr4 Si7 Ru1'
_cell_volume   168.84707725
_cell_formula_units_Z   1
loop_
 _symmetry_equiv_pos_site_id
 _symmetry_equiv_pos_as_xyz
  1  'x, y, z'
loop_
 _atom_site_type_symbol
 _atom_site_label
 _atom_site_symmetry_multiplicity
 _atom_site_fract_x
 _atom_site_fract_y
 _atom_site_fract_z
 _atom_site_occupancy
  Zr  Zr0  1  0.33324605  0.66671305  0.54379102  1
  Zr  Zr1  1  0.66405503  0.33591503  0.42322201  1
  Zr  Zr2  1  0.66405503  0.33591503  0.07677800  1
  Zr  Zr3  1  0.33324605  0.66671305  0.95620903  1
  Si  Si4  1  0.99109901  0.00884000  0.48873101  1
  Si  Si5  1  0.99109901  0.00884000  0.01126900  1
  Si  Si6  1  0.34958101  0.16261301  0.75000002  1
  Si  Si7  1  0.83727405  0.65034505  0.75000002  1
  Ru  Ru8  1  0.83742702  0.16262601  0.75000002  1
  Si  Si9  1  0.65405606  0.82553807  0.25000001  1
  Si  Si10  1  0.17463002  0.34602603  0.25000001  1
  Si  Si11  1  0.17023306  0.82991607  0.25000001  1
