# generated using pymatgen
data_Y5Si3C
_symmetry_space_group_name_H-M   'P 1'
_cell_length_a   6.33307123
_cell_length_b   8.43545914
_cell_length_c   8.43746376
_cell_angle_alpha   119.99214172
_cell_angle_beta   90.00000000
_cell_angle_gamma   90.00000000
_symmetry_Int_Tables_number   1
_chemical_formula_structural   Y5Si3C
_chemical_formula_sum   'Y10 Si6 C2'
_cell_volume   390.39121418
_cell_formula_units_Z   2
loop_
 _symmetry_equiv_pos_site_id
 _symmetry_equiv_pos_as_xyz
  1  'x, y, z'
loop_
 _atom_site_type_symbol
 _atom_site_label
 _atom_site_symmetry_multiplicity
 _atom_site_fract_x
 _atom_site_fract_y
 _atom_site_fract_z
 _atom_site_occupancy
  Y  Y0  1  0.50000098  0.33329102  0.66659900  1
  Y  Y1  1  0.50000098  0.66666671  0.33340103  1
  Y  Y2  1  0.00000100  0.66666671  0.33340103  1
  Y  Y3  1  0.00000100  0.33333336  0.66659900  1
  Y  Y4  1  0.74999697  0.22400301  0.00000001  1
  Y  Y5  1  0.75000197  0.77589905  0.77581702  1
  Y  Y6  1  0.75000197  0.00008200  0.22418299  1
  Y  Y7  1  0.24999699  0.77599705  0.00000005  1
  Y  Y8  1  0.25000199  0.22410101  0.22418301  1
  Y  Y9  1  0.25000199  0.99991807  0.77581704  1
  Si  Si10  1  0.75000497  0.59296104  0.00000004  1
  Si  Si11  1  0.74999597  0.40705103  0.40704201  1
  Si  Si12  1  0.74999597  0.00000900  0.59295798  1
  Si  Si13  1  0.25000499  0.40703903  0.00000002  1
  Si  Si14  1  0.24999599  0.59294904  0.59295802  1
  Si  Si15  1  0.24999599  0.99999107  0.40704205  1
  C  C16  1  0.50000098  0.99999407  0.00000006  1
  C  C17  1  0.00000100  0.00000600  0.00000000  1
