# generated using pymatgen
data_Sr2CuClO2
_symmetry_space_group_name_H-M   'P 1'
_cell_length_a   4.03741217
_cell_length_b   4.03741169
_cell_length_c   27.80849266
_cell_angle_alpha   90.00000000
_cell_angle_beta   90.00000000
_cell_angle_gamma   120.00000000
_symmetry_Int_Tables_number   1
_chemical_formula_structural   Sr2CuClO2
_chemical_formula_sum   'Sr6 Cu3 Cl3 O6'
_cell_volume   392.56737515
_cell_formula_units_Z   3
loop_
 _symmetry_equiv_pos_site_id
 _symmetry_equiv_pos_as_xyz
  1  'x, y, z'
loop_
 _atom_site_type_symbol
 _atom_site_label
 _atom_site_symmetry_multiplicity
 _atom_site_fract_x
 _atom_site_fract_y
 _atom_site_fract_z
 _atom_site_occupancy
  Sr  Sr0  1  0.67261794  0.65980698  0.42272499  1
  Sr  Sr1  1  0.34019299  0.01281100  0.75605798  1
  Sr  Sr2  1  0.65980694  0.67261798  0.91060898  1
  Sr  Sr3  1  0.32738194  0.98718897  0.24394199  1
  Sr  Sr4  1  0.01281098  0.34019299  0.57727499  1
  Sr  Sr5  1  0.98718894  0.32738199  0.08939100  1
  Cu  Cu6  1  -0.00000002  0.32383099  0.33333333  1
  Cu  Cu7  1  0.32383094  0.99999997  -0.00000000  1
  Cu  Cu8  1  0.67616894  0.67616898  0.66666665  1
  Cl  Cl9  1  -0.00000002  0.34830699  0.83333298  1
  Cl  Cl10  1  0.34830699  0.00000000  0.49999999  1
  Cl  Cl11  1  0.65169294  0.65169298  0.16666700  1
  O  O12  1  0.00644898  0.32646099  0.39876999  1
  O  O13  1  0.32001194  0.99355097  0.06543700  1
  O  O14  1  0.67998794  0.67353898  0.60122999  1
  O  O15  1  0.99355094  0.32001199  0.26789699  1
  O  O16  1  0.32646099  0.00644900  0.93456298  1
  O  O17  1  0.67353894  0.67998798  0.73210298  1
