# generated using pymatgen
data_Mn(CuCl2)2
_symmetry_space_group_name_H-M   'P 1'
_cell_length_a   7.47809792
_cell_length_b   7.55548573
_cell_length_c   7.55548573
_cell_angle_alpha   60.23143005
_cell_angle_beta   60.33824921
_cell_angle_gamma   60.33824921
_symmetry_Int_Tables_number   1
_chemical_formula_structural   Mn(CuCl2)2
_chemical_formula_sum   'Mn2 Cu4 Cl8'
_cell_volume   303.92333051
_cell_formula_units_Z   2
loop_
 _symmetry_equiv_pos_site_id
 _symmetry_equiv_pos_as_xyz
  1  'x, y, z'
loop_
 _atom_site_type_symbol
 _atom_site_label
 _atom_site_symmetry_multiplicity
 _atom_site_fract_x
 _atom_site_fract_y
 _atom_site_fract_z
 _atom_site_occupancy
  Mn  Mn0  1  0.50000001  0.50000001  0.00000001  1
  Mn  Mn1  1  0.00000001  0.50000001  1.00000002  1
  Cu  Cu2  1  0.62648000  0.12352000  0.62352002  1
  Cu  Cu3  1  0.37352001  0.87648001  0.37648001  1
  Cu  Cu4  1  0.00000000  0.00000000  0.00000000  1
  Cu  Cu5  1  0.00000001  0.50000001  0.50000001  1
  Cl  Cl6  1  0.21405300  0.27303500  0.77303502  1
  Cl  Cl7  1  0.73987700  0.27303500  0.77303503  1
  Cl  Cl8  1  0.75364101  0.70809401  0.78462403  1
  Cl  Cl9  1  0.75364101  0.28462400  0.20809402  1
  Cl  Cl10  1  0.78594701  0.72696501  0.22696502  1
  Cl  Cl11  1  0.26012301  0.72696501  0.22696501  1
  Cl  Cl12  1  0.24635900  0.29190600  0.21537601  1
  Cl  Cl13  1  0.24635901  0.71537601  0.79190602  1
