# generated using pymatgen
data_U3Ni3Bi4
_symmetry_space_group_name_H-M   'P 1'
_cell_length_a   8.19639397
_cell_length_b   8.19639397
_cell_length_c   8.19639397
_cell_angle_alpha   109.47122192
_cell_angle_beta   109.47122192
_cell_angle_gamma   109.47122192
_symmetry_Int_Tables_number   1
_chemical_formula_structural   U3Ni3Bi4
_chemical_formula_sum   'U6 Ni6 Bi8'
_cell_volume   423.88355053
_cell_formula_units_Z   2
loop_
 _symmetry_equiv_pos_site_id
 _symmetry_equiv_pos_as_xyz
  1  'x, y, z'
loop_
 _atom_site_type_symbol
 _atom_site_label
 _atom_site_symmetry_multiplicity
 _atom_site_fract_x
 _atom_site_fract_y
 _atom_site_fract_z
 _atom_site_occupancy
  U  U0  1  0.87499997  0.12500000  0.74999999  1
  U  U1  1  0.62499999  0.37499999  0.25000002  1
  U  U2  1  0.12500001  0.25000000  0.37500000  1
  U  U3  1  0.37500003  0.74999999  0.12500004  1
  U  U4  1  0.75000000  0.62499999  0.87500000  1
  U  U5  1  0.25000004  0.87499999  0.62500002  1
  Ni  Ni6  1  0.37500002  0.62499999  0.75000000  1
  Ni  Ni7  1  0.12500005  0.87499999  0.25000004  1
  Ni  Ni8  1  0.62499999  0.25000000  0.87499998  1
  Ni  Ni9  1  0.87500001  0.74999999  0.62500003  1
  Ni  Ni10  1  0.74999997  0.12500000  0.37500000  1
  Ni  Ni11  1  0.25000001  0.37499999  0.12500002  1
  Bi  Bi12  1  0.00000003  0.49999999  0.67248399  1
  Bi  Bi13  1  0.32751601  0.32751599  0.82751598  1
  Bi  Bi14  1  0.49999999  0.17248400  0.49999999  1
  Bi  Bi15  1  0.17248399  0.00000000  0.00000000  1
  Bi  Bi16  1  0.82751601  0.82751599  0.32751605  1
  Bi  Bi17  1  0.00000003  0.49999999  0.17248402  1
  Bi  Bi18  1  0.50000002  0.67248399  0.50000002  1
  Bi  Bi19  1  0.67248397  0.00000000  0.99999996  1
