# generated using pymatgen
data_TlFeCl3
_symmetry_space_group_name_H-M   'P 1'
_cell_length_a   5.72873497
_cell_length_b   6.74681616
_cell_length_c   6.74681616
_cell_angle_alpha   120.00000000
_cell_angle_beta   90.00000000
_cell_angle_gamma   90.00000000
_symmetry_Int_Tables_number   1
_chemical_formula_structural   TlFeCl3
_chemical_formula_sum   'Tl2 Fe2 Cl6'
_cell_volume   225.83284997
_cell_formula_units_Z   2
loop_
 _symmetry_equiv_pos_site_id
 _symmetry_equiv_pos_as_xyz
  1  'x, y, z'
loop_
 _atom_site_type_symbol
 _atom_site_label
 _atom_site_symmetry_multiplicity
 _atom_site_fract_x
 _atom_site_fract_y
 _atom_site_fract_z
 _atom_site_occupancy
  Tl  Tl0  1  0.75000000  0.33333332  0.66666665  1
  Tl  Tl1  1  0.25000000  0.66666665  0.33333332  1
  Fe  Fe2  1  0.50000000  0.00000000  -0.00000000  1
  Fe  Fe3  1  0.00000000  0.00000000  0.00000000  1
  Cl  Cl4  1  0.25000000  0.16265200  0.83734697  1
  Cl  Cl5  1  0.75000000  0.83734798  0.67469598  1
  Cl  Cl6  1  0.75000000  0.32530499  0.16265299  1
  Cl  Cl7  1  0.25000000  0.67469498  0.83734697  1
  Cl  Cl8  1  0.75000000  0.83734798  0.16265299  1
  Cl  Cl9  1  0.25000000  0.16265200  0.32530399  1
