# generated using pymatgen
data_TaAg3S4
_symmetry_space_group_name_H-M   'P 1'
_cell_length_a   6.79066277
_cell_length_b   6.79066277
_cell_length_c   6.79066277
_cell_angle_alpha   109.47122192
_cell_angle_beta   109.47122192
_cell_angle_gamma   109.47122192
_symmetry_Int_Tables_number   1
_chemical_formula_structural   TaAg3S4
_chemical_formula_sum   'Ta1 Ag3 S4'
_cell_volume   241.05413094
_cell_formula_units_Z   1
loop_
 _symmetry_equiv_pos_site_id
 _symmetry_equiv_pos_as_xyz
  1  'x, y, z'
loop_
 _atom_site_type_symbol
 _atom_site_label
 _atom_site_symmetry_multiplicity
 _atom_site_fract_x
 _atom_site_fract_y
 _atom_site_fract_z
 _atom_site_occupancy
  Ta  Ta0  1  0.00000000  0.00000000  0.00000000  1
  Ag  Ag1  1  0.50000007  1.00000005  0.50000007  1
  Ag  Ag2  1  1.00000005  0.50000002  0.50000005  1
  Ag  Ag3  1  0.50000004  0.50000002  0.00000004  1
  S  S4  1  0.33737207  1.00000005  0.00000006  1
  S  S5  1  1.00000004  0.33737202  0.00000004  1
  S  S6  1  0.00000000  0.00000000  0.33737200  1
  S  S7  1  0.66262805  0.66262803  0.66262806  1
