# generated using pymatgen
data_Li2CoBO5
_symmetry_space_group_name_H-M   'P 1'
_cell_length_a   3.14365602
_cell_length_b   5.46190119
_cell_length_c   10.81330204
_cell_angle_alpha   94.95210266
_cell_angle_beta   90.00000000
_cell_angle_gamma   90.00000000
_symmetry_Int_Tables_number   1
_chemical_formula_structural   Li2CoBO5
_chemical_formula_sum   'Li4 Co2 B2 O10'
_cell_volume   184.97499660
_cell_formula_units_Z   2
loop_
 _symmetry_equiv_pos_site_id
 _symmetry_equiv_pos_as_xyz
  1  'x, y, z'
loop_
 _atom_site_type_symbol
 _atom_site_label
 _atom_site_symmetry_multiplicity
 _atom_site_fract_x
 _atom_site_fract_y
 _atom_site_fract_z
 _atom_site_occupancy
  Li  Li0  1  0.50000000  0.28048999  0.21031399  1
  Li  Li1  1  0.50000000  0.71950997  0.78968598  1
  Li  Li2  1  -0.00000000  0.49999998  -0.00000000  1
  Li  Li3  1  0.50000000  0.00000000  0.49999999  1
  Co  Co4  1  0.00000000  0.00000000  0.00000000  1
  Co  Co5  1  -0.00000000  0.20598999  0.74221698  1
  B  B6  1  -0.00000000  0.79400997  0.25778299  1
  B  B7  1  -0.00000000  0.49999998  0.49999999  1
  O  O8  1  0.50000000  0.25521699  0.02925000  1
  O  O9  1  0.50000000  0.74478297  0.97074997  1
  O  O10  1  0.50000000  0.30745899  0.40347599  1
  O  O11  1  0.50000000  0.69254098  0.59652398  1
  O  O12  1  -0.00000000  0.17615599  0.60623099  1
  O  O13  1  -0.00000000  0.82384397  0.39376899  1
  O  O14  1  1.00000000  0.00737400  0.20063800  1
  O  O15  1  -0.00000000  0.99262596  0.79936198  1
  O  O16  1  -0.00000000  0.55887698  0.20374599  1
  O  O17  1  -0.00000000  0.44112298  0.79625398  1
