# generated using pymatgen
data_Mg7In
_symmetry_space_group_name_H-M   'P 1'
_cell_length_a   5.03690815
_cell_length_b   6.35184193
_cell_length_c   6.35184240
_cell_angle_alpha   60.00000381
_cell_angle_beta   90.00000000
_cell_angle_gamma   90.00000000
_symmetry_Int_Tables_number   1
_chemical_formula_structural   Mg7In
_chemical_formula_sum   'Mg7 In1'
_cell_volume   175.99246556
_cell_formula_units_Z   1
loop_
 _symmetry_equiv_pos_site_id
 _symmetry_equiv_pos_as_xyz
  1  'x, y, z'
loop_
 _atom_site_type_symbol
 _atom_site_label
 _atom_site_symmetry_multiplicity
 _atom_site_fract_x
 _atom_site_fract_y
 _atom_site_fract_z
 _atom_site_occupancy
  Mg  Mg0  1  0.74999998  0.83289699  0.83289703  1
  Mg  Mg1  1  0.74999998  0.83289699  0.33420603  1
  Mg  Mg2  1  0.74999998  0.33420600  0.83289701  1
  Mg  Mg3  1  0.24999999  0.16710300  0.16710301  1
  Mg  Mg4  1  0.24999999  0.66579400  0.16710302  1
  Mg  Mg5  1  0.24999999  0.16710300  0.66579401  1
  In  In6  1  0.74999998  0.33333333  0.33333334  1
  Mg  Mg7  1  0.24999999  0.66666666  0.66666669  1
