# generated using pymatgen
data_SmLu3
_symmetry_space_group_name_H-M   'P 1'
_cell_length_a   5.65257788
_cell_length_b   7.18474197
_cell_length_c   7.18474197
_cell_angle_alpha   120.00000000
_cell_angle_beta   90.00000000
_cell_angle_gamma   90.00000000
_symmetry_Int_Tables_number   1
_chemical_formula_structural   SmLu3
_chemical_formula_sum   'Sm2 Lu6'
_cell_volume   252.69668109
_cell_formula_units_Z   2
loop_
 _symmetry_equiv_pos_site_id
 _symmetry_equiv_pos_as_xyz
  1  'x, y, z'
loop_
 _atom_site_type_symbol
 _atom_site_label
 _atom_site_symmetry_multiplicity
 _atom_site_fract_x
 _atom_site_fract_y
 _atom_site_fract_z
 _atom_site_occupancy
  Sm  Sm0  1  0.25000001  0.16749800  0.33499600  1
  Sm  Sm1  1  0.25000001  0.66500500  0.83250299  1
  Lu  Lu2  1  0.25000001  0.16749800  0.83250299  1
  Lu  Lu3  1  0.75000002  0.83250200  0.66500399  1
  Lu  Lu4  1  0.75000002  0.33499500  0.16749700  1
  Lu  Lu5  1  0.75000002  0.83250200  0.16749699  1
  Lu  Lu6  1  0.75000002  0.33333333  0.66666666  1
  Lu  Lu7  1  0.25000001  0.66666667  0.33333333  1
