# generated using pymatgen
data_Y3Ga6Ag5
_symmetry_space_group_name_H-M   'P 1'
_cell_length_a   4.31060791
_cell_length_b   8.12859535
_cell_length_c   8.12859535
_cell_angle_alpha   73.03955078
_cell_angle_beta   74.62408447
_cell_angle_gamma   74.62408447
_symmetry_Int_Tables_number   1
_chemical_formula_structural   Y3Ga6Ag5
_chemical_formula_sum   'Y3 Ga6 Ag5'
_cell_volume   257.17659888
_cell_formula_units_Z   1
loop_
 _symmetry_equiv_pos_site_id
 _symmetry_equiv_pos_as_xyz
  1  'x, y, z'
loop_
 _atom_site_type_symbol
 _atom_site_label
 _atom_site_symmetry_multiplicity
 _atom_site_fract_x
 _atom_site_fract_y
 _atom_site_fract_z
 _atom_site_occupancy
  Y  Y0  1  0.00000000  0.00000000  0.00000000  1
  Y  Y1  1  0.31665204  0.68334802  0.68334798  1
  Y  Y2  1  0.68334803  0.31665201  0.31665199  1
  Ga  Ga3  1  0.50000004  0.69744702  0.30255297  1
  Ga  Ga4  1  0.50000002  0.30255301  0.69744700  1
  Ga  Ga5  1  0.10733801  0.16661601  0.61870800  1
  Ga  Ga6  1  0.89266205  0.83338403  0.38129196  1
  Ga  Ga7  1  0.10733803  0.61870802  0.16661597  1
  Ga  Ga8  1  0.89266203  0.38129201  0.83338400  1
  Ag  Ag9  1  0.32339501  0.01772500  0.33548501  1
  Ag  Ag10  1  0.67660506  0.98227503  0.66451496  1
  Ag  Ag11  1  0.32339602  0.33548501  0.01772398  1
  Ag  Ag12  1  0.67660404  0.66451502  0.98227599  1
  Ag  Ag13  1  0.00000002  0.50000002  0.49999998  1
