# generated using pymatgen
data_BaMg
_symmetry_space_group_name_H-M   'P 1'
_cell_length_a   3.18740606
_cell_length_b   3.47341061
_cell_length_c   5.28143787
_cell_angle_alpha   90.00000000
_cell_angle_beta   90.00000000
_cell_angle_gamma   117.31159973
_symmetry_Int_Tables_number   1
_chemical_formula_structural   BaMg
_chemical_formula_sum   'Ba1 Mg1'
_cell_volume   51.95352683
_cell_formula_units_Z   1
loop_
 _symmetry_equiv_pos_site_id
 _symmetry_equiv_pos_as_xyz
  1  'x, y, z'
loop_
 _atom_site_type_symbol
 _atom_site_label
 _atom_site_symmetry_multiplicity
 _atom_site_fract_x
 _atom_site_fract_y
 _atom_site_fract_z
 _atom_site_occupancy
  Ba  Ba0  1  0.10096300  0.20192600  0.25000001  1
  Mg  Mg1  1  0.89903701  0.79807402  0.75000002  1
