# generated using pymatgen
data_Ta3(N2O)2
_symmetry_space_group_name_H-M   'P 1'
_cell_length_a   5.04243422
_cell_length_b   5.62876272
_cell_length_c   8.94890118
_cell_angle_alpha   91.17457581
_cell_angle_beta   106.36376953
_cell_angle_gamma   90.00000000
_symmetry_Int_Tables_number   1
_chemical_formula_structural   Ta3(N2O)2
_chemical_formula_sum   'Ta6 N8 O4'
_cell_volume   243.64935287
_cell_formula_units_Z   2
loop_
 _symmetry_equiv_pos_site_id
 _symmetry_equiv_pos_as_xyz
  1  'x, y, z'
loop_
 _atom_site_type_symbol
 _atom_site_label
 _atom_site_symmetry_multiplicity
 _atom_site_fract_x
 _atom_site_fract_y
 _atom_site_fract_z
 _atom_site_occupancy
  Ta  Ta0  1  0.57170597  0.82860300  0.65391500  1
  Ta  Ta1  1  0.08220900  0.32860300  0.65391501  1
  Ta  Ta2  1  0.91779095  0.67139700  0.34608499  1
  Ta  Ta3  1  0.42829398  0.17139700  0.34608500  1
  Ta  Ta4  1  0.19335099  0.75000000  -0.00000000  1
  Ta  Ta5  1  0.80664896  0.25000000  -0.00000001  1
  N  N6  1  0.28413298  0.84894000  0.43957500  1
  N  N7  1  0.15544199  0.34894000  0.43957500  1
  N  N8  1  0.40389798  0.57103400  0.72322500  1
  N  N9  1  0.31932698  0.07103400  0.72322501  1
  N  N10  1  0.85266496  0.91938200  0.86642800  1
  N  N11  1  0.01376300  0.41938200  0.86642801  1
  N  N12  1  0.98623695  0.58061800  0.13357199  1
  N  N13  1  0.14733499  0.08061800  0.13357200  1
  O  O14  1  0.68067296  0.92896600  0.27677499  1
  O  O15  1  0.59610197  0.42896600  0.27677499  1
  O  O16  1  0.84455796  0.65106000  0.56042499  1
  O  O17  1  0.71586696  0.15106000  0.56042500  1
