# generated using pymatgen
data_Li4MnCo3O8
_symmetry_space_group_name_H-M   'P 1'
_cell_length_a   5.07361174
_cell_length_b   5.08416748
_cell_length_c   6.05232763
_cell_angle_alpha   94.32702637
_cell_angle_beta   102.41304779
_cell_angle_gamma   99.91739655
_symmetry_Int_Tables_number   1
_chemical_formula_structural   Li4MnCo3O8
_chemical_formula_sum   'Li4 Mn1 Co3 O8'
_cell_volume   149.16247559
_cell_formula_units_Z   1
loop_
 _symmetry_equiv_pos_site_id
 _symmetry_equiv_pos_as_xyz
  1  'x, y, z'
loop_
 _atom_site_type_symbol
 _atom_site_label
 _atom_site_symmetry_multiplicity
 _atom_site_fract_x
 _atom_site_fract_y
 _atom_site_fract_z
 _atom_site_occupancy
  Li  Li0  1  0.50130797  0.24041599  0.87537702  1
  Li  Li1  1  0.50452997  0.24394699  0.38702800  1
  Li  Li2  1  0.50169295  0.75252297  0.62602103  1
  Li  Li3  1  0.49451095  0.76371796  0.11262001  1
  Mn  Mn4  1  0.99962193  0.49896098  0.24824298  1
  Co  Co5  1  0.99937492  0.99622495  0.50300501  1
  Co  Co6  1  0.99949195  0.00269400  0.99562098  1
  Co  Co7  1  0.00134799  0.50069598  0.75353905  1
  O  O8  1  0.77095796  0.13698199  0.17449697  1
  O  O9  1  0.22711798  0.36561298  0.56871703  1
  O  O10  1  0.76310096  0.12541599  0.68101999  1
  O  O11  1  0.21963698  0.36333998  0.05657801  1
  O  O12  1  0.77731194  0.64175697  0.93338902  1
  O  O13  1  0.23583996  0.87609196  0.82730306  1
  O  O14  1  0.77439794  0.62922797  0.43968801  1
  O  O15  1  0.22975896  0.86239096  0.31735704  1
