# generated using pymatgen
data_Na2Ca2(CO3)3
_symmetry_space_group_name_H-M   'P 1'
_cell_length_a   5.00689697
_cell_length_b   6.63845396
_cell_length_c   6.63845396
_cell_angle_alpha   114.34372711
_cell_angle_beta   90.00000000
_cell_angle_gamma   90.00000000
_symmetry_Int_Tables_number   1
_chemical_formula_structural   Na2Ca2(CO3)3
_chemical_formula_sum   'Na2 Ca2 C3 O9'
_cell_volume   201.03113751
_cell_formula_units_Z   1
loop_
 _symmetry_equiv_pos_site_id
 _symmetry_equiv_pos_as_xyz
  1  'x, y, z'
loop_
 _atom_site_type_symbol
 _atom_site_label
 _atom_site_symmetry_multiplicity
 _atom_site_fract_x
 _atom_site_fract_y
 _atom_site_fract_z
 _atom_site_occupancy
  Na  Na0  1  -0.00000000  0.07412300  0.07412301  1
  Na  Na1  1  0.50000000  0.38762901  0.38762903  1
  Ca  Ca2  1  0.50000000  0.21775301  0.78499102  1
  Ca  Ca3  1  0.50000000  0.78499103  0.21775306  1
  C  C4  1  -0.00000000  0.53428902  0.12609804  1
  C  C5  1  -0.00000000  0.12609800  0.53428901  1
  C  C6  1  0.50000000  0.77427503  0.77427506  1
  O  O7  1  0.50000000  0.78981803  0.58677506  1
  O  O8  1  0.50000000  0.58677502  0.78981805  1
  O  O9  1  1.00000001  0.72753603  0.12337405  1
  O  O10  1  0.50000000  0.95816303  0.95816307  1
  O  O11  1  1.00000001  0.12337400  0.72753601  1
  O  O12  1  0.22610700  0.43915502  0.13038203  1
  O  O13  1  0.77389300  0.13038200  0.43915501  1
  O  O14  1  0.77389300  0.43915502  0.13038203  1
  O  O15  1  0.22610700  0.13038200  0.43915501  1
