# generated using pymatgen
data_TiV2(CuTe)3
_symmetry_space_group_name_H-M   'P 1'
_cell_length_a   3.36394811
_cell_length_b   7.00501490
_cell_length_c   7.03035784
_cell_angle_alpha   86.11470795
_cell_angle_beta   76.15805054
_cell_angle_gamma   76.10697174
_symmetry_Int_Tables_number   1
_chemical_formula_structural   TiV2(CuTe)3
_chemical_formula_sum   'Ti1 V2 Cu3 Te3'
_cell_volume   156.14076942
_cell_formula_units_Z   1
loop_
 _symmetry_equiv_pos_site_id
 _symmetry_equiv_pos_as_xyz
  1  'x, y, z'
loop_
 _atom_site_type_symbol
 _atom_site_label
 _atom_site_symmetry_multiplicity
 _atom_site_fract_x
 _atom_site_fract_y
 _atom_site_fract_z
 _atom_site_occupancy
  Ti  Ti0  1  0.99846396  0.00054900  0.00252301  1
  V  V1  1  0.63304498  0.06414600  0.66976400  1
  Cu  Cu2  1  0.71367800  0.23150400  0.34114001  1
  Cu  Cu3  1  0.27995408  0.77403899  0.66605301  1
  Cu  Cu4  1  0.05413508  0.65849499  0.23323501  1
  Te  Te5  1  0.94570500  0.33652699  0.77206301  1
  V  V6  1  0.37337710  0.93419398  0.31905202  1
  Te  Te7  1  0.30523103  0.32646299  0.06307501  1
  Te  Te8  1  0.69641005  0.67408399  0.93309601  1
