# generated using pymatgen
data_Mn(CrSe2)2
_symmetry_space_group_name_H-M   'P 1'
_cell_length_a   3.53664899
_cell_length_b   6.42000580
_cell_length_c   7.01147270
_cell_angle_alpha   116.10551453
_cell_angle_beta   104.60799408
_cell_angle_gamma   90.00000000
_symmetry_Int_Tables_number   1
_chemical_formula_structural   Mn(CrSe2)2
_chemical_formula_sum   'Mn1 Cr2 Se4'
_cell_volume   137.20310120
_cell_formula_units_Z   1
loop_
 _symmetry_equiv_pos_site_id
 _symmetry_equiv_pos_as_xyz
  1  'x, y, z'
loop_
 _atom_site_type_symbol
 _atom_site_label
 _atom_site_symmetry_multiplicity
 _atom_site_fract_x
 _atom_site_fract_y
 _atom_site_fract_z
 _atom_site_occupancy
  Mn  Mn0  1  0.74597000  0.70635497  0.49193897  1
  Cr  Cr1  1  0.25403000  0.29364499  0.50806099  1
  Cr  Cr2  1  0.00000000  0.00000000  0.00000000  1
  Se  Se3  1  0.88950600  0.55549698  0.77901299  1
  Se  Se4  1  0.11049399  0.44450298  0.22098698  1
  Se  Se5  1  0.63266499  0.96920496  0.26533096  1
  Se  Se6  1  0.36733500  0.03079500  0.73466901  1
