# generated using pymatgen
data_Pr2TiGe7
_symmetry_space_group_name_H-M   'P 1'
_cell_length_a   5.64824295
_cell_length_b   6.28674221
_cell_length_c   6.28674269
_cell_angle_alpha   60.00000381
_cell_angle_beta   90.00000000
_cell_angle_gamma   90.00000000
_symmetry_Int_Tables_number   1
_chemical_formula_structural   Pr2TiGe7
_chemical_formula_sum   'Pr2 Ti1 Ge7'
_cell_volume   193.32826569
_cell_formula_units_Z   1
loop_
 _symmetry_equiv_pos_site_id
 _symmetry_equiv_pos_as_xyz
  1  'x, y, z'
loop_
 _atom_site_type_symbol
 _atom_site_label
 _atom_site_symmetry_multiplicity
 _atom_site_fract_x
 _atom_site_fract_y
 _atom_site_fract_z
 _atom_site_occupancy
  Pr  Pr0  1  0.75000001  0.66666664  0.66666667  1
  Pr  Pr1  1  0.25000000  0.33333332  0.33333333  1
  Ti  Ti2  1  0.00000000  0.00000000  0.00000000  1
  Ge  Ge3  1  0.50000000  0.00000000  0.00000000  1
  Ge  Ge4  1  0.75000001  0.61196898  0.19401500  1
  Ge  Ge5  1  0.75000001  0.19401599  0.61196800  1
  Ge  Ge6  1  0.75000001  0.19401599  0.19401500  1
  Ge  Ge7  1  0.25000000  0.80598397  0.80598500  1
  Ge  Ge8  1  0.25000000  0.80598397  0.38803200  1
  Ge  Ge9  1  0.25000000  0.38803098  0.80598500  1
