# generated using pymatgen
data_Pr7OsI12
_symmetry_space_group_name_H-M   'P 1'
_cell_length_a   10.04951286
_cell_length_b   10.04951286
_cell_length_c   10.04951286
_cell_angle_alpha   107.08823395
_cell_angle_beta   107.08823395
_cell_angle_gamma   107.08823395
_symmetry_Int_Tables_number   1
_chemical_formula_structural   Pr7OsI12
_chemical_formula_sum   'Pr7 Os1 I12'
_cell_volume   843.19865573
_cell_formula_units_Z   1
loop_
 _symmetry_equiv_pos_site_id
 _symmetry_equiv_pos_as_xyz
  1  'x, y, z'
loop_
 _atom_site_type_symbol
 _atom_site_label
 _atom_site_symmetry_multiplicity
 _atom_site_fract_x
 _atom_site_fract_y
 _atom_site_fract_z
 _atom_site_occupancy
  Pr  Pr0  1  0.09802100  0.02688400  0.29906999  1
  Pr  Pr1  1  0.90197894  0.97311596  0.70092995  1
  Pr  Pr2  1  0.70092995  0.90197896  0.97311595  1
  Pr  Pr3  1  0.97311595  0.70092997  0.90197895  1
  Pr  Pr4  1  0.49999997  0.49999998  0.49999997  1
  Pr  Pr5  1  0.29906999  0.09802100  0.02688399  1
  Pr  Pr6  1  0.02688399  0.29906999  0.09802099  1
  Os  Os7  1  0.00000000  0.00000000  0.00000000  1
  I  I8  1  0.38933797  0.46910798  0.15817698  1
  I  I9  1  0.61066196  0.53089198  0.84182296  1
  I  I10  1  0.07466998  0.68234597  0.22778298  1
  I  I11  1  0.84182295  0.61066197  0.53089197  1
  I  I12  1  0.22778299  0.07467000  0.68234598  1
  I  I13  1  0.92532996  0.31765399  0.77221697  1
  I  I14  1  0.77221695  0.92532996  0.31765396  1
  I  I15  1  0.68234597  0.22778299  0.07466999  1
  I  I16  1  0.31765397  0.77221697  0.92532996  1
  I  I17  1  0.46910798  0.15817699  0.38933798  1
  I  I18  1  0.53089196  0.84182296  0.61066196  1
  I  I19  1  0.15817698  0.38933798  0.46910798  1
