# generated using pymatgen
data_PbS
_symmetry_space_group_name_H-M   'P 1'
_cell_length_a   3.26570725
_cell_length_b   3.26570725
_cell_length_c   11.37947655
_cell_angle_alpha   90.00000000
_cell_angle_beta   90.00000000
_cell_angle_gamma   109.46236420
_symmetry_Int_Tables_number   1
_chemical_formula_structural   PbS
_chemical_formula_sum   'Pb2 S2'
_cell_volume   114.42587820
_cell_formula_units_Z   2
loop_
 _symmetry_equiv_pos_site_id
 _symmetry_equiv_pos_as_xyz
  1  'x, y, z'
loop_
 _atom_site_type_symbol
 _atom_site_label
 _atom_site_symmetry_multiplicity
 _atom_site_fract_x
 _atom_site_fract_y
 _atom_site_fract_z
 _atom_site_occupancy
  Pb  Pb0  1  0.49999999  0.49999999  0.50000002  1
  S  S1  1  0.00000000  0.00000000  0.00000000  1
  Pb  Pb2  1  0.49999999  0.00000000  0.25077601  1
  S  S3  1  0.00000000  0.49999999  0.74922403  1
