# generated using pymatgen
data_Ba2PbO3
_symmetry_space_group_name_H-M   'P 1'
_cell_length_a   6.39543295
_cell_length_b   6.73727131
_cell_length_c   6.73727131
_cell_angle_alpha   112.95296478
_cell_angle_beta   90.00000000
_cell_angle_gamma   90.00000000
_symmetry_Int_Tables_number   1
_chemical_formula_structural   Ba2PbO3
_chemical_formula_sum   'Ba4 Pb2 O6'
_cell_volume   267.31003794
_cell_formula_units_Z   2
loop_
 _symmetry_equiv_pos_site_id
 _symmetry_equiv_pos_as_xyz
  1  'x, y, z'
loop_
 _atom_site_type_symbol
 _atom_site_label
 _atom_site_symmetry_multiplicity
 _atom_site_fract_x
 _atom_site_fract_y
 _atom_site_fract_z
 _atom_site_occupancy
  Ba  Ba0  1  0.23232200  0.19834800  0.52547900  1
  Ba  Ba1  1  0.23232200  0.52547900  0.19834803  1
  Ba  Ba2  1  0.73232201  0.80165200  0.47452104  1
  Ba  Ba3  1  0.73232201  0.47452100  0.80165201  1
  Pb  Pb4  1  0.77056401  0.09558200  0.09558200  1
  Pb  Pb5  1  0.27056400  0.90441800  0.90441804  1
  O  O6  1  0.36171500  0.62951500  0.62951503  1
  O  O7  1  0.86171501  0.37048500  0.37048502  1
  O  O8  1  0.00153800  0.84327700  0.09437705  1
  O  O9  1  0.50153800  0.15672300  0.90562299  1
  O  O10  1  0.00153800  0.09437700  0.84327699  1
  O  O11  1  0.50153800  0.90562300  0.15672306  1
