# generated using pymatgen
data_YZnS4
_symmetry_space_group_name_H-M   'P 1'
_cell_length_a   3.91446209
_cell_length_b   3.91446209
_cell_length_c   6.92565203
_cell_angle_alpha   90.00000000
_cell_angle_beta   90.00000000
_cell_angle_gamma   90.00000000
_symmetry_Int_Tables_number   1
_chemical_formula_structural   YZnS4
_chemical_formula_sum   'Y1 Zn1 S4'
_cell_volume   106.12185916
_cell_formula_units_Z   1
loop_
 _symmetry_equiv_pos_site_id
 _symmetry_equiv_pos_as_xyz
  1  'x, y, z'
loop_
 _atom_site_type_symbol
 _atom_site_label
 _atom_site_symmetry_multiplicity
 _atom_site_fract_x
 _atom_site_fract_y
 _atom_site_fract_z
 _atom_site_occupancy
  Y  Y0  1  -0.00000000  0.49999999  0.80568000  1
  Zn  Zn1  1  0.49999999  0.00000000  0.19432000  1
  S  S2  1  0.49999999  0.00000000  0.64460600  1
  S  S3  1  -0.00000000  0.49999999  0.35539400  1
  S  S4  1  0.49999999  0.49999999  0.00000000  1
  S  S5  1  0.00000000  0.00000000  0.00000000  1
