# generated using pymatgen
data_Mg
_symmetry_space_group_name_H-M   'P 1'
_cell_length_a   4.75690508
_cell_length_b   7.13318920
_cell_length_c   7.13318920
_cell_angle_alpha   90.00000000
_cell_angle_beta   90.00000000
_cell_angle_gamma   90.00000000
_symmetry_Int_Tables_number   1
_chemical_formula_structural   Mg
_chemical_formula_sum   Mg8
_cell_volume   242.04269077
_cell_formula_units_Z   8
loop_
 _symmetry_equiv_pos_site_id
 _symmetry_equiv_pos_as_xyz
  1  'x, y, z'
loop_
 _atom_site_type_symbol
 _atom_site_label
 _atom_site_symmetry_multiplicity
 _atom_site_fract_x
 _atom_site_fract_y
 _atom_site_fract_z
 _atom_site_occupancy
  Mg  Mg0  1  0.19068800  0.49999999  -0.00000000  1
  Mg  Mg1  1  0.80931199  0.00000000  0.49999999  1
  Mg  Mg2  1  0.00000000  0.00000000  0.00000000  1
  Mg  Mg3  1  0.99999998  0.49999999  0.49999999  1
  Mg  Mg4  1  0.29014200  0.20191999  0.29807999  1
  Mg  Mg5  1  0.70985799  0.70191998  0.20191999  1
  Mg  Mg6  1  0.29014200  0.79807998  0.70191998  1
  Mg  Mg7  1  0.70985799  0.29807999  0.79807998  1
