# generated using pymatgen
data_Ti9Cr3P8
_symmetry_space_group_name_H-M   'P 1'
_cell_length_a   3.29671407
_cell_length_b   9.43930340
_cell_length_c   9.43930340
_cell_angle_alpha   90.00000000
_cell_angle_beta   90.00000000
_cell_angle_gamma   90.00000000
_symmetry_Int_Tables_number   1
_chemical_formula_structural   Ti9Cr3P8
_chemical_formula_sum   'Ti9 Cr3 P8'
_cell_volume   293.73870245
_cell_formula_units_Z   1
loop_
 _symmetry_equiv_pos_site_id
 _symmetry_equiv_pos_as_xyz
  1  'x, y, z'
loop_
 _atom_site_type_symbol
 _atom_site_label
 _atom_site_symmetry_multiplicity
 _atom_site_fract_x
 _atom_site_fract_y
 _atom_site_fract_z
 _atom_site_occupancy
  Ti  Ti0  1  0.49999999  0.17843999  0.13234799  1
  Ti  Ti1  1  0.49999999  0.13234799  0.82155997  1
  Ti  Ti2  1  0.49999999  0.86765196  0.17843999  1
  Ti  Ti3  1  0.49999999  0.82155997  0.86765196  1
  Ti  Ti4  1  0.00000000  0.28478399  0.39763398  1
  Ti  Ti5  1  0.00000000  0.39763398  0.71521597  1
  Ti  Ti6  1  0.00000000  0.60236597  0.28478399  1
  Ti  Ti7  1  0.00000000  0.71521597  0.60236597  1
  Ti  Ti8  1  0.49999999  0.49999998  0.00000000  1
  Cr  Cr9  1  0.49999999  0.00000000  0.49999998  1
  Cr  Cr10  1  0.49999999  0.49999998  0.49999998  1
  Cr  Cr11  1  0.00000000  0.00000000  0.00000000  1
  P  P12  1  0.49999999  0.41056098  0.24541299  1
  P  P13  1  0.49999999  0.24541299  0.58943898  1
  P  P14  1  0.49999999  0.75458697  0.41056098  1
  P  P15  1  0.49999999  0.58943898  0.75458697  1
  P  P16  1  0.00000000  0.03955100  0.28552599  1
  P  P17  1  0.00000000  0.28552599  0.96044896  1
  P  P18  1  0.00000000  0.71447397  0.03955100  1
  P  P19  1  0.99999998  0.96044896  0.71447397  1
