# generated using pymatgen
data_Ta3P3Ir2Os
_symmetry_space_group_name_H-M   'P 1'
_cell_length_a   3.66878796
_cell_length_b   6.69566584
_cell_length_c   6.69566631
_cell_angle_alpha   120.00000000
_cell_angle_beta   90.00000000
_cell_angle_gamma   90.00000000
_symmetry_Int_Tables_number   1
_chemical_formula_structural   Ta3P3Ir2Os
_chemical_formula_sum   'Ta3 P3 Os1 Ir2'
_cell_volume   142.44290308
_cell_formula_units_Z   1
loop_
 _symmetry_equiv_pos_site_id
 _symmetry_equiv_pos_as_xyz
  1  'x, y, z'
loop_
 _atom_site_type_symbol
 _atom_site_label
 _atom_site_symmetry_multiplicity
 _atom_site_fract_x
 _atom_site_fract_y
 _atom_site_fract_z
 _atom_site_occupancy
  Ta  Ta0  1  1.00000001  0.39660301  0.99999998  1
  Ta  Ta1  1  -0.00000000  0.60339702  0.60339699  1
  Ta  Ta2  1  0.00000000  0.00000000  0.39660299  1
  P  P3  1  0.50000001  0.33333334  0.66666665  1
  P  P4  1  0.50000001  0.66666669  0.33333333  1
  P  P5  1  0.00000000  0.00000000  0.00000000  1
  Os  Os6  1  0.50000001  0.73287202  0.00000001  1
  Ir  Ir7  1  0.50000001  0.26712801  0.26712800  1
  Ir  Ir8  1  0.50000001  0.00000000  0.73287198  1
