# generated using pymatgen
data_Lu4CrS7
_symmetry_space_group_name_H-M   'P 1'
_cell_length_a   3.81083989
_cell_length_b   6.59003544
_cell_length_c   11.49926949
_cell_angle_alpha   104.24420929
_cell_angle_beta   90.00000000
_cell_angle_gamma   106.80626678
_symmetry_Int_Tables_number   1
_chemical_formula_structural   Lu4CrS7
_chemical_formula_sum   'Lu4 Cr1 S7'
_cell_volume   267.16482074
_cell_formula_units_Z   1
loop_
 _symmetry_equiv_pos_site_id
 _symmetry_equiv_pos_as_xyz
  1  'x, y, z'
loop_
 _atom_site_type_symbol
 _atom_site_label
 _atom_site_symmetry_multiplicity
 _atom_site_fract_x
 _atom_site_fract_y
 _atom_site_fract_z
 _atom_site_occupancy
  Lu  Lu0  1  0.30756797  0.61513599  0.20433100  1
  Lu  Lu1  1  0.69325300  0.38650600  0.80168901  1
  Lu  Lu2  1  0.00020700  0.00041400  0.00527200  1
  Lu  Lu3  1  0.88640298  0.77280599  0.56793801  1
  Cr  Cr4  1  0.11436099  0.22872200  0.42161001  1
  S  S5  1  0.25629798  0.51259600  0.64048301  1
  S  S6  1  0.73286399  0.46572800  0.35285700  1
  S  S7  1  0.66112000  0.32224000  0.05070300  1
  S  S8  1  0.34016097  0.68032199  0.94846402  1
  S  S9  1  0.96473597  0.92947199  0.22397300  1
  S  S10  1  0.03768100  0.07536200  0.78487401  1
  S  S11  1  0.50535001  0.01070000  0.49780601  1
