# generated using pymatgen
data_MgTi2O4
_symmetry_space_group_name_H-M   'P 1'
_cell_length_a   6.01204300
_cell_length_b   6.23767710
_cell_length_c   6.29565859
_cell_angle_alpha   119.69595337
_cell_angle_beta   118.47162628
_cell_angle_gamma   89.99994659
_symmetry_Int_Tables_number   1
_chemical_formula_structural   MgTi2O4
_chemical_formula_sum   'Mg2 Ti4 O8'
_cell_volume   171.44383583
_cell_formula_units_Z   2
loop_
 _symmetry_equiv_pos_site_id
 _symmetry_equiv_pos_as_xyz
  1  'x, y, z'
loop_
 _atom_site_type_symbol
 _atom_site_label
 _atom_site_symmetry_multiplicity
 _atom_site_fract_x
 _atom_site_fract_y
 _atom_site_fract_z
 _atom_site_occupancy
  Mg  Mg0  1  0.37501106  0.62502001  0.75002206  1
  Mg  Mg1  1  0.37502301  0.12502800  0.75006502  1
  Ti  Ti2  1  0.74492002  0.24544801  0.49085805  1
  Ti  Ti3  1  0.00505900  0.00453400  0.00903400  1
  Ti  Ti4  1  0.37525406  0.62483301  0.24996506  1
  Ti  Ti5  1  0.87477006  0.62503101  0.25001308  1
  O  O6  1  0.13746805  0.42213001  0.27204004  1
  O  O7  1  0.13745109  0.84994902  0.27204807  1
  O  O8  1  0.61251304  0.40011901  0.22797106  1
  O  O9  1  0.61252908  0.82788502  0.22796809  1
  O  O10  1  0.14047509  0.87033002  0.74065807  1
  O  O11  1  0.60154209  0.87090202  0.74179109  1
  O  O12  1  0.14845704  0.37911401  0.75821303  1
  O  O13  1  0.60952804  0.37967601  0.75935505  1
