# generated using pymatgen
data_NdNiGe3
_symmetry_space_group_name_H-M   'P 1'
_cell_length_a   4.14491177
_cell_length_b   4.16995192
_cell_length_c   11.14934921
_cell_angle_alpha   90.00000000
_cell_angle_beta   100.71251678
_cell_angle_gamma   90.00000000
_symmetry_Int_Tables_number   1
_chemical_formula_structural   NdNiGe3
_chemical_formula_sum   'Nd2 Ni2 Ge6'
_cell_volume   189.34783051
_cell_formula_units_Z   2
loop_
 _symmetry_equiv_pos_site_id
 _symmetry_equiv_pos_as_xyz
  1  'x, y, z'
loop_
 _atom_site_type_symbol
 _atom_site_label
 _atom_site_symmetry_multiplicity
 _atom_site_fract_x
 _atom_site_fract_y
 _atom_site_fract_z
 _atom_site_occupancy
  Nd  Nd0  1  0.66849003  0.50000001  0.33698000  1
  Nd  Nd1  1  0.33151001  0.50000001  0.66302002  1
  Ni  Ni2  1  0.89071804  0.00000000  0.78143601  1
  Ni  Ni3  1  0.10928200  0.00000000  0.21856401  1
  Ge  Ge4  1  0.94329604  0.50000001  0.88659201  1
  Ge  Ge5  1  0.05670400  0.50000001  0.11340800  1
  Ge  Ge6  1  0.55664702  0.00000000  0.11329399  1
  Ge  Ge7  1  0.44335302  0.00000000  0.88670602  1
  Ge  Ge8  1  0.78395303  0.00000000  0.56790600  1
  Ge  Ge9  1  0.21604701  1.00000002  0.43209401  1
