# generated using pymatgen
data_PrVSb3
_symmetry_space_group_name_H-M   'P 1'
_cell_length_a   6.03701687
_cell_length_b   6.27042818
_cell_length_c   13.09078121
_cell_angle_alpha   90.00000000
_cell_angle_beta   90.00000000
_cell_angle_gamma   90.00000000
_symmetry_Int_Tables_number   1
_chemical_formula_structural   PrVSb3
_chemical_formula_sum   'Pr4 V4 Sb12'
_cell_volume   495.54734289
_cell_formula_units_Z   4
loop_
 _symmetry_equiv_pos_site_id
 _symmetry_equiv_pos_as_xyz
  1  'x, y, z'
loop_
 _atom_site_type_symbol
 _atom_site_label
 _atom_site_symmetry_multiplicity
 _atom_site_fract_x
 _atom_site_fract_y
 _atom_site_fract_z
 _atom_site_occupancy
  Pr  Pr0  1  0.25000001  0.50265199  0.30937499  1
  Pr  Pr1  1  0.75000002  0.49734799  0.69062499  1
  Pr  Pr2  1  0.25000001  0.00265200  0.69062499  1
  Pr  Pr3  1  0.75000002  0.99734797  0.30937499  1
  V  V4  1  -0.00000000  0.74999998  0.90493199  1
  V  V5  1  -0.00000000  0.24999999  0.09506800  1
  V  V6  1  0.50000001  0.24999999  0.09506800  1
  V  V7  1  0.50000001  0.74999998  0.90493199  1
  Sb  Sb8  1  -0.00000000  0.74999998  0.50116999  1
  Sb  Sb9  1  -0.00000000  0.24999999  0.49882999  1
  Sb  Sb10  1  0.50000001  0.24999999  0.49882999  1
  Sb  Sb11  1  0.50000001  0.74999998  0.50116999  1
  Sb  Sb12  1  0.25000001  0.60428398  0.06539700  1
  Sb  Sb13  1  0.75000002  0.39571599  0.93460298  1
  Sb  Sb14  1  0.25000001  0.10428400  0.93460298  1
  Sb  Sb15  1  0.75000002  0.89571597  0.06539700  1
  Sb  Sb16  1  0.25000001  0.99679697  0.22050700  1
  Sb  Sb17  1  0.75000002  0.00320300  0.77949299  1
  Sb  Sb18  1  0.25000001  0.49679699  0.77949299  1
  Sb  Sb19  1  0.75000002  0.50320299  0.22050700  1
