# generated using pymatgen
data_Mg3B2Rh5
_symmetry_space_group_name_H-M   'P 1'
_cell_length_a   2.95584702
_cell_length_b   9.53047371
_cell_length_c   9.53047371
_cell_angle_alpha   90.00000000
_cell_angle_beta   90.00000000
_cell_angle_gamma   90.00000000
_symmetry_Int_Tables_number   1
_chemical_formula_structural   Mg3B2Rh5
_chemical_formula_sum   'Mg6 B4 Rh10'
_cell_volume   268.47937576
_cell_formula_units_Z   2
loop_
 _symmetry_equiv_pos_site_id
 _symmetry_equiv_pos_as_xyz
  1  'x, y, z'
loop_
 _atom_site_type_symbol
 _atom_site_label
 _atom_site_symmetry_multiplicity
 _atom_site_fract_x
 _atom_site_fract_y
 _atom_site_fract_z
 _atom_site_occupancy
  Mg  Mg0  1  0.00000000  0.67719202  0.17719201  1
  Mg  Mg1  1  0.99999999  0.32280801  0.82280803  1
  Mg  Mg2  1  0.00000000  0.17719201  0.32280801  1
  Mg  Mg3  1  0.00000000  0.82280803  0.67719202  1
  Mg  Mg4  1  0.00000000  0.00000000  0.00000000  1
  Mg  Mg5  1  0.00000000  0.50000002  0.50000002  1
  B  B6  1  0.00000000  0.12575400  0.62575402  1
  B  B7  1  0.00000000  0.87424603  0.37424601  1
  B  B8  1  0.99999999  0.62575402  0.87424603  1
  B  B9  1  0.00000000  0.37424601  0.12575400  1
  Rh  Rh10  1  0.50000000  0.50000002  -0.00000000  1
  Rh  Rh11  1  0.50000000  0.00000000  0.50000002  1
  Rh  Rh12  1  0.50000000  0.22072901  0.07065300  1
  Rh  Rh13  1  0.50000000  0.77927102  0.92934703  1
  Rh  Rh14  1  0.50000000  0.07065300  0.77927102  1
  Rh  Rh15  1  0.50000000  0.72072902  0.42934701  1
  Rh  Rh16  1  0.50000000  0.92934703  0.22072901  1
  Rh  Rh17  1  0.50000000  0.27927101  0.57065302  1
  Rh  Rh18  1  0.50000000  0.57065302  0.72072902  1
  Rh  Rh19  1  0.50000000  0.42934701  0.27927101  1
