# generated using pymatgen
data_Ti3Al3Ge3Mo
_symmetry_space_group_name_H-M   'P 1'
_cell_length_a   3.51124001
_cell_length_b   6.76111078
_cell_length_c   6.76111078
_cell_angle_alpha   90.00000000
_cell_angle_beta   90.00000000
_cell_angle_gamma   90.00000000
_symmetry_Int_Tables_number   1
_chemical_formula_structural   Ti3Al3Ge3Mo
_chemical_formula_sum   'Ti3 Al3 Ge3 Mo1'
_cell_volume   160.50797664
_cell_formula_units_Z   1
loop_
 _symmetry_equiv_pos_site_id
 _symmetry_equiv_pos_as_xyz
  1  'x, y, z'
loop_
 _atom_site_type_symbol
 _atom_site_label
 _atom_site_symmetry_multiplicity
 _atom_site_fract_x
 _atom_site_fract_y
 _atom_site_fract_z
 _atom_site_occupancy
  Ti  Ti0  1  0.00000000  0.50000002  0.50000002  1
  Ti  Ti1  1  0.00000000  0.00000000  0.00000000  1
  Ti  Ti2  1  0.50000000  0.67214202  0.17214201  1
  Al  Al3  1  0.50000000  0.32785801  0.82785803  1
  Al  Al4  1  0.50000000  0.17214201  0.32785801  1
  Al  Al5  1  0.50000000  0.82785803  0.67214202  1
  Ge  Ge6  1  0.00000000  0.12757000  0.62757002  1
  Ge  Ge7  1  0.00000000  0.87243003  0.37243001  1
  Mo  Mo8  1  1.00000000  0.62757002  0.87243003  1
  Ge  Ge9  1  0.00000000  0.37243001  0.12757000  1
