# generated using pymatgen
data_Nb3Co10SiMo2
_symmetry_space_group_name_H-M   'P 1'
_cell_length_a   4.19884920
_cell_length_b   4.54207897
_cell_length_c   10.17866993
_cell_angle_alpha   90.00000000
_cell_angle_beta   90.00000000
_cell_angle_gamma   90.00000000
_symmetry_Int_Tables_number   1
_chemical_formula_structural   Nb3Co10SiMo2
_chemical_formula_sum   'Nb3 Co10 Si1 Mo2'
_cell_volume   194.12255102
_cell_formula_units_Z   1
loop_
 _symmetry_equiv_pos_site_id
 _symmetry_equiv_pos_as_xyz
  1  'x, y, z'
loop_
 _atom_site_type_symbol
 _atom_site_label
 _atom_site_symmetry_multiplicity
 _atom_site_fract_x
 _atom_site_fract_y
 _atom_site_fract_z
 _atom_site_occupancy
  Nb  Nb0  1  0.49999998  0.65113100  0.00000000  1
  Nb  Nb1  1  0.49999998  0.65216700  0.50000000  1
  Nb  Nb2  1  0.00000000  0.34801500  0.75088401  1
  Si  Si3  1  0.00000000  0.34801500  0.24911600  1
  Co  Co4  1  0.49999998  0.16018500  0.12233400  1
  Co  Co5  1  0.49999998  0.15855500  0.62453200  1
  Co  Co6  1  0.49999998  0.16018500  0.87766601  1
  Co  Co7  1  0.49999998  0.15855500  0.37546800  1
  Co  Co8  1  0.00000000  0.84074101  0.62583500  1
  Co  Co9  1  0.00000000  0.83916101  0.12418000  1
  Co  Co10  1  0.00000000  0.83916101  0.87582001  1
  Co  Co11  1  0.00000000  0.84074101  0.37416500  1
  Mo  Mo12  1  -0.00000000  0.31852700  0.00000000  1
  Mo  Mo13  1  0.00000000  0.31716600  0.50000000  1
  Co  Co14  1  0.49999998  0.68384800  0.75167101  1
  Co  Co15  1  0.49999998  0.68384800  0.24832900  1
