# generated using pymatgen
data_Nb3VO8
_symmetry_space_group_name_H-M   'P 1'
_cell_length_a   4.82030344
_cell_length_b   5.11534786
_cell_length_c   5.76949406
_cell_angle_alpha   89.99318695
_cell_angle_beta   89.98609161
_cell_angle_gamma   89.13522339
_symmetry_Int_Tables_number   1
_chemical_formula_structural   Nb3VO8
_chemical_formula_sum   'Nb3 V1 O8'
_cell_volume   142.24525769
_cell_formula_units_Z   1
loop_
 _symmetry_equiv_pos_site_id
 _symmetry_equiv_pos_as_xyz
  1  'x, y, z'
loop_
 _atom_site_type_symbol
 _atom_site_label
 _atom_site_symmetry_multiplicity
 _atom_site_fract_x
 _atom_site_fract_y
 _atom_site_fract_z
 _atom_site_occupancy
  Nb  Nb0  1  0.49998392  0.74998699  0.33400403  1
  Nb  Nb1  1  0.49997796  0.25001000  0.66596501  1
  V  V2  1  0.00000698  0.25001500  0.17282201  1
  Nb  Nb3  1  0.99999290  0.75002899  0.82718502  1
  O  O4  1  0.74444894  0.39312499  0.37350601  1
  O  O5  1  0.25544898  0.10674200  0.37339500  1
  O  O6  1  0.25554995  0.60686399  0.62653502  1
  O  O7  1  0.74454790  0.89320298  0.62657203  1
  O  O8  1  0.78879393  0.43320499  0.89002101  1
  O  O9  1  0.21125299  0.06683400  0.88994000  1
  O  O10  1  0.78878990  0.93319298  0.11004403  1
  O  O11  1  0.21120595  0.56679199  0.11001302  1
