# generated using pymatgen
data_BaIn
_symmetry_space_group_name_H-M   'P 1'
_cell_length_a   4.31794977
_cell_length_b   6.67716980
_cell_length_c   7.58143234
_cell_angle_alpha   116.12706757
_cell_angle_beta   106.54518127
_cell_angle_gamma   90.00000000
_symmetry_Int_Tables_number   1
_chemical_formula_structural   BaIn
_chemical_formula_sum   'Ba2 In2'
_cell_volume   186.11693711
_cell_formula_units_Z   2
loop_
 _symmetry_equiv_pos_site_id
 _symmetry_equiv_pos_as_xyz
  1  'x, y, z'
loop_
 _atom_site_type_symbol
 _atom_site_label
 _atom_site_symmetry_multiplicity
 _atom_site_fract_x
 _atom_site_fract_y
 _atom_site_fract_z
 _atom_site_occupancy
  Ba  Ba0  1  0.50000002  0.09492400  -0.00000001  1
  Ba  Ba1  1  0.71521501  0.76603103  0.43043000  1
  In  In2  1  0.28478500  0.33560101  0.56957000  1
  In  In3  1  -0.00000002  0.63677802  0.00000001  1
