# generated using pymatgen
data_SrCN2O
_symmetry_space_group_name_H-M   'P 1'
_cell_length_a   3.89800811
_cell_length_b   4.80140638
_cell_length_c   7.86634922
_cell_angle_alpha   90.00000000
_cell_angle_beta   90.00000000
_cell_angle_gamma   113.94901276
_symmetry_Int_Tables_number   1
_chemical_formula_structural   SrCN2O
_chemical_formula_sum   'Sr2 C2 N4 O2'
_cell_volume   134.55085238
_cell_formula_units_Z   2
loop_
 _symmetry_equiv_pos_site_id
 _symmetry_equiv_pos_as_xyz
  1  'x, y, z'
loop_
 _atom_site_type_symbol
 _atom_site_label
 _atom_site_symmetry_multiplicity
 _atom_site_fract_x
 _atom_site_fract_y
 _atom_site_fract_z
 _atom_site_occupancy
  Sr  Sr0  1  0.77781594  0.55563198  0.74999998  1
  Sr  Sr1  1  0.22218396  0.44436799  0.24999999  1
  C  C2  1  0.49999999  0.00000000  0.49999999  1
  C  C3  1  0.49999999  0.00000000  0.00000000  1
  N  N4  1  0.36792394  0.73584798  0.94738097  1
  N  N5  1  0.63207596  0.26415199  0.44738099  1
  N  N6  1  0.36792394  0.73584798  0.55261898  1
  N  N7  1  0.63207596  0.26415199  0.05261900  1
  O  O8  1  0.91880992  0.83761997  0.24999999  1
  O  O9  1  0.08118999  0.16237999  0.74999998  1
