# generated using pymatgen
data_Li2Mn2SbAs2O13
_symmetry_space_group_name_H-M   'P 1'
_cell_length_a   5.84100819
_cell_length_b   6.99188566
_cell_length_c   7.04687071
_cell_angle_alpha   83.73368073
_cell_angle_beta   74.24069214
_cell_angle_gamma   73.76425171
_symmetry_Int_Tables_number   1
_chemical_formula_structural   Li2Mn2SbAs2O13
_chemical_formula_sum   'Li2 Mn2 Sb1 As2 O13'
_cell_volume   265.75631047
_cell_formula_units_Z   1
loop_
 _symmetry_equiv_pos_site_id
 _symmetry_equiv_pos_as_xyz
  1  'x, y, z'
loop_
 _atom_site_type_symbol
 _atom_site_label
 _atom_site_symmetry_multiplicity
 _atom_site_fract_x
 _atom_site_fract_y
 _atom_site_fract_z
 _atom_site_occupancy
  Li  Li0  1  0.26839798  0.10460000  0.88371500  1
  Li  Li1  1  0.70767394  0.25180901  0.78150302  1
  Mn  Mn2  1  0.22205793  0.78103804  0.23202600  1
  Mn  Mn3  1  0.75622189  0.90644804  0.08376503  1
  As  As4  1  0.22837797  0.20069101  0.39222200  1
  As  As5  1  0.27799894  0.60641603  0.79357499  1
  Sb  Sb6  1  0.72605793  0.38742202  0.20323503  1
  O  O7  1  0.77356990  0.80906904  0.60741402  1
  O  O8  1  0.35592098  0.01422500  0.22661701  1
  O  O9  1  0.14977493  0.78191604  0.97613998  1
  O  O10  1  0.16952498  0.10760201  0.62318600  1
  O  O11  1  0.33817595  0.36969202  0.89313200  1
  O  O12  1  0.83487494  0.21582001  0.02328904  1
  O  O13  1  0.65922789  0.97868905  0.80178001  1
  O  O14  1  0.44407795  0.34935602  0.36250201  1
  O  O15  1  0.06837495  0.63353403  0.64672999  1
  O  O16  1  0.94274692  0.35667702  0.34932404  1
  O  O17  1  0.56656192  0.63467303  0.64972301  1
  O  O18  1  0.65959392  0.62326803  0.11034203  1
  O  O19  1  0.85078689  0.88705504  0.35978103  1
