# generated using pymatgen
data_LuAlCu
_symmetry_space_group_name_H-M   'P 1'
_cell_length_a   5.36337852
_cell_length_b   5.36337852
_cell_length_c   5.36337852
_cell_angle_alpha   88.49480438
_cell_angle_beta   60.80181885
_cell_angle_gamma   119.07147980
_symmetry_Int_Tables_number   1
_chemical_formula_structural   LuAlCu
_chemical_formula_sum   'Lu2 Al2 Cu2'
_cell_volume   110.47907722
_cell_formula_units_Z   2
loop_
 _symmetry_equiv_pos_site_id
 _symmetry_equiv_pos_as_xyz
  1  'x, y, z'
loop_
 _atom_site_type_symbol
 _atom_site_label
 _atom_site_symmetry_multiplicity
 _atom_site_fract_x
 _atom_site_fract_y
 _atom_site_fract_z
 _atom_site_occupancy
  Lu  Lu0  1  0.24999995  0.37722797  0.87277201  1
  Lu  Lu1  1  0.74999991  0.62277195  0.12722805  1
  Al  Al2  1  0.49999987  0.99999991  0.00000009  1
  Al  Al3  1  0.99999986  0.99999991  0.50000007  1
  Cu  Cu4  1  -0.00000006  0.49999996  0.50000003  1
  Cu  Cu5  1  0.49999999  0.00000000  0.49999998  1
