# generated using pymatgen
data_BeF2
_symmetry_space_group_name_H-M   'P 1'
_cell_length_a   5.17017412
_cell_length_b   5.28297997
_cell_length_c   5.17017412
_cell_angle_alpha   119.29613495
_cell_angle_beta   90.00000000
_cell_angle_gamma   119.29613495
_symmetry_Int_Tables_number   1
_chemical_formula_structural   BeF2
_chemical_formula_sum   'Be2 F4'
_cell_volume   101.94364720
_cell_formula_units_Z   2
loop_
 _symmetry_equiv_pos_site_id
 _symmetry_equiv_pos_as_xyz
  1  'x, y, z'
loop_
 _atom_site_type_symbol
 _atom_site_label
 _atom_site_symmetry_multiplicity
 _atom_site_fract_x
 _atom_site_fract_y
 _atom_site_fract_z
 _atom_site_occupancy
  Be  Be0  1  0.00000000  0.00000000  0.00000000  1
  Be  Be1  1  0.24999998  0.50000000  0.74999997  1
  F  F2  1  0.99841997  0.25076400  0.86813898  1
  F  F3  1  0.13186198  0.74923600  0.74765597  1
  F  F4  1  0.25234399  0.25076300  0.38262499  1
  F  F5  1  0.61737497  0.74923700  0.00158099  1
