# generated using pymatgen
data_Li2RhO2
_symmetry_space_group_name_H-M   'P 1'
_cell_length_a   3.03405595
_cell_length_b   3.82746792
_cell_length_c   5.25948620
_cell_angle_alpha   111.33764648
_cell_angle_beta   106.76437378
_cell_angle_gamma   90.00000000
_symmetry_Int_Tables_number   1
_chemical_formula_structural   Li2RhO2
_chemical_formula_sum   'Li2 Rh1 O2'
_cell_volume   54.09404233
_cell_formula_units_Z   1
loop_
 _symmetry_equiv_pos_site_id
 _symmetry_equiv_pos_as_xyz
  1  'x, y, z'
loop_
 _atom_site_type_symbol
 _atom_site_label
 _atom_site_symmetry_multiplicity
 _atom_site_fract_x
 _atom_site_fract_y
 _atom_site_fract_z
 _atom_site_occupancy
  Li  Li0  1  0.30295100  0.30295101  0.60590202  1
  Li  Li1  1  0.69704900  0.69704903  0.39409802  1
  Rh  Rh2  1  0.00000000  0.00000000  0.00000000  1
  O  O3  1  0.34965900  0.84965903  0.69931804  1
  O  O4  1  0.65034100  0.15034101  0.30068200  1
