# generated using pymatgen
data_In4SeS7
_symmetry_space_group_name_H-M   'P 1'
_cell_length_a   7.44083929
_cell_length_b   7.44083929
_cell_length_c   7.44083929
_cell_angle_alpha   60.00000000
_cell_angle_beta   60.00000000
_cell_angle_gamma   60.00000000
_symmetry_Int_Tables_number   1
_chemical_formula_structural   In4SeS7
_chemical_formula_sum   'In4 Se1 S7'
_cell_volume   291.30690297
_cell_formula_units_Z   1
loop_
 _symmetry_equiv_pos_site_id
 _symmetry_equiv_pos_as_xyz
  1  'x, y, z'
loop_
 _atom_site_type_symbol
 _atom_site_label
 _atom_site_symmetry_multiplicity
 _atom_site_fract_x
 _atom_site_fract_y
 _atom_site_fract_z
 _atom_site_occupancy
  In  In0  1  0.37500001  0.37500001  0.87500001  1
  In  In1  1  0.37500001  0.37500001  0.37500001  1
  In  In2  1  0.37500001  0.87500001  0.37500001  1
  In  In3  1  0.87500001  0.37500001  0.37500001  1
  Se  Se4  1  0.62207301  0.62207201  0.13378300  1
  S  S5  1  0.62207301  0.62207201  0.62207201  1
  S  S6  1  0.62207301  0.13378300  0.62207201  1
  S  S7  1  0.13378400  0.62207201  0.62207201  1
  S  S8  1  0.12792700  0.12792800  0.61621701  1
  S  S9  1  0.12792700  0.12792800  0.12792800  1
  S  S10  1  0.12792700  0.61621701  0.12792800  1
  S  S11  1  0.61621601  0.12792800  0.12792800  1
