# generated using pymatgen
data_K3CdCuSe4
_symmetry_space_group_name_H-M   'P 1'
_cell_length_a   6.71415806
_cell_length_b   7.84138012
_cell_length_c   11.57656765
_cell_angle_alpha   82.86826324
_cell_angle_beta   73.14269257
_cell_angle_gamma   64.65146637
_symmetry_Int_Tables_number   1
_chemical_formula_structural   K3CdCuSe4
_chemical_formula_sum   'K6 Cd2 Cu2 Se8'
_cell_volume   527.13688012
_cell_formula_units_Z   2
loop_
 _symmetry_equiv_pos_site_id
 _symmetry_equiv_pos_as_xyz
  1  'x, y, z'
loop_
 _atom_site_type_symbol
 _atom_site_label
 _atom_site_symmetry_multiplicity
 _atom_site_fract_x
 _atom_site_fract_y
 _atom_site_fract_z
 _atom_site_occupancy
  K  K0  1  0.31405100  0.00000000  0.37189800  1
  K  K1  1  0.68594900  0.00000000  0.62810200  1
  K  K2  1  0.43594895  0.50000002  0.12810202  1
  K  K3  1  0.06405096  0.50000002  0.87189804  1
  K  K4  1  0.92543400  0.00000000  0.14913199  1
  K  K5  1  0.07456600  0.00000000  0.85086802  1
  Cd  Cd6  1  0.82456595  0.50000002  0.35086802  1
  Cd  Cd7  1  0.67543395  0.50000002  0.64913202  1
  Cu  Cu8  1  0.49999991  1.00000003  0.00000003  1
  Cu  Cu9  1  0.24999995  0.50000002  0.50000003  1
  Se  Se10  1  0.13598898  0.21083701  0.12314601  1
  Se  Se11  1  0.46997293  0.78916202  0.87685304  1
  Se  Se12  1  0.65317498  0.21083701  0.87685302  1
  Se  Se13  1  0.74086593  0.78916202  0.12314602  1
  Se  Se14  1  0.61401097  0.28916301  0.37685401  1
  Se  Se15  1  0.28002694  0.71083802  0.62314704  1
  Se  Se16  1  0.09682497  0.28916301  0.62314702  1
  Se  Se17  1  0.00913394  0.71083802  0.37685404  1
