# generated using pymatgen
data_Lu3In5
_symmetry_space_group_name_H-M   'P 1'
_cell_length_a   5.07666206
_cell_length_b   6.73428392
_cell_length_c   6.73428392
_cell_angle_alpha   120.00000000
_cell_angle_beta   90.00000000
_cell_angle_gamma   90.00000000
_symmetry_Int_Tables_number   1
_chemical_formula_structural   Lu3In5
_chemical_formula_sum   'Lu3 In5'
_cell_volume   199.38465537
_cell_formula_units_Z   1
loop_
 _symmetry_equiv_pos_site_id
 _symmetry_equiv_pos_as_xyz
  1  'x, y, z'
loop_
 _atom_site_type_symbol
 _atom_site_label
 _atom_site_symmetry_multiplicity
 _atom_site_fract_x
 _atom_site_fract_y
 _atom_site_fract_z
 _atom_site_occupancy
  Lu  Lu0  1  0.74999999  0.66666667  0.33333333  1
  Lu  Lu1  1  0.25000000  0.33333334  0.66666667  1
  Lu  Lu2  1  0.74999999  0.16496500  0.32993000  1
  In  In3  1  0.74999999  0.16496500  0.83503501  1
  In  In4  1  0.74999999  0.67007001  0.83503501  1
  In  In5  1  0.25000000  0.83503501  0.67007000  1
  In  In6  1  0.25000000  0.83503501  0.16496500  1
  In  In7  1  0.25000000  0.32993000  0.16496500  1
