# generated using pymatgen
data_Sr(LaSe2)2
_symmetry_space_group_name_H-M   'P 1'
_cell_length_a   8.02095985
_cell_length_b   8.02095985
_cell_length_c   8.02095985
_cell_angle_alpha   109.61624908
_cell_angle_beta   109.39875793
_cell_angle_gamma   109.39875793
_symmetry_Int_Tables_number   1
_chemical_formula_structural   Sr(LaSe2)2
_chemical_formula_sum   'Sr2 La4 Se8'
_cell_volume   397.24187168
_cell_formula_units_Z   2
loop_
 _symmetry_equiv_pos_site_id
 _symmetry_equiv_pos_as_xyz
  1  'x, y, z'
loop_
 _atom_site_type_symbol
 _atom_site_label
 _atom_site_symmetry_multiplicity
 _atom_site_fract_x
 _atom_site_fract_y
 _atom_site_fract_z
 _atom_site_occupancy
  Sr  Sr0  1  0.50000004  0.25000001  0.75000005  1
  Sr  Sr1  1  0.00000000  0.00000000  0.00000000  1
  La  La2  1  0.12568306  0.50068303  0.87500003  1
  La  La3  1  0.62568303  0.12500001  0.25068305  1
  La  La4  1  0.87431711  0.74931704  0.37500008  1
  La  La5  1  0.37431708  0.62500004  0.49931705  1
  Se  Se6  1  0.09016803  0.23490501  0.48100702  1
  Se  Se7  1  0.40983206  0.39473702  0.14083904  1
  Se  Se8  1  0.24610210  0.85526305  0.76509505  1
  Se  Se9  1  0.90983207  0.39083902  0.14473707  1
  Se  Se10  1  0.59016810  0.73100704  0.98490507  1
  Se  Se11  1  0.74610202  0.01509500  0.60526305  1
  Se  Se12  1  0.25389810  0.85916105  0.26899305  1
  Se  Se13  1  0.75389808  0.51899303  0.60916107  1
