# generated using pymatgen
data_Lu2AlFe3
_symmetry_space_group_name_H-M   'P 1'
_cell_length_a   5.21247816
_cell_length_b   5.21247768
_cell_length_c   8.45304012
_cell_angle_alpha   90.00000000
_cell_angle_beta   90.00000000
_cell_angle_gamma   120.00000000
_symmetry_Int_Tables_number   1
_chemical_formula_structural   Lu2AlFe3
_chemical_formula_sum   'Lu4 Al2 Fe6'
_cell_volume   198.89873414
_cell_formula_units_Z   2
loop_
 _symmetry_equiv_pos_site_id
 _symmetry_equiv_pos_as_xyz
  1  'x, y, z'
loop_
 _atom_site_type_symbol
 _atom_site_label
 _atom_site_symmetry_multiplicity
 _atom_site_fract_x
 _atom_site_fract_y
 _atom_site_fract_z
 _atom_site_occupancy
  Lu  Lu0  1  0.66666663  0.33333333  0.93062599  1
  Lu  Lu1  1  0.33333330  0.66666665  0.43062599  1
  Lu  Lu2  1  0.33333330  0.66666665  0.06937400  1
  Lu  Lu3  1  0.66666663  0.33333333  0.56937399  1
  Al  Al4  1  0.00000000  0.00000000  0.00000000  1
  Al  Al5  1  0.00000000  0.00000000  0.49999999  1
  Fe  Fe6  1  0.17186196  0.82813798  0.74999999  1
  Fe  Fe7  1  0.82813795  0.65627599  0.25000000  1
  Fe  Fe8  1  0.34372398  0.17186200  0.25000000  1
  Fe  Fe9  1  0.65627595  0.82813798  0.74999999  1
  Fe  Fe10  1  0.17186198  0.34372399  0.74999999  1
  Fe  Fe11  1  0.82813797  0.17186200  0.25000000  1
