# generated using pymatgen
data_Li4Mn2Co3O10
_symmetry_space_group_name_H-M   'P 1'
_cell_length_a   5.04211283
_cell_length_b   5.08188820
_cell_length_c   7.76669025
_cell_angle_alpha   102.83722687
_cell_angle_beta   108.34019470
_cell_angle_gamma   99.31494904
_symmetry_Int_Tables_number   1
_chemical_formula_structural   Li4Mn2Co3O10
_chemical_formula_sum   'Li4 Mn2 Co3 O10'
_cell_volume   178.31002874
_cell_formula_units_Z   1
loop_
 _symmetry_equiv_pos_site_id
 _symmetry_equiv_pos_as_xyz
  1  'x, y, z'
loop_
 _atom_site_type_symbol
 _atom_site_label
 _atom_site_symmetry_multiplicity
 _atom_site_fract_x
 _atom_site_fract_y
 _atom_site_fract_z
 _atom_site_occupancy
  Li  Li0  1  0.07566600  0.77029401  0.58697001  1
  Li  Li1  1  0.69906401  0.60026601  0.21740098  1
  Li  Li2  1  0.30093600  0.39973401  0.78259899  1
  Li  Li3  1  0.92433401  0.22970600  0.41302996  1
  Mn  Mn4  1  0.30262300  0.89705101  0.31297201  1
  Mn  Mn5  1  0.69737701  0.10294900  0.68702797  1
  Co  Co6  1  0.50000001  0.00000000  -0.00000002  1
  Co  Co7  1  0.09919900  0.29991300  0.09779000  1
  Co  Co8  1  0.90080101  0.70008701  0.90220997  1
  O  O9  1  0.89846801  0.94137201  0.13692898  1
  O  O10  1  0.69733801  0.88851201  0.44694199  1
  O  O11  1  0.28172100  0.67006901  0.04616100  1
  O  O12  1  0.09078000  0.54206601  0.31992501  1
  O  O13  1  0.53902701  0.77669101  0.78132099  1
  O  O14  1  0.46097301  0.22330900  0.21867898  1
  O  O15  1  0.90922001  0.45793401  0.68007497  1
  O  O16  1  0.71827901  0.32993100  0.95383897  1
  O  O17  1  0.30266200  0.11148800  0.55305799  1
  O  O18  1  0.10153200  0.05862800  0.86307099  1
