# generated using pymatgen
data_Zn3GaCo2
_symmetry_space_group_name_H-M   'P 1'
_cell_length_a   2.91683793
_cell_length_b   2.91683793
_cell_length_c   8.71438599
_cell_angle_alpha   90.00000000
_cell_angle_beta   90.00000000
_cell_angle_gamma   90.00000000
_symmetry_Int_Tables_number   1
_chemical_formula_structural   Zn3GaCo2
_chemical_formula_sum   'Zn3 Ga1 Co2'
_cell_volume   74.14150373
_cell_formula_units_Z   1
loop_
 _symmetry_equiv_pos_site_id
 _symmetry_equiv_pos_as_xyz
  1  'x, y, z'
loop_
 _atom_site_type_symbol
 _atom_site_label
 _atom_site_symmetry_multiplicity
 _atom_site_fract_x
 _atom_site_fract_y
 _atom_site_fract_z
 _atom_site_occupancy
  Zn  Zn0  1  0.50000001  0.50000001  0.17864100  1
  Zn  Zn1  1  0.00000000  0.00000000  0.00217100  1
  Zn  Zn2  1  0.50000001  0.50000001  0.49933600  1
  Ga  Ga3  1  0.00000000  0.00000000  0.68541200  1
  Co  Co4  1  0.00000000  0.00000000  0.31818700  1
  Co  Co5  1  0.50000001  0.50000001  0.81625300  1
