# generated using pymatgen
data_SrAu4
_symmetry_space_group_name_H-M   'P 1'
_cell_length_a   4.63060713
_cell_length_b   4.63060713
_cell_length_c   10.58639240
_cell_angle_alpha   90.00000000
_cell_angle_beta   90.00000000
_cell_angle_gamma   90.00000000
_symmetry_Int_Tables_number   1
_chemical_formula_structural   SrAu4
_chemical_formula_sum   'Sr2 Au8'
_cell_volume   226.99895597
_cell_formula_units_Z   2
loop_
 _symmetry_equiv_pos_site_id
 _symmetry_equiv_pos_as_xyz
  1  'x, y, z'
loop_
 _atom_site_type_symbol
 _atom_site_label
 _atom_site_symmetry_multiplicity
 _atom_site_fract_x
 _atom_site_fract_y
 _atom_site_fract_z
 _atom_site_occupancy
  Sr  Sr0  1  0.00000000  0.49999999  0.24372399  1
  Sr  Sr1  1  0.49999999  0.00000000  0.75627597  1
  Au  Au2  1  0.49999999  0.49999999  0.49999998  1
  Au  Au3  1  0.00000000  0.00000000  0.49999998  1
  Au  Au4  1  0.00000000  0.49999999  0.87441697  1
  Au  Au5  1  0.49999999  0.00000000  0.12558300  1
  Au  Au6  1  0.49999999  0.49999999  0.00000000  1
  Au  Au7  1  0.00000000  0.00000000  0.00000000  1
  Au  Au8  1  0.00000000  0.49999999  0.63007098  1
  Au  Au9  1  0.49999999  0.00000000  0.36992899  1
