# generated using pymatgen
data_PrNi
_symmetry_space_group_name_H-M   'P 1'
_cell_length_a   3.99448991
_cell_length_b   7.08415222
_cell_length_c   9.84069443
_cell_angle_alpha   90.00000000
_cell_angle_beta   90.00000000
_cell_angle_gamma   90.00000000
_symmetry_Int_Tables_number   1
_chemical_formula_structural   PrNi
_chemical_formula_sum   'Pr6 Ni6'
_cell_volume   278.46778426
_cell_formula_units_Z   6
loop_
 _symmetry_equiv_pos_site_id
 _symmetry_equiv_pos_as_xyz
  1  'x, y, z'
loop_
 _atom_site_type_symbol
 _atom_site_label
 _atom_site_symmetry_multiplicity
 _atom_site_fract_x
 _atom_site_fract_y
 _atom_site_fract_z
 _atom_site_occupancy
  Pr  Pr0  1  0.25000001  0.30407499  0.14538299  1
  Pr  Pr1  1  0.25000001  0.80407497  0.35461698  1
  Pr  Pr2  1  0.75000002  0.69592498  0.85461696  1
  Pr  Pr3  1  0.75000002  0.19592499  0.64538297  1
  Pr  Pr4  1  0.25000001  0.39356899  0.45216398  1
  Pr  Pr5  1  0.25000001  0.89356897  0.04783600  1
  Ni  Ni6  1  0.75000002  0.60643098  0.54783598  1
  Ni  Ni7  1  0.75000002  0.10643100  0.95216396  1
  Ni  Ni8  1  0.75000002  0.61516098  0.17064799  1
  Ni  Ni9  1  0.75000002  0.11516100  0.32935199  1
  Ni  Ni10  1  0.25000001  0.38483899  0.82935196  1
  Ni  Ni11  1  0.25000001  0.88483897  0.67064797  1
