# generated using pymatgen
data_LuGa5
_symmetry_space_group_name_H-M   'P 1'
_cell_length_a   4.22320509
_cell_length_b   4.22320509
_cell_length_c   12.62993145
_cell_angle_alpha   90.00000000
_cell_angle_beta   90.00000000
_cell_angle_gamma   90.00000000
_symmetry_Int_Tables_number   1
_chemical_formula_structural   LuGa5
_chemical_formula_sum   'Lu2 Ga10'
_cell_volume   225.26065269
_cell_formula_units_Z   2
loop_
 _symmetry_equiv_pos_site_id
 _symmetry_equiv_pos_as_xyz
  1  'x, y, z'
loop_
 _atom_site_type_symbol
 _atom_site_label
 _atom_site_symmetry_multiplicity
 _atom_site_fract_x
 _atom_site_fract_y
 _atom_site_fract_z
 _atom_site_occupancy
  Lu  Lu0  1  0.00000000  0.00000000  0.32903699  1
  Lu  Lu1  1  0.00000000  0.00000000  0.67096298  1
  Ga  Ga2  1  0.00000000  0.00000000  0.00000000  1
  Ga  Ga3  1  0.49999999  0.49999999  0.00000000  1
  Ga  Ga4  1  0.49999999  0.49999999  0.33199799  1
  Ga  Ga5  1  0.49999999  0.49999999  0.66800198  1
  Ga  Ga6  1  0.49999999  0.00000000  0.15929499  1
  Ga  Ga7  1  0.49999999  0.00000000  0.49999998  1
  Ga  Ga8  1  0.49999999  0.00000000  0.84070497  1
  Ga  Ga9  1  0.00000000  0.49999999  0.15929499  1
  Ga  Ga10  1  0.00000000  0.49999999  0.49999998  1
  Ga  Ga11  1  0.00000000  0.49999999  0.84070497  1
