# generated using pymatgen
data_HfMn2
_symmetry_space_group_name_H-M   'P 1'
_cell_length_a   5.03879786
_cell_length_b   5.03879881
_cell_length_c   8.09511089
_cell_angle_alpha   90.00000000
_cell_angle_beta   90.00000000
_cell_angle_gamma   119.99999237
_symmetry_Int_Tables_number   1
_chemical_formula_structural   HfMn2
_chemical_formula_sum   'Hf4 Mn8'
_cell_volume   177.99484366
_cell_formula_units_Z   4
loop_
 _symmetry_equiv_pos_site_id
 _symmetry_equiv_pos_as_xyz
  1  'x, y, z'
loop_
 _atom_site_type_symbol
 _atom_site_label
 _atom_site_symmetry_multiplicity
 _atom_site_fract_x
 _atom_site_fract_y
 _atom_site_fract_z
 _atom_site_occupancy
  Hf  Hf0  1  0.66666667  0.33333332  0.56030701  1
  Hf  Hf1  1  0.33333331  0.66666665  0.43969301  1
  Hf  Hf2  1  0.33333331  0.66666665  0.06030700  1
  Hf  Hf3  1  0.66666667  0.33333332  0.93969301  1
  Mn  Mn4  1  0.00000000  0.00000000  0.50000001  1
  Mn  Mn5  1  0.00000000  0.00000000  0.00000000  1
  Mn  Mn6  1  0.16884299  0.33768599  0.75000001  1
  Mn  Mn7  1  0.16884297  0.83115798  0.75000001  1
  Mn  Mn8  1  0.66231498  0.83115798  0.75000001  1
  Mn  Mn9  1  0.83115699  0.66231398  0.25000000  1
  Mn  Mn10  1  0.83115702  0.16884200  0.25000000  1
  Mn  Mn11  1  0.33768500  0.16884200  0.25000000  1
