# generated using pymatgen
data_NaHfZrCuSe5
_symmetry_space_group_name_H-M   'P 1'
_cell_length_a   3.79377794
_cell_length_b   7.22723198
_cell_length_c   16.29188919
_cell_angle_alpha   90.00000000
_cell_angle_beta   90.00000000
_cell_angle_gamma   105.21632385
_symmetry_Int_Tables_number   1
_chemical_formula_structural   NaHfZrCuSe5
_chemical_formula_sum   'Na2 Hf2 Zr2 Cu2 Se10'
_cell_volume   431.03888424
_cell_formula_units_Z   2
loop_
 _symmetry_equiv_pos_site_id
 _symmetry_equiv_pos_as_xyz
  1  'x, y, z'
loop_
 _atom_site_type_symbol
 _atom_site_label
 _atom_site_symmetry_multiplicity
 _atom_site_fract_x
 _atom_site_fract_y
 _atom_site_fract_z
 _atom_site_occupancy
  Na  Na0  1  0.96615001  0.93230001  0.75000004  1
  Na  Na1  1  0.03385000  0.06770000  0.25000001  1
  Zr  Zr2  1  0.79062301  0.58124601  0.09843900  1
  Zr  Zr3  1  0.20937700  0.41875400  0.59843903  1
  Hf  Hf4  1  0.79062301  0.58124601  0.40156102  1
  Hf  Hf5  1  0.20937700  0.41875400  0.90156104  1
  Cu  Cu6  1  0.67745401  0.35490800  0.75000004  1
  Cu  Cu7  1  0.32254601  0.64509201  0.25000001  1
  Se  Se8  1  0.84018301  0.68036601  0.56069603  1
  Se  Se9  1  0.15981700  0.31963400  0.06069600  1
  Se  Se10  1  0.70896401  0.41792800  0.25000001  1
  Se  Se11  1  0.57763801  0.15527600  0.62815203  1
  Se  Se12  1  0.84018301  0.68036601  0.93930405  1
  Se  Se13  1  0.42236201  0.84472401  0.12815201  1
  Se  Se14  1  0.42236201  0.84472401  0.37184802  1
  Se  Se15  1  0.57763801  0.15527600  0.87184804  1
  Se  Se16  1  0.15981700  0.31963400  0.43930402  1
  Se  Se17  1  0.29103600  0.58207201  0.75000004  1
