# generated using pymatgen
data_BaSrCu5Ni2Sn5
_symmetry_space_group_name_H-M   'P 1'
_cell_length_a   6.80614328
_cell_length_b   6.80614328
_cell_length_c   6.80614328
_cell_angle_alpha   110.03096008
_cell_angle_beta   109.19207764
_cell_angle_gamma   109.19207764
_symmetry_Int_Tables_number   1
_chemical_formula_structural   BaSrCu5Ni2Sn5
_chemical_formula_sum   'Ba1 Sr1 Cu5 Ni2 Sn5'
_cell_volume   242.68909000
_cell_formula_units_Z   1
loop_
 _symmetry_equiv_pos_site_id
 _symmetry_equiv_pos_as_xyz
  1  'x, y, z'
loop_
 _atom_site_type_symbol
 _atom_site_label
 _atom_site_symmetry_multiplicity
 _atom_site_fract_x
 _atom_site_fract_y
 _atom_site_fract_z
 _atom_site_occupancy
  Sr  Sr0  1  -0.00000001  0.24999999  0.25000000  1
  Ba  Ba1  1  -0.00000002  0.74999998  0.75000001  1
  Cu  Cu2  1  0.49999996  0.47396499  0.70149598  1
  Cu  Cu3  1  0.77246894  0.97396498  0.47396500  1
  Ni  Ni4  1  0.22753097  0.70149598  0.20149602  1
  Ni  Ni5  1  0.49999997  0.20149600  0.97396496  1
  Cu  Cu6  1  0.49999995  0.79850398  0.02603502  1
  Cu  Cu7  1  0.22753099  0.02603500  0.52603498  1
  Cu  Cu8  1  0.49999996  0.52603499  0.29850400  1
  Sn  Sn9  1  0.77246896  0.29850399  0.79850396  1
  Sn  Sn10  1  0.49999997  0.15975500  0.34024498  1
  Sn  Sn11  1  0.18048898  0.34024399  0.84024398  1
  Sn  Sn12  1  0.81951095  0.65975598  0.15975599  1
  Sn  Sn13  1  0.49999995  0.84024498  0.65975500  1
