# generated using pymatgen
data_Ga2Cu6O11
_symmetry_space_group_name_H-M   'P 1'
_cell_length_a   6.30917168
_cell_length_b   6.30917168
_cell_length_c   6.30917168
_cell_angle_alpha   109.47122192
_cell_angle_beta   109.47122192
_cell_angle_gamma   109.47122192
_symmetry_Int_Tables_number   1
_chemical_formula_structural   Ga2Cu6O11
_chemical_formula_sum   'Ga2 Cu6 O11'
_cell_volume   193.32816265
_cell_formula_units_Z   1
loop_
 _symmetry_equiv_pos_site_id
 _symmetry_equiv_pos_as_xyz
  1  'x, y, z'
loop_
 _atom_site_type_symbol
 _atom_site_label
 _atom_site_symmetry_multiplicity
 _atom_site_fract_x
 _atom_site_fract_y
 _atom_site_fract_z
 _atom_site_occupancy
  Ga  Ga0  1  0.50000007  1.00000005  0.00000007  1
  Cu  Cu1  1  0.00000000  0.00000000  0.50000001  1
  Ga  Ga2  1  0.00000003  0.50000002  0.00000003  1
  Cu  Cu3  1  0.50000004  0.50000002  0.50000004  1
  Cu  Cu4  1  0.00000003  0.50000002  0.50000003  1
  Cu  Cu5  1  0.50000004  0.50000002  0.00000004  1
  Cu  Cu6  1  0.50000001  0.00000000  0.50000002  1
  Cu  Cu7  1  0.87938403  0.18617201  0.69321204  1
  O  O8  1  0.18617205  0.69321203  0.87938405  1
  O  O9  1  0.69321207  0.87938404  0.18617207  1
  O  O10  1  0.81382806  0.69321203  0.50704006  1
  O  O11  1  0.30678801  0.12061601  0.81382802  1
  O  O12  1  0.81382803  0.30678802  0.12061604  1
  O  O13  1  0.30678804  0.49296002  0.18617204  1
  O  O14  1  0.69321204  0.50704003  0.81382805  1
  O  O15  1  0.18617202  0.30678802  0.49296003  1
  O  O16  1  0.49296002  0.18617201  0.30678803  1
  O  O17  1  0.50704006  0.81382804  0.69321206  1
  O  O18  1  0.12061605  0.81382804  0.30678805  1
