# generated using pymatgen
data_GaO
_symmetry_space_group_name_H-M   'P 1'
_cell_length_a   3.28910208
_cell_length_b   3.28910303
_cell_length_c   5.30682087
_cell_angle_alpha   90.00000000
_cell_angle_beta   90.00000000
_cell_angle_gamma   119.99999237
_symmetry_Int_Tables_number   1
_chemical_formula_structural   GaO
_chemical_formula_sum   'Ga2 O2'
_cell_volume   49.71871819
_cell_formula_units_Z   2
loop_
 _symmetry_equiv_pos_site_id
 _symmetry_equiv_pos_as_xyz
  1  'x, y, z'
loop_
 _atom_site_type_symbol
 _atom_site_label
 _atom_site_symmetry_multiplicity
 _atom_site_fract_x
 _atom_site_fract_y
 _atom_site_fract_z
 _atom_site_occupancy
  Ga  Ga0  1  0.33333335  0.66666667  0.49945201  1
  Ga  Ga1  1  0.66666666  0.33333333  0.99945202  1
  O  O2  1  0.33333335  0.66666667  0.12023800  1
  O  O3  1  0.66666666  0.33333333  0.62023802  1
