# generated using pymatgen
data_CaTiN2
_symmetry_space_group_name_H-M   'P 1'
_cell_length_a   3.51043606
_cell_length_b   3.93962908
_cell_length_c   8.23241043
_cell_angle_alpha   90.00000000
_cell_angle_beta   102.31043243
_cell_angle_gamma   90.00000000
_symmetry_Int_Tables_number   1
_chemical_formula_structural   CaTiN2
_chemical_formula_sum   'Ca2 Ti2 N4'
_cell_volume   111.23487940
_cell_formula_units_Z   2
loop_
 _symmetry_equiv_pos_site_id
 _symmetry_equiv_pos_as_xyz
  1  'x, y, z'
loop_
 _atom_site_type_symbol
 _atom_site_label
 _atom_site_symmetry_multiplicity
 _atom_site_fract_x
 _atom_site_fract_y
 _atom_site_fract_z
 _atom_site_occupancy
  Ca  Ca0  1  0.66983399  0.49999999  0.33966802  1
  Ca  Ca1  1  0.33129300  0.00000000  0.66258602  1
  Ti  Ti2  1  0.93713599  0.49999999  0.87427203  1
  Ti  Ti3  1  0.06196700  0.00000000  0.12393400  1
  N  N4  1  0.05500900  0.49999999  0.11001800  1
  N  N5  1  0.94070899  0.00000000  0.88141803  1
  N  N6  1  0.82045399  0.49999999  0.64090803  1
  N  N7  1  0.18359900  0.00000000  0.36719801  1
