# generated using pymatgen
data_FeRh3
_symmetry_space_group_name_H-M   'P 1'
_cell_length_a   4.22164917
_cell_length_b   5.30168390
_cell_length_c   5.30168295
_cell_angle_alpha   120.00000763
_cell_angle_beta   90.00000000
_cell_angle_gamma   90.00000000
_symmetry_Int_Tables_number   1
_chemical_formula_structural   FeRh3
_chemical_formula_sum   'Fe2 Rh6'
_cell_volume   102.76383921
_cell_formula_units_Z   2
loop_
 _symmetry_equiv_pos_site_id
 _symmetry_equiv_pos_as_xyz
  1  'x, y, z'
loop_
 _atom_site_type_symbol
 _atom_site_label
 _atom_site_symmetry_multiplicity
 _atom_site_fract_x
 _atom_site_fract_y
 _atom_site_fract_z
 _atom_site_occupancy
  Fe  Fe0  1  0.24999999  0.66666669  0.33333337  1
  Fe  Fe1  1  0.74999997  0.33333335  0.66666670  1
  Rh  Rh2  1  0.74999997  0.84236003  0.15764004  1
  Rh  Rh3  1  0.74999997  0.31528001  0.15764002  1
  Rh  Rh4  1  0.74999997  0.84236003  0.68472006  1
  Rh  Rh5  1  0.24999999  0.15764001  0.84236003  1
  Rh  Rh6  1  0.24999999  0.68472003  0.84236005  1
  Rh  Rh7  1  0.24999999  0.15764001  0.31528002  1
