# generated using pymatgen
data_Ce2U3(FeS4)2
_symmetry_space_group_name_H-M   'P 1'
_cell_length_a   6.78283167
_cell_length_b   6.78283167
_cell_length_c   6.78283215
_cell_angle_alpha   89.16676331
_cell_angle_beta   89.16676331
_cell_angle_gamma   89.16676331
_symmetry_Int_Tables_number   1
_chemical_formula_structural   Ce2U3(FeS4)2
_chemical_formula_sum   'Ce2 U3 Fe2 S8'
_cell_volume   311.95839456
_cell_formula_units_Z   1
loop_
 _symmetry_equiv_pos_site_id
 _symmetry_equiv_pos_as_xyz
  1  'x, y, z'
loop_
 _atom_site_type_symbol
 _atom_site_label
 _atom_site_symmetry_multiplicity
 _atom_site_fract_x
 _atom_site_fract_y
 _atom_site_fract_z
 _atom_site_occupancy
  Ce  Ce0  1  0.00000000  0.00000000  0.00000000  1
  Ce  Ce1  1  0.42273900  0.23415300  0.55945999  1
  U  U2  1  0.23415300  0.55946000  0.42273899  1
  U  U3  1  0.55946000  0.42273900  0.23415300  1
  U  U4  1  0.57726100  0.76584700  0.44053999  1
  Fe  Fe5  1  0.76584700  0.44054000  0.57726099  1
  Fe  Fe6  1  0.44054000  0.57726100  0.76584699  1
  S  S7  1  0.23715500  0.23715500  0.23715500  1
  S  S8  1  0.76284500  0.76284500  0.76284499  1
  S  S9  1  0.37162500  0.75625400  0.12173800  1
  S  S10  1  0.75625400  0.12173800  0.37162499  1
  S  S11  1  0.12173800  0.37162500  0.75625398  1
  S  S12  1  0.62837500  0.24374600  0.87826198  1
  S  S13  1  0.24374600  0.87826200  0.62837499  1
  S  S14  1  0.87826200  0.62837500  0.24374600  1
