# generated using pymatgen
data_BaTiF6
_symmetry_space_group_name_H-M   'P 1'
_cell_length_a   5.27285814
_cell_length_b   5.27285814
_cell_length_c   10.25370884
_cell_angle_alpha   90.00000000
_cell_angle_beta   90.00000000
_cell_angle_gamma   90.00000000
_symmetry_Int_Tables_number   1
_chemical_formula_structural   BaTiF6
_chemical_formula_sum   'Ba2 Ti2 F12'
_cell_volume   285.08420518
_cell_formula_units_Z   2
loop_
 _symmetry_equiv_pos_site_id
 _symmetry_equiv_pos_as_xyz
  1  'x, y, z'
loop_
 _atom_site_type_symbol
 _atom_site_label
 _atom_site_symmetry_multiplicity
 _atom_site_fract_x
 _atom_site_fract_y
 _atom_site_fract_z
 _atom_site_occupancy
  Ba  Ba0  1  0.49999999  0.49999999  0.75000001  1
  Ba  Ba1  1  0.49999999  0.49999999  0.25000000  1
  Ti  Ti2  1  0.00000000  0.00000000  0.00000000  1
  Ti  Ti3  1  0.00000000  0.00000000  0.50000001  1
  F  F4  1  0.81723698  0.18276300  0.13181400  1
  F  F5  1  0.81723698  0.81723698  0.36818601  1
  F  F6  1  0.25794899  0.74205098  0.50000001  1
  F  F7  1  0.18276300  0.18276300  0.36818601  1
  F  F8  1  0.18276300  0.81723698  0.86818601  1
  F  F9  1  0.81723698  0.81723698  0.63181401  1
  F  F10  1  0.25794899  0.25794899  0.00000000  1
  F  F11  1  0.74205098  0.25794899  0.50000001  1
  F  F12  1  0.18276300  0.18276300  0.63181401  1
  F  F13  1  0.18276300  0.81723698  0.13181400  1
  F  F14  1  0.81723698  0.18276300  0.86818601  1
  F  F15  1  0.74205098  0.74205098  0.00000000  1
