# generated using pymatgen
data_LaIr5
_symmetry_space_group_name_H-M   'P 1'
_cell_length_a   5.57981968
_cell_length_b   5.57981968
_cell_length_c   9.38959026
_cell_angle_alpha   72.71482086
_cell_angle_beta   72.71482086
_cell_angle_gamma   60.00000000
_symmetry_Int_Tables_number   1
_chemical_formula_structural   LaIr5
_chemical_formula_sum   'La2 Ir10'
_cell_volume   237.80581187
_cell_formula_units_Z   2
loop_
 _symmetry_equiv_pos_site_id
 _symmetry_equiv_pos_as_xyz
  1  'x, y, z'
loop_
 _atom_site_type_symbol
 _atom_site_label
 _atom_site_symmetry_multiplicity
 _atom_site_fract_x
 _atom_site_fract_y
 _atom_site_fract_z
 _atom_site_occupancy
  La  La0  1  0.14203000  0.14203001  0.57391002  1
  La  La1  1  0.85796998  0.85797004  0.42609004  1
  Ir  Ir2  1  0.00000000  0.00000000  0.00000000  1
  Ir  Ir3  1  0.58647498  0.58647503  0.74868204  1
  Ir  Ir4  1  0.92163200  0.41352502  0.25131803  1
  Ir  Ir5  1  0.07836797  0.58647503  0.74868203  1
  Ir  Ir6  1  0.58647501  0.07836800  0.74868203  1
  Ir  Ir7  1  0.41352499  0.41352502  0.25131802  1
  Ir  Ir8  1  0.49999999  0.50000002  0.50000003  1
  Ir  Ir9  1  0.41352496  0.92163204  0.25131803  1
  Ir  Ir10  1  0.33562299  0.33562301  0.99313104  1
  Ir  Ir11  1  0.66437698  0.66437703  0.00686902  1
