# generated using pymatgen
data_Lu3Zn5
_symmetry_space_group_name_H-M   'P 1'
_cell_length_a   5.96696377
_cell_length_b   5.96696377
_cell_length_c   9.38175774
_cell_angle_alpha   90.00000000
_cell_angle_beta   90.00000000
_cell_angle_gamma   102.98067474
_symmetry_Int_Tables_number   1
_chemical_formula_structural   Lu3Zn5
_chemical_formula_sum   'Lu6 Zn10'
_cell_volume   325.49831194
_cell_formula_units_Z   2
loop_
 _symmetry_equiv_pos_site_id
 _symmetry_equiv_pos_as_xyz
  1  'x, y, z'
loop_
 _atom_site_type_symbol
 _atom_site_label
 _atom_site_symmetry_multiplicity
 _atom_site_fract_x
 _atom_site_fract_y
 _atom_site_fract_z
 _atom_site_occupancy
  Lu  Lu0  1  0.65370806  0.65370802  0.75000002  1
  Lu  Lu1  1  0.34629203  0.34629201  0.25000001  1
  Lu  Lu2  1  0.19903906  0.80096103  -0.00000000  1
  Lu  Lu3  1  0.80096103  0.19903901  -0.00000000  1
  Lu  Lu4  1  0.80096103  0.19903901  0.50000001  1
  Lu  Lu5  1  0.19903906  0.80096103  0.50000001  1
  Zn  Zn6  1  0.32148803  0.32148801  0.94990503  1
  Zn  Zn7  1  0.67851206  0.67851203  0.05009500  1
  Zn  Zn8  1  0.67851206  0.67851203  0.44990501  1
  Zn  Zn9  1  0.32148803  0.32148801  0.55009502  1
  Zn  Zn10  1  0.49496602  0.08743100  0.75000002  1
  Zn  Zn11  1  0.50503407  0.91256903  0.25000001  1
  Zn  Zn12  1  0.08743103  0.49496602  0.75000002  1
  Zn  Zn13  1  0.91256905  0.50503402  0.25000001  1
  Zn  Zn14  1  0.04046800  0.04046800  0.75000002  1
  Zn  Zn15  1  0.95953209  0.95953204  0.25000001  1
