# generated using pymatgen
data_MnZn3
_symmetry_space_group_name_H-M   'P 1'
_cell_length_a   4.53609180
_cell_length_b   4.53609180
_cell_length_c   7.89033794
_cell_angle_alpha   73.29489136
_cell_angle_beta   73.29489136
_cell_angle_gamma   60.00000000
_symmetry_Int_Tables_number   1
_chemical_formula_structural   MnZn3
_chemical_formula_sum   'Mn2 Zn6'
_cell_volume   132.63073955
_cell_formula_units_Z   2
loop_
 _symmetry_equiv_pos_site_id
 _symmetry_equiv_pos_as_xyz
  1  'x, y, z'
loop_
 _atom_site_type_symbol
 _atom_site_label
 _atom_site_symmetry_multiplicity
 _atom_site_fract_x
 _atom_site_fract_y
 _atom_site_fract_z
 _atom_site_occupancy
  Mn  Mn0  1  0.25035299  0.25035301  0.24894102  1
  Mn  Mn1  1  0.74964697  0.74964702  0.75105906  1
  Zn  Zn2  1  0.00000000  0.00000000  0.00000000  1
  Zn  Zn3  1  0.49999998  0.50000001  0.50000004  1
  Zn  Zn4  1  0.62473597  0.62473602  0.12579204  1
  Zn  Zn5  1  0.12521599  0.12521600  0.62435202  1
  Zn  Zn6  1  0.87478396  0.87478403  0.37564806  1
  Zn  Zn7  1  0.37526398  0.37526401  0.87420804  1
