# generated using pymatgen
data_CaLaMn2O6
_symmetry_space_group_name_H-M   'P 1'
_cell_length_a   5.47014809
_cell_length_b   5.54912806
_cell_length_c   7.65036345
_cell_angle_alpha   89.99596405
_cell_angle_beta   89.96549225
_cell_angle_gamma   89.97022247
_symmetry_Int_Tables_number   1
_chemical_formula_structural   CaLaMn2O6
_chemical_formula_sum   'Ca2 La2 Mn4 O12'
_cell_volume   232.22328261
_cell_formula_units_Z   2
loop_
 _symmetry_equiv_pos_site_id
 _symmetry_equiv_pos_as_xyz
  1  'x, y, z'
loop_
 _atom_site_type_symbol
 _atom_site_label
 _atom_site_symmetry_multiplicity
 _atom_site_fract_x
 _atom_site_fract_y
 _atom_site_fract_z
 _atom_site_occupancy
  Ca  Ca0  1  0.51108899  0.45316201  0.24977802  1
  Ca  Ca1  1  0.01097700  0.04688900  0.74968298  1
  La  La2  1  0.99149898  0.96341702  0.25099504  1
  La  La3  1  0.49134899  0.53650501  0.75084001  1
  Mn  Mn4  1  0.99870300  0.49881401  0.00100704  1
  Mn  Mn5  1  0.49870901  0.00114000  0.50104500  1
  Mn  Mn6  1  0.99913300  0.50018001  0.49955403  1
  Mn  Mn7  1  0.49915696  0.99988602  0.99956301  1
  O  O8  1  0.92863700  0.47926901  0.76318802  1
  O  O9  1  0.42855101  0.02083200  0.26328501  1
  O  O10  1  0.79534301  0.22200201  0.04094703  1
  O  O11  1  0.29548299  0.27789401  0.54087400  1
  O  O12  1  0.77377301  0.20511600  0.46081702  1
  O  O13  1  0.27356199  0.29493501  0.96077499  1
  O  O14  1  0.72328998  0.69789302  0.04228303  1
  O  O15  1  0.22311397  0.80213802  0.54229501  1
  O  O16  1  0.69796498  0.72058102  0.45534902  1
  O  O17  1  0.19812897  0.77943902  0.95523100  1
  O  O18  1  0.58082797  0.98253502  0.73621102  1
  O  O19  1  0.08071498  0.51737201  0.23628301  1
