# generated using pymatgen
data_In2Rh
_symmetry_space_group_name_H-M   'P 1'
_cell_length_a   5.23996019
_cell_length_b   5.28937101
_cell_length_c   5.28937101
_cell_angle_alpha   101.34274292
_cell_angle_beta   119.69145966
_cell_angle_gamma   60.30853653
_symmetry_Int_Tables_number   1
_chemical_formula_structural   In2Rh
_chemical_formula_sum   'In4 Rh2'
_cell_volume   110.40171378
_cell_formula_units_Z   2
loop_
 _symmetry_equiv_pos_site_id
 _symmetry_equiv_pos_as_xyz
  1  'x, y, z'
loop_
 _atom_site_type_symbol
 _atom_site_label
 _atom_site_symmetry_multiplicity
 _atom_site_fract_x
 _atom_site_fract_y
 _atom_site_fract_z
 _atom_site_occupancy
  In  In0  1  0.33872594  0.83351998  0.51097192  1
  In  In1  1  0.66127395  0.16648000  0.48902793  1
  In  In2  1  0.16127397  0.51097199  0.83351993  1
  In  In3  1  0.83872592  0.48902799  0.16647992  1
  Rh  Rh4  1  0.74999995  0.00000000  -0.00000005  1
  Rh  Rh5  1  0.24999998  0.00000000  0.99999995  1
