# generated using pymatgen
data_InNi9
_symmetry_space_group_name_H-M   'P 1'
_cell_length_a   5.04590607
_cell_length_b   5.04590607
_cell_length_c   14.63366795
_cell_angle_alpha   90.00000000
_cell_angle_beta   90.00000000
_cell_angle_gamma   90.00000000
_symmetry_Int_Tables_number   1
_chemical_formula_structural   InNi9
_chemical_formula_sum   'In2 Ni18'
_cell_volume   372.59027855
_cell_formula_units_Z   2
loop_
 _symmetry_equiv_pos_site_id
 _symmetry_equiv_pos_as_xyz
  1  'x, y, z'
loop_
 _atom_site_type_symbol
 _atom_site_label
 _atom_site_symmetry_multiplicity
 _atom_site_fract_x
 _atom_site_fract_y
 _atom_site_fract_z
 _atom_site_occupancy
  In  In0  1  0.80197999  0.80197999  0.50000000  1
  In  In1  1  0.69801999  0.30198000  0.75000000  1
  Ni  Ni2  1  0.30198000  0.69801999  0.25000000  1
  Ni  Ni3  1  0.19802000  0.19802000  0.00000000  1
  Ni  Ni4  1  0.92388099  0.31983100  0.29904600  1
  Ni  Ni5  1  0.07611900  0.68016899  0.79904600  1
  Ni  Ni6  1  0.31983100  0.92388099  0.70095400  1
  Ni  Ni7  1  0.81983099  0.57611899  0.04904600  1
  Ni  Ni8  1  0.09845500  0.98783799  0.37481500  1
  Ni  Ni9  1  0.51216199  0.59845499  0.62481500  1
  Ni  Ni10  1  0.48783799  0.40154499  0.12481500  1
  Ni  Ni11  1  0.59845499  0.51216199  0.37518500  1
  Ni  Ni12  1  0.40154499  0.48783799  0.87518500  1
  Ni  Ni13  1  0.90154499  0.01216200  0.87481500  1
  Ni  Ni14  1  0.98783799  0.09845500  0.62518500  1
  Ni  Ni15  1  0.01216200  0.90154499  0.12518500  1
  Ni  Ni16  1  0.68016899  0.07611900  0.20095400  1
  Ni  Ni17  1  0.42388099  0.18016900  0.45095400  1
  Ni  Ni18  1  0.57611899  0.81983099  0.95095400  1
  Ni  Ni19  1  0.18016900  0.42388099  0.54904600  1
