# generated using pymatgen
data_LiCu3Se2OF9
_symmetry_space_group_name_H-M   'P 1'
_cell_length_a   6.66129923
_cell_length_b   6.66129875
_cell_length_c   6.66129923
_cell_angle_alpha   109.47121429
_cell_angle_beta   109.47122192
_cell_angle_gamma   109.47122192
_symmetry_Int_Tables_number   1
_chemical_formula_structural   LiCu3Se2OF9
_chemical_formula_sum   'Li1 Cu3 Se2 O1 F9'
_cell_volume   227.53851885
_cell_formula_units_Z   1
loop_
 _symmetry_equiv_pos_site_id
 _symmetry_equiv_pos_as_xyz
  1  'x, y, z'
loop_
 _atom_site_type_symbol
 _atom_site_label
 _atom_site_symmetry_multiplicity
 _atom_site_fract_x
 _atom_site_fract_y
 _atom_site_fract_z
 _atom_site_occupancy
  Li  Li0  1  0.99999998  0.49999999  0.49999991  1
  Cu  Cu1  1  0.49999998  0.49999999  -0.00000006  1
  Cu  Cu2  1  0.50000000  0.00000000  0.49999997  1
  Cu  Cu3  1  0.00000000  0.00000000  0.00000000  1
  F  F4  1  0.24999997  0.49999999  0.74999993  1
  Se  Se5  1  0.99999996  0.77061298  0.77061288  1
  Se  Se6  1  0.22938699  0.22938699  -0.00000003  1
  O  O7  1  0.77061296  0.77061298  -0.00000009  1
  F  F8  1  0.77061301  0.00000000  0.77061295  1
  F  F9  1  0.99999999  0.22938699  0.22938693  1
  F  F10  1  0.22938700  0.00000000  0.22938698  1
  F  F11  1  0.74999998  0.49999999  0.24999992  1
  F  F12  1  0.74999999  0.24999999  0.49999994  1
  F  F13  1  0.24999996  0.74999998  0.49999992  1
  F  F14  1  0.49999996  0.74999998  0.24999991  1
  F  F15  1  0.49999999  0.24999999  0.74999994  1
