# generated using pymatgen
data_Sr2HfN2
_symmetry_space_group_name_H-M   'P 1'
_cell_length_a   3.99505591
_cell_length_b   3.99505591
_cell_length_c   7.62396812
_cell_angle_alpha   105.18914795
_cell_angle_beta   105.18914795
_cell_angle_gamma   90.00000000
_symmetry_Int_Tables_number   1
_chemical_formula_structural   Sr2HfN2
_chemical_formula_sum   'Sr2 Hf1 N2'
_cell_volume   113.02070919
_cell_formula_units_Z   1
loop_
 _symmetry_equiv_pos_site_id
 _symmetry_equiv_pos_as_xyz
  1  'x, y, z'
loop_
 _atom_site_type_symbol
 _atom_site_label
 _atom_site_symmetry_multiplicity
 _atom_site_fract_x
 _atom_site_fract_y
 _atom_site_fract_z
 _atom_site_occupancy
  Sr  Sr0  1  0.66939105  0.66939103  0.33878204  1
  Sr  Sr1  1  0.33060902  0.33060901  0.66121802  1
  Hf  Hf2  1  0.00000000  0.00000000  0.00000000  1
  N  N3  1  0.85838906  0.85838903  0.71677806  1
  N  N4  1  0.14161101  0.14161101  0.28322201  1
