# generated using pymatgen
data_YCdSn
_symmetry_space_group_name_H-M   'P 1'
_cell_length_a   4.67931080
_cell_length_b   7.57522011
_cell_length_c   7.57521915
_cell_angle_alpha   120.00000000
_cell_angle_beta   90.00000000
_cell_angle_gamma   90.00000000
_symmetry_Int_Tables_number   1
_chemical_formula_structural   YCdSn
_chemical_formula_sum   'Y3 Cd3 Sn3'
_cell_volume   232.54284509
_cell_formula_units_Z   3
loop_
 _symmetry_equiv_pos_site_id
 _symmetry_equiv_pos_as_xyz
  1  'x, y, z'
loop_
 _atom_site_type_symbol
 _atom_site_label
 _atom_site_symmetry_multiplicity
 _atom_site_fract_x
 _atom_site_fract_y
 _atom_site_fract_z
 _atom_site_occupancy
  Y  Y0  1  -0.00000000  0.56911897  0.99999996  1
  Y  Y1  1  -0.00000000  0.43088098  0.43088097  1
  Y  Y2  1  1.00000004  0.99999995  0.56911893  1
  Cd  Cd3  1  0.50000002  0.99999995  0.24281093  1
  Cd  Cd4  1  0.50000002  0.24281099  -0.00000002  1
  Cd  Cd5  1  0.50000002  0.75718896  0.75718895  1
  Sn  Sn6  1  0.50000002  0.33333332  0.66666664  1
  Sn  Sn7  1  0.00000000  0.00000000  0.00000000  1
  Sn  Sn8  1  0.50000002  0.66666663  0.33333329  1
