# generated using pymatgen
data_YbSnAu
_symmetry_space_group_name_H-M   'P 1'
_cell_length_a   4.76325417
_cell_length_b   8.23122025
_cell_length_c   11.98342609
_cell_angle_alpha   110.08670807
_cell_angle_beta   101.46348572
_cell_angle_gamma   90.00000000
_symmetry_Int_Tables_number   1
_chemical_formula_structural   YbSnAu
_chemical_formula_sum   'Yb6 Sn6 Au6'
_cell_volume   431.26727622
_cell_formula_units_Z   6
loop_
 _symmetry_equiv_pos_site_id
 _symmetry_equiv_pos_as_xyz
  1  'x, y, z'
loop_
 _atom_site_type_symbol
 _atom_site_label
 _atom_site_symmetry_multiplicity
 _atom_site_fract_x
 _atom_site_fract_y
 _atom_site_fract_z
 _atom_site_occupancy
  Yb  Yb0  1  0.66544097  0.19701499  0.33088198  1
  Yb  Yb1  1  0.49999995  0.96543896  0.99999995  1
  Yb  Yb2  1  0.83209196  0.29850099  0.66418397  1
  Yb  Yb3  1  0.33455896  0.86613296  0.66911796  1
  Yb  Yb4  1  0.16790798  0.63431697  0.33581598  1
  Yb  Yb5  1  -0.00000001  0.53246598  -0.00000001  1
  Sn  Sn6  1  0.93208396  0.09461100  0.86416797  1
  Sn  Sn7  1  0.23504199  0.07026700  0.47008399  1
  Sn  Sn8  1  0.76495795  0.60018297  0.52991597  1
  Sn  Sn9  1  0.59405396  0.75804497  0.18810797  1
  Sn  Sn10  1  0.40594597  0.56993698  0.81189196  1
  Sn  Sn11  1  0.06791499  0.23044199  0.13583099  1
  Au  Au12  1  0.57651897  0.40959198  0.15303698  1
  Au  Au13  1  0.73769795  0.90195796  0.47539696  1
  Au  Au14  1  0.26230098  0.42656098  0.52460198  1
  Au  Au15  1  0.89962394  0.73377497  0.79924796  1
  Au  Au16  1  0.42348198  0.25655499  0.84696397  1
  Au  Au17  1  0.10037597  0.93452696  0.20075197  1
