# generated using pymatgen
data_Li2Ni2O3
_symmetry_space_group_name_H-M   'P 1'
_cell_length_a   6.01971149
_cell_length_b   6.01971149
_cell_length_c   6.01971245
_cell_angle_alpha   60.16489029
_cell_angle_beta   60.16489029
_cell_angle_gamma   60.16488647
_symmetry_Int_Tables_number   1
_chemical_formula_structural   Li2Ni2O3
_chemical_formula_sum   'Li4 Ni4 O6'
_cell_volume   154.82139376
_cell_formula_units_Z   2
loop_
 _symmetry_equiv_pos_site_id
 _symmetry_equiv_pos_as_xyz
  1  'x, y, z'
loop_
 _atom_site_type_symbol
 _atom_site_label
 _atom_site_symmetry_multiplicity
 _atom_site_fract_x
 _atom_site_fract_y
 _atom_site_fract_z
 _atom_site_occupancy
  Li  Li0  1  0.12372901  0.12372900  0.12372900  1
  Li  Li1  1  0.49814301  0.00781600  0.49814299  1
  Li  Li2  1  0.49814302  0.49814301  0.00781601  1
  Li  Li3  1  0.00781601  0.49814301  0.49814299  1
  Ni  Ni4  1  0.87674504  0.87674502  0.87674499  1
  Ni  Ni5  1  0.49873102  0.49873101  0.49873099  1
  Ni  Ni6  1  0.74284304  0.74284301  0.74284299  1
  Ni  Ni7  1  0.74644803  0.26921601  0.74644799  1
  O  O8  1  0.74644804  0.74644801  0.26921601  1
  O  O9  1  0.26921602  0.74644801  0.74644798  1
  O  O10  1  0.25922101  0.25922100  0.25922100  1
  O  O11  1  0.25540802  0.72170101  0.25540800  1
  O  O12  1  0.25540801  0.25540800  0.72170098  1
  O  O13  1  0.72170102  0.25540800  0.25540800  1
