# generated using pymatgen
data_Y(MnAl)6
_symmetry_space_group_name_H-M   'P 1'
_cell_length_a   4.93370819
_cell_length_b   6.63627815
_cell_length_c   6.63627815
_cell_angle_alpha   80.85636139
_cell_angle_beta   68.17810822
_cell_angle_gamma   68.17810822
_symmetry_Int_Tables_number   1
_chemical_formula_structural   Y(MnAl)6
_chemical_formula_sum   'Y1 Mn6 Al6'
_cell_volume   187.20380079
_cell_formula_units_Z   1
loop_
 _symmetry_equiv_pos_site_id
 _symmetry_equiv_pos_as_xyz
  1  'x, y, z'
loop_
 _atom_site_type_symbol
 _atom_site_label
 _atom_site_symmetry_multiplicity
 _atom_site_fract_x
 _atom_site_fract_y
 _atom_site_fract_z
 _atom_site_occupancy
  Y  Y0  1  0.00000000  0.00000000  0.00000000  1
  Mn  Mn1  1  0.49999999  0.00000000  0.49999997  1
  Mn  Mn2  1  0.00000000  0.00000000  0.49999998  1
  Mn  Mn3  1  0.49999996  0.49999999  -0.00000002  1
  Mn  Mn4  1  -0.00000003  0.49999999  0.99999996  1
  Mn  Mn5  1  0.49999998  0.23555900  0.76444095  1
  Mn  Mn6  1  0.49999995  0.76444099  0.23555897  1
  Al  Al7  1  0.34632595  0.65367399  0.65367396  1
  Al  Al8  1  0.65367397  0.34632599  0.34632596  1
  Al  Al9  1  -0.00000004  0.66135399  0.33864598  1
  Al  Al10  1  -0.00000002  0.33864599  0.66135397  1
  Al  Al11  1  0.30288298  0.19711700  0.19711698  1
  Al  Al12  1  0.69711694  0.80288299  0.80288294  1
