# generated using pymatgen
data_CeErCo4
_symmetry_space_group_name_H-M   'P 1'
_cell_length_a   5.09021425
_cell_length_b   5.09021425
_cell_length_c   5.09021425
_cell_angle_alpha   60.00000000
_cell_angle_beta   60.00000000
_cell_angle_gamma   60.00000000
_symmetry_Int_Tables_number   1
_chemical_formula_structural   CeErCo4
_chemical_formula_sum   'Ce1 Er1 Co4'
_cell_volume   93.25952305
_cell_formula_units_Z   1
loop_
 _symmetry_equiv_pos_site_id
 _symmetry_equiv_pos_as_xyz
  1  'x, y, z'
loop_
 _atom_site_type_symbol
 _atom_site_label
 _atom_site_symmetry_multiplicity
 _atom_site_fract_x
 _atom_site_fract_y
 _atom_site_fract_z
 _atom_site_occupancy
  Ce  Ce0  1  0.75000000  0.75000000  0.75000000  1
  Er  Er1  1  0.00000000  0.00000000  0.00000000  1
  Co  Co2  1  0.37495000  0.87515000  0.37495000  1
  Co  Co3  1  0.37495000  0.37495000  0.37495000  1
  Co  Co4  1  0.37495000  0.37495000  0.87515000  1
  Co  Co5  1  0.87515000  0.37495000  0.37495000  1
