# generated using pymatgen
data_Tb2Si4Mo3
_symmetry_space_group_name_H-M   'P 1'
_cell_length_a   6.76814890
_cell_length_b   6.95040178
_cell_length_c   6.88994646
_cell_angle_alpha   90.00000000
_cell_angle_beta   71.04074097
_cell_angle_gamma   90.00000000
_symmetry_Int_Tables_number   1
_chemical_formula_structural   Tb2Si4Mo3
_chemical_formula_sum   'Tb4 Si8 Mo6'
_cell_volume   306.52926033
_cell_formula_units_Z   2
loop_
 _symmetry_equiv_pos_site_id
 _symmetry_equiv_pos_as_xyz
  1  'x, y, z'
loop_
 _atom_site_type_symbol
 _atom_site_label
 _atom_site_symmetry_multiplicity
 _atom_site_fract_x
 _atom_site_fract_y
 _atom_site_fract_z
 _atom_site_occupancy
  Tb  Tb0  1  0.43931801  0.66846302  0.19042998  1
  Tb  Tb1  1  0.06068200  0.16846301  0.80957001  1
  Tb  Tb2  1  0.56068202  0.33153701  0.80956999  1
  Tb  Tb3  1  0.93931803  0.83153703  0.19042995  1
  Si  Si4  1  0.13044600  0.45505901  0.09078899  1
  Si  Si5  1  0.36955401  0.95505903  0.90921100  1
  Si  Si6  1  0.86955403  0.54494102  0.90921097  1
  Si  Si7  1  0.63044602  0.04494100  0.09078897  1
  Si  Si8  1  0.12939900  0.86774903  0.50517600  1
  Si  Si9  1  0.37060101  0.36774901  0.49482399  1
  Si  Si10  1  0.87060103  0.13225100  0.49482396  1
  Si  Si11  1  0.62939902  0.63225102  0.50517598  1
  Mo  Mo12  1  0.00000000  0.50000002  0.50000001  1
  Mo  Mo13  1  0.50000002  0.00000000  0.49999998  1
  Mo  Mo14  1  0.24964301  0.16278401  0.24928499  1
  Mo  Mo15  1  0.25035701  0.66278402  0.75071500  1
  Mo  Mo16  1  0.75035703  0.83721603  0.75071497  1
  Mo  Mo17  1  0.74964303  0.33721601  0.24928496  1
