# generated using pymatgen
data_Cr(SO2)3
_symmetry_space_group_name_H-M   'P 1'
_cell_length_a   4.45068264
_cell_length_b   5.06514072
_cell_length_c   5.06514072
_cell_angle_alpha   79.85054016
_cell_angle_beta   81.63642883
_cell_angle_gamma   98.36357117
_symmetry_Int_Tables_number   1
_chemical_formula_structural   Cr(SO2)3
_chemical_formula_sum   'Cr1 S3 O6'
_cell_volume   109.47359474
_cell_formula_units_Z   1
loop_
 _symmetry_equiv_pos_site_id
 _symmetry_equiv_pos_as_xyz
  1  'x, y, z'
loop_
 _atom_site_type_symbol
 _atom_site_label
 _atom_site_symmetry_multiplicity
 _atom_site_fract_x
 _atom_site_fract_y
 _atom_site_fract_z
 _atom_site_occupancy
  Cr  Cr0  1  0.00000000  0.11175800  0.11175800  1
  S  S1  1  0.59135602  0.26152999  0.66816097  1
  S  S2  1  0.40864403  0.66816098  0.26152999  1
  S  S3  1  0.50000003  0.54891298  0.54891298  1
  O  O4  1  0.73292001  0.14238100  0.43469497  1
  O  O5  1  0.28467801  0.07126000  0.81218197  1
  O  O6  1  0.81344802  0.33636999  0.85993095  1
  O  O7  1  0.71532204  0.81218197  0.07125999  1
  O  O8  1  0.26708002  0.43469499  0.14238099  1
  O  O9  1  0.18655203  0.85993097  0.33637000  1
