# generated using pymatgen
data_Ce(NiSb)2
_symmetry_space_group_name_H-M   'P 1'
_cell_length_a   4.40881681
_cell_length_b   4.40881681
_cell_length_c   9.93859482
_cell_angle_alpha   90.00000000
_cell_angle_beta   90.00000000
_cell_angle_gamma   90.00000000
_symmetry_Int_Tables_number   1
_chemical_formula_structural   Ce(NiSb)2
_chemical_formula_sum   'Ce2 Ni4 Sb4'
_cell_volume   193.18308363
_cell_formula_units_Z   2
loop_
 _symmetry_equiv_pos_site_id
 _symmetry_equiv_pos_as_xyz
  1  'x, y, z'
loop_
 _atom_site_type_symbol
 _atom_site_label
 _atom_site_symmetry_multiplicity
 _atom_site_fract_x
 _atom_site_fract_y
 _atom_site_fract_z
 _atom_site_occupancy
  Ce  Ce0  1  0.00000000  0.50000002  0.25225100  1
  Ce  Ce1  1  0.50000002  0.00000000  0.74774901  1
  Ni  Ni2  1  0.50000002  0.50000002  0.50000001  1
  Ni  Ni3  1  0.50000002  0.00000000  0.12976900  1
  Ni  Ni4  1  0.00000000  0.00000000  0.50000001  1
  Ni  Ni5  1  0.00000000  0.50000002  0.87023102  1
  Sb  Sb6  1  0.00000000  0.00000000  0.00000000  1
  Sb  Sb7  1  0.00000000  0.50000002  0.62316401  1
  Sb  Sb8  1  0.50000002  0.00000000  0.37683601  1
  Sb  Sb9  1  0.50000002  0.50000002  -0.00000000  1
