# generated using pymatgen
data_Ba2LiSbS4
_symmetry_space_group_name_H-M   'P 1'
_cell_length_a   6.31491423
_cell_length_b   6.31491423
_cell_length_c   6.31491423
_cell_angle_alpha   104.79009247
_cell_angle_beta   104.79009247
_cell_angle_gamma   119.30396271
_symmetry_Int_Tables_number   1
_chemical_formula_structural   Ba2LiSbS4
_chemical_formula_sum   'Ba2 Li1 Sb1 S4'
_cell_volume   189.51056812
_cell_formula_units_Z   1
loop_
 _symmetry_equiv_pos_site_id
 _symmetry_equiv_pos_as_xyz
  1  'x, y, z'
loop_
 _atom_site_type_symbol
 _atom_site_label
 _atom_site_symmetry_multiplicity
 _atom_site_fract_x
 _atom_site_fract_y
 _atom_site_fract_z
 _atom_site_occupancy
  Ba  Ba0  1  0.24999998  0.24999999  -0.00000002  1
  Ba  Ba1  1  0.74999995  0.74999998  0.99999996  1
  Li  Li2  1  0.75000000  0.24999999  0.49999998  1
  Sb  Sb3  1  0.24999993  0.74999998  0.49999996  1
  S  S4  1  0.83145599  0.33145599  0.16291196  1
  S  S5  1  0.33145599  0.16854399  0.50000000  1
  S  S6  1  0.66854394  0.83145597  0.49999994  1
  S  S7  1  0.16854394  0.66854398  0.83708798  1
