# generated using pymatgen
data_BaTbMn2O5
_symmetry_space_group_name_H-M   'P 1'
_cell_length_a   5.51076174
_cell_length_b   5.51076174
_cell_length_c   7.63810921
_cell_angle_alpha   90.00000000
_cell_angle_beta   90.00000000
_cell_angle_gamma   90.00000000
_symmetry_Int_Tables_number   1
_chemical_formula_structural   BaTbMn2O5
_chemical_formula_sum   'Ba2 Tb2 Mn4 O10'
_cell_volume   231.95788074
_cell_formula_units_Z   2
loop_
 _symmetry_equiv_pos_site_id
 _symmetry_equiv_pos_as_xyz
  1  'x, y, z'
loop_
 _atom_site_type_symbol
 _atom_site_label
 _atom_site_symmetry_multiplicity
 _atom_site_fract_x
 _atom_site_fract_y
 _atom_site_fract_z
 _atom_site_occupancy
  Ba  Ba0  1  0.00000000  0.00000000  0.00000000  1
  Ba  Ba1  1  0.50000000  0.50000000  0.00000000  1
  Tb  Tb2  1  0.00000000  0.00000000  0.49999999  1
  Tb  Tb3  1  0.50000000  0.50000000  0.49999999  1
  Mn  Mn4  1  0.00000000  0.50000000  0.74940998  1
  Mn  Mn5  1  0.50000000  0.00000000  0.25058999  1
  Mn  Mn6  1  0.50000000  0.00000000  0.71345098  1
  Mn  Mn7  1  0.00000000  0.50000000  0.28654899  1
  O  O8  1  0.24757800  0.25242200  0.68669198  1
  O  O9  1  0.75242200  0.74757800  0.68669198  1
  O  O10  1  0.24757800  0.74757800  0.68669198  1
  O  O11  1  0.75242200  0.25242200  0.68669198  1
  O  O12  1  0.25242200  0.24757800  0.31330799  1
  O  O13  1  0.74757800  0.75242200  0.31330799  1
  O  O14  1  0.25242200  0.75242200  0.31330799  1
  O  O15  1  0.74757800  0.24757800  0.31330799  1
  O  O16  1  0.50000000  0.00000000  0.01541500  1
  O  O17  1  0.00000000  0.50000000  0.98458497  1
