# generated using pymatgen
data_Ce3Pt2
_symmetry_space_group_name_H-M   'P 1'
_cell_length_a   7.48634195
_cell_length_b   7.92305613
_cell_length_c   7.92305613
_cell_angle_alpha   90.00000000
_cell_angle_beta   90.00000000
_cell_angle_gamma   90.00000000
_symmetry_Int_Tables_number   1
_chemical_formula_structural   Ce3Pt2
_chemical_formula_sum   'Ce12 Pt8'
_cell_volume   469.95375637
_cell_formula_units_Z   4
loop_
 _symmetry_equiv_pos_site_id
 _symmetry_equiv_pos_as_xyz
  1  'x, y, z'
loop_
 _atom_site_type_symbol
 _atom_site_label
 _atom_site_symmetry_multiplicity
 _atom_site_fract_x
 _atom_site_fract_y
 _atom_site_fract_z
 _atom_site_occupancy
  Ce  Ce0  1  0.50000000  0.84250599  0.15749400  1
  Ce  Ce1  1  0.50000000  0.15749400  0.84250599  1
  Ce  Ce2  1  0.00000000  0.34250599  0.34250599  1
  Ce  Ce3  1  0.00000000  0.65749399  0.65749399  1
  Ce  Ce4  1  0.50000000  0.68425899  0.68425899  1
  Ce  Ce5  1  0.50000000  0.31574099  0.31574099  1
  Ce  Ce6  1  0.00000000  0.18425900  0.81574099  1
  Ce  Ce7  1  0.00000000  0.81574099  0.18425900  1
  Ce  Ce8  1  0.25000000  0.49999999  0.00000000  1
  Ce  Ce9  1  0.75000000  0.00000000  0.49999999  1
  Ce  Ce10  1  0.75000000  0.49999999  0.00000000  1
  Ce  Ce11  1  0.25000000  0.00000000  0.49999999  1
  Pt  Pt12  1  0.27807800  0.62757399  0.37242599  1
  Pt  Pt13  1  0.27807800  0.37242599  0.62757399  1
  Pt  Pt14  1  0.77807800  0.12757400  0.12757400  1
  Pt  Pt15  1  0.77807800  0.87242599  0.87242599  1
  Pt  Pt16  1  0.72192200  0.37242599  0.62757399  1
  Pt  Pt17  1  0.72192200  0.62757399  0.37242599  1
  Pt  Pt18  1  0.22192200  0.87242599  0.87242599  1
  Pt  Pt19  1  0.22192200  0.12757400  0.12757400  1
