# generated using pymatgen
data_NaZrO3
_symmetry_space_group_name_H-M   'P 1'
_cell_length_a   5.87632084
_cell_length_b   5.88153839
_cell_length_c   5.88153839
_cell_angle_alpha   60.83467102
_cell_angle_beta   60.02934265
_cell_angle_gamma   60.02934265
_symmetry_Int_Tables_number   1
_chemical_formula_structural   NaZrO3
_chemical_formula_sum   'Na2 Zr2 O6'
_cell_volume   144.68788192
_cell_formula_units_Z   2
loop_
 _symmetry_equiv_pos_site_id
 _symmetry_equiv_pos_as_xyz
  1  'x, y, z'
loop_
 _atom_site_type_symbol
 _atom_site_label
 _atom_site_symmetry_multiplicity
 _atom_site_fract_x
 _atom_site_fract_y
 _atom_site_fract_z
 _atom_site_occupancy
  Na  Na0  1  0.50215904  0.00000000  0.00000001  1
  Na  Na1  1  0.97131409  0.49999998  0.50000003  1
  Zr  Zr2  1  0.74768055  0.25135099  0.25135102  1
  Zr  Zr3  1  0.25038256  0.74864897  0.74864902  1
  O  O4  1  0.39083319  0.49999998  0.50000002  1
  O  O5  1  0.05738610  0.00000000  0.00000000  1
  O  O6  1  0.97431574  0.52802355  0.06346708  1
  O  O7  1  0.56580638  0.93653292  0.47197647  1
  O  O8  1  0.56580638  0.47197641  0.93653297  1
  O  O9  1  0.97431574  0.06346704  0.52802359  1
