# generated using pymatgen
data_Al4AgSe8
_symmetry_space_group_name_H-M   'P 1'
_cell_length_a   7.46376514
_cell_length_b   7.46376514
_cell_length_c   7.46376514
_cell_angle_alpha   60.00000000
_cell_angle_beta   60.00000000
_cell_angle_gamma   60.00000000
_symmetry_Int_Tables_number   1
_chemical_formula_structural   Al4AgSe8
_chemical_formula_sum   'Al4 Ag1 Se8'
_cell_volume   294.00783114
_cell_formula_units_Z   1
loop_
 _symmetry_equiv_pos_site_id
 _symmetry_equiv_pos_as_xyz
  1  'x, y, z'
loop_
 _atom_site_type_symbol
 _atom_site_label
 _atom_site_symmetry_multiplicity
 _atom_site_fract_x
 _atom_site_fract_y
 _atom_site_fract_z
 _atom_site_occupancy
  Al  Al0  1  0.60276101  0.19171700  0.60276101  1
  Al  Al1  1  0.60276101  0.60276101  0.60276101  1
  Al  Al2  1  0.60276101  0.60276101  0.19171700  1
  Al  Al3  1  0.19171700  0.60276101  0.60276101  1
  Ag  Ag4  1  0.00000000  0.00000000  0.00000000  1
  Se  Se5  1  0.86479401  0.40561600  0.86479501  1
  Se  Se6  1  0.86479401  0.86479501  0.86479501  1
  Se  Se7  1  0.86479401  0.86479501  0.40561600  1
  Se  Se8  1  0.90419901  0.36526700  0.36526700  1
  Se  Se9  1  0.36526700  0.36526700  0.90419901  1
  Se  Se10  1  0.36526700  0.36526700  0.36526700  1
  Se  Se11  1  0.36526700  0.90419901  0.36526700  1
  Se  Se12  1  0.40561500  0.86479501  0.86479501  1
