# generated using pymatgen
data_Dy4FeSn8
_symmetry_space_group_name_H-M   'P 1'
_cell_length_a   4.46855688
_cell_length_b   4.52823400
_cell_length_c   16.66107559
_cell_angle_alpha   90.00000000
_cell_angle_beta   90.00000000
_cell_angle_gamma   90.00000000
_symmetry_Int_Tables_number   1
_chemical_formula_structural   Dy4FeSn8
_chemical_formula_sum   'Dy4 Fe1 Sn8'
_cell_volume   337.13138680
_cell_formula_units_Z   1
loop_
 _symmetry_equiv_pos_site_id
 _symmetry_equiv_pos_as_xyz
  1  'x, y, z'
loop_
 _atom_site_type_symbol
 _atom_site_label
 _atom_site_symmetry_multiplicity
 _atom_site_fract_x
 _atom_site_fract_y
 _atom_site_fract_z
 _atom_site_occupancy
  Dy  Dy0  1  0.00000000  0.00000000  0.09758400  1
  Dy  Dy1  1  0.00000000  0.50000000  0.60202301  1
  Dy  Dy2  1  0.50000001  0.50000000  0.39649401  1
  Dy  Dy3  1  0.50000001  0.00000000  0.89956402  1
  Fe  Fe4  1  0.00000000  0.00000000  0.30486401  1
  Sn  Sn5  1  0.00000000  0.00000000  0.45247701  1
  Sn  Sn6  1  0.00000000  0.50000000  0.93744002  1
  Sn  Sn7  1  0.50000001  0.50000000  0.06231800  1
  Sn  Sn8  1  0.50000001  0.00000000  0.57076401  1
  Sn  Sn9  1  0.00000000  0.50000000  0.23940101  1
  Sn  Sn10  1  0.00000000  0.00000000  0.74900302  1
  Sn  Sn11  1  0.50000001  0.00000000  0.23941301  1
  Sn  Sn12  1  0.50000001  0.50000000  0.75165702  1
