# generated using pymatgen
data_Sc3NiC4
_symmetry_space_group_name_H-M   'P 1'
_cell_length_a   3.43123388
_cell_length_b   4.34384203
_cell_length_c   6.59942865
_cell_angle_alpha   109.21460724
_cell_angle_beta   105.06795502
_cell_angle_gamma   90.00000000
_symmetry_Int_Tables_number   1
_chemical_formula_structural   Sc3NiC4
_chemical_formula_sum   'Sc3 Ni1 C4'
_cell_volume   89.29403079
_cell_formula_units_Z   1
loop_
 _symmetry_equiv_pos_site_id
 _symmetry_equiv_pos_as_xyz
  1  'x, y, z'
loop_
 _atom_site_type_symbol
 _atom_site_label
 _atom_site_symmetry_multiplicity
 _atom_site_fract_x
 _atom_site_fract_y
 _atom_site_fract_z
 _atom_site_occupancy
  Sc  Sc0  1  1.00000004  0.49999999  1.00000002  1
  Sc  Sc1  1  0.81221403  0.81221399  0.62442800  1
  Sc  Sc2  1  0.18778601  0.18778600  0.37557200  1
  Ni  Ni3  1  0.50000002  0.00000000  1.00000002  1
  C  C4  1  0.62372602  0.79075099  0.24745199  1
  C  C5  1  0.37627401  0.20924900  0.75254801  1
  C  C6  1  0.37627401  0.54329899  0.75254800  1
  C  C7  1  0.62372602  0.45670099  0.24745200  1
