# generated using pymatgen
data_SrTi3AlHC2
_symmetry_space_group_name_H-M   'P 1'
_cell_length_a   3.28499198
_cell_length_b   3.28499150
_cell_length_c   12.88091373
_cell_angle_alpha   90.00000000
_cell_angle_beta   90.00000000
_cell_angle_gamma   120.00000763
_symmetry_Int_Tables_number   1
_chemical_formula_structural   SrTi3AlHC2
_chemical_formula_sum   'Sr1 Ti3 Al1 H1 C2'
_cell_volume   120.37764259
_cell_formula_units_Z   1
loop_
 _symmetry_equiv_pos_site_id
 _symmetry_equiv_pos_as_xyz
  1  'x, y, z'
loop_
 _atom_site_type_symbol
 _atom_site_label
 _atom_site_symmetry_multiplicity
 _atom_site_fract_x
 _atom_site_fract_y
 _atom_site_fract_z
 _atom_site_occupancy
  Ti  Ti0  1  0.66666669  0.33333335  0.25000001  1
  Sr  Sr1  1  0.33333338  0.66666670  0.75000002  1
  Ti  Ti2  1  0.00000000  0.00000000  0.00000000  1
  Ti  Ti3  1  0.00000000  0.00000000  0.50000001  1
  H  H4  1  0.66666669  0.33333335  0.58395801  1
  Al  Al5  1  0.33333338  0.66666670  0.08395800  1
  C  C6  1  0.66666669  0.33333335  0.91604202  1
  C  C7  1  0.33333338  0.66666670  0.41604201  1
