# generated using pymatgen
data_HoGePd
_symmetry_space_group_name_H-M   'P 1'
_cell_length_a   4.41542816
_cell_length_b   7.65707016
_cell_length_c   11.47045326
_cell_angle_alpha   109.49797821
_cell_angle_beta   101.09694672
_cell_angle_gamma   90.00000000
_symmetry_Int_Tables_number   1
_chemical_formula_structural   HoGePd
_chemical_formula_sum   'Ho6 Ge6 Pd6'
_cell_volume   357.86667804
_cell_formula_units_Z   6
loop_
 _symmetry_equiv_pos_site_id
 _symmetry_equiv_pos_as_xyz
  1  'x, y, z'
loop_
 _atom_site_type_symbol
 _atom_site_label
 _atom_site_symmetry_multiplicity
 _atom_site_fract_x
 _atom_site_fract_y
 _atom_site_fract_z
 _atom_site_occupancy
  Ho  Ho0  1  0.00000000  0.46606198  -0.00000002  1
  Ho  Ho1  1  0.33351700  0.79795797  0.66703399  1
  Ho  Ho2  1  0.66648198  0.13092300  0.33296501  1
  Ho  Ho3  1  0.49999999  0.04834700  0.00000001  1
  Ho  Ho4  1  0.16734500  0.71019697  0.33469099  1
  Ho  Ho5  1  0.83265398  0.37550599  0.66530801  1
  Ge  Ge6  1  0.06503100  0.91109597  0.13006197  1
  Ge  Ge7  1  0.93496898  0.78103397  0.86993800  1
  Ge  Ge8  1  0.23474900  0.39677799  0.46949700  1
  Ge  Ge9  1  0.76525198  0.92728097  0.53050399  1
  Ge  Ge10  1  0.40612099  0.25053099  0.81224201  1
  Ge  Ge11  1  0.59387899  0.43828898  0.18775800  1
  Pd  Pd12  1  0.10416400  0.27803599  0.20832900  1
  Pd  Pd13  1  0.89583497  0.06970700  0.79167002  1
  Pd  Pd14  1  0.26708499  0.10007100  0.53417101  1
  Pd  Pd15  1  0.73291398  0.56589998  0.46582800  1
  Pd  Pd16  1  0.42807499  0.60486598  0.85615000  1
  Pd  Pd17  1  0.57192499  0.74871597  0.14384999  1
