# generated using pymatgen
data_La3Ag2
_symmetry_space_group_name_H-M   'P 1'
_cell_length_a   4.12140703
_cell_length_b   8.67660999
_cell_length_c   8.67660999
_cell_angle_alpha   90.00000000
_cell_angle_beta   90.00000000
_cell_angle_gamma   90.00000000
_symmetry_Int_Tables_number   1
_chemical_formula_structural   La3Ag2
_chemical_formula_sum   'La6 Ag4'
_cell_volume   310.27419758
_cell_formula_units_Z   2
loop_
 _symmetry_equiv_pos_site_id
 _symmetry_equiv_pos_as_xyz
  1  'x, y, z'
loop_
 _atom_site_type_symbol
 _atom_site_label
 _atom_site_symmetry_multiplicity
 _atom_site_fract_x
 _atom_site_fract_y
 _atom_site_fract_z
 _atom_site_occupancy
  La  La0  1  0.00000000  0.00000000  0.00000000  1
  La  La1  1  -0.00000000  0.50000000  0.50000000  1
  La  La2  1  0.50000000  0.65390800  0.15390800  1
  La  La3  1  0.50000000  0.15390800  0.34609200  1
  La  La4  1  0.50000000  0.84609200  0.65390800  1
  La  La5  1  0.50000000  0.34609200  0.84609200  1
  Ag  Ag6  1  0.00000000  0.85560800  0.35560800  1
  Ag  Ag7  1  0.00000000  0.35560800  0.14439200  1
  Ag  Ag8  1  -0.00000000  0.64439200  0.85560800  1
  Ag  Ag9  1  0.00000000  0.14439200  0.64439200  1
