# generated using pymatgen
data_Pr2In8Rh
_symmetry_space_group_name_H-M   'P 1'
_cell_length_a   4.77113485
_cell_length_b   4.77113485
_cell_length_c   12.13766861
_cell_angle_alpha   90.00000000
_cell_angle_beta   90.00000000
_cell_angle_gamma   90.00000000
_symmetry_Int_Tables_number   1
_chemical_formula_structural   Pr2In8Rh
_chemical_formula_sum   'Pr2 In8 Rh1'
_cell_volume   276.29858422
_cell_formula_units_Z   1
loop_
 _symmetry_equiv_pos_site_id
 _symmetry_equiv_pos_as_xyz
  1  'x, y, z'
loop_
 _atom_site_type_symbol
 _atom_site_label
 _atom_site_symmetry_multiplicity
 _atom_site_fract_x
 _atom_site_fract_y
 _atom_site_fract_z
 _atom_site_occupancy
  Pr  Pr0  1  0.00000000  0.00000000  0.68953202  1
  Pr  Pr1  1  0.00000000  0.00000000  0.31046801  1
  In  In2  1  0.50000002  0.00000000  0.87493703  1
  In  In3  1  0.00000000  0.50000002  0.87493703  1
  In  In4  1  0.50000002  0.00000000  0.12506300  1
  In  In5  1  0.00000000  0.50000002  0.12506300  1
  In  In6  1  0.50000002  0.00000000  0.50000002  1
  In  In7  1  0.00000000  0.50000002  0.50000002  1
  In  In8  1  0.50000002  0.50000002  0.69231102  1
  In  In9  1  0.50000002  0.50000002  0.30768901  1
  Rh  Rh10  1  0.00000000  0.00000000  0.00000000  1
