# generated using pymatgen
data_CaMg
_symmetry_space_group_name_H-M   'P 1'
_cell_length_a   3.62276602
_cell_length_b   5.93222380
_cell_length_c   6.63093424
_cell_angle_alpha   116.57150269
_cell_angle_beta   105.85308075
_cell_angle_gamma   90.00000000
_symmetry_Int_Tables_number   1
_chemical_formula_structural   CaMg
_chemical_formula_sum   'Ca2 Mg2'
_cell_volume   121.36334629
_cell_formula_units_Z   2
loop_
 _symmetry_equiv_pos_site_id
 _symmetry_equiv_pos_as_xyz
  1  'x, y, z'
loop_
 _atom_site_type_symbol
 _atom_site_label
 _atom_site_symmetry_multiplicity
 _atom_site_fract_x
 _atom_site_fract_y
 _atom_site_fract_z
 _atom_site_occupancy
  Ca  Ca0  1  0.49999998  0.15215400  -0.00000002  1
  Ca  Ca1  1  0.74344193  0.74983400  0.48688293  1
  Mg  Mg2  1  0.25655898  0.26295100  0.51311797  1
  Mg  Mg3  1  -0.00000005  0.66839500  -0.00000004  1
