# generated using pymatgen
data_Li3V5O8
_symmetry_space_group_name_H-M   'P 1'
_cell_length_a   5.12680578
_cell_length_b   5.16527224
_cell_length_c   5.88882446
_cell_angle_alpha   89.99938965
_cell_angle_beta   89.99966431
_cell_angle_gamma   70.81505585
_symmetry_Int_Tables_number   1
_chemical_formula_structural   Li3V5O8
_chemical_formula_sum   'Li3 V5 O8'
_cell_volume   147.28330685
_cell_formula_units_Z   1
loop_
 _symmetry_equiv_pos_site_id
 _symmetry_equiv_pos_as_xyz
  1  'x, y, z'
loop_
 _atom_site_type_symbol
 _atom_site_label
 _atom_site_symmetry_multiplicity
 _atom_site_fract_x
 _atom_site_fract_y
 _atom_site_fract_z
 _atom_site_occupancy
  Li  Li0  1  0.50000007  0.99999995  0.74986697  1
  Li  Li1  1  0.50000102  0.00000000  0.24988298  1
  Li  Li2  1  0.99999904  0.00000000  0.50013296  1
  V  V3  1  0.99999904  0.00000000  0.00011696  1
  V  V4  1  0.00000103  0.49999897  0.75192399  1
  V  V5  1  0.49999905  0.50000197  0.49807397  1
  V  V6  1  0.00000103  0.49999797  0.25189099  1
  V  V7  1  0.50000005  0.50000097  0.99810797  1
  O  O8  1  0.25720905  0.72690296  0.74870298  1
  O  O9  1  0.25720105  0.72691596  0.24869798  1
  O  O10  1  0.75721007  0.72690096  0.50129496  1
  O  O11  1  0.75720307  0.72691396  0.00129896  1
  O  O12  1  0.74278905  0.27309899  0.74870496  1
  O  O13  1  0.74279805  0.27308499  0.24870096  1
  O  O14  1  0.24279102  0.27309699  0.50129799  1
  O  O15  1  0.24279902  0.27308399  0.00130199  1
