# generated using pymatgen
data_La2Y5O8
_symmetry_space_group_name_H-M   'P 1'
_cell_length_a   6.56754303
_cell_length_b   6.56754303
_cell_length_c   6.56754351
_cell_angle_alpha   92.49007416
_cell_angle_beta   92.49007416
_cell_angle_gamma   92.49006653
_symmetry_Int_Tables_number   1
_chemical_formula_structural   La2Y5O8
_chemical_formula_sum   'La2 Y5 O8'
_cell_volume   282.44887466
_cell_formula_units_Z   1
loop_
 _symmetry_equiv_pos_site_id
 _symmetry_equiv_pos_as_xyz
  1  'x, y, z'
loop_
 _atom_site_type_symbol
 _atom_site_label
 _atom_site_symmetry_multiplicity
 _atom_site_fract_x
 _atom_site_fract_y
 _atom_site_fract_z
 _atom_site_occupancy
  Y  Y0  1  0.00000000  0.00000000  0.00000000  1
  La  La1  1  0.40941000  0.22006801  0.55351005  1
  Y  Y2  1  0.22006798  0.55351002  0.40941006  1
  Y  Y3  1  0.55351000  0.40941001  0.22006807  1
  La  La4  1  0.59058998  0.77993203  0.44649010  1
  Y  Y5  1  0.77993201  0.44649002  0.59059009  1
  Y  Y6  1  0.44648998  0.59059002  0.77993208  1
  O  O7  1  0.22624000  0.22624001  0.22624003  1
  O  O8  1  0.77375999  0.77376003  0.77376011  1
  O  O9  1  0.38025098  0.72667203  0.13203907  1
  O  O10  1  0.72667202  0.13203900  0.38025106  1
  O  O11  1  0.13203898  0.38025101  0.72667204  1
  O  O12  1  0.61974901  0.27332801  0.86796107  1
  O  O13  1  0.27332796  0.86796103  0.61974908  1
  O  O14  1  0.86796100  0.61974902  0.27332810  1
