# generated using pymatgen
data_LaZnSi2
_symmetry_space_group_name_H-M   'P 1'
_cell_length_a   4.28497791
_cell_length_b   4.28497791
_cell_length_c   18.67756462
_cell_angle_alpha   96.58685303
_cell_angle_beta   96.58685303
_cell_angle_gamma   90.00000000
_symmetry_Int_Tables_number   1
_chemical_formula_structural   LaZnSi2
_chemical_formula_sum   'La4 Zn4 Si8'
_cell_volume   338.39687928
_cell_formula_units_Z   4
loop_
 _symmetry_equiv_pos_site_id
 _symmetry_equiv_pos_as_xyz
  1  'x, y, z'
loop_
 _atom_site_type_symbol
 _atom_site_label
 _atom_site_symmetry_multiplicity
 _atom_site_fract_x
 _atom_site_fract_y
 _atom_site_fract_z
 _atom_site_occupancy
  La  La0  1  0.67257401  0.17257400  0.34514798  1
  La  La1  1  0.82742601  0.32742601  0.65485197  1
  La  La2  1  0.92257401  0.92257402  0.84514795  1
  La  La3  1  0.07742600  0.07742600  0.15485199  1
  Zn  Zn4  1  0.00013400  0.50013401  0.00026800  1
  Zn  Zn5  1  0.49986600  0.99986602  0.99973195  1
  Zn  Zn6  1  0.25013400  0.25013400  0.50026798  1
  Zn  Zn7  1  0.74986601  0.74986601  0.49973197  1
  Si  Si8  1  0.20225700  0.70225701  0.40451398  1
  Si  Si9  1  0.36087100  0.86087102  0.72174196  1
  Si  Si10  1  0.13912900  0.63912901  0.27825798  1
  Si  Si11  1  0.38912900  0.38912901  0.77825796  1
  Si  Si12  1  0.54774301  0.54774301  0.09548599  1
  Si  Si13  1  0.61087101  0.61087101  0.22174198  1
  Si  Si14  1  0.45225701  0.45225701  0.90451396  1
  Si  Si15  1  0.29774300  0.79774301  0.59548597  1
