# generated using pymatgen
data_Sn7Pt3
_symmetry_space_group_name_H-M   'P 1'
_cell_length_a   8.36984825
_cell_length_b   8.36984825
_cell_length_c   8.36984825
_cell_angle_alpha   109.47122192
_cell_angle_beta   109.47122192
_cell_angle_gamma   109.47122192
_symmetry_Int_Tables_number   1
_chemical_formula_structural   Sn7Pt3
_chemical_formula_sum   'Sn14 Pt6'
_cell_volume   451.36807758
_cell_formula_units_Z   2
loop_
 _symmetry_equiv_pos_site_id
 _symmetry_equiv_pos_as_xyz
  1  'x, y, z'
loop_
 _atom_site_type_symbol
 _atom_site_label
 _atom_site_symmetry_multiplicity
 _atom_site_fract_x
 _atom_site_fract_y
 _atom_site_fract_z
 _atom_site_occupancy
  Sn  Sn0  1  0.50000004  0.75000001  0.25000005  1
  Sn  Sn1  1  0.25000003  0.50000001  0.75000001  1
  Sn  Sn2  1  0.75000002  0.50000001  0.25000004  1
  Sn  Sn3  1  0.25000004  0.75000001  0.50000003  1
  Sn  Sn4  1  0.75000000  0.25000000  0.50000002  1
  Sn  Sn5  1  0.50000001  0.25000000  0.75000000  1
  Sn  Sn6  1  0.67841505  1.00000001  1.00000004  1
  Sn  Sn7  1  0.67841503  0.67841501  0.67841503  1
  Sn  Sn8  1  0.00000000  0.00000000  0.32158499  1
  Sn  Sn9  1  0.00000002  0.32158500  0.00000002  1
  Sn  Sn10  1  0.00000000  0.00000000  0.67841498  1
  Sn  Sn11  1  0.00000004  0.67841501  0.00000004  1
  Sn  Sn12  1  0.32158501  0.32158500  0.32158502  1
  Sn  Sn13  1  0.32158506  1.00000001  1.00000003  1
  Pt  Pt14  1  0.00000002  0.34220000  0.34220001  1
  Pt  Pt15  1  0.65779999  0.00000000  0.65780000  1
  Pt  Pt16  1  0.34220006  1.00000001  0.34220005  1
  Pt  Pt17  1  0.34220001  0.34220000  1.00000000  1
  Pt  Pt18  1  0.65780003  0.65780001  1.00000002  1
  Pt  Pt19  1  0.00000004  0.65780001  0.65780002  1
