# generated using pymatgen
data_Zn(InS2)2
_symmetry_space_group_name_H-M   'P 1'
_cell_length_a   7.24746037
_cell_length_b   7.24766254
_cell_length_c   7.24774218
_cell_angle_alpha   119.73047638
_cell_angle_beta   90.72931671
_cell_angle_gamma   119.40383911
_symmetry_Int_Tables_number   1
_chemical_formula_structural   Zn(InS2)2
_chemical_formula_sum   'Zn2 In4 S8'
_cell_volume   270.98438093
_cell_formula_units_Z   2
loop_
 _symmetry_equiv_pos_site_id
 _symmetry_equiv_pos_as_xyz
  1  'x, y, z'
loop_
 _atom_site_type_symbol
 _atom_site_label
 _atom_site_symmetry_multiplicity
 _atom_site_fract_x
 _atom_site_fract_y
 _atom_site_fract_z
 _atom_site_occupancy
  Zn  Zn0  1  0.87478808  0.25014304  0.12473090  1
  Zn  Zn1  1  0.12523772  0.74984186  0.87525115  1
  In  In2  1  0.49998331  0.49998908  0.50002167  1
  In  In3  1  0.99993598  0.00010923  0.50008790  1
  In  In4  1  0.50000334  0.99999906  0.49997702  1
  In  In5  1  0.50000230  0.49996047  0.99999139  1
  S  S6  1  0.73608824  0.52088392  0.25700700  1
  S  S7  1  0.26470996  0.02576665  0.73906480  1
  S  S8  1  0.71329695  0.47418599  0.73917983  1
  S  S9  1  0.26370304  0.02188717  0.28560093  1
  S  S10  1  0.28672456  0.52580374  0.26080205  1
  S  S11  1  0.73629264  0.97810696  0.71439560  1
  S  S12  1  0.26392770  0.47911378  0.74299400  1
  S  S13  1  0.73530088  0.97420367  0.26089079  1
