# generated using pymatgen
data_Ba2Os3O7
_symmetry_space_group_name_H-M   'P 1'
_cell_length_a   6.30148220
_cell_length_b   7.19098759
_cell_length_c   6.30148220
_cell_angle_alpha   115.98599243
_cell_angle_beta   90.00000000
_cell_angle_gamma   115.98599243
_symmetry_Int_Tables_number   1
_chemical_formula_structural   Ba2Os3O7
_chemical_formula_sum   'Ba2 Os3 O7'
_cell_volume   224.12008897
_cell_formula_units_Z   1
loop_
 _symmetry_equiv_pos_site_id
 _symmetry_equiv_pos_as_xyz
  1  'x, y, z'
loop_
 _atom_site_type_symbol
 _atom_site_label
 _atom_site_symmetry_multiplicity
 _atom_site_fract_x
 _atom_site_fract_y
 _atom_site_fract_z
 _atom_site_occupancy
  Ba  Ba0  1  0.75000002  0.50000004  0.75000002  1
  Ba  Ba1  1  0.25000003  0.50000004  0.25000003  1
  Os  Os2  1  0.50000007  1.00000008  0.00000008  1
  Os  Os3  1  1.00000005  1.00000008  0.50000007  1
  Os  Os4  1  0.53233704  0.75702106  0.72468404  1
  O  O5  1  0.77531599  0.24297902  0.96766299  1
  O  O6  1  0.46766300  0.24297902  0.27531601  1
  O  O7  1  0.96766299  0.24297902  0.46766300  1
  O  O8  1  0.22468405  0.75702106  0.03233706  1
  O  O9  1  0.72468404  0.75702106  0.22468405  1
  O  O10  1  0.03233706  0.75702106  0.53233704  1
  O  O11  1  0.27531601  0.24297902  0.77531600  1
