# generated using pymatgen
data_Mn3O5F
_symmetry_space_group_name_H-M   'P 1'
_cell_length_a   2.97048903
_cell_length_b   4.66818190
_cell_length_c   13.98185444
_cell_angle_alpha   92.52619171
_cell_angle_beta   90.00000000
_cell_angle_gamma   90.00000000
_symmetry_Int_Tables_number   1
_chemical_formula_structural   Mn3O5F
_chemical_formula_sum   'Mn6 O10 F2'
_cell_volume   193.69492248
_cell_formula_units_Z   2
loop_
 _symmetry_equiv_pos_site_id
 _symmetry_equiv_pos_as_xyz
  1  'x, y, z'
loop_
 _atom_site_type_symbol
 _atom_site_label
 _atom_site_symmetry_multiplicity
 _atom_site_fract_x
 _atom_site_fract_y
 _atom_site_fract_z
 _atom_site_occupancy
  Mn  Mn0  1  0.00000000  0.00000000  0.00000000  1
  Mn  Mn1  1  0.00000000  0.97903502  0.34252002  1
  Mn  Mn2  1  0.00000000  0.02096500  0.65748002  1
  Mn  Mn3  1  0.50000000  0.52659401  0.15905701  1
  Mn  Mn4  1  0.50000000  0.50000001  0.50000002  1
  Mn  Mn5  1  0.50000000  0.47340601  0.84094303  1
  O  O6  1  0.50000000  0.20140200  0.59992702  1
  O  O7  1  0.50000000  0.19754600  0.93451003  1
  O  O8  1  0.00000000  0.30395601  0.10208401  1
  O  O9  1  0.00000000  0.29211101  0.76483303  1
  O  O10  1  0.00000000  0.29190701  0.43042702  1
  O  O11  1  0.00000000  0.70788902  0.23516701  1
  O  O12  1  0.00000000  0.70809302  0.56957302  1
  O  O13  1  0.00000000  0.69604402  0.89791603  1
  O  O14  1  0.50000000  0.80245402  0.06549001  1
  O  O15  1  0.50000000  0.79859802  0.40007302  1
  F  F16  1  0.50000000  0.19324600  0.26848701  1
  F  F17  1  0.50000000  0.80675402  0.73151303  1
