# generated using pymatgen
data_Tb2Ge5Rh
_symmetry_space_group_name_H-M   'P 1'
_cell_length_a   3.92754698
_cell_length_b   3.92754698
_cell_length_c   9.92384148
_cell_angle_alpha   90.00000000
_cell_angle_beta   90.00000000
_cell_angle_gamma   90.00000000
_symmetry_Int_Tables_number   1
_chemical_formula_structural   Tb2Ge5Rh
_chemical_formula_sum   'Tb2 Ge5 Rh1'
_cell_volume   153.08145980
_cell_formula_units_Z   1
loop_
 _symmetry_equiv_pos_site_id
 _symmetry_equiv_pos_as_xyz
  1  'x, y, z'
loop_
 _atom_site_type_symbol
 _atom_site_label
 _atom_site_symmetry_multiplicity
 _atom_site_fract_x
 _atom_site_fract_y
 _atom_site_fract_z
 _atom_site_occupancy
  Tb  Tb0  1  0.00000000  0.50000000  0.76236096  1
  Tb  Tb1  1  0.50000000  0.00000000  0.23763899  1
  Ge  Ge2  1  0.00000000  0.00000000  0.49999998  1
  Ge  Ge3  1  0.50000000  0.50000000  0.49999998  1
  Ge  Ge4  1  0.50000000  0.50000000  0.00000000  1
  Ge  Ge5  1  0.00000000  0.00000000  0.00000000  1
  Ge  Ge6  1  0.50000000  0.00000000  0.65750497  1
  Rh  Rh7  1  0.00000000  0.50000000  0.34249498  1
