# generated using pymatgen
data_Na3Y4S7O
_symmetry_space_group_name_H-M   'P 1'
_cell_length_a   3.49885106
_cell_length_b   10.11173153
_cell_length_c   10.11173248
_cell_angle_alpha   120.00000000
_cell_angle_beta   90.00000000
_cell_angle_gamma   90.00000000
_symmetry_Int_Tables_number   1
_chemical_formula_structural   Na3Y4S7O
_chemical_formula_sum   'Na3 Y4 S7 O1'
_cell_volume   309.81838750
_cell_formula_units_Z   1
loop_
 _symmetry_equiv_pos_site_id
 _symmetry_equiv_pos_as_xyz
  1  'x, y, z'
loop_
 _atom_site_type_symbol
 _atom_site_label
 _atom_site_symmetry_multiplicity
 _atom_site_fract_x
 _atom_site_fract_y
 _atom_site_fract_z
 _atom_site_occupancy
  Na  Na0  1  0.25060600  0.89360305  0.38100700  1
  Na  Na1  1  0.25060600  0.48740403  0.10639700  1
  Na  Na2  1  0.25060600  0.61899303  0.51259599  1
  Y  Y3  1  0.74939399  0.10639701  0.61899298  1
  Y  Y4  1  0.74939399  0.51259603  0.89360298  1
  Y  Y5  1  0.74939399  0.38100702  0.48740399  1
  Y  Y6  1  0.49999999  0.00000000  -0.00000000  1
  S  S7  1  0.24888100  0.72246904  0.05892701  1
  S  S8  1  0.24888100  0.33645802  0.27753000  1
  S  S9  1  0.24888100  0.94107205  0.66354099  1
  S  S10  1  0.75111899  0.27753101  0.94107298  1
  S  S11  1  0.75111899  0.66354203  0.72246999  1
  S  S12  1  0.75111899  0.05892800  0.33645899  1
  O  O13  1  0.25043200  0.33333335  0.66666665  1
  S  S14  1  0.74956799  0.66666670  0.33333333  1
