# generated using pymatgen
data_ErSnPd
_symmetry_space_group_name_H-M   'P 1'
_cell_length_a   4.38823605
_cell_length_b   7.19768620
_cell_length_c   7.19768715
_cell_angle_alpha   119.99999237
_cell_angle_beta   90.00000000
_cell_angle_gamma   90.00000000
_symmetry_Int_Tables_number   1
_chemical_formula_structural   ErSnPd
_chemical_formula_sum   'Er3 Sn3 Pd3'
_cell_volume   196.88223003
_cell_formula_units_Z   3
loop_
 _symmetry_equiv_pos_site_id
 _symmetry_equiv_pos_as_xyz
  1  'x, y, z'
loop_
 _atom_site_type_symbol
 _atom_site_label
 _atom_site_symmetry_multiplicity
 _atom_site_fract_x
 _atom_site_fract_y
 _atom_site_fract_z
 _atom_site_occupancy
  Er  Er0  1  -0.00000000  0.43776897  0.99999994  1
  Er  Er1  1  -0.00000000  0.56223097  0.56223094  1
  Er  Er2  1  -0.00000000  0.99999994  0.43776892  1
  Sn  Sn3  1  0.49999999  0.75501795  0.99999992  1
  Sn  Sn4  1  0.49999999  0.24498199  0.24498198  1
  Sn  Sn5  1  0.49999999  0.99999994  0.75501791  1
  Pd  Pd6  1  0.49999999  0.33333331  0.66666662  1
  Pd  Pd7  1  0.49999999  0.66666663  0.33333328  1
  Pd  Pd8  1  0.00000000  0.00000000  0.00000000  1
