# generated using pymatgen
data_HoMg3(BN)4
_symmetry_space_group_name_H-M   'P 1'
_cell_length_a   4.67549706
_cell_length_b   4.67549706
_cell_length_c   5.23967981
_cell_angle_alpha   90.00000000
_cell_angle_beta   90.00000000
_cell_angle_gamma   90.00000000
_symmetry_Int_Tables_number   1
_chemical_formula_structural   HoMg3(BN)4
_chemical_formula_sum   'Ho1 Mg3 B4 N4'
_cell_volume   114.54082964
_cell_formula_units_Z   1
loop_
 _symmetry_equiv_pos_site_id
 _symmetry_equiv_pos_as_xyz
  1  'x, y, z'
loop_
 _atom_site_type_symbol
 _atom_site_label
 _atom_site_symmetry_multiplicity
 _atom_site_fract_x
 _atom_site_fract_y
 _atom_site_fract_z
 _atom_site_occupancy
  Ho  Ho0  1  0.49999999  0.00000000  0.25000001  1
  Mg  Mg1  1  0.49999999  0.00000000  0.75000003  1
  Mg  Mg2  1  0.49999999  0.49999999  0.00000000  1
  Mg  Mg3  1  0.00000000  0.00000000  0.50000002  1
  B  B4  1  0.00000000  0.49999999  0.25000001  1
  B  B5  1  0.00000000  0.49999999  0.75000003  1
  B  B6  1  0.49999999  0.49999999  0.50000002  1
  B  B7  1  0.00000000  0.00000000  0.00000000  1
  N  N8  1  0.79625299  0.79625299  0.00000000  1
  N  N9  1  0.70374699  0.29625300  0.50000002  1
  N  N10  1  0.29625300  0.70374699  0.50000002  1
  N  N11  1  0.20374700  0.20374700  0.00000000  1
