# generated using pymatgen
data_Na2EuMoO6
_symmetry_space_group_name_H-M   'P 1'
_cell_length_a   5.52824688
_cell_length_b   7.52959585
_cell_length_c   7.52959585
_cell_angle_alpha   108.13012695
_cell_angle_beta   90.00000000
_cell_angle_gamma   90.00000000
_symmetry_Int_Tables_number   1
_chemical_formula_structural   Na2EuMoO6
_chemical_formula_sum   'Na4 Eu2 Mo2 O12'
_cell_volume   297.86218128
_cell_formula_units_Z   2
loop_
 _symmetry_equiv_pos_site_id
 _symmetry_equiv_pos_as_xyz
  1  'x, y, z'
loop_
 _atom_site_type_symbol
 _atom_site_label
 _atom_site_symmetry_multiplicity
 _atom_site_fract_x
 _atom_site_fract_y
 _atom_site_fract_z
 _atom_site_occupancy
  Na  Na0  1  0.61355901  0.19824900  0.40693999  1
  Na  Na1  1  0.61355901  0.59305999  0.80175097  1
  Na  Na2  1  0.11355900  0.80175099  0.59305996  1
  Na  Na3  1  0.11355900  0.40694000  0.19824898  1
  Eu  Eu4  1  0.60800901  0.09354800  0.90645200  1
  Eu  Eu5  1  0.10800900  0.90645199  0.09354796  1
  Mo  Mo6  1  0.65377301  0.68342299  0.31657697  1
  Mo  Mo7  1  0.15377300  0.31657700  0.68342299  1
  O  O8  1  0.36770001  0.15167200  0.15669799  1
  O  O9  1  0.76402502  0.58641899  0.09273897  1
  O  O10  1  0.86770002  0.15669800  0.15167199  1
  O  O11  1  0.36770001  0.84330199  0.84832796  1
  O  O12  1  0.86770002  0.84832799  0.84330196  1
  O  O13  1  0.29753001  0.44329599  0.55670398  1
  O  O14  1  0.33871001  0.68030599  0.31969397  1
  O  O15  1  0.26402501  0.41358100  0.90726098  1
  O  O16  1  0.26402501  0.09273900  0.58641900  1
  O  O17  1  0.79753002  0.55670399  0.44329597  1
  O  O18  1  0.83871002  0.31969400  0.68030599  1
  O  O19  1  0.76402502  0.90726099  0.41358096  1
