# generated using pymatgen
data_Ti2CrSe4
_symmetry_space_group_name_H-M   'P 1'
_cell_length_a   3.52245593
_cell_length_b   6.38039827
_cell_length_c   7.11720276
_cell_angle_alpha   114.93914032
_cell_angle_beta   104.32730103
_cell_angle_gamma   90.00000000
_symmetry_Int_Tables_number   1
_chemical_formula_structural   Ti2CrSe4
_chemical_formula_sum   'Ti2 Cr1 Se4'
_cell_volume   139.53605951
_cell_formula_units_Z   1
loop_
 _symmetry_equiv_pos_site_id
 _symmetry_equiv_pos_as_xyz
  1  'x, y, z'
loop_
 _atom_site_type_symbol
 _atom_site_label
 _atom_site_symmetry_multiplicity
 _atom_site_fract_x
 _atom_site_fract_y
 _atom_site_fract_z
 _atom_site_occupancy
  Ti  Ti0  1  0.74372901  0.67813600  0.48745798  1
  Ti  Ti1  1  0.25627100  0.32186400  0.51254199  1
  Cr  Cr2  1  0.00000000  0.00000000  0.00000000  1
  Se  Se3  1  0.10024700  0.44429000  0.20049399  1
  Se  Se4  1  0.36436201  0.02565200  0.72872400  1
  Se  Se5  1  0.63563801  0.97434800  0.27127598  1
  Se  Se6  1  0.89975302  0.55571000  0.79950599  1
