# generated using pymatgen
data_Al2P2O7
_symmetry_space_group_name_H-M   'P 1'
_cell_length_a   4.58207035
_cell_length_b   5.29673862
_cell_length_c   5.29673862
_cell_angle_alpha   78.01832581
_cell_angle_beta   81.51952362
_cell_angle_gamma   98.48047638
_symmetry_Int_Tables_number   1
_chemical_formula_structural   Al2P2O7
_chemical_formula_sum   'Al2 P2 O7'
_cell_volume   122.25131314
_cell_formula_units_Z   1
loop_
 _symmetry_equiv_pos_site_id
 _symmetry_equiv_pos_as_xyz
  1  'x, y, z'
loop_
 _atom_site_type_symbol
 _atom_site_label
 _atom_site_symmetry_multiplicity
 _atom_site_fract_x
 _atom_site_fract_y
 _atom_site_fract_z
 _atom_site_occupancy
  Al  Al0  1  -0.00000001  0.48824201  0.48824201  1
  Al  Al1  1  -0.00000000  0.11854400  0.11854400  1
  P  P2  1  0.41931900  0.99738003  0.57198701  1
  P  P3  1  0.58068101  0.57198702  0.99738003  1
  O  O4  1  0.71510003  0.17333100  0.42859002  1
  O  O5  1  0.21177699  0.89464403  0.39578301  1
  O  O6  1  0.24820001  0.12927700  0.76207502  1
  O  O7  1  0.75180002  0.76207502  0.12927701  1
  O  O8  1  0.28490000  0.42859001  0.17333101  1
  O  O9  1  0.50000001  0.72763602  0.72763602  1
  O  O10  1  0.78822303  0.39578301  0.89464403  1
