# generated using pymatgen
data_PbBr2
_symmetry_space_group_name_H-M   'P 1'
_cell_length_a   4.61425209
_cell_length_b   7.17083597
_cell_length_c   7.17083597
_cell_angle_alpha   90.00000000
_cell_angle_beta   90.00000000
_cell_angle_gamma   90.00000000
_symmetry_Int_Tables_number   1
_chemical_formula_structural   PbBr2
_chemical_formula_sum   'Pb2 Br4'
_cell_volume   237.26894242
_cell_formula_units_Z   2
loop_
 _symmetry_equiv_pos_site_id
 _symmetry_equiv_pos_as_xyz
  1  'x, y, z'
loop_
 _atom_site_type_symbol
 _atom_site_label
 _atom_site_symmetry_multiplicity
 _atom_site_fract_x
 _atom_site_fract_y
 _atom_site_fract_z
 _atom_site_occupancy
  Pb  Pb0  1  0.00000000  0.00000000  0.00000000  1
  Pb  Pb1  1  0.49999999  0.50000000  0.50000000  1
  Br  Br2  1  0.99999998  0.30149900  0.30149900  1
  Br  Br3  1  0.99999998  0.69850100  0.69850100  1
  Br  Br4  1  0.49999999  0.19850100  0.80149900  1
  Br  Br5  1  0.49999999  0.80149900  0.19850100  1
