# generated using pymatgen
data_Mg2Zn
_symmetry_space_group_name_H-M   'P 1'
_cell_length_a   5.28295422
_cell_length_b   5.28295422
_cell_length_c   5.79536152
_cell_angle_alpha   93.88063049
_cell_angle_beta   113.94007874
_cell_angle_gamma   118.72583008
_symmetry_Int_Tables_number   1
_chemical_formula_structural   Mg2Zn
_chemical_formula_sum   'Mg4 Zn2'
_cell_volume   122.47609500
_cell_formula_units_Z   2
loop_
 _symmetry_equiv_pos_site_id
 _symmetry_equiv_pos_as_xyz
  1  'x, y, z'
loop_
 _atom_site_type_symbol
 _atom_site_label
 _atom_site_symmetry_multiplicity
 _atom_site_fract_x
 _atom_site_fract_y
 _atom_site_fract_z
 _atom_site_occupancy
  Mg  Mg0  1  0.66899093  0.75735895  0.25205297  1
  Mg  Mg1  1  0.00530598  0.41693797  0.24794699  1
  Mg  Mg2  1  0.99469392  0.58306196  0.75205299  1
  Mg  Mg3  1  0.33100897  0.24264098  0.74794701  1
  Zn  Zn4  1  0.66852592  0.91852594  0.74999998  1
  Zn  Zn5  1  0.33147398  0.08147399  0.25000000  1
