# generated using pymatgen
data_Nd2CuNiRu2
_symmetry_space_group_name_H-M   'P 1'
_cell_length_a   5.16995192
_cell_length_b   5.36893606
_cell_length_c   5.32057142
_cell_angle_alpha   60.29754639
_cell_angle_beta   90.00000000
_cell_angle_gamma   118.78138733
_symmetry_Int_Tables_number   1
_chemical_formula_structural   Nd2CuNiRu2
_chemical_formula_sum   'Nd2 Cu1 Ni1 Ru2'
_cell_volume   106.76954959
_cell_formula_units_Z   1
loop_
 _symmetry_equiv_pos_site_id
 _symmetry_equiv_pos_as_xyz
  1  'x, y, z'
loop_
 _atom_site_type_symbol
 _atom_site_label
 _atom_site_symmetry_multiplicity
 _atom_site_fract_x
 _atom_site_fract_y
 _atom_site_fract_z
 _atom_site_occupancy
  Nd  Nd0  1  0.24843001  0.49685998  0.25157000  1
  Nd  Nd1  1  0.00157000  0.00314000  0.99842997  1
  Cu  Cu2  1  0.62500000  0.24999999  0.12500000  1
  Ni  Ni3  1  0.62500000  0.24999999  0.62499998  1
  Ru  Ru4  1  0.62500001  0.74999997  0.62499999  1
  Ru  Ru5  1  0.12500002  0.74999997  0.62499999  1
