# generated using pymatgen
data_LiV2O5
_symmetry_space_group_name_H-M   'P 1'
_cell_length_a   3.61777210
_cell_length_b   5.06927919
_cell_length_c   11.55724716
_cell_angle_alpha   89.98337555
_cell_angle_beta   90.00000000
_cell_angle_gamma   89.99996948
_symmetry_Int_Tables_number   1
_chemical_formula_structural   LiV2O5
_chemical_formula_sum   'Li2 V4 O10'
_cell_volume   211.95408896
_cell_formula_units_Z   2
loop_
 _symmetry_equiv_pos_site_id
 _symmetry_equiv_pos_as_xyz
  1  'x, y, z'
loop_
 _atom_site_type_symbol
 _atom_site_label
 _atom_site_symmetry_multiplicity
 _atom_site_fract_x
 _atom_site_fract_y
 _atom_site_fract_z
 _atom_site_occupancy
  Li  Li0  1  0.74999891  0.85157698  0.24996998  1
  Li  Li1  1  0.24999998  0.14841800  0.75002999  1
  V  V2  1  0.74999893  0.60582798  0.59753399  1
  V  V3  1  0.24999996  0.39417799  0.40246799  1
  V  V4  1  0.24999996  0.39413199  0.09759299  1
  V  V5  1  0.74999893  0.60587098  0.90240398  1
  O  O6  1  0.74999894  0.44477399  0.75000899  1
  O  O7  1  0.24999995  0.55522398  0.24999099  1
  O  O8  1  0.74999993  0.54100998  0.07421899  1
  O  O9  1  0.24999996  0.45898999  0.92577999  1
  O  O10  1  0.74999893  0.54114698  0.42576399  1
  O  O11  1  0.24999996  0.45885199  0.57423799  1
  O  O12  1  0.24999899  0.06783100  0.37300300  1
  O  O13  1  0.74999990  0.93216597  0.62699698  1
  O  O14  1  0.74999990  0.93243297  0.87303598  1
  O  O15  1  0.24999899  0.06756900  0.12696300  1
