# generated using pymatgen
data_Mg2Cd
_symmetry_space_group_name_H-M   'P 1'
_cell_length_a   3.17190599
_cell_length_b   4.99559498
_cell_length_c   8.21204948
_cell_angle_alpha   90.00000000
_cell_angle_beta   101.13521576
_cell_angle_gamma   90.00000000
_symmetry_Int_Tables_number   1
_chemical_formula_structural   Mg2Cd
_chemical_formula_sum   'Mg4 Cd2'
_cell_volume   127.67479903
_cell_formula_units_Z   2
loop_
 _symmetry_equiv_pos_site_id
 _symmetry_equiv_pos_as_xyz
  1  'x, y, z'
loop_
 _atom_site_type_symbol
 _atom_site_label
 _atom_site_symmetry_multiplicity
 _atom_site_fract_x
 _atom_site_fract_y
 _atom_site_fract_z
 _atom_site_occupancy
  Mg  Mg0  1  0.99894999  0.50000000  0.99790003  1
  Mg  Mg1  1  0.67074600  0.50000000  0.34149201  1
  Mg  Mg2  1  0.33171400  0.50000000  0.66342803  1
  Mg  Mg3  1  0.56138700  1.00000000  0.12277400  1
  Cd  Cd4  1  0.88121099  1.00000000  0.76242202  1
  Cd  Cd5  1  0.22266400  0.00000000  0.44532802  1
