# generated using pymatgen
data_Cs2V3Se4
_symmetry_space_group_name_H-M   'P 1'
_cell_length_a   6.33240223
_cell_length_b   10.08965683
_cell_length_c   10.08965683
_cell_angle_alpha   74.65907288
_cell_angle_beta   71.71121216
_cell_angle_gamma   71.71121216
_symmetry_Int_Tables_number   1
_chemical_formula_structural   Cs2V3Se4
_chemical_formula_sum   'Cs4 V6 Se8'
_cell_volume   571.21709614
_cell_formula_units_Z   2
loop_
 _symmetry_equiv_pos_site_id
 _symmetry_equiv_pos_as_xyz
  1  'x, y, z'
loop_
 _atom_site_type_symbol
 _atom_site_label
 _atom_site_symmetry_multiplicity
 _atom_site_fract_x
 _atom_site_fract_y
 _atom_site_fract_z
 _atom_site_occupancy
  Cs  Cs0  1  0.76535398  0.12101201  0.87898800  1
  Cs  Cs1  1  0.26535396  0.37898802  0.62101201  1
  Cs  Cs2  1  0.73464594  0.62101204  0.37898798  1
  Cs  Cs3  1  0.23464592  0.87898805  0.12101199  1
  V  V4  1  0.74999999  0.02032000  0.47967999  1
  V  V5  1  0.74999995  0.47968003  0.02031997  1
  V  V6  1  0.24999991  0.97968006  0.52032000  1
  V  V7  1  0.24999997  0.25000001  0.25000000  1
  V  V8  1  0.74999992  0.75000004  0.74999999  1
  V  V9  1  0.24999995  0.52032003  0.97968003  1
  Se  Se10  1  0.62698095  0.51914803  0.78610100  1
  Se  Se11  1  0.43222991  0.98085106  0.71389900  1
  Se  Se12  1  0.87301993  0.71389904  0.98085100  1
  Se  Se13  1  0.06776893  0.78610205  0.51914901  1
  Se  Se14  1  0.37301895  0.48085203  0.21389899  1
  Se  Se15  1  0.56776999  0.01914900  0.28610099  1
  Se  Se16  1  0.12697997  0.28610102  0.01914899  1
  Se  Se17  1  0.93223097  0.21389801  0.48085098  1
