# generated using pymatgen
data_SrTaO3
_symmetry_space_group_name_H-M   'P 1'
_cell_length_a   3.97111201
_cell_length_b   5.82458687
_cell_length_c   5.82458687
_cell_angle_alpha   94.87558746
_cell_angle_beta   90.00000000
_cell_angle_gamma   90.00000000
_symmetry_Int_Tables_number   1
_chemical_formula_structural   SrTaO3
_chemical_formula_sum   'Sr2 Ta2 O6'
_cell_volume   134.23571791
_cell_formula_units_Z   2
loop_
 _symmetry_equiv_pos_site_id
 _symmetry_equiv_pos_as_xyz
  1  'x, y, z'
loop_
 _atom_site_type_symbol
 _atom_site_label
 _atom_site_symmetry_multiplicity
 _atom_site_fract_x
 _atom_site_fract_y
 _atom_site_fract_z
 _atom_site_occupancy
  Sr  Sr0  1  0.50000000  0.37539300  0.62460702  1
  Sr  Sr1  1  0.50000000  0.89535400  0.10464604  1
  Ta  Ta2  1  1.00000000  0.89243300  0.59345604  1
  Ta  Ta3  1  1.00000000  0.40654400  0.10756702  1
  O  O4  1  1.00000000  0.72688700  0.27311303  1
  O  O5  1  -0.00000000  0.15664300  0.84335701  1
  O  O6  1  -0.00000000  0.22696900  0.34879801  1
  O  O7  1  -0.00000000  0.65120200  0.77303103  1
  O  O8  1  0.50000000  0.93811600  0.55297004  1
  O  O9  1  0.50000000  0.44703000  0.06188402  1
