# generated using pymatgen
data_MgInSe2O
_symmetry_space_group_name_H-M   'P 1'
_cell_length_a   3.51102805
_cell_length_b   4.15366983
_cell_length_c   6.34501886
_cell_angle_alpha   109.10603333
_cell_angle_beta   106.06191254
_cell_angle_gamma   90.00000000
_symmetry_Int_Tables_number   1
_chemical_formula_structural   MgInSe2O
_chemical_formula_sum   'Mg1 In1 Se2 O1'
_cell_volume   83.60413298
_cell_formula_units_Z   1
loop_
 _symmetry_equiv_pos_site_id
 _symmetry_equiv_pos_as_xyz
  1  'x, y, z'
loop_
 _atom_site_type_symbol
 _atom_site_label
 _atom_site_symmetry_multiplicity
 _atom_site_fract_x
 _atom_site_fract_y
 _atom_site_fract_z
 _atom_site_occupancy
  Mg  Mg0  1  0.67432899  0.17432901  0.34865801  1
  In  In1  1  0.32567100  0.82567104  0.65134203  1
  Se  Se2  1  0.00000000  0.00000000  0.00000000  1
  Se  Se3  1  0.27941200  0.27941201  0.55882402  1
  O  O4  1  0.72058799  0.72058803  0.44117602  1
