# generated using pymatgen
data_Eu4(InNi)3
_symmetry_space_group_name_H-M   'P 1'
_cell_length_a   5.66040516
_cell_length_b   5.66040516
_cell_length_c   7.68354797
_cell_angle_alpha   77.79084015
_cell_angle_beta   77.79084015
_cell_angle_gamma   82.21315765
_symmetry_Int_Tables_number   1
_chemical_formula_structural   Eu4(InNi)3
_chemical_formula_sum   'Eu4 In3 Ni3'
_cell_volume   234.10807960
_cell_formula_units_Z   1
loop_
 _symmetry_equiv_pos_site_id
 _symmetry_equiv_pos_as_xyz
  1  'x, y, z'
loop_
 _atom_site_type_symbol
 _atom_site_label
 _atom_site_symmetry_multiplicity
 _atom_site_fract_x
 _atom_site_fract_y
 _atom_site_fract_z
 _atom_site_occupancy
  Eu  Eu0  1  0.33846103  0.33846101  0.22846998  1
  Eu  Eu1  1  0.66153905  0.66153902  0.77152997  1
  Eu  Eu2  1  0.79048406  0.79048402  0.24544796  1
  Eu  Eu3  1  0.20951602  0.20951601  0.75455200  1
  In  In4  1  0.21412605  0.78587402  0.49999997  1
  In  In5  1  0.78587404  0.21412601  0.49999998  1
  In  In6  1  0.11313004  0.68381802  0.90580099  1
  Ni  Ni7  1  0.31618205  0.88687002  0.09419896  1
  Ni  Ni8  1  0.88687004  0.31618201  0.09419897  1
  Ni  Ni9  1  0.68381803  0.11313000  0.90580099  1
