# generated using pymatgen
data_Zr2SnC
_symmetry_space_group_name_H-M   'P 1'
_cell_length_a   3.37579608
_cell_length_b   3.37579513
_cell_length_c   14.79463291
_cell_angle_alpha   90.00000000
_cell_angle_beta   90.00000000
_cell_angle_gamma   120.00000763
_symmetry_Int_Tables_number   1
_chemical_formula_structural   Zr2SnC
_chemical_formula_sum   'Zr4 Sn2 C2'
_cell_volume   146.01150533
_cell_formula_units_Z   2
loop_
 _symmetry_equiv_pos_site_id
 _symmetry_equiv_pos_as_xyz
  1  'x, y, z'
loop_
 _atom_site_type_symbol
 _atom_site_label
 _atom_site_symmetry_multiplicity
 _atom_site_fract_x
 _atom_site_fract_y
 _atom_site_fract_z
 _atom_site_occupancy
  Zr  Zr0  1  0.66666664  0.33333332  0.91475801  1
  Zr  Zr1  1  0.66666664  0.33333332  0.58524200  1
  Zr  Zr2  1  0.33333330  0.66666664  0.41475800  1
  Zr  Zr3  1  0.33333330  0.66666664  0.08524200  1
  Sn  Sn4  1  0.66666664  0.33333332  0.25000000  1
  Sn  Sn5  1  0.33333330  0.66666664  0.75000000  1
  C  C6  1  0.00000000  0.00000000  0.00000000  1
  C  C7  1  0.00000000  0.00000000  0.50000000  1
