# generated using pymatgen
data_Nb4B2H3C3O2
_symmetry_space_group_name_H-M   'P 1'
_cell_length_a   3.04571700
_cell_length_b   3.12545991
_cell_length_c   13.18819237
_cell_angle_alpha   90.00000000
_cell_angle_beta   90.00000000
_cell_angle_gamma   90.00000000
_symmetry_Int_Tables_number   1
_chemical_formula_structural   Nb4B2H3C3O2
_chemical_formula_sum   'Nb4 B2 H3 C3 O2'
_cell_volume   125.54191624
_cell_formula_units_Z   1
loop_
 _symmetry_equiv_pos_site_id
 _symmetry_equiv_pos_as_xyz
  1  'x, y, z'
loop_
 _atom_site_type_symbol
 _atom_site_label
 _atom_site_symmetry_multiplicity
 _atom_site_fract_x
 _atom_site_fract_y
 _atom_site_fract_z
 _atom_site_occupancy
  Nb  Nb0  1  0.00000000  0.00000000  0.18976199  1
  Nb  Nb1  1  0.50000000  0.50000001  0.67649098  1
  Nb  Nb2  1  0.50000000  0.50000001  0.31325299  1
  Nb  Nb3  1  0.50000000  0.00000000  0.42480399  1
  B  B4  1  0.00000000  0.50000001  0.93887597  1
  B  B5  1  0.00000000  0.50000001  0.07799300  1
  H  H6  1  0.50000000  0.00000000  0.56393098  1
  C  C7  1  0.00000000  0.00000000  0.35068199  1
  H  H8  1  0.50000000  0.50000001  0.86256598  1
  C  C9  1  0.50000000  0.50000001  0.15111400  1
  H  H10  1  0.00000000  0.00000000  0.63694598  1
  O  O11  1  0.00000000  0.00000000  0.81195898  1
  O  O12  1  0.50000000  0.00000000  0.00752000  1
  C  C13  1  0.00000000  0.50000001  0.49410499  1
