# generated using pymatgen
data_Hf5Sn3C
_symmetry_space_group_name_H-M   'P 1'
_cell_length_a   5.79385424
_cell_length_b   8.49705601
_cell_length_c   8.49705601
_cell_angle_alpha   120.00000000
_cell_angle_beta   90.00000000
_cell_angle_gamma   90.00000000
_symmetry_Int_Tables_number   1
_chemical_formula_structural   Hf5Sn3C
_chemical_formula_sum   'Hf10 Sn6 C2'
_cell_volume   362.27232500
_cell_formula_units_Z   2
loop_
 _symmetry_equiv_pos_site_id
 _symmetry_equiv_pos_as_xyz
  1  'x, y, z'
loop_
 _atom_site_type_symbol
 _atom_site_label
 _atom_site_symmetry_multiplicity
 _atom_site_fract_x
 _atom_site_fract_y
 _atom_site_fract_z
 _atom_site_occupancy
  Hf  Hf0  1  0.24999999  0.99999999  0.77080095  1
  Hf  Hf1  1  0.74999997  0.99999999  0.22919897  1
  Hf  Hf2  1  0.99999996  0.66666666  0.33333330  1
  Hf  Hf3  1  0.49999998  0.66666666  0.33333330  1
  Hf  Hf4  1  0.24999999  0.77080099  -0.00000002  1
  Hf  Hf5  1  0.74999997  0.77080099  0.77080095  1
  Hf  Hf6  1  0.74999997  0.22919900  -0.00000001  1
  Hf  Hf7  1  -0.00000000  0.33333333  0.66666663  1
  Hf  Hf8  1  0.49999998  0.33333333  0.66666663  1
  Hf  Hf9  1  0.24999999  0.22919900  0.22919899  1
  Sn  Sn10  1  0.74999997  0.99999999  0.59741895  1
  Sn  Sn11  1  0.24999999  0.99999999  0.40258096  1
  Sn  Sn12  1  0.74999997  0.59741899  0.99999995  1
  Sn  Sn13  1  0.24999999  0.40258099  -0.00000001  1
  Sn  Sn14  1  0.24999999  0.59741899  0.59741896  1
  Sn  Sn15  1  0.74999997  0.40258099  0.40258098  1
  C  C16  1  0.00000000  0.00000000  0.00000000  1
  C  C17  1  0.49999998  0.00000000  -0.00000000  1
