# generated using pymatgen
data_Ce2N3
_symmetry_space_group_name_H-M   'P 1'
_cell_length_a   4.41130018
_cell_length_b   4.41130018
_cell_length_c   8.56631660
_cell_angle_alpha   90.00000000
_cell_angle_beta   90.00000000
_cell_angle_gamma   120.00000000
_symmetry_Int_Tables_number   1
_chemical_formula_structural   Ce2N3
_chemical_formula_sum   'Ce4 N6'
_cell_volume   144.36369090
_cell_formula_units_Z   2
loop_
 _symmetry_equiv_pos_site_id
 _symmetry_equiv_pos_as_xyz
  1  'x, y, z'
loop_
 _atom_site_type_symbol
 _atom_site_label
 _atom_site_symmetry_multiplicity
 _atom_site_fract_x
 _atom_site_fract_y
 _atom_site_fract_z
 _atom_site_occupancy
  Ce  Ce0  1  0.00000000  0.00000000  0.00000000  1
  Ce  Ce1  1  0.00000000  0.00000000  0.50000002  1
  Ce  Ce2  1  0.33333333  0.66666666  0.75000003  1
  Ce  Ce3  1  0.66666665  0.33333333  0.25000001  1
  N  N4  1  0.66666665  0.33333333  0.75000003  1
  N  N5  1  0.33333333  0.66666666  0.25000001  1
  N  N6  1  0.66666665  0.33333333  0.06353200  1
  N  N7  1  0.33333333  0.66666666  0.93646804  1
  N  N8  1  0.66666665  0.33333333  0.43646802  1
  N  N9  1  0.33333333  0.66666666  0.56353203  1
