# generated using pymatgen
data_Cs3PdAuCl9
_symmetry_space_group_name_H-M   'P 1'
_cell_length_a   7.80929613
_cell_length_b   7.80929708
_cell_length_c   9.57374954
_cell_angle_alpha   90.00000000
_cell_angle_beta   90.00000000
_cell_angle_gamma   119.99999237
_symmetry_Int_Tables_number   1
_chemical_formula_structural   Cs3PdAuCl9
_chemical_formula_sum   'Cs3 Pd1 Au1 Cl9'
_cell_volume   505.63434245
_cell_formula_units_Z   1
loop_
 _symmetry_equiv_pos_site_id
 _symmetry_equiv_pos_as_xyz
  1  'x, y, z'
loop_
 _atom_site_type_symbol
 _atom_site_label
 _atom_site_symmetry_multiplicity
 _atom_site_fract_x
 _atom_site_fract_y
 _atom_site_fract_z
 _atom_site_occupancy
  Cs  Cs0  1  0.66666664  0.33333332  0.67432803  1
  Cs  Cs1  1  0.33333329  0.66666665  0.32567202  1
  Cs  Cs2  1  0.00000000  0.00000000  0.00000000  1
  Au  Au3  1  0.66666664  0.33333332  0.17994201  1
  Pd  Pd4  1  0.33333329  0.66666665  0.82005804  1
  Cl  Cl5  1  0.46987699  0.00000000  1.00000005  1
  Cl  Cl6  1  0.64402894  0.84735898  0.67470503  1
  Cl  Cl7  1  -0.00000003  0.46987699  -0.00000000  1
  Cl  Cl8  1  0.15264095  0.79666998  0.67470503  1
  Cl  Cl9  1  0.84735895  0.64402898  0.32529502  1
  Cl  Cl10  1  0.53012296  0.53012299  1.00000005  1
  Cl  Cl11  1  0.79666998  0.15264100  0.32529502  1
  Cl  Cl12  1  0.20332998  0.35597099  0.67470503  1
  Cl  Cl13  1  0.35597098  0.20332999  0.32529502  1
