# generated using pymatgen
data_Sc2CrS4
_symmetry_space_group_name_H-M   'P 1'
_cell_length_a   7.40613413
_cell_length_b   7.46027899
_cell_length_c   7.46027899
_cell_angle_alpha   61.27291107
_cell_angle_beta   60.23979568
_cell_angle_gamma   60.23979568
_symmetry_Int_Tables_number   1
_chemical_formula_structural   Sc2CrS4
_chemical_formula_sum   'Sc4 Cr2 S8'
_cell_volume   295.24770956
_cell_formula_units_Z   2
loop_
 _symmetry_equiv_pos_site_id
 _symmetry_equiv_pos_as_xyz
  1  'x, y, z'
loop_
 _atom_site_type_symbol
 _atom_site_label
 _atom_site_symmetry_multiplicity
 _atom_site_fract_x
 _atom_site_fract_y
 _atom_site_fract_z
 _atom_site_occupancy
  Sc  Sc0  1  0.86518999  0.88481001  0.38480998  1
  Sc  Sc1  1  0.49999999  1.00000002  0.99999999  1
  Sc  Sc2  1  0.49999999  0.50000001  0.49999999  1
  Sc  Sc3  1  0.13481000  0.11519000  0.61519000  1
  Cr  Cr4  1  0.49999999  0.50000001  1.00000000  1
  Cr  Cr5  1  -0.00000000  0.50000001  -0.00000001  1
  S  S6  1  0.74828299  0.70731701  0.79611699  1
  S  S7  1  0.74828399  0.29611700  0.20731599  1
  S  S8  1  0.28266899  0.72555801  0.22555699  1
  S  S9  1  0.76621699  0.72555701  0.22555698  1
  S  S10  1  0.23378300  0.27444300  0.77444300  1
  S  S11  1  0.71733099  0.27444200  0.77444299  1
  S  S12  1  0.25171599  0.70388301  0.79268399  1
  S  S13  1  0.25171700  0.29268300  0.20388299  1
