# generated using pymatgen
data_MgZnAg4
_symmetry_space_group_name_H-M   'P 1'
_cell_length_a   3.72562909
_cell_length_b   3.72562909
_cell_length_c   8.24794674
_cell_angle_alpha   90.00000000
_cell_angle_beta   90.00000000
_cell_angle_gamma   90.00000000
_symmetry_Int_Tables_number   1
_chemical_formula_structural   MgZnAg4
_chemical_formula_sum   'Mg1 Zn1 Ag4'
_cell_volume   114.48407514
_cell_formula_units_Z   1
loop_
 _symmetry_equiv_pos_site_id
 _symmetry_equiv_pos_as_xyz
  1  'x, y, z'
loop_
 _atom_site_type_symbol
 _atom_site_label
 _atom_site_symmetry_multiplicity
 _atom_site_fract_x
 _atom_site_fract_y
 _atom_site_fract_z
 _atom_site_occupancy
  Mg  Mg0  1  0.00000000  0.49999999  0.73875002  1
  Zn  Zn1  1  0.49999999  0.00000000  0.26125001  1
  Ag  Ag2  1  0.00000000  0.00000000  0.00000000  1
  Ag  Ag3  1  0.49999999  0.49999999  0.00000000  1
  Ag  Ag4  1  0.49999999  0.00000000  0.62007902  1
  Ag  Ag5  1  0.00000000  0.49999999  0.37992101  1
