# generated using pymatgen
data_Li2V3F8
_symmetry_space_group_name_H-M   'P 1'
_cell_length_a   5.27966833
_cell_length_b   5.81958103
_cell_length_c   5.97625399
_cell_angle_alpha   62.40228653
_cell_angle_beta   89.56145477
_cell_angle_gamma   71.90100098
_symmetry_Int_Tables_number   1
_chemical_formula_structural   Li2V3F8
_chemical_formula_sum   'Li2 V3 F8'
_cell_volume   152.64203015
_cell_formula_units_Z   1
loop_
 _symmetry_equiv_pos_site_id
 _symmetry_equiv_pos_as_xyz
  1  'x, y, z'
loop_
 _atom_site_type_symbol
 _atom_site_label
 _atom_site_symmetry_multiplicity
 _atom_site_fract_x
 _atom_site_fract_y
 _atom_site_fract_z
 _atom_site_occupancy
  Li  Li0  1  0.50000702  0.49997899  0.25001401  1
  Li  Li1  1  0.04194905  0.98424799  0.50720501  1
  V  V2  1  0.99781002  0.50152399  0.99627002  1
  V  V3  1  0.95798900  0.01583900  0.99279502  1
  V  V4  1  0.00217403  0.49844799  0.50370900  1
  F  F5  1  0.21895904  0.73091699  0.38489301  1
  F  F6  1  0.20442804  0.74355799  0.91499301  1
  F  F7  1  0.18076401  0.26660300  0.85711601  1
  F  F8  1  0.21574101  0.28083100  0.34699601  1
  F  F9  1  0.81925004  0.73340899  0.64288402  1
  F  F10  1  0.78426103  0.71916799  0.15300901  1
  F  F11  1  0.78106801  0.26905400  0.11509901  1
  F  F12  1  0.79561101  0.25640700  0.58501701  1
