# generated using pymatgen
data_Cs3BiO3
_symmetry_space_group_name_H-M   'P 1'
_cell_length_a   7.57910776
_cell_length_b   7.57910776
_cell_length_c   7.63070202
_cell_angle_alpha   95.99819183
_cell_angle_beta   95.99819183
_cell_angle_gamma   116.60908508
_symmetry_Int_Tables_number   1
_chemical_formula_structural   Cs3BiO3
_chemical_formula_sum   'Cs6 Bi2 O6'
_cell_volume   384.07359255
_cell_formula_units_Z   2
loop_
 _symmetry_equiv_pos_site_id
 _symmetry_equiv_pos_as_xyz
  1  'x, y, z'
loop_
 _atom_site_type_symbol
 _atom_site_label
 _atom_site_symmetry_multiplicity
 _atom_site_fract_x
 _atom_site_fract_y
 _atom_site_fract_z
 _atom_site_occupancy
  Cs  Cs0  1  0.35924299  0.35924300  0.65079996  1
  Cs  Cs1  1  0.21046896  0.78953099  0.49999994  1
  Cs  Cs2  1  0.78953100  0.21046900  0.49999994  1
  Cs  Cs3  1  0.26224496  0.73775499  -0.00000006  1
  Cs  Cs4  1  0.73775500  0.26224500  0.99999995  1
  Cs  Cs5  1  0.64075697  0.64075699  0.34919992  1
  Bi  Bi6  1  0.17022099  0.17022100  0.14898398  1
  Bi  Bi7  1  0.82977897  0.82977899  0.85101590  1
  O  O8  1  0.10015000  0.10015000  0.85908299  1
  O  O9  1  0.43116800  0.16426600  0.26376997  1
  O  O10  1  0.16426598  0.43116799  0.26376996  1
  O  O11  1  0.83573398  0.56883199  0.73622992  1
  O  O12  1  0.56883196  0.83573399  0.73622992  1
  O  O13  1  0.89984996  0.89984999  0.14091689  1
