# generated using pymatgen
data_LaSn2
_symmetry_space_group_name_H-M   'P 1'
_cell_length_a   6.26779795
_cell_length_b   6.26779795
_cell_length_c   11.57663059
_cell_angle_alpha   105.70646667
_cell_angle_beta   105.70646667
_cell_angle_gamma   90.00000000
_symmetry_Int_Tables_number   1
_chemical_formula_structural   LaSn2
_chemical_formula_sum   'La5 Sn10'
_cell_volume   420.14278472
_cell_formula_units_Z   5
loop_
 _symmetry_equiv_pos_site_id
 _symmetry_equiv_pos_as_xyz
  1  'x, y, z'
loop_
 _atom_site_type_symbol
 _atom_site_label
 _atom_site_symmetry_multiplicity
 _atom_site_fract_x
 _atom_site_fract_y
 _atom_site_fract_z
 _atom_site_occupancy
  La  La0  1  0.62064402  0.62064401  0.74005902  1
  La  La1  1  0.11941500  0.11941500  0.74005901  1
  La  La2  1  0.88058502  0.37935601  0.25994102  1
  La  La3  1  0.37935602  0.88058501  0.25994102  1
  La  La4  1  0.00000000  0.00000000  0.00000000  1
  Sn  Sn5  1  0.50000001  0.00000000  0.00000001  1
  Sn  Sn6  1  0.00000001  0.50000001  0.00000001  1
  Sn  Sn7  1  0.25006201  0.25006200  0.50012401  1
  Sn  Sn8  1  0.74993802  0.74993801  0.49987602  1
  Sn  Sn9  1  0.25000001  0.75000001  0.50000002  1
  Sn  Sn10  1  0.75000001  0.25000000  0.50000001  1
  Sn  Sn11  1  0.32585601  0.32585601  0.14800601  1
  Sn  Sn12  1  0.82215002  0.82215001  0.14800602  1
  Sn  Sn13  1  0.17785001  0.67414401  0.85199402  1
  Sn  Sn14  1  0.67414401  0.17785000  0.85199401  1
