# generated using pymatgen
data_Li2CrCoO4
_symmetry_space_group_name_H-M   'P 1'
_cell_length_a   5.12531948
_cell_length_b   5.13163996
_cell_length_c   5.76306105
_cell_angle_alpha   89.99995422
_cell_angle_beta   89.99996948
_cell_angle_gamma   111.63732147
_symmetry_Int_Tables_number   1
_chemical_formula_structural   Li2CrCoO4
_chemical_formula_sum   'Li4 Cr2 Co2 O8'
_cell_volume   140.89539117
_cell_formula_units_Z   2
loop_
 _symmetry_equiv_pos_site_id
 _symmetry_equiv_pos_as_xyz
  1  'x, y, z'
loop_
 _atom_site_type_symbol
 _atom_site_label
 _atom_site_symmetry_multiplicity
 _atom_site_fract_x
 _atom_site_fract_y
 _atom_site_fract_z
 _atom_site_occupancy
  Li  Li0  1  0.50000102  0.00000200  0.24990601  1
  Li  Li1  1  0.99999901  0.49999798  0.74997000  1
  Li  Li2  1  0.49999999  0.49999798  0.00009699  1
  Li  Li3  1  -0.00000000  0.00000100  0.50000600  1
  Cr  Cr4  1  0.50000299  0.50000298  0.50074099  1
  Co  Co5  1  0.99999204  0.00000400  0.00074703  1
  Cr  Cr6  1  0.00000497  0.49999798  0.24975498  1
  Co  Co7  1  0.49999696  0.99999896  0.74971997  1
  O  O8  1  0.23211799  0.26726099  0.24981799  1
  O  O9  1  0.73200298  0.76739197  0.74980998  1
  O  O10  1  0.76788399  0.73273397  0.24981899  1
  O  O11  1  0.26799700  0.23260699  0.74981199  1
  O  O12  1  0.76432101  0.23595499  0.99987801  1
  O  O13  1  0.26440897  0.73605697  0.50002097  1
  O  O14  1  0.73559401  0.26394299  0.50002001  1
  O  O15  1  0.23567796  0.76404797  0.99987997  1
