# generated using pymatgen
data_AlPt3
_symmetry_space_group_name_H-M   'P 1'
_cell_length_a   5.54631996
_cell_length_b   5.60359383
_cell_length_c   5.54631996
_cell_angle_alpha   60.33753204
_cell_angle_beta   90.00000000
_cell_angle_gamma   119.66246796
_symmetry_Int_Tables_number   1
_chemical_formula_structural   AlPt3
_chemical_formula_sum   'Al2 Pt6'
_cell_volume   123.12135087
_cell_formula_units_Z   2
loop_
 _symmetry_equiv_pos_site_id
 _symmetry_equiv_pos_as_xyz
  1  'x, y, z'
loop_
 _atom_site_type_symbol
 _atom_site_label
 _atom_site_symmetry_multiplicity
 _atom_site_fract_x
 _atom_site_fract_y
 _atom_site_fract_z
 _atom_site_occupancy
  Al  Al0  1  0.75000001  0.50000000  0.75000000  1
  Al  Al1  1  0.25000001  0.50000000  0.25000000  1
  Pt  Pt2  1  0.75000001  0.50000000  0.25000000  1
  Pt  Pt3  1  0.25000001  0.50000000  0.75000000  1
  Pt  Pt4  1  0.20659300  0.00000100  0.70659201  1
  Pt  Pt5  1  0.79340701  0.99999899  0.29340799  1
  Pt  Pt6  1  0.70659301  0.00000000  0.79340701  1
  Pt  Pt7  1  0.29340701  0.99999999  0.20659299  1
