# generated using pymatgen
data_NdFe12
_symmetry_space_group_name_H-M   'P 1'
_cell_length_a   4.69734383
_cell_length_b   6.30520535
_cell_length_c   6.30520535
_cell_angle_alpha   82.02423096
_cell_angle_beta   68.13028717
_cell_angle_gamma   68.13028717
_symmetry_Int_Tables_number   1
_chemical_formula_structural   NdFe12
_chemical_formula_sum   'Nd1 Fe12'
_cell_volume   160.83402488
_cell_formula_units_Z   1
loop_
 _symmetry_equiv_pos_site_id
 _symmetry_equiv_pos_as_xyz
  1  'x, y, z'
loop_
 _atom_site_type_symbol
 _atom_site_label
 _atom_site_symmetry_multiplicity
 _atom_site_fract_x
 _atom_site_fract_y
 _atom_site_fract_z
 _atom_site_occupancy
  Nd  Nd0  1  0.00000000  0.00000000  0.00000000  1
  Fe  Fe1  1  0.72949310  0.77050696  0.77050695  1
  Fe  Fe2  1  0.00000000  0.00000000  0.49999998  1
  Fe  Fe3  1  0.50000007  0.49999997  -0.00000001  1
  Fe  Fe4  1  0.00000006  0.49999997  -0.00000004  1
  Fe  Fe5  1  0.50000012  0.99999995  0.49999993  1
  Fe  Fe6  1  0.36510408  0.63489597  0.63489595  1
  Fe  Fe7  1  0.00000004  0.36510398  0.63489595  1
  Fe  Fe8  1  0.00000007  0.63489597  0.36510394  1
  Fe  Fe9  1  0.63489605  0.36510398  0.36510399  1
  Fe  Fe10  1  0.27050703  0.22949299  0.22949299  1
  Fe  Fe11  1  0.50000010  0.77050696  0.22949296  1
  Fe  Fe12  1  0.50000003  0.22949299  0.77050698  1
