# generated using pymatgen
data_InRh
_symmetry_space_group_name_H-M   'P 1'
_cell_length_a   6.77982283
_cell_length_b   6.77982283
_cell_length_c   7.60985613
_cell_angle_alpha   116.45298004
_cell_angle_beta   116.45298004
_cell_angle_gamma   90.00000000
_symmetry_Int_Tables_number   1
_chemical_formula_structural   InRh
_chemical_formula_sum   'In8 Rh8'
_cell_volume   271.65443980
_cell_formula_units_Z   8
loop_
 _symmetry_equiv_pos_site_id
 _symmetry_equiv_pos_as_xyz
  1  'x, y, z'
loop_
 _atom_site_type_symbol
 _atom_site_label
 _atom_site_symmetry_multiplicity
 _atom_site_fract_x
 _atom_site_fract_y
 _atom_site_fract_z
 _atom_site_occupancy
  In  In0  1  0.00000000  0.00000000  0.00000000  1
  In  In1  1  0.50000003  0.50000002  0.00000003  1
  In  In2  1  0.49505603  0.31740501  0.31246002  1
  In  In3  1  0.81740505  0.99505604  0.31246005  1
  In  In4  1  0.31740503  0.81740503  0.31246004  1
  In  In5  1  0.99505605  0.49505602  0.31246004  1
  In  In6  1  0.50494404  0.68259503  0.68754004  1
  In  In7  1  0.18259501  0.00494400  0.68754001  1
  Rh  Rh8  1  0.68259503  0.18259501  0.68754002  1
  Rh  Rh9  1  0.00494401  0.50494402  0.68754002  1
  Rh  Rh10  1  0.25000002  0.25000001  0.50000002  1
  Rh  Rh11  1  0.75000005  0.75000003  0.50000004  1
  Rh  Rh12  1  0.13376401  0.36623602  0.00000001  1
  Rh  Rh13  1  0.86623605  0.63376403  0.00000004  1
  Rh  Rh14  1  0.36623604  0.86623604  0.00000004  1
  Rh  Rh15  1  0.63376403  0.13376401  0.00000002  1
