# generated using pymatgen
data_Sc5ZnS8
_symmetry_space_group_name_H-M   'P 1'
_cell_length_a   7.42063046
_cell_length_b   7.55646229
_cell_length_c   7.55661678
_cell_angle_alpha   61.16612244
_cell_angle_beta   60.59670639
_cell_angle_gamma   60.59863663
_symmetry_Int_Tables_number   1
_chemical_formula_structural   Sc5ZnS8
_chemical_formula_sum   'Sc5 Zn1 S8'
_cell_volume   304.92106621
_cell_formula_units_Z   1
loop_
 _symmetry_equiv_pos_site_id
 _symmetry_equiv_pos_as_xyz
  1  'x, y, z'
loop_
 _atom_site_type_symbol
 _atom_site_label
 _atom_site_symmetry_multiplicity
 _atom_site_fract_x
 _atom_site_fract_y
 _atom_site_fract_z
 _atom_site_occupancy
  Sc  Sc0  1  0.50001700  0.49999901  0.50001000  1
  Sc  Sc1  1  0.49999102  0.00000500  0.99999497  1
  Sc  Sc2  1  0.87285101  0.87717901  0.37710701  1
  Sc  Sc3  1  0.12715700  0.12282200  0.62287099  1
  Zn  Zn4  1  0.50000900  0.49999701  0.00000401  1
  Sc  Sc5  1  0.99998702  0.50000601  0.00000701  1
  S  S6  1  0.75013901  0.72554701  0.77413000  1
  S  S7  1  0.23898800  0.26611400  0.76612099  1
  S  S8  1  0.72876802  0.26613200  0.76609698  1
  S  S9  1  0.24987399  0.72586601  0.77440300  1
  S  S10  1  0.27122899  0.73385201  0.23393002  1
  S  S11  1  0.75011502  0.27413600  0.22560800  1
  S  S12  1  0.24985900  0.27445100  0.22585400  1
  S  S13  1  0.76101101  0.73389801  0.23386201  1
