# generated using pymatgen
data_BaCa
_symmetry_space_group_name_H-M   'P 1'
_cell_length_a   5.91598606
_cell_length_b   5.91598606
_cell_length_c   7.22150469
_cell_angle_alpha   114.18027496
_cell_angle_beta   114.18027496
_cell_angle_gamma   90.00000000
_symmetry_Int_Tables_number   1
_chemical_formula_structural   BaCa
_chemical_formula_sum   'Ba2 Ca2'
_cell_volume   206.02037505
_cell_formula_units_Z   2
loop_
 _symmetry_equiv_pos_site_id
 _symmetry_equiv_pos_as_xyz
  1  'x, y, z'
loop_
 _atom_site_type_symbol
 _atom_site_label
 _atom_site_symmetry_multiplicity
 _atom_site_fract_x
 _atom_site_fract_y
 _atom_site_fract_z
 _atom_site_occupancy
  Ba  Ba0  1  0.75000001  0.25000000  0.50000002  1
  Ba  Ba1  1  0.25000003  0.75000001  0.50000003  1
  Ca  Ca2  1  0.50000002  0.50000001  0.00000004  1
  Ca  Ca3  1  0.00000000  0.00000000  0.00000000  1
