# generated using pymatgen
data_YRu2
_symmetry_space_group_name_H-M   'P 1'
_cell_length_a   5.27651596
_cell_length_b   5.27651596
_cell_length_c   8.96902180
_cell_angle_alpha   90.00000000
_cell_angle_beta   90.00000000
_cell_angle_gamma   120.00000000
_symmetry_Int_Tables_number   1
_chemical_formula_structural   YRu2
_chemical_formula_sum   'Y4 Ru8'
_cell_volume   216.25702464
_cell_formula_units_Z   4
loop_
 _symmetry_equiv_pos_site_id
 _symmetry_equiv_pos_as_xyz
  1  'x, y, z'
loop_
 _atom_site_type_symbol
 _atom_site_label
 _atom_site_symmetry_multiplicity
 _atom_site_fract_x
 _atom_site_fract_y
 _atom_site_fract_z
 _atom_site_occupancy
  Y  Y0  1  0.66666668  0.33333334  0.56674201  1
  Y  Y1  1  0.33333334  0.66666669  0.43325801  1
  Y  Y2  1  0.33333334  0.66666669  0.06674200  1
  Y  Y3  1  0.66666668  0.33333334  0.93325802  1
  Ru  Ru4  1  0.82980601  0.17019401  0.25000001  1
  Ru  Ru5  1  0.82980601  0.65961202  0.25000001  1
  Ru  Ru6  1  0.65961201  0.82980602  0.75000002  1
  Ru  Ru7  1  0.17019401  0.82980602  0.75000002  1
  Ru  Ru8  1  0.34038800  0.17019401  0.25000001  1
  Ru  Ru9  1  0.00000000  0.00000000  0.00000000  1
  Ru  Ru10  1  0.17019401  0.34038801  0.75000002  1
  Ru  Ru11  1  0.00000000  0.00000000  0.50000001  1
