# generated using pymatgen
data_Li2CuF6
_symmetry_space_group_name_H-M   'P 1'
_cell_length_a   4.72179985
_cell_length_b   4.72179985
_cell_length_c   9.06898022
_cell_angle_alpha   90.00000000
_cell_angle_beta   90.00000000
_cell_angle_gamma   90.00000000
_symmetry_Int_Tables_number   1
_chemical_formula_structural   Li2CuF6
_chemical_formula_sum   'Li4 Cu2 F12'
_cell_volume   202.19648555
_cell_formula_units_Z   2
loop_
 _symmetry_equiv_pos_site_id
 _symmetry_equiv_pos_as_xyz
  1  'x, y, z'
loop_
 _atom_site_type_symbol
 _atom_site_label
 _atom_site_symmetry_multiplicity
 _atom_site_fract_x
 _atom_site_fract_y
 _atom_site_fract_z
 _atom_site_occupancy
  Li  Li0  1  0.00000000  0.00000000  0.33839499  1
  Li  Li1  1  0.50000002  0.50000002  0.83839498  1
  Li  Li2  1  0.50000002  0.50000002  0.16160500  1
  Li  Li3  1  0.00000000  0.00000000  0.66160498  1
  Cu  Cu4  1  0.00000000  0.00000000  0.00000000  1
  Cu  Cu5  1  0.50000002  0.50000002  0.49999999  1
  F  F6  1  0.21516801  0.78483202  0.49999999  1
  F  F7  1  0.69264702  0.69264702  0.65311398  1
  F  F8  1  0.28483201  0.28483201  0.00000000  1
  F  F9  1  0.71516802  0.71516802  0.00000000  1
  F  F10  1  0.78483202  0.21516801  0.49999999  1
  F  F11  1  0.19264701  0.80735303  0.84688598  1
  F  F12  1  0.30735301  0.30735301  0.34688599  1
  F  F13  1  0.69264702  0.69264702  0.34688599  1
  F  F14  1  0.80735303  0.19264701  0.84688598  1
  F  F15  1  0.80735303  0.19264701  0.15311400  1
  F  F16  1  0.19264701  0.80735303  0.15311400  1
  F  F17  1  0.30735301  0.30735301  0.65311398  1
