# generated using pymatgen
data_U2MnRu3
_symmetry_space_group_name_H-M   'P 1'
_cell_length_a   5.14569569
_cell_length_b   5.14569569
_cell_length_c   5.14569616
_cell_angle_alpha   61.58570480
_cell_angle_beta   61.58570480
_cell_angle_gamma   61.58569717
_symmetry_Int_Tables_number   1
_chemical_formula_structural   U2MnRu3
_chemical_formula_sum   'U2 Mn1 Ru3'
_cell_volume   99.76960967
_cell_formula_units_Z   1
loop_
 _symmetry_equiv_pos_site_id
 _symmetry_equiv_pos_as_xyz
  1  'x, y, z'
loop_
 _atom_site_type_symbol
 _atom_site_label
 _atom_site_symmetry_multiplicity
 _atom_site_fract_x
 _atom_site_fract_y
 _atom_site_fract_z
 _atom_site_occupancy
  U  U0  1  0.38202700  0.38202699  0.38202699  1
  U  U1  1  0.61797300  0.61797299  0.61797298  1
  Mn  Mn2  1  0.00000000  0.00000000  0.00000000  1
  Ru  Ru3  1  0.50000000  0.99999998  0.99999997  1
  Ru  Ru4  1  0.00000001  0.49999999  -0.00000000  1
  Ru  Ru5  1  0.00000000  0.00000000  0.49999999  1
