# generated using pymatgen
data_Fe8SiNi3P4
_symmetry_space_group_name_H-M   'P 1'
_cell_length_a   4.48261881
_cell_length_b   6.69672298
_cell_length_c   6.75215530
_cell_angle_alpha   83.67224884
_cell_angle_beta   70.90437317
_cell_angle_gamma   70.65429688
_symmetry_Int_Tables_number   1
_chemical_formula_structural   Fe8SiNi3P4
_chemical_formula_sum   'Fe8 Si1 Ni3 P4'
_cell_volume   180.72339844
_cell_formula_units_Z   1
loop_
 _symmetry_equiv_pos_site_id
 _symmetry_equiv_pos_as_xyz
  1  'x, y, z'
loop_
 _atom_site_type_symbol
 _atom_site_label
 _atom_site_symmetry_multiplicity
 _atom_site_fract_x
 _atom_site_fract_y
 _atom_site_fract_z
 _atom_site_occupancy
  Fe  Fe0  1  0.64071800  0.38248000  0.32317203  1
  Fe  Fe1  1  0.33326097  0.61704400  0.67467206  1
  Fe  Fe2  1  0.04407498  0.32196100  0.61928004  1
  Fe  Fe3  1  0.97933599  0.68060500  0.38823505  1
  Fe  Fe4  1  0.58972000  0.39183600  0.94862304  1
  Fe  Fe5  1  0.92347900  0.61245600  0.04916903  1
  Fe  Fe6  1  0.46262395  0.95237600  0.60806208  1
  Fe  Fe7  1  0.01858500  0.04387300  0.39534001  1
  Ni  Ni8  1  0.14252599  0.18541300  0.97250104  1
  Ni  Ni9  1  0.30671695  0.81088400  0.02443506  1
  Si  Si10  1  0.87914696  0.97765900  0.81549308  1
  Ni  Ni11  1  0.67616503  0.02469900  0.18096800  1
  P  P12  1  0.20271598  0.33502400  0.25161103  1
  P  P13  1  0.78399298  0.66234200  0.74811806  1
  P  P14  1  0.54989601  0.25244900  0.66344303  1
  P  P15  1  0.46704396  0.74889900  0.33687806  1
