# generated using pymatgen
data_In5HgAu10
_symmetry_space_group_name_H-M   'P 1'
_cell_length_a   6.31296301
_cell_length_b   6.31296301
_cell_length_c   9.43415833
_cell_angle_alpha   90.00000000
_cell_angle_beta   90.00000000
_cell_angle_gamma   107.69718170
_symmetry_Int_Tables_number   1
_chemical_formula_structural   In5HgAu10
_chemical_formula_sum   'In5 Hg1 Au10'
_cell_volume   358.19133228
_cell_formula_units_Z   1
loop_
 _symmetry_equiv_pos_site_id
 _symmetry_equiv_pos_as_xyz
  1  'x, y, z'
loop_
 _atom_site_type_symbol
 _atom_site_label
 _atom_site_symmetry_multiplicity
 _atom_site_fract_x
 _atom_site_fract_y
 _atom_site_fract_z
 _atom_site_occupancy
  In  In0  1  0.47847598  0.52152400  0.74999997  1
  In  In1  1  0.52152398  0.47847600  0.24999999  1
  In  In2  1  0.99758099  0.59673500  0.74999997  1
  In  In3  1  0.00241898  0.40326500  0.24999999  1
  In  In4  1  0.59673495  0.99758101  0.24999999  1
  Au  Au5  1  0.40326501  0.00241900  0.74999997  1
  Au  Au6  1  0.70910200  0.29089800  0.51746998  1
  Au  Au7  1  0.29089796  0.70910200  0.01747000  1
  Au  Au8  1  0.29089796  0.70910200  0.48252998  1
  Au  Au9  1  0.70910200  0.29089800  0.98252997  1
  Hg  Hg10  1  0.21184799  0.21184800  0.49999998  1
  Au  Au11  1  0.78815197  0.78815200  -0.00000000  1
  Au  Au12  1  0.78815197  0.78815200  0.49999998  1
  Au  Au13  1  0.21184799  0.21184800  -0.00000000  1
  Au  Au14  1  0.91522702  0.08477300  0.74999997  1
  Au  Au15  1  0.08477295  0.91522701  0.24999999  1
