# generated using pymatgen
data_CaSbPd
_symmetry_space_group_name_H-M   'P 1'
_cell_length_a   4.79228783
_cell_length_b   7.36131716
_cell_length_c   8.33398438
_cell_angle_alpha   90.00000000
_cell_angle_beta   90.00000000
_cell_angle_gamma   90.00000000
_symmetry_Int_Tables_number   1
_chemical_formula_structural   CaSbPd
_chemical_formula_sum   'Ca4 Sb4 Pd4'
_cell_volume   294.00255551
_cell_formula_units_Z   4
loop_
 _symmetry_equiv_pos_site_id
 _symmetry_equiv_pos_as_xyz
  1  'x, y, z'
loop_
 _atom_site_type_symbol
 _atom_site_label
 _atom_site_symmetry_multiplicity
 _atom_site_fract_x
 _atom_site_fract_y
 _atom_site_fract_z
 _atom_site_occupancy
  Ca  Ca0  1  0.75000003  0.51910799  0.19514099  1
  Ca  Ca1  1  0.75000003  0.01910800  0.30485899  1
  Ca  Ca2  1  0.25000001  0.48089199  0.80485896  1
  Ca  Ca3  1  0.25000001  0.98089198  0.69514097  1
  Sb  Sb4  1  0.75000003  0.28273499  0.59632997  1
  Sb  Sb5  1  0.75000003  0.78273498  0.90366996  1
  Sb  Sb6  1  0.25000001  0.71726498  0.40366998  1
  Sb  Sb7  1  0.25000001  0.21726500  0.09633000  1
  Pd  Pd8  1  0.75000003  0.17803300  0.92066396  1
  Pd  Pd9  1  0.75000003  0.67803299  0.57933597  1
  Pd  Pd10  1  0.25000001  0.82196698  0.07933600  1
  Pd  Pd11  1  0.25000001  0.32196699  0.42066398  1
