# generated using pymatgen
data_KSbS2
_symmetry_space_group_name_H-M   'P 1'
_cell_length_a   6.87739086
_cell_length_b   6.87739086
_cell_length_c   12.88727188
_cell_angle_alpha   99.84490967
_cell_angle_beta   99.84490967
_cell_angle_gamma   109.50357056
_symmetry_Int_Tables_number   1
_chemical_formula_structural   KSbS2
_chemical_formula_sum   'K4 Sb4 S8'
_cell_volume   548.77774489
_cell_formula_units_Z   4
loop_
 _symmetry_equiv_pos_site_id
 _symmetry_equiv_pos_as_xyz
  1  'x, y, z'
loop_
 _atom_site_type_symbol
 _atom_site_label
 _atom_site_symmetry_multiplicity
 _atom_site_fract_x
 _atom_site_fract_y
 _atom_site_fract_z
 _atom_site_occupancy
  K  K0  1  0.21019995  0.65908899  0.25550396  1
  K  K1  1  0.87393294  0.86692698  0.49501293  1
  K  K2  1  0.65908899  0.21020000  0.75550395  1
  K  K3  1  0.86692694  0.87393298  0.99501291  1
  Sb  Sb4  1  0.59207498  0.30495099  0.17662197  1
  Sb  Sb5  1  0.45813898  0.30388699  0.44440196  1
  Sb  Sb6  1  0.30495096  0.59207499  0.67662195  1
  Sb  Sb7  1  0.30388697  0.45813899  0.94440194  1
  S  S8  1  0.68886696  0.67532699  0.20874295  1
  S  S9  1  0.38719399  0.15197300  0.98390895  1
  S  S10  1  0.41747293  0.98695198  0.49765094  1
  S  S11  1  0.26873799  0.18098400  0.24799198  1
  S  S12  1  0.67532696  0.68886699  0.70874293  1
  S  S13  1  0.15197297  0.38719399  0.48390896  1
  S  S14  1  0.98695198  0.41747299  0.99765092  1
  S  S15  1  0.18098398  0.26873799  0.74799196  1
