# generated using pymatgen
data_LuInRh
_symmetry_space_group_name_H-M   'P 1'
_cell_length_a   3.83574700
_cell_length_b   7.28900385
_cell_length_c   7.28900337
_cell_angle_alpha   120.00000000
_cell_angle_beta   90.00000000
_cell_angle_gamma   90.00000000
_symmetry_Int_Tables_number   1
_chemical_formula_structural   LuInRh
_chemical_formula_sum   'Lu3 In3 Rh3'
_cell_volume   176.48870517
_cell_formula_units_Z   3
loop_
 _symmetry_equiv_pos_site_id
 _symmetry_equiv_pos_as_xyz
  1  'x, y, z'
loop_
 _atom_site_type_symbol
 _atom_site_label
 _atom_site_symmetry_multiplicity
 _atom_site_fract_x
 _atom_site_fract_y
 _atom_site_fract_z
 _atom_site_occupancy
  Lu  Lu0  1  -0.00000000  0.59509400  -0.00000003  1
  Lu  Lu1  1  -0.00000000  0.40490600  0.40490598  1
  Lu  Lu2  1  0.00000000  0.00000000  0.59509401  1
  In  In3  1  0.50000000  0.25112100  -0.00000001  1
  In  In4  1  0.50000000  0.74887900  0.74887897  1
  In  In5  1  0.50000000  0.00000000  0.25112100  1
  Rh  Rh6  1  0.00000000  0.00000000  0.00000000  1
  Rh  Rh7  1  0.50000000  0.33333333  0.66666666  1
  Rh  Rh8  1  0.50000000  0.66666666  0.33333330  1
