# generated using pymatgen
data_LaCoGe2
_symmetry_space_group_name_H-M   'P 1'
_cell_length_a   4.27044582
_cell_length_b   4.32244778
_cell_length_c   8.75669956
_cell_angle_alpha   75.71128845
_cell_angle_beta   90.00000000
_cell_angle_gamma   90.00000000
_symmetry_Int_Tables_number   1
_chemical_formula_structural   LaCoGe2
_chemical_formula_sum   'La2 Co2 Ge4'
_cell_volume   156.63761071
_cell_formula_units_Z   2
loop_
 _symmetry_equiv_pos_site_id
 _symmetry_equiv_pos_as_xyz
  1  'x, y, z'
loop_
 _atom_site_type_symbol
 _atom_site_label
 _atom_site_symmetry_multiplicity
 _atom_site_fract_x
 _atom_site_fract_y
 _atom_site_fract_z
 _atom_site_occupancy
  La  La0  1  0.75000003  0.39094802  0.21810400  1
  La  La1  1  0.25000001  0.60905204  0.78189601  1
  Co  Co2  1  0.25000001  0.81796205  0.36407599  1
  Co  Co3  1  0.75000003  0.18203801  0.63592402  1
  Ge  Ge4  1  0.75000003  0.75021805  0.49956400  1
  Ge  Ge5  1  0.25000001  0.24978202  0.50043601  1
  Ge  Ge6  1  0.25000001  0.95702406  0.08595198  1
  Ge  Ge7  1  0.75000003  0.04297600  0.91404803  1
