# generated using pymatgen
data_YCdAu
_symmetry_space_group_name_H-M   'P 1'
_cell_length_a   4.62584496
_cell_length_b   7.60192013
_cell_length_c   7.60192013
_cell_angle_alpha   120.00000000
_cell_angle_beta   90.00000000
_cell_angle_gamma   90.00000000
_symmetry_Int_Tables_number   1
_chemical_formula_structural   YCdAu
_chemical_formula_sum   'Y3 Cd3 Au3'
_cell_volume   231.50922897
_cell_formula_units_Z   3
loop_
 _symmetry_equiv_pos_site_id
 _symmetry_equiv_pos_as_xyz
  1  'x, y, z'
loop_
 _atom_site_type_symbol
 _atom_site_label
 _atom_site_symmetry_multiplicity
 _atom_site_fract_x
 _atom_site_fract_y
 _atom_site_fract_z
 _atom_site_occupancy
  Y  Y0  1  0.00000000  0.00000000  0.57748200  1
  Y  Y1  1  -0.00000000  0.57748199  0.00000001  1
  Y  Y2  1  -0.00000000  0.42251800  0.42251801  1
  Cd  Cd3  1  0.50000000  0.99999999  0.24182301  1
  Cd  Cd4  1  0.50000000  0.24182300  0.00000000  1
  Cd  Cd5  1  0.50000000  0.75817699  0.75817701  1
  Au  Au6  1  0.50000000  0.66666666  0.33333334  1
  Au  Au7  1  0.50000000  0.33333333  0.66666667  1
  Au  Au8  1  0.00000000  0.00000000  0.00000000  1
