# generated using pymatgen
data_SrCu2N
_symmetry_space_group_name_H-M   'P 1'
_cell_length_a   4.26473999
_cell_length_b   4.26473999
_cell_length_c   4.96421194
_cell_angle_alpha   90.00000000
_cell_angle_beta   90.00000000
_cell_angle_gamma   120.00000000
_symmetry_Int_Tables_number   1
_chemical_formula_structural   SrCu2N
_chemical_formula_sum   'Sr1 Cu2 N1'
_cell_volume   78.19267372
_cell_formula_units_Z   1
loop_
 _symmetry_equiv_pos_site_id
 _symmetry_equiv_pos_as_xyz
  1  'x, y, z'
loop_
 _atom_site_type_symbol
 _atom_site_label
 _atom_site_symmetry_multiplicity
 _atom_site_fract_x
 _atom_site_fract_y
 _atom_site_fract_z
 _atom_site_occupancy
  Sr  Sr0  1  0.66666666  0.33333332  0.00199700  1
  Cu  Cu1  1  0.33333332  0.66666664  0.44279301  1
  Cu  Cu2  1  0.00000000  0.00000000  0.56381401  1
  N  N3  1  0.33333332  0.66666664  0.08579300  1
