# generated using pymatgen
data_DyAu
_symmetry_space_group_name_H-M   'P 1'
_cell_length_a   3.99008608
_cell_length_b   4.59923410
_cell_length_c   5.90884209
_cell_angle_alpha   90.00000000
_cell_angle_beta   109.73296356
_cell_angle_gamma   90.00000000
_symmetry_Int_Tables_number   1
_chemical_formula_structural   DyAu
_chemical_formula_sum   'Dy2 Au2'
_cell_volume   102.06747190
_cell_formula_units_Z   2
loop_
 _symmetry_equiv_pos_site_id
 _symmetry_equiv_pos_as_xyz
  1  'x, y, z'
loop_
 _atom_site_type_symbol
 _atom_site_label
 _atom_site_symmetry_multiplicity
 _atom_site_fract_x
 _atom_site_fract_y
 _atom_site_fract_z
 _atom_site_occupancy
  Dy  Dy0  1  0.86386598  0.74999998  0.72773201  1
  Dy  Dy1  1  0.13613400  0.24999999  0.27226800  1
  Au  Au2  1  0.59141598  0.74999998  0.18283200  1
  Au  Au3  1  0.40858399  0.24999999  0.81716801  1
