# generated using pymatgen
data_BaSrCaLa3Cd2O12
_symmetry_space_group_name_H-M   'P 1'
_cell_length_a   5.51068020
_cell_length_b   6.80067873
_cell_length_c   10.97751808
_cell_angle_alpha   90.00000000
_cell_angle_beta   90.00000000
_cell_angle_gamma   113.90093994
_symmetry_Int_Tables_number   1
_chemical_formula_structural   BaSrCaLa3Cd2O12
_chemical_formula_sum   'Ba1 Sr1 Ca1 La3 Cd2 O12'
_cell_volume   376.11903998
_cell_formula_units_Z   1
loop_
 _symmetry_equiv_pos_site_id
 _symmetry_equiv_pos_as_xyz
  1  'x, y, z'
loop_
 _atom_site_type_symbol
 _atom_site_label
 _atom_site_symmetry_multiplicity
 _atom_site_fract_x
 _atom_site_fract_y
 _atom_site_fract_z
 _atom_site_occupancy
  Ba  Ba0  1  0.78840994  0.57681998  0.25000000  1
  Sr  Sr1  1  0.21158997  0.42317998  0.74999999  1
  La  La2  1  0.65716996  0.31433999  0.99363999  1
  La  La3  1  0.14560198  0.29120399  0.25000000  1
  La  La4  1  0.85439793  0.70879597  0.74999999  1
  Ca  Ca5  1  0.34282995  0.68565998  0.00636000  1
  Cd  Cd6  1  0.65716996  0.31433999  0.50636000  1
  Cd  Cd7  1  0.34282995  0.68565998  0.49364000  1
  O  O8  1  0.51363698  0.02727400  0.25000000  1
  O  O9  1  0.48636292  0.97272597  0.74999999  1
  O  O10  1  0.00000000  0.00000000  0.00000000  1
  O  O11  1  0.00000000  0.00000000  0.50000000  1
  O  O12  1  0.99605794  0.48455598  0.12369600  1
  O  O13  1  0.00394197  0.51544398  0.87630399  1
  O  O14  1  0.48849795  0.48455598  0.12369600  1
  O  O15  1  0.51150195  0.51544398  0.87630399  1
  O  O16  1  0.00394197  0.51544398  0.62369600  1
  O  O17  1  0.99605794  0.48455598  0.37630400  1
  O  O18  1  0.51150195  0.51544398  0.62369600  1
  O  O19  1  0.48849795  0.48455598  0.37630400  1
