# generated using pymatgen
data_TlNiS3
_symmetry_space_group_name_H-M   'P 1'
_cell_length_a   3.98585796
_cell_length_b   3.98585796
_cell_length_c   6.97461843
_cell_angle_alpha   106.60310364
_cell_angle_beta   106.60310364
_cell_angle_gamma   90.00000000
_symmetry_Int_Tables_number   1
_chemical_formula_structural   TlNiS3
_chemical_formula_sum   'Tl1 Ni1 S3'
_cell_volume   101.35618817
_cell_formula_units_Z   1
loop_
 _symmetry_equiv_pos_site_id
 _symmetry_equiv_pos_as_xyz
  1  'x, y, z'
loop_
 _atom_site_type_symbol
 _atom_site_label
 _atom_site_symmetry_multiplicity
 _atom_site_fract_x
 _atom_site_fract_y
 _atom_site_fract_z
 _atom_site_occupancy
  Tl  Tl0  1  0.00000000  0.00000000  0.00000000  1
  Ni  Ni1  1  0.64964505  0.64964502  0.29929006  1
  S  S2  1  0.35035503  0.35035501  0.70071004  1
  S  S3  1  0.75000003  0.25000001  0.50000005  1
  S  S4  1  0.25000004  0.75000002  0.50000005  1
