# generated using pymatgen
data_SrBi2
_symmetry_space_group_name_H-M   'P 1'
_cell_length_a   4.23152781
_cell_length_b   4.23152781
_cell_length_c   7.75004816
_cell_angle_alpha   105.84287262
_cell_angle_beta   105.84287262
_cell_angle_gamma   90.00000000
_symmetry_Int_Tables_number   1
_chemical_formula_structural   SrBi2
_chemical_formula_sum   'Sr1 Bi2'
_cell_volume   128.01142505
_cell_formula_units_Z   1
loop_
 _symmetry_equiv_pos_site_id
 _symmetry_equiv_pos_as_xyz
  1  'x, y, z'
loop_
 _atom_site_type_symbol
 _atom_site_label
 _atom_site_symmetry_multiplicity
 _atom_site_fract_x
 _atom_site_fract_y
 _atom_site_fract_z
 _atom_site_occupancy
  Sr  Sr0  1  0.35701704  0.35701702  0.71403402  1
  Bi  Bi1  1  0.64298306  0.64298304  0.28596605  1
  Bi  Bi2  1  0.00000000  0.00000000  0.00000000  1
