# generated using pymatgen
data_NaCl
_symmetry_space_group_name_H-M   'P 1'
_cell_length_a   4.19191742
_cell_length_b   4.19191742
_cell_length_c   8.17407608
_cell_angle_alpha   75.14253998
_cell_angle_beta   75.14253998
_cell_angle_gamma   60.00000763
_symmetry_Int_Tables_number   1
_chemical_formula_structural   NaCl
_chemical_formula_sum   'Na2 Cl2'
_cell_volume   118.81518228
_cell_formula_units_Z   2
loop_
 _symmetry_equiv_pos_site_id
 _symmetry_equiv_pos_as_xyz
  1  'x, y, z'
loop_
 _atom_site_type_symbol
 _atom_site_label
 _atom_site_symmetry_multiplicity
 _atom_site_fract_x
 _atom_site_fract_y
 _atom_site_fract_z
 _atom_site_occupancy
  Na  Na0  1  0.49999996  0.50000000  0.50000003  1
  Na  Na1  1  0.00000000  0.00000000  0.00000000  1
  Cl  Cl2  1  0.76534695  0.76534701  0.70395905  1
  Cl  Cl3  1  0.23465298  0.23465300  0.29604102  1
