# generated using pymatgen
data_ThGa
_symmetry_space_group_name_H-M   'P 1'
_cell_length_a   4.83369589
_cell_length_b   5.92193079
_cell_length_c   7.59265280
_cell_angle_alpha   90.00000000
_cell_angle_beta   90.00000000
_cell_angle_gamma   90.00000000
_symmetry_Int_Tables_number   1
_chemical_formula_structural   ThGa
_chemical_formula_sum   'Th4 Ga4'
_cell_volume   217.33826280
_cell_formula_units_Z   4
loop_
 _symmetry_equiv_pos_site_id
 _symmetry_equiv_pos_as_xyz
  1  'x, y, z'
loop_
 _atom_site_type_symbol
 _atom_site_label
 _atom_site_symmetry_multiplicity
 _atom_site_fract_x
 _atom_site_fract_y
 _atom_site_fract_z
 _atom_site_occupancy
  Th  Th0  1  0.25000001  0.35581001  0.68714302  1
  Th  Th1  1  0.25000001  0.14419001  0.18714300  1
  Th  Th2  1  0.75000002  0.64419002  0.31285701  1
  Th  Th3  1  0.75000002  0.85581003  0.81285702  1
  Ga  Ga4  1  0.25000001  0.84982003  0.54242601  1
  Ga  Ga5  1  0.25000001  0.65018002  0.04242600  1
  Ga  Ga6  1  0.75000002  0.15018001  0.45757401  1
  Ga  Ga7  1  0.75000002  0.34982001  0.95757403  1
