# generated using pymatgen
data_Li4Bi2O5
_symmetry_space_group_name_H-M   'P 1'
_cell_length_a   5.51006222
_cell_length_b   5.51006222
_cell_length_c   5.51213837
_cell_angle_alpha   99.71234131
_cell_angle_beta   99.71234131
_cell_angle_gamma   119.86766815
_symmetry_Int_Tables_number   1
_chemical_formula_structural   Li4Bi2O5
_chemical_formula_sum   'Li4 Bi2 O5'
_cell_volume   136.64958955
_cell_formula_units_Z   1
loop_
 _symmetry_equiv_pos_site_id
 _symmetry_equiv_pos_as_xyz
  1  'x, y, z'
loop_
 _atom_site_type_symbol
 _atom_site_label
 _atom_site_symmetry_multiplicity
 _atom_site_fract_x
 _atom_site_fract_y
 _atom_site_fract_z
 _atom_site_occupancy
  Li  Li0  1  0.26443501  0.26443500  0.73558097  1
  Li  Li1  1  0.73556503  0.73556501  0.26441896  1
  Li  Li2  1  0.91690902  0.56372001  0.74632795  1
  Li  Li3  1  0.43628000  0.08309100  0.25367198  1
  Bi  Bi4  1  0.08309102  0.43628001  0.25367199  1
  Bi  Bi5  1  0.56372005  0.91690902  0.74632795  1
  O  O6  1  0.50000002  0.50000001  0.49999997  1
  O  O7  1  0.33518903  0.66481101  -0.00000002  1
  O  O8  1  0.66481101  0.33518901  -0.00000003  1
  O  O9  1  0.16675805  0.83324202  0.49999997  1
  O  O10  1  0.83324200  0.16675800  0.49999996  1
