# generated using pymatgen
data_Ti3GeN
_symmetry_space_group_name_H-M   'P 1'
_cell_length_a   2.98026395
_cell_length_b   5.32268429
_cell_length_c   7.88400602
_cell_angle_alpha   90.00000000
_cell_angle_beta   90.00000000
_cell_angle_gamma   106.25774384
_symmetry_Int_Tables_number   1
_chemical_formula_structural   Ti3GeN
_chemical_formula_sum   'Ti6 Ge2 N2'
_cell_volume   120.06296294
_cell_formula_units_Z   2
loop_
 _symmetry_equiv_pos_site_id
 _symmetry_equiv_pos_as_xyz
  1  'x, y, z'
loop_
 _atom_site_type_symbol
 _atom_site_label
 _atom_site_symmetry_multiplicity
 _atom_site_fract_x
 _atom_site_fract_y
 _atom_site_fract_z
 _atom_site_occupancy
  Ti  Ti0  1  0.03236100  0.06472200  0.75000000  1
  Ti  Ti1  1  0.96763906  0.93527801  0.25000000  1
  Ti  Ti2  1  0.37459505  0.74919001  0.54493600  1
  Ti  Ti3  1  0.62540502  0.25081000  0.45506400  1
  Ti  Ti4  1  0.37459505  0.74919001  0.95506400  1
  Ti  Ti5  1  0.62540502  0.25081000  0.04493600  1
  Ge  Ge6  1  0.74206804  0.48413601  0.75000000  1
  Ge  Ge7  1  0.25793203  0.51586401  0.25000000  1
  N  N8  1  0.00000000  0.00000000  0.50000000  1
  N  N9  1  0.00000000  0.00000000  0.00000000  1
