# generated using pymatgen
data_Ce2MgSi2
_symmetry_space_group_name_H-M   'P 1'
_cell_length_a   4.35896683
_cell_length_b   7.43768692
_cell_length_c   7.43768692
_cell_angle_alpha   90.00000000
_cell_angle_beta   90.00000000
_cell_angle_gamma   90.00000000
_symmetry_Int_Tables_number   1
_chemical_formula_structural   Ce2MgSi2
_chemical_formula_sum   'Ce4 Mg2 Si4'
_cell_volume   241.13449984
_cell_formula_units_Z   2
loop_
 _symmetry_equiv_pos_site_id
 _symmetry_equiv_pos_as_xyz
  1  'x, y, z'
loop_
 _atom_site_type_symbol
 _atom_site_label
 _atom_site_symmetry_multiplicity
 _atom_site_fract_x
 _atom_site_fract_y
 _atom_site_fract_z
 _atom_site_occupancy
  Ce  Ce0  1  0.50000002  0.32217200  0.82217201  1
  Ce  Ce1  1  0.50000002  0.82217201  0.67782801  1
  Ce  Ce2  1  0.50000002  0.17782800  0.32217200  1
  Ce  Ce3  1  0.50000002  0.67782801  0.17782800  1
  Mg  Mg4  1  0.00000000  0.00000000  0.00000000  1
  Mg  Mg5  1  0.00000000  0.50000001  0.50000001  1
  Si  Si6  1  -0.00000000  0.37777000  0.12223000  1
  Si  Si7  1  -0.00000000  0.62223001  0.87777001  1
  Si  Si8  1  -0.00000000  0.12223000  0.62223001  1
  Si  Si9  1  -0.00000000  0.87777001  0.37777000  1
