# generated using pymatgen
data_YAlSi
_symmetry_space_group_name_H-M   'P 1'
_cell_length_a   4.03691387
_cell_length_b   4.03691387
_cell_length_c   7.56440306
_cell_angle_alpha   90.00000000
_cell_angle_beta   90.00000000
_cell_angle_gamma   90.00000000
_symmetry_Int_Tables_number   1
_chemical_formula_structural   YAlSi
_chemical_formula_sum   'Y2 Al2 Si2'
_cell_volume   123.27460766
_cell_formula_units_Z   2
loop_
 _symmetry_equiv_pos_site_id
 _symmetry_equiv_pos_as_xyz
  1  'x, y, z'
loop_
 _atom_site_type_symbol
 _atom_site_label
 _atom_site_symmetry_multiplicity
 _atom_site_fract_x
 _atom_site_fract_y
 _atom_site_fract_z
 _atom_site_occupancy
  Y  Y0  1  0.00000000  0.50000002  0.34437900  1
  Y  Y1  1  0.50000002  0.00000000  0.65562100  1
  Al  Al2  1  0.00000000  0.00000000  0.00000000  1
  Al  Al3  1  0.50000002  0.50000002  0.00000000  1
  Si  Si4  1  0.00000000  0.50000002  0.76299599  1
  Si  Si5  1  0.50000002  0.00000000  0.23700400  1
