# generated using pymatgen
data_Ca2ZnWO6
_symmetry_space_group_name_H-M   'P 1'
_cell_length_a   5.33143377
_cell_length_b   5.63432693
_cell_length_c   7.71269703
_cell_angle_alpha   90.00000000
_cell_angle_beta   89.54621124
_cell_angle_gamma   90.00000000
_symmetry_Int_Tables_number   1
_chemical_formula_structural   Ca2ZnWO6
_chemical_formula_sum   'Ca4 Zn2 W2 O12'
_cell_volume   231.67475512
_cell_formula_units_Z   2
loop_
 _symmetry_equiv_pos_site_id
 _symmetry_equiv_pos_as_xyz
  1  'x, y, z'
loop_
 _atom_site_type_symbol
 _atom_site_label
 _atom_site_symmetry_multiplicity
 _atom_site_fract_x
 _atom_site_fract_y
 _atom_site_fract_z
 _atom_site_occupancy
  Ca  Ca0  1  0.48092102  0.06598900  0.24664901  1
  Ca  Ca1  1  0.51907902  0.93401101  0.75335100  1
  Ca  Ca2  1  0.01907900  0.56598901  0.25335100  1
  Ca  Ca3  1  0.98092104  0.43401101  0.74664901  1
  Zn  Zn4  1  0.50000002  0.50000001  0.00000001  1
  Zn  Zn5  1  -0.00000000  1.00000001  0.49999999  1
  W  W6  1  0.50000002  0.50000001  0.50000000  1
  W  W7  1  0.00000000  0.00000000  0.00000000  1
  O  O8  1  0.61527303  0.45597801  0.25730501  1
  O  O9  1  0.38472702  0.54402201  0.74269500  1
  O  O10  1  0.88472704  0.95597801  0.24269502  1
  O  O11  1  0.11527300  0.04402200  0.75730499  1
  O  O12  1  0.31314501  0.79442501  0.43558100  1
  O  O13  1  0.68685503  0.20557500  0.56441901  1
  O  O14  1  0.18685501  0.29442500  0.06441900  1
  O  O15  1  0.81314503  0.70557501  0.93558100  1
  O  O16  1  0.20102701  0.31094700  0.44523300  1
  O  O17  1  0.79897303  0.68905301  0.55476701  1
  O  O18  1  0.29897301  0.81094701  0.05476701  1
  O  O19  1  0.70102703  0.18905300  0.94523300  1
