# generated using pymatgen
data_Sr2CuCO5
_symmetry_space_group_name_H-M   'P 1'
_cell_length_a   5.57740021
_cell_length_b   5.57740021
_cell_length_c   8.39898396
_cell_angle_alpha   109.39192963
_cell_angle_beta   109.39192963
_cell_angle_gamma   90.00000000
_symmetry_Int_Tables_number   1
_chemical_formula_structural   Sr2CuCO5
_chemical_formula_sum   'Sr4 Cu2 C2 O10'
_cell_volume   230.67602277
_cell_formula_units_Z   2
loop_
 _symmetry_equiv_pos_site_id
 _symmetry_equiv_pos_as_xyz
  1  'x, y, z'
loop_
 _atom_site_type_symbol
 _atom_site_label
 _atom_site_symmetry_multiplicity
 _atom_site_fract_x
 _atom_site_fract_y
 _atom_site_fract_z
 _atom_site_occupancy
  Sr  Sr0  1  0.11347401  0.61347398  0.22694802  1
  Sr  Sr1  1  0.38652601  0.88652598  0.77305205  1
  Sr  Sr2  1  0.61347399  0.11347400  0.22694802  1
  Sr  Sr3  1  0.88652598  0.38652599  0.77305204  1
  Cu  Cu4  1  0.00000000  0.00000000  0.00000000  1
  Cu  Cu5  1  0.50000000  0.49999999  0.00000002  1
  C  C6  1  0.76330499  0.76330498  0.52661004  1
  C  C7  1  0.23669500  0.23669499  0.47339002  1
  O  O8  1  0.73653199  0.73653198  0.00318703  1
  O  O9  1  0.26346801  0.73334398  0.99681205  1
  O  O10  1  0.57717100  0.86471598  0.44188704  1
  O  O11  1  0.85166599  0.85166598  0.70333205  1
  O  O12  1  0.86471699  0.57717199  0.44188904  1
  O  O13  1  0.26665500  0.26665499  0.00318701  1
  O  O14  1  0.73334498  0.26346899  0.99681405  1
  O  O15  1  0.42282900  0.42282899  0.55811203  1
  O  O16  1  0.14833400  0.14833400  0.29666801  1
  O  O17  1  0.13528300  0.13528300  0.55811202  1
