# generated using pymatgen
data_NbSi
_symmetry_space_group_name_H-M   'P 1'
_cell_length_a   3.66049004
_cell_length_b   5.27249193
_cell_length_c   7.42832184
_cell_angle_alpha   110.34407806
_cell_angle_beta   90.00000000
_cell_angle_gamma   90.00000000
_symmetry_Int_Tables_number   1
_chemical_formula_structural   NbSi
_chemical_formula_sum   'Nb4 Si4'
_cell_volume   134.42298678
_cell_formula_units_Z   4
loop_
 _symmetry_equiv_pos_site_id
 _symmetry_equiv_pos_as_xyz
  1  'x, y, z'
loop_
 _atom_site_type_symbol
 _atom_site_label
 _atom_site_symmetry_multiplicity
 _atom_site_fract_x
 _atom_site_fract_y
 _atom_site_fract_z
 _atom_site_occupancy
  Nb  Nb0  1  0.25000000  0.22540200  0.43578399  1
  Nb  Nb1  1  0.74999999  0.77459799  0.56421597  1
  Nb  Nb2  1  0.25000000  0.70767799  0.91944297  1
  Nb  Nb3  1  0.74999999  0.29232200  0.08055699  1
  Si  Si4  1  0.25000000  0.64635700  0.28941097  1
  Si  Si5  1  0.74999999  0.35364300  0.71058898  1
  Si  Si6  1  0.25000000  0.14177300  0.78870099  1
  Si  Si7  1  0.74999999  0.85822699  0.21129896  1
