# generated using pymatgen
data_Ce4Ge5Ir3
_symmetry_space_group_name_H-M   'P 1'
_cell_length_a   5.76865578
_cell_length_b   5.91284704
_cell_length_c   7.42536545
_cell_angle_alpha   109.42078400
_cell_angle_beta   90.00000000
_cell_angle_gamma   90.00000000
_symmetry_Int_Tables_number   1
_chemical_formula_structural   Ce4Ge5Ir3
_chemical_formula_sum   'Ce4 Ge5 Ir3'
_cell_volume   238.86241353
_cell_formula_units_Z   1
loop_
 _symmetry_equiv_pos_site_id
 _symmetry_equiv_pos_as_xyz
  1  'x, y, z'
loop_
 _atom_site_type_symbol
 _atom_site_label
 _atom_site_symmetry_multiplicity
 _atom_site_fract_x
 _atom_site_fract_y
 _atom_site_fract_z
 _atom_site_occupancy
  Ce  Ce0  1  0.87328403  0.68132500  0.88401704  1
  Ce  Ce1  1  0.62671602  0.18132500  0.38401701  1
  Ce  Ce2  1  0.12671600  0.31867500  0.11598301  1
  Ce  Ce3  1  0.37328401  0.81867501  0.61598304  1
  Ge  Ge4  1  0.38287501  0.82908701  0.04459103  1
  Ge  Ge5  1  0.61712502  0.17091300  0.95540902  1
  Ge  Ge6  1  0.88287503  0.67091300  0.45540903  1
  Ge  Ge7  1  0.11712500  0.32908700  0.54459102  1
  Ir  Ir8  1  0.38817302  0.42338000  0.81021403  1
  Ge  Ge9  1  0.61182702  0.57662000  0.18978602  1
  Ir  Ir10  1  0.11182700  0.92338001  0.31021404  1
  Ir  Ir11  1  0.88817303  0.07662000  0.68978601  1
