# generated using pymatgen
data_CeCuAs
_symmetry_space_group_name_H-M   'P 1'
_cell_length_a   4.26987314
_cell_length_b   4.26987314
_cell_length_c   8.73492432
_cell_angle_alpha   90.00000000
_cell_angle_beta   90.00000000
_cell_angle_gamma   90.00000000
_symmetry_Int_Tables_number   1
_chemical_formula_structural   CeCuAs
_chemical_formula_sum   'Ce2 Cu2 As2'
_cell_volume   159.25353860
_cell_formula_units_Z   2
loop_
 _symmetry_equiv_pos_site_id
 _symmetry_equiv_pos_as_xyz
  1  'x, y, z'
loop_
 _atom_site_type_symbol
 _atom_site_label
 _atom_site_symmetry_multiplicity
 _atom_site_fract_x
 _atom_site_fract_y
 _atom_site_fract_z
 _atom_site_occupancy
  Ce  Ce0  1  0.00000000  0.49999998  0.16851299  1
  Ce  Ce1  1  0.49999998  0.00000000  0.83148697  1
  Cu  Cu2  1  0.49999998  0.00000000  0.45038598  1
  Cu  Cu3  1  0.00000000  0.49999998  0.54961398  1
  As  As4  1  0.00000000  0.49999998  0.83634697  1
  As  As5  1  0.49999998  0.00000000  0.16365299  1
