# generated using pymatgen
data_Ga5Pt3
_symmetry_space_group_name_H-M   'P 1'
_cell_length_a   4.01044607
_cell_length_b   4.75367403
_cell_length_c   10.72534561
_cell_angle_alpha   90.00000000
_cell_angle_beta   90.00000000
_cell_angle_gamma   90.00000000
_symmetry_Int_Tables_number   1
_chemical_formula_structural   Ga5Pt3
_chemical_formula_sum   'Ga5 Pt3'
_cell_volume   204.47177844
_cell_formula_units_Z   1
loop_
 _symmetry_equiv_pos_site_id
 _symmetry_equiv_pos_as_xyz
  1  'x, y, z'
loop_
 _atom_site_type_symbol
 _atom_site_label
 _atom_site_symmetry_multiplicity
 _atom_site_fract_x
 _atom_site_fract_y
 _atom_site_fract_z
 _atom_site_occupancy
  Ga  Ga0  1  0.49999999  0.37441300  0.62003102  1
  Ga  Ga1  1  0.49999999  0.62558700  0.37996901  1
  Ga  Ga2  1  0.00000000  0.87441299  0.87996903  1
  Ga  Ga3  1  0.00000000  0.12558700  0.12003100  1
  Pt  Pt4  1  0.49999999  0.53985500  0.84585103  1
  Ga  Ga5  1  0.49999999  0.46014500  0.15414901  1
  Pt  Pt6  1  0.00000000  0.03985500  0.65414902  1
  Pt  Pt7  1  -0.00000000  0.96014499  0.34585101  1
