# generated using pymatgen
data_LiMn3In(CuO4)3
_symmetry_space_group_name_H-M   'P 1'
_cell_length_a   6.46351480
_cell_length_b   6.52599096
_cell_length_c   6.52601862
_cell_angle_alpha   109.66374969
_cell_angle_beta   109.27856445
_cell_angle_gamma   109.27785492
_symmetry_Int_Tables_number   1
_chemical_formula_structural   LiMn3In(CuO4)3
_chemical_formula_sum   'Li1 Mn3 In1 Cu3 O12'
_cell_volume   212.40731518
_cell_formula_units_Z   1
loop_
 _symmetry_equiv_pos_site_id
 _symmetry_equiv_pos_as_xyz
  1  'x, y, z'
loop_
 _atom_site_type_symbol
 _atom_site_label
 _atom_site_symmetry_multiplicity
 _atom_site_fract_x
 _atom_site_fract_y
 _atom_site_fract_z
 _atom_site_occupancy
  Li  Li0  1  0.49998902  0.00000800  0.50001899  1
  Mn  Mn1  1  0.00000604  0.49998900  0.49999100  1
  Mn  Mn2  1  0.50000705  0.50000000  0.00001302  1
  Mn  Mn3  1  0.99999703  0.00001500  0.49999599  1
  In  In4  1  0.49998905  0.49999300  0.49999200  1
  Cu  Cu5  1  0.99998107  0.49998400  0.99999299  1
  Cu  Cu6  1  0.50000009  0.99999901  0.99999600  1
  Cu  Cu7  1  0.00000200  0.00000100  0.00000000  1
  O  O8  1  0.13193607  0.82400901  0.32709601  1
  O  O9  1  0.80488108  0.67295201  0.49691301  1
  O  O10  1  0.30793005  0.50309300  0.17598601  1
  O  O11  1  0.86806804  0.17599300  0.67290399  1
  O  O12  1  0.19512303  0.32705000  0.50308799  1
  O  O13  1  0.69207506  0.49690900  0.82401399  1
  O  O14  1  0.52527908  0.83772201  0.70270600  1
  O  O15  1  0.82258905  0.29730400  0.13502001  1
  O  O16  1  0.68760309  0.86500401  0.16232902  1
  O  O17  1  0.47472603  0.16228000  0.29729400  1
  O  O18  1  0.17741606  0.70269801  0.86497999  1
  O  O19  1  0.31240102  0.13499800  0.83767098  1
