# generated using pymatgen
data_In2TeSe2
_symmetry_space_group_name_H-M   'P 1'
_cell_length_a   4.23688889
_cell_length_b   6.26538277
_cell_length_c   7.45399809
_cell_angle_alpha   114.85163879
_cell_angle_beta   106.51118469
_cell_angle_gamma   90.00000000
_symmetry_Int_Tables_number   1
_chemical_formula_structural   In2TeSe2
_chemical_formula_sum   'In2 Te1 Se2'
_cell_volume   170.51477626
_cell_formula_units_Z   1
loop_
 _symmetry_equiv_pos_site_id
 _symmetry_equiv_pos_as_xyz
  1  'x, y, z'
loop_
 _atom_site_type_symbol
 _atom_site_label
 _atom_site_symmetry_multiplicity
 _atom_site_fract_x
 _atom_site_fract_y
 _atom_site_fract_z
 _atom_site_occupancy
  In  In0  1  0.00420800  0.01366500  0.00841600  1
  In  In1  1  0.32912504  0.33858302  0.65825100  1
  Te  Te2  1  0.50543107  0.74455504  0.01086204  1
  Se  Se3  1  0.82790205  0.06702700  0.65580501  1
  Se  Se4  1  0.16666703  0.41950536  0.33333334  1
