# generated using pymatgen
data_Pr2Ge5Ir3
_symmetry_space_group_name_H-M   'P 1'
_cell_length_a   5.89918613
_cell_length_b   8.55455875
_cell_length_c   8.55455875
_cell_angle_alpha   71.61805725
_cell_angle_beta   69.83054352
_cell_angle_gamma   69.83054352
_symmetry_Int_Tables_number   1
_chemical_formula_structural   Pr2Ge5Ir3
_chemical_formula_sum   'Pr4 Ge10 Ir6'
_cell_volume   370.80550327
_cell_formula_units_Z   2
loop_
 _symmetry_equiv_pos_site_id
 _symmetry_equiv_pos_as_xyz
  1  'x, y, z'
loop_
 _atom_site_type_symbol
 _atom_site_label
 _atom_site_symmetry_multiplicity
 _atom_site_fract_x
 _atom_site_fract_y
 _atom_site_fract_z
 _atom_site_occupancy
  Pr  Pr0  1  0.63621196  0.59560000  0.13197598  1
  Pr  Pr1  1  0.36378797  0.40440000  0.86802397  1
  Pr  Pr2  1  0.13621199  0.13197600  0.59559998  1
  Pr  Pr3  1  0.86378794  0.86802400  0.40439996  1
  Ge  Ge4  1  0.24999996  0.50000000  0.49999998  1
  Ge  Ge5  1  0.74999996  0.50000000  0.49999996  1
  Ge  Ge6  1  0.46143494  0.78856500  0.78856497  1
  Ge  Ge7  1  0.03856499  0.21143500  0.21143500  1
  Ge  Ge8  1  0.53856498  0.21143500  0.21143498  1
  Ge  Ge9  1  0.96143494  0.78856500  0.78856495  1
  Ge  Ge10  1  0.90801098  0.26098100  0.92299695  1
  Ge  Ge11  1  0.09198895  0.73901900  0.07700300  1
  Ge  Ge12  1  0.40800994  0.92299700  0.26098198  1
  Ge  Ge13  1  0.59198999  0.07700300  0.73901796  1
  Ir  Ir14  1  0.24999993  1.00000000  0.99999998  1
  Ir  Ir15  1  0.74999993  1.00000000  0.99999996  1
  Ir  Ir16  1  0.85480096  0.55062900  0.73976896  1
  Ir  Ir17  1  0.14519897  0.44937100  0.26023099  1
  Ir  Ir18  1  0.35479995  0.73976900  0.55062998  1
  Ir  Ir19  1  0.64519998  0.26023100  0.44936997  1
