# generated using pymatgen
data_CsTi2TeO4
_symmetry_space_group_name_H-M   'P 1'
_cell_length_a   5.97805309
_cell_length_b   6.09786844
_cell_length_c   8.52832031
_cell_angle_alpha   90.00015259
_cell_angle_beta   89.99974823
_cell_angle_gamma   89.86363983
_symmetry_Int_Tables_number   1
_chemical_formula_structural   CsTi2TeO4
_chemical_formula_sum   'Cs2 Ti4 Te2 O8'
_cell_volume   310.88523178
_cell_formula_units_Z   2
loop_
 _symmetry_equiv_pos_site_id
 _symmetry_equiv_pos_as_xyz
  1  'x, y, z'
loop_
 _atom_site_type_symbol
 _atom_site_label
 _atom_site_symmetry_multiplicity
 _atom_site_fract_x
 _atom_site_fract_y
 _atom_site_fract_z
 _atom_site_occupancy
  Cs  Cs0  1  0.99999908  0.99999899  0.49847896  1
  Cs  Cs1  1  0.49999904  0.50000000  0.00448999  1
  Ti  Ti2  1  0.00000203  0.50000000  0.75166398  1
  Te  Te3  1  0.50000001  0.00000100  0.24546297  1
  Ti  Ti4  1  0.50000004  0.50000100  0.49854997  1
  Ti  Ti5  1  0.50000401  0.00000300  0.75142595  1
  Ti  Ti6  1  0.00000000  0.00000000  0.00105800  1
  Te  Te7  1  0.00000103  0.50000200  0.24933600  1
  O  O8  1  0.00106201  0.24999700  0.12501700  1
  O  O9  1  0.49978605  0.74997099  0.62493597  1
  O  O10  1  0.25716803  0.50163600  0.36588498  1
  O  O11  1  0.74297007  0.99874099  0.88392995  1
  O  O12  1  0.74283104  0.49836000  0.36588496  1
  O  O13  1  0.25703200  0.00125600  0.88392796  1
  O  O14  1  0.99893706  0.75000399  0.12502096  1
  O  O15  1  0.50021002  0.25002800  0.62493296  1
