# generated using pymatgen
data_HoFeC2
_symmetry_space_group_name_H-M   'P 1'
_cell_length_a   3.62559605
_cell_length_b   3.76355958
_cell_length_c   3.76355958
_cell_angle_alpha   106.16912842
_cell_angle_beta   90.00000000
_cell_angle_gamma   90.00000000
_symmetry_Int_Tables_number   1
_chemical_formula_structural   HoFeC2
_chemical_formula_sum   'Ho1 Fe1 C2'
_cell_volume   49.32294443
_cell_formula_units_Z   1
loop_
 _symmetry_equiv_pos_site_id
 _symmetry_equiv_pos_as_xyz
  1  'x, y, z'
loop_
 _atom_site_type_symbol
 _atom_site_label
 _atom_site_symmetry_multiplicity
 _atom_site_fract_x
 _atom_site_fract_y
 _atom_site_fract_z
 _atom_site_occupancy
  Ho  Ho0  1  -0.00000000  0.00010900  0.99989100  1
  Fe  Fe1  1  0.49999999  0.61163400  0.38836599  1
  C  C2  1  0.49999999  0.45193400  0.85167599  1
  C  C3  1  0.49999999  0.14832400  0.54806600  1
