# generated using pymatgen
data_Ga9PdPt3
_symmetry_space_group_name_H-M   'P 1'
_cell_length_a   6.52699423
_cell_length_b   6.52699423
_cell_length_c   6.52699423
_cell_angle_alpha   109.47122192
_cell_angle_beta   109.47122192
_cell_angle_gamma   109.47122192
_symmetry_Int_Tables_number   1
_chemical_formula_structural   Ga9PdPt3
_chemical_formula_sum   'Ga9 Pd1 Pt3'
_cell_volume   214.05125304
_cell_formula_units_Z   1
loop_
 _symmetry_equiv_pos_site_id
 _symmetry_equiv_pos_as_xyz
  1  'x, y, z'
loop_
 _atom_site_type_symbol
 _atom_site_label
 _atom_site_symmetry_multiplicity
 _atom_site_fract_x
 _atom_site_fract_y
 _atom_site_fract_z
 _atom_site_occupancy
  Ga  Ga0  1  0.81202708  0.69174505  0.50377207  1
  Ga  Ga1  1  0.87971805  0.18797301  0.69174505  1
  Ga  Ga2  1  0.30825502  0.12028201  0.81202604  1
  Ga  Ga3  1  0.49622903  0.18797401  0.30825603  1
  Ga  Ga4  1  0.69174509  0.87971806  0.18797407  1
  Ga  Ga5  1  0.12028206  0.81202706  0.30825506  1
  Ga  Ga6  1  0.30825504  0.49622804  0.18797304  1
  Ga  Ga7  1  0.69174506  0.50377204  0.81202707  1
  Ga  Ga8  1  0.50377107  0.81202606  0.69174408  1
  Pd  Pd9  1  0.18797305  0.69174405  0.87971807  1
  Pt  Pt10  1  0.81202705  0.30825602  0.12028204  1
  Pt  Pt11  1  0.18797303  0.30825502  0.49622804  1
  Pt  Pt12  1  0.00000000  0.00000000  0.00000000  1
