# generated using pymatgen
data_Sr3LaNi7O5F3
_symmetry_space_group_name_H-M   'P 1'
_cell_length_a   5.22940779
_cell_length_b   5.22940779
_cell_length_c   7.66043186
_cell_angle_alpha   90.00000000
_cell_angle_beta   90.00000000
_cell_angle_gamma   90.00000000
_symmetry_Int_Tables_number   1
_chemical_formula_structural   Sr3LaNi7O5F3
_chemical_formula_sum   'Sr3 La1 Ni7 O5 F3'
_cell_volume   209.48757647
_cell_formula_units_Z   1
loop_
 _symmetry_equiv_pos_site_id
 _symmetry_equiv_pos_as_xyz
  1  'x, y, z'
loop_
 _atom_site_type_symbol
 _atom_site_label
 _atom_site_symmetry_multiplicity
 _atom_site_fract_x
 _atom_site_fract_y
 _atom_site_fract_z
 _atom_site_occupancy
  Sr  Sr0  1  0.31084301  0.18908801  0.50000001  1
  Sr  Sr1  1  0.74810803  0.73671303  -0.00000000  1
  Sr  Sr2  1  0.68915703  0.81091203  0.50000001  1
  La  La3  1  0.25189201  0.26328701  0.00000000  1
  Ni  Ni4  1  0.18908801  0.68915703  0.50000001  1
  Ni  Ni5  1  0.73671303  0.25189201  -0.00000000  1
  Ni  Ni6  1  0.81091203  0.31084301  0.50000001  1
  Ni  Ni7  1  0.26328701  0.74810803  -0.00000000  1
  Ni  Ni8  1  0.50000002  0.50000002  0.24815000  1
  Ni  Ni9  1  0.00000000  0.00000000  0.75145801  1
  F  F10  1  0.00000000  0.00000000  0.24854200  1
  Ni  Ni11  1  0.50000002  0.50000002  0.75185001  1
  O  O12  1  0.00000000  0.50000002  0.23409000  1
  O  O13  1  0.50000002  0.00000000  0.76591001  1
  O  O14  1  0.50000002  0.00000000  0.23409000  1
  F  F15  1  0.00000000  0.50000002  0.76591001  1
  O  O16  1  0.00000000  0.00000000  0.50000001  1
  F  F17  1  0.00000000  0.00000000  0.00000000  1
  O  O18  1  0.50000002  0.50000002  0.50000001  1
