# generated using pymatgen
data_SmSb2
_symmetry_space_group_name_H-M   'P 1'
_cell_length_a   4.43030930
_cell_length_b   4.43030930
_cell_length_c   18.10271835
_cell_angle_alpha   90.00000000
_cell_angle_beta   90.00000000
_cell_angle_gamma   90.67053986
_symmetry_Int_Tables_number   1
_chemical_formula_structural   SmSb2
_chemical_formula_sum   'Sm4 Sb8'
_cell_volume   355.28931493
_cell_formula_units_Z   4
loop_
 _symmetry_equiv_pos_site_id
 _symmetry_equiv_pos_as_xyz
  1  'x, y, z'
loop_
 _atom_site_type_symbol
 _atom_site_label
 _atom_site_symmetry_multiplicity
 _atom_site_fract_x
 _atom_site_fract_y
 _atom_site_fract_z
 _atom_site_occupancy
  Sm  Sm0  1  0.36369401  0.36369399  0.11086100  1
  Sm  Sm1  1  0.63630602  0.63630598  0.88913898  1
  Sm  Sm2  1  0.13630600  0.13630600  0.61086099  1
  Sm  Sm3  1  0.86369402  0.86369397  0.38913899  1
  Sb  Sb4  1  0.36700901  0.36700899  0.43616299  1
  Sb  Sb5  1  0.63299102  0.63299098  0.56383699  1
  Sb  Sb6  1  0.13299100  0.13299100  0.93616298  1
  Sb  Sb7  1  0.86700902  0.86700897  0.06383700  1
  Sb  Sb8  1  0.87368299  0.37368299  0.25000000  1
  Sb  Sb9  1  0.62631699  0.12631700  0.74999999  1
  Sb  Sb10  1  0.12631704  0.62631698  0.74999999  1
  Sb  Sb11  1  0.37368304  0.87368297  0.25000000  1
