# generated using pymatgen
data_GePd3
_symmetry_space_group_name_H-M   'P 1'
_cell_length_a   5.19889498
_cell_length_b   5.20215321
_cell_length_c   10.39360809
_cell_angle_alpha   90.00000000
_cell_angle_beta   90.00000000
_cell_angle_gamma   90.00000000
_symmetry_Int_Tables_number   1
_chemical_formula_structural   GePd3
_chemical_formula_sum   'Ge4 Pd12'
_cell_volume   281.09978903
_cell_formula_units_Z   4
loop_
 _symmetry_equiv_pos_site_id
 _symmetry_equiv_pos_as_xyz
  1  'x, y, z'
loop_
 _atom_site_type_symbol
 _atom_site_label
 _atom_site_symmetry_multiplicity
 _atom_site_fract_x
 _atom_site_fract_y
 _atom_site_fract_z
 _atom_site_occupancy
  Ge  Ge0  1  0.50000000  0.00000000  0.37510100  1
  Ge  Ge1  1  0.50000000  0.00000000  0.87495899  1
  Pd  Pd2  1  0.75068400  0.49999998  0.00000000  1
  Ge  Ge3  1  0.75006400  0.49999998  0.50000000  1
  Ge  Ge4  1  0.00000000  0.74969597  0.25022800  1
  Pd  Pd5  1  0.00000000  0.74969597  0.74977199  1
  Pd  Pd6  1  0.50000000  0.00000000  0.12504100  1
  Pd  Pd7  1  0.50000000  0.00000000  0.62489899  1
  Pd  Pd8  1  0.24931600  0.49999998  0.00000000  1
  Pd  Pd9  1  0.24993600  0.49999998  0.50000000  1
  Pd  Pd10  1  0.00000000  0.25030399  0.25022800  1
  Pd  Pd11  1  0.00000000  0.25030399  0.74977199  1
  Pd  Pd12  1  0.50000000  0.49999998  0.25013700  1
  Pd  Pd13  1  0.50000000  0.49999998  0.74986299  1
  Pd  Pd14  1  0.00000000  0.00000000  0.00000000  1
  Pd  Pd15  1  0.00000000  0.00000000  0.50000000  1
