# generated using pymatgen
data_Nd2CuGe4
_symmetry_space_group_name_H-M   'P 1'
_cell_length_a   4.11044693
_cell_length_b   4.14621019
_cell_length_c   8.81321049
_cell_angle_alpha   103.60501099
_cell_angle_beta   90.00000000
_cell_angle_gamma   90.00000000
_symmetry_Int_Tables_number   1
_chemical_formula_structural   Nd2CuGe4
_chemical_formula_sum   'Nd2 Cu1 Ge4'
_cell_volume   145.98698915
_cell_formula_units_Z   1
loop_
 _symmetry_equiv_pos_site_id
 _symmetry_equiv_pos_as_xyz
  1  'x, y, z'
loop_
 _atom_site_type_symbol
 _atom_site_label
 _atom_site_symmetry_multiplicity
 _atom_site_fract_x
 _atom_site_fract_y
 _atom_site_fract_z
 _atom_site_occupancy
  Nd  Nd0  1  0.25000000  0.10745800  0.21491501  1
  Nd  Nd1  1  0.75000001  0.89596096  0.79192204  1
  Cu  Cu2  1  0.25000000  0.32128599  0.64257203  1
  Ge  Ge3  1  0.25000000  0.46027298  0.92054504  1
  Ge  Ge4  1  0.75000001  0.54786298  0.09572601  1
  Ge  Ge5  1  0.25000000  0.74186997  0.48373903  1
  Ge  Ge6  1  0.75000001  0.24328999  0.48658102  1
