# generated using pymatgen
data_Mn2P3O7
_symmetry_space_group_name_H-M   'P 1'
_cell_length_a   4.74896908
_cell_length_b   5.33040142
_cell_length_c   5.33040142
_cell_angle_alpha   118.37199402
_cell_angle_beta   90.00000000
_cell_angle_gamma   90.00000000
_symmetry_Int_Tables_number   1
_chemical_formula_structural   Mn2P3O7
_chemical_formula_sum   'Mn2 P3 O7'
_cell_volume   118.72524910
_cell_formula_units_Z   1
loop_
 _symmetry_equiv_pos_site_id
 _symmetry_equiv_pos_as_xyz
  1  'x, y, z'
loop_
 _atom_site_type_symbol
 _atom_site_label
 _atom_site_symmetry_multiplicity
 _atom_site_fract_x
 _atom_site_fract_y
 _atom_site_fract_z
 _atom_site_occupancy
  Mn  Mn0  1  0.49844399  0.99379303  0.32513600  1
  Mn  Mn1  1  0.49844399  0.32513601  0.99379303  1
  P  P2  1  0.99844398  0.00620700  0.67486402  1
  P  P3  1  0.99844398  0.67486402  0.00620700  1
  P  P4  1  0.50148899  0.65375002  0.65375001  1
  O  O5  1  0.00148900  0.34625001  0.34625001  1
  O  O6  1  0.65882399  0.38700001  0.38700001  1
  O  O7  1  0.15882400  0.61300002  0.61300001  1
  O  O8  1  0.58089899  0.66640302  0.94449702  1
  O  O9  1  0.58089899  0.94449703  0.66640301  1
  O  O10  1  0.08089900  0.33359701  0.05550300  1
  O  O11  1  0.08089900  0.05550300  0.33359701  1
