# generated using pymatgen
data_BeAl
_symmetry_space_group_name_H-M   'P 1'
_cell_length_a   2.71487093
_cell_length_b   2.71487093
_cell_length_c   5.24590206
_cell_angle_alpha   90.00000000
_cell_angle_beta   90.00000000
_cell_angle_gamma   90.00000000
_symmetry_Int_Tables_number   1
_chemical_formula_structural   BeAl
_chemical_formula_sum   'Be2 Al2'
_cell_volume   38.66504791
_cell_formula_units_Z   2
loop_
 _symmetry_equiv_pos_site_id
 _symmetry_equiv_pos_as_xyz
  1  'x, y, z'
loop_
 _atom_site_type_symbol
 _atom_site_label
 _atom_site_symmetry_multiplicity
 _atom_site_fract_x
 _atom_site_fract_y
 _atom_site_fract_z
 _atom_site_occupancy
  Al  Al0  1  0.00000000  0.00000000  0.00000000  1
  Be  Be1  1  0.50000001  0.50000001  0.24498900  1
  Be  Be2  1  0.50000001  0.50000001  0.75501099  1
  Al  Al3  1  0.00000000  0.00000000  0.49999999  1
