# generated using pymatgen
data_Ca(AlSi)2
_symmetry_space_group_name_H-M   'P 1'
_cell_length_a   4.20100403
_cell_length_b   4.20100403
_cell_length_c   7.05858994
_cell_angle_alpha   90.00000000
_cell_angle_beta   90.00000000
_cell_angle_gamma   120.00000000
_symmetry_Int_Tables_number   1
_chemical_formula_structural   Ca(AlSi)2
_chemical_formula_sum   'Ca1 Al2 Si2'
_cell_volume   107.88343855
_cell_formula_units_Z   1
loop_
 _symmetry_equiv_pos_site_id
 _symmetry_equiv_pos_as_xyz
  1  'x, y, z'
loop_
 _atom_site_type_symbol
 _atom_site_label
 _atom_site_symmetry_multiplicity
 _atom_site_fract_x
 _atom_site_fract_y
 _atom_site_fract_z
 _atom_site_occupancy
  Ca  Ca0  1  0.00000000  0.00000000  0.00000000  1
  Al  Al1  1  0.33333331  0.66666663  0.63254501  1
  Al  Al2  1  0.66666665  0.33333331  0.36745500  1
  Si  Si3  1  0.33333331  0.66666663  0.26654300  1
  Si  Si4  1  0.66666665  0.33333331  0.73345701  1
