# generated using pymatgen
data_CsTiBr3
_symmetry_space_group_name_H-M   'P 1'
_cell_length_a   6.40097904
_cell_length_b   8.31980419
_cell_length_c   8.31981945
_cell_angle_alpha   119.99993896
_cell_angle_beta   90.00000000
_cell_angle_gamma   90.00000000
_symmetry_Int_Tables_number   1
_chemical_formula_structural   CsTiBr3
_chemical_formula_sum   'Cs2 Ti2 Br6'
_cell_volume   383.71105431
_cell_formula_units_Z   2
loop_
 _symmetry_equiv_pos_site_id
 _symmetry_equiv_pos_as_xyz
  1  'x, y, z'
loop_
 _atom_site_type_symbol
 _atom_site_label
 _atom_site_symmetry_multiplicity
 _atom_site_fract_x
 _atom_site_fract_y
 _atom_site_fract_z
 _atom_site_occupancy
  Cs  Cs0  1  0.24903300  0.33333333  0.66666672  1
  Cs  Cs1  1  0.74903300  0.66666667  0.33333338  1
  Ti  Ti2  1  0.52994000  0.99999800  0.99999610  1
  Ti  Ti3  1  0.02994000  0.00000200  0.00000400  1
  Br  Br4  1  0.75721100  0.67858500  0.83930108  1
  Br  Br5  1  0.75720500  0.16070300  0.32140603  1
  Br  Br6  1  0.75721100  0.16071600  0.83930105  1
  Br  Br7  1  0.25721100  0.32141500  0.16069902  1
  Br  Br8  1  0.25720500  0.83929700  0.67859408  1
  Br  Br9  1  0.25721100  0.83928400  0.16069905  1
