# generated using pymatgen
data_Lu2AlFe3
_symmetry_space_group_name_H-M   'P 1'
_cell_length_a   5.24515390
_cell_length_b   5.24515343
_cell_length_c   8.25623035
_cell_angle_alpha   90.00000000
_cell_angle_beta   90.00000000
_cell_angle_gamma   120.00000000
_symmetry_Int_Tables_number   1
_chemical_formula_structural   Lu2AlFe3
_chemical_formula_sum   'Lu4 Al2 Fe6'
_cell_volume   196.71109932
_cell_formula_units_Z   2
loop_
 _symmetry_equiv_pos_site_id
 _symmetry_equiv_pos_as_xyz
  1  'x, y, z'
loop_
 _atom_site_type_symbol
 _atom_site_label
 _atom_site_symmetry_multiplicity
 _atom_site_fract_x
 _atom_site_fract_y
 _atom_site_fract_z
 _atom_site_occupancy
  Lu  Lu0  1  0.66666666  0.33333332  0.56045798  1
  Lu  Lu1  1  0.33333329  0.66666665  0.43954198  1
  Lu  Lu2  1  0.33333329  0.66666665  0.06045800  1
  Lu  Lu3  1  0.66666666  0.33333332  0.93954196  1
  Al  Al4  1  0.17071098  0.34142199  0.74999997  1
  Al  Al5  1  0.17071095  0.82928798  0.74999997  1
  Fe  Fe6  1  0.65857696  0.82928798  0.74999997  1
  Fe  Fe7  1  0.82928897  0.65857798  0.24999999  1
  Fe  Fe8  1  0.82928900  0.17071200  0.24999999  1
  Fe  Fe9  1  0.34142299  0.17071200  0.24999999  1
  Fe  Fe10  1  0.00000000  0.00000000  0.49999998  1
  Fe  Fe11  1  0.00000000  0.00000000  0.00000000  1
