# generated using pymatgen
data_Mn2O3F
_symmetry_space_group_name_H-M   'P 1'
_cell_length_a   4.56448221
_cell_length_b   5.46589661
_cell_length_c   7.52851152
_cell_angle_alpha   86.05482483
_cell_angle_beta   88.73389435
_cell_angle_gamma   88.04432678
_symmetry_Int_Tables_number   1
_chemical_formula_structural   Mn2O3F
_chemical_formula_sum   'Mn6 O9 F3'
_cell_volume   187.23776983
_cell_formula_units_Z   3
loop_
 _symmetry_equiv_pos_site_id
 _symmetry_equiv_pos_as_xyz
  1  'x, y, z'
loop_
 _atom_site_type_symbol
 _atom_site_label
 _atom_site_symmetry_multiplicity
 _atom_site_fract_x
 _atom_site_fract_y
 _atom_site_fract_z
 _atom_site_occupancy
  Mn  Mn0  1  0.49482999  0.49598501  0.99821899  1
  Mn  Mn1  1  0.51431300  0.84290002  0.67103801  1
  Mn  Mn2  1  0.51563598  0.17646300  0.33972499  1
  Mn  Mn3  1  0.99681596  0.32635901  0.67153197  1
  Mn  Mn4  1  0.97762597  0.65356001  0.32338099  1
  Mn  Mn5  1  0.99535295  0.00021100  0.99446695  1
  O  O6  1  0.80422797  0.36627801  0.43881998  1
  O  O7  1  0.80835596  0.03877700  0.76936796  1
  O  O8  1  0.80257198  0.70485001  0.09800400  1
  O  O9  1  0.69448697  0.20371400  0.10363499  1
  O  O10  1  0.69405098  0.53645901  0.76802599  1
  O  O11  1  0.69818099  0.87172202  0.43474101  1
  O  O12  1  0.30489599  0.12892000  0.56446198  1
  O  O13  1  0.30679700  0.46576101  0.23307301  1
  O  O14  1  0.30577901  0.79636902  0.89760800  1
  F  F15  1  0.19279100  0.29358701  0.89813199  1
  F  F16  1  0.19285001  0.63091801  0.56185101  1
  F  F17  1  0.20043902  0.96716602  0.23392103  1
