# generated using pymatgen
data_Rb2GaPbI6
_symmetry_space_group_name_H-M   'P 1'
_cell_length_a   8.23789406
_cell_length_b   8.23789406
_cell_length_c   8.23789406
_cell_angle_alpha   60.00000000
_cell_angle_beta   60.00000000
_cell_angle_gamma   60.00000000
_symmetry_Int_Tables_number   1
_chemical_formula_structural   Rb2GaPbI6
_chemical_formula_sum   'Rb2 Ga1 Pb1 I6'
_cell_volume   395.30618523
_cell_formula_units_Z   1
loop_
 _symmetry_equiv_pos_site_id
 _symmetry_equiv_pos_as_xyz
  1  'x, y, z'
loop_
 _atom_site_type_symbol
 _atom_site_label
 _atom_site_symmetry_multiplicity
 _atom_site_fract_x
 _atom_site_fract_y
 _atom_site_fract_z
 _atom_site_occupancy
  Rb  Rb0  1  0.25000001  0.25000001  0.25000001  1
  Rb  Rb1  1  0.75000003  0.75000003  0.75000003  1
  Ga  Ga2  1  0.50000002  0.50000002  0.50000002  1
  Pb  Pb3  1  0.00000000  0.00000000  0.00000000  1
  I  I4  1  0.24656001  0.75344003  0.24656001  1
  I  I5  1  0.24656001  0.24656001  0.75344003  1
  I  I6  1  0.75344003  0.24656001  0.75344003  1
  I  I7  1  0.24656001  0.75344003  0.75344003  1
  I  I8  1  0.75344003  0.24656001  0.24656001  1
  I  I9  1  0.75344003  0.75344003  0.24656001  1
