# generated using pymatgen
data_Y3MgInGe3
_symmetry_space_group_name_H-M   'P 1'
_cell_length_a   4.46154022
_cell_length_b   5.63370085
_cell_length_c   7.35725307
_cell_angle_alpha   89.91035461
_cell_angle_beta   90.00000000
_cell_angle_gamma   90.00000000
_symmetry_Int_Tables_number   1
_chemical_formula_structural   Y3MgInGe3
_chemical_formula_sum   'Y3 Mg1 In1 Ge3'
_cell_volume   184.92420411
_cell_formula_units_Z   1
loop_
 _symmetry_equiv_pos_site_id
 _symmetry_equiv_pos_as_xyz
  1  'x, y, z'
loop_
 _atom_site_type_symbol
 _atom_site_label
 _atom_site_symmetry_multiplicity
 _atom_site_fract_x
 _atom_site_fract_y
 _atom_site_fract_z
 _atom_site_occupancy
  Y  Y0  1  0.00000000  0.62798302  0.32526798  1
  Y  Y1  1  0.00000000  0.87581902  0.81563697  1
  Y  Y2  1  0.49999998  0.36723001  0.67369199  1
  Mg  Mg3  1  0.49999998  0.12820100  0.18660800  1
  In  In4  1  -0.00000000  0.38467901  0.96557398  1
  Ge  Ge5  1  0.49999998  0.88134702  0.53447198  1
  Ge  Ge6  1  0.49999998  0.61709102  0.03315299  1
  Ge  Ge7  1  0.00000000  0.11765000  0.46559599  1
