# generated using pymatgen
data_MnGeSe2
_symmetry_space_group_name_H-M   'P 1'
_cell_length_a   5.74960613
_cell_length_b   7.33919287
_cell_length_c   7.65920877
_cell_angle_alpha   90.00000000
_cell_angle_beta   90.00000000
_cell_angle_gamma   90.00000000
_symmetry_Int_Tables_number   1
_chemical_formula_structural   MnGeSe2
_chemical_formula_sum   'Mn4 Ge4 Se8'
_cell_volume   323.19921960
_cell_formula_units_Z   4
loop_
 _symmetry_equiv_pos_site_id
 _symmetry_equiv_pos_as_xyz
  1  'x, y, z'
loop_
 _atom_site_type_symbol
 _atom_site_label
 _atom_site_symmetry_multiplicity
 _atom_site_fract_x
 _atom_site_fract_y
 _atom_site_fract_z
 _atom_site_occupancy
  Mn  Mn0  1  0.53960199  0.61652201  0.63370702  1
  Mn  Mn1  1  0.03960200  0.88347802  0.36629301  1
  Mn  Mn2  1  0.46039799  0.11652200  0.86629303  1
  Mn  Mn3  1  0.96039798  0.38347801  0.13370700  1
  Ge  Ge4  1  0.46039799  0.38347801  0.36629301  1
  Ge  Ge5  1  0.96039798  0.11652200  0.63370702  1
  Ge  Ge6  1  0.53960199  0.88347802  0.13370700  1
  Ge  Ge7  1  0.03960200  0.61652201  0.86629303  1
  Se  Se8  1  0.13677400  0.07384900  0.10151300  1
  Se  Se9  1  0.63677399  0.42615101  0.89848703  1
  Se  Se10  1  0.86322598  0.57384901  0.39848701  1
  Se  Se11  1  0.36322599  0.92615102  0.60151302  1
  Se  Se12  1  0.86322598  0.92615102  0.89848703  1
  Se  Se13  1  0.36322599  0.57384901  0.10151300  1
  Se  Se14  1  0.13677400  0.42615101  0.60151302  1
  Se  Se15  1  0.63677399  0.07384900  0.39848701  1
