# generated using pymatgen
data_HfCoGe
_symmetry_space_group_name_H-M   'P 1'
_cell_length_a   3.88783097
_cell_length_b   6.45564890
_cell_length_c   7.28867102
_cell_angle_alpha   90.00000000
_cell_angle_beta   90.00000000
_cell_angle_gamma   90.00000000
_symmetry_Int_Tables_number   1
_chemical_formula_structural   HfCoGe
_chemical_formula_sum   'Hf4 Co4 Ge4'
_cell_volume   182.93450352
_cell_formula_units_Z   4
loop_
 _symmetry_equiv_pos_site_id
 _symmetry_equiv_pos_as_xyz
  1  'x, y, z'
loop_
 _atom_site_type_symbol
 _atom_site_label
 _atom_site_symmetry_multiplicity
 _atom_site_fract_x
 _atom_site_fract_y
 _atom_site_fract_z
 _atom_site_occupancy
  Hf  Hf0  1  0.25000000  0.51193301  0.69031000  1
  Hf  Hf1  1  0.75000001  0.48806701  0.30969000  1
  Hf  Hf2  1  0.25000000  0.01193300  0.80969000  1
  Hf  Hf3  1  0.75000001  0.98806702  0.19031000  1
  Co  Co4  1  0.75000001  0.83379301  0.57521100  1
  Co  Co5  1  0.25000000  0.16620700  0.42478900  1
  Co  Co6  1  0.75000001  0.33379301  0.92478900  1
  Co  Co7  1  0.25000000  0.66620701  0.07521100  1
  Ge  Ge8  1  0.25000000  0.27760600  0.10436800  1
  Ge  Ge9  1  0.75000001  0.72239401  0.89563200  1
  Ge  Ge10  1  0.25000000  0.77760601  0.39563200  1
  Ge  Ge11  1  0.75000001  0.22239400  0.60436800  1
