# generated using pymatgen
data_YCuSb
_symmetry_space_group_name_H-M   'P 1'
_cell_length_a   4.48212194
_cell_length_b   4.48212147
_cell_length_c   7.36955881
_cell_angle_alpha   90.00000000
_cell_angle_beta   90.00000000
_cell_angle_gamma   120.00000000
_symmetry_Int_Tables_number   1
_chemical_formula_structural   YCuSb
_chemical_formula_sum   'Y2 Cu2 Sb2'
_cell_volume   128.21516948
_cell_formula_units_Z   2
loop_
 _symmetry_equiv_pos_site_id
 _symmetry_equiv_pos_as_xyz
  1  'x, y, z'
loop_
 _atom_site_type_symbol
 _atom_site_label
 _atom_site_symmetry_multiplicity
 _atom_site_fract_x
 _atom_site_fract_y
 _atom_site_fract_z
 _atom_site_occupancy
  Y  Y0  1  0.00000000  0.00000000  0.46578701  1
  Y  Y1  1  0.00000000  0.00000000  0.96578702  1
  Cu  Cu2  1  0.33333329  0.66666666  0.67259502  1
  Cu  Cu3  1  0.66666665  0.33333333  0.17259500  1
  Sb  Sb4  1  0.66666665  0.33333333  0.75251802  1
  Sb  Sb5  1  0.33333329  0.66666666  0.25251801  1
