# generated using pymatgen
data_Li2TiMn2O5
_symmetry_space_group_name_H-M   'P 1'
_cell_length_a   5.29868603
_cell_length_b   5.30278778
_cell_length_c   7.86104965
_cell_angle_alpha   82.21659088
_cell_angle_beta   70.79951477
_cell_angle_gamma   67.62801361
_symmetry_Int_Tables_number   1
_chemical_formula_structural   Li2TiMn2O5
_chemical_formula_sum   'Li4 Ti2 Mn4 O10'
_cell_volume   192.87807751
_cell_formula_units_Z   2
loop_
 _symmetry_equiv_pos_site_id
 _symmetry_equiv_pos_as_xyz
  1  'x, y, z'
loop_
 _atom_site_type_symbol
 _atom_site_label
 _atom_site_symmetry_multiplicity
 _atom_site_fract_x
 _atom_site_fract_y
 _atom_site_fract_z
 _atom_site_occupancy
  Li  Li0  1  0.30469797  0.51163502  0.40220703  1
  Li  Li1  1  0.69590197  0.49708402  0.60294904  1
  Li  Li2  1  0.61288899  0.00884700  0.79792801  1
  Li  Li3  1  0.99960695  0.99706703  0.99598707  1
  Ti  Ti4  1  0.09377698  0.49187902  0.80107103  1
  Ti  Ti5  1  0.78940095  0.99385403  0.41089306  1
  Mn  Mn6  1  0.20583700  0.00047800  0.60719001  1
  Mn  Mn7  1  0.40711795  0.99665503  0.18902606  1
  Mn  Mn8  1  0.90584397  0.49726302  0.20040403  1
  Mn  Mn9  1  0.49547197  0.50588702  0.00226703  1
  O  O10  1  0.65198198  0.25292201  0.21031402  1
  O  O11  1  0.57637196  0.76876003  0.40177905  1
  O  O12  1  0.87076398  0.27959801  0.79910303  1
  O  O13  1  0.03958399  0.20800201  0.39872201  1
  O  O14  1  0.12107796  0.75753403  0.21613004  1
  O  O15  1  0.75945296  0.74719503  0.98524105  1
  O  O16  1  0.94389096  0.75351003  0.59964405  1
  O  O17  1  0.25246599  0.25664301  0.98096802  1
  O  O18  1  0.45404598  0.25170001  0.59721702  1
  O  O19  1  0.31981596  0.72348903  0.80095905  1
