# generated using pymatgen
data_Zr2UC
_symmetry_space_group_name_H-M   'P 1'
_cell_length_a   3.54416609
_cell_length_b   3.54416609
_cell_length_c   13.75339985
_cell_angle_alpha   90.00000000
_cell_angle_beta   90.00000000
_cell_angle_gamma   120.00000000
_symmetry_Int_Tables_number   1
_chemical_formula_structural   Zr2UC
_chemical_formula_sum   'Zr4 U2 C2'
_cell_volume   149.61282815
_cell_formula_units_Z   2
loop_
 _symmetry_equiv_pos_site_id
 _symmetry_equiv_pos_as_xyz
  1  'x, y, z'
loop_
 _atom_site_type_symbol
 _atom_site_label
 _atom_site_symmetry_multiplicity
 _atom_site_fract_x
 _atom_site_fract_y
 _atom_site_fract_z
 _atom_site_occupancy
  Zr  Zr0  1  0.66666666  0.33333335  0.25000000  1
  Zr  Zr1  1  0.33333335  0.66666670  0.75000001  1
  Zr  Zr2  1  0.00000000  0.00000000  0.00000000  1
  Zr  Zr3  1  0.00000000  0.00000000  0.50000001  1
  U  U4  1  0.66666666  0.33333335  0.58180601  1
  U  U5  1  0.66666666  0.33333335  0.91819401  1
  C  C6  1  0.33333335  0.66666670  0.41819400  1
  C  C7  1  0.33333335  0.66666670  0.08180600  1
