# generated using pymatgen
data_La2EuS4
_symmetry_space_group_name_H-M   'P 1'
_cell_length_a   7.55002546
_cell_length_b   7.55002546
_cell_length_c   7.55002546
_cell_angle_alpha   109.34386444
_cell_angle_beta   109.53493500
_cell_angle_gamma   109.53493500
_symmetry_Int_Tables_number   1
_chemical_formula_structural   La2EuS4
_chemical_formula_sum   'La4 Eu2 S8'
_cell_volume   331.30024928
_cell_formula_units_Z   2
loop_
 _symmetry_equiv_pos_site_id
 _symmetry_equiv_pos_as_xyz
  1  'x, y, z'
loop_
 _atom_site_type_symbol
 _atom_site_label
 _atom_site_symmetry_multiplicity
 _atom_site_fract_x
 _atom_site_fract_y
 _atom_site_fract_z
 _atom_site_occupancy
  La  La0  1  0.88226399  0.37500000  0.75726399  1
  La  La1  1  0.11773595  0.87500001  0.49273601  1
  La  La2  1  0.38226398  0.50726401  0.62500000  1
  La  La3  1  0.61773600  0.24273600  0.12499998  1
  Eu  Eu4  1  0.49999997  0.75000001  0.24999999  1
  Eu  Eu5  1  0.00000000  0.00000000  0.00000000  1
  S  S6  1  0.25256399  0.26955500  0.86447502  1
  S  S7  1  0.75256398  0.61447501  0.51955499  1
  S  S8  1  0.40508000  0.13552500  0.38808900  1
  S  S9  1  0.74743598  0.61191101  0.01699097  1
  S  S10  1  0.09491998  0.48044500  0.23300900  1
  S  S11  1  0.59491996  0.98300901  0.73044500  1
  S  S12  1  0.90508001  0.13808900  0.38552498  1
  S  S13  1  0.24743596  0.76699101  0.86191102  1
