# generated using pymatgen
data_SmAgPb
_symmetry_space_group_name_H-M   'P 1'
_cell_length_a   4.85058784
_cell_length_b   4.85058832
_cell_length_c   7.51047802
_cell_angle_alpha   90.00000000
_cell_angle_beta   90.00000000
_cell_angle_gamma   120.00000000
_symmetry_Int_Tables_number   1
_chemical_formula_structural   SmAgPb
_chemical_formula_sum   'Sm2 Ag2 Pb2'
_cell_volume   153.03367304
_cell_formula_units_Z   2
loop_
 _symmetry_equiv_pos_site_id
 _symmetry_equiv_pos_as_xyz
  1  'x, y, z'
loop_
 _atom_site_type_symbol
 _atom_site_label
 _atom_site_symmetry_multiplicity
 _atom_site_fract_x
 _atom_site_fract_y
 _atom_site_fract_z
 _atom_site_occupancy
  Sm  Sm0  1  0.00000000  0.00000000  0.26867800  1
  Sm  Sm1  1  0.00000000  0.00000000  0.76867800  1
  Ag  Ag2  1  0.33333339  0.66666671  0.47090000  1
  Ag  Ag3  1  0.66666671  0.33333336  0.97090000  1
  Pb  Pb4  1  0.66666671  0.33333336  0.54242200  1
  Pb  Pb5  1  0.33333339  0.66666671  0.04242200  1
