# generated using pymatgen
data_Mg3(AlIr2)2
_symmetry_space_group_name_H-M   'P 1'
_cell_length_a   7.06671715
_cell_length_b   7.17823982
_cell_length_c   7.17824078
_cell_angle_alpha   60.00000381
_cell_angle_beta   90.00000000
_cell_angle_gamma   90.00000000
_symmetry_Int_Tables_number   1
_chemical_formula_structural   Mg3(AlIr2)2
_chemical_formula_sum   'Mg6 Al4 Ir8'
_cell_volume   315.34383318
_cell_formula_units_Z   2
loop_
 _symmetry_equiv_pos_site_id
 _symmetry_equiv_pos_as_xyz
  1  'x, y, z'
loop_
 _atom_site_type_symbol
 _atom_site_label
 _atom_site_symmetry_multiplicity
 _atom_site_fract_x
 _atom_site_fract_y
 _atom_site_fract_z
 _atom_site_occupancy
  Mg  Mg0  1  0.74999998  0.61405801  0.97634800  1
  Mg  Mg1  1  0.24999999  0.02365200  0.38594200  1
  Mg  Mg2  1  0.24999999  0.59040601  0.02365201  1
  Mg  Mg3  1  0.24999999  0.38594201  0.59040600  1
  Mg  Mg4  1  0.74999998  0.40959401  0.61405800  1
  Mg  Mg5  1  0.74999998  0.97634802  0.40959401  1
  Al  Al6  1  0.00000000  0.00000000  0.73206899  1
  Al  Al7  1  0.49999999  0.00000000  0.73206899  1
  Al  Al8  1  0.49999999  0.73206901  0.26793101  1
  Al  Al9  1  0.00000000  0.73206901  0.26793101  1
  Ir  Ir10  1  0.99999998  0.26793101  0.00000000  1
  Ir  Ir11  1  0.49999999  0.26793101  0.00000000  1
  Ir  Ir12  1  0.46741399  0.66666668  0.66666667  1
  Ir  Ir13  1  0.24999999  0.00000000  0.00000000  1
  Ir  Ir14  1  0.03258600  0.66666668  0.66666667  1
  Ir  Ir15  1  0.96741398  0.33333334  0.33333333  1
  Ir  Ir16  1  0.53258599  0.33333334  0.33333333  1
  Ir  Ir17  1  0.74999998  0.00000000  0.00000000  1
