# generated using pymatgen
data_Tl2RhF5
_symmetry_space_group_name_H-M   'P 1'
_cell_length_a   6.40770817
_cell_length_b   6.40770817
_cell_length_c   6.40770817
_cell_angle_alpha   60.00000000
_cell_angle_beta   60.00000000
_cell_angle_gamma   60.00000000
_symmetry_Int_Tables_number   1
_chemical_formula_structural   Tl2RhF5
_chemical_formula_sum   'Tl2 Rh1 F5'
_cell_volume   186.03436421
_cell_formula_units_Z   1
loop_
 _symmetry_equiv_pos_site_id
 _symmetry_equiv_pos_as_xyz
  1  'x, y, z'
loop_
 _atom_site_type_symbol
 _atom_site_label
 _atom_site_symmetry_multiplicity
 _atom_site_fract_x
 _atom_site_fract_y
 _atom_site_fract_z
 _atom_site_occupancy
  Tl  Tl0  1  0.50000001  0.50000001  0.50000001  1
  Tl  Tl1  1  0.50000001  0.50000001  -0.00000000  1
  Rh  Rh2  1  -0.00000000  0.50000001  0.50000001  1
  F  F3  1  -0.00000000  0.50000001  1.00000002  1
  F  F4  1  -0.00000000  1.00000002  0.50000001  1
  F  F5  1  0.50000001  0.00000000  1.00000002  1
  F  F6  1  0.50000001  1.00000002  0.50000001  1
  F  F7  1  0.00000000  0.00000000  0.00000000  1
