# generated using pymatgen
data_AlAgS2
_symmetry_space_group_name_H-M   'P 1'
_cell_length_a   5.75610781
_cell_length_b   6.63981533
_cell_length_c   5.75610781
_cell_angle_alpha   115.68695831
_cell_angle_beta   90.00000000
_cell_angle_gamma   115.68695831
_symmetry_Int_Tables_number   1
_chemical_formula_structural   AlAgS2
_chemical_formula_sum   'Al2 Ag2 S4'
_cell_volume   173.81530130
_cell_formula_units_Z   2
loop_
 _symmetry_equiv_pos_site_id
 _symmetry_equiv_pos_as_xyz
  1  'x, y, z'
loop_
 _atom_site_type_symbol
 _atom_site_label
 _atom_site_symmetry_multiplicity
 _atom_site_fract_x
 _atom_site_fract_y
 _atom_site_fract_z
 _atom_site_occupancy
  Al  Al0  1  0.50000002  0.00000000  0.50000002  1
  Al  Al1  1  0.75000007  0.50000003  0.25000005  1
  Ag  Ag2  1  0.25000005  0.50000003  0.75000007  1
  Ag  Ag3  1  0.00000000  0.00000000  0.00000000  1
  S  S4  1  0.12500007  0.75000004  0.58016708  1
  S  S5  1  0.83016705  0.25000001  0.87500005  1
  S  S6  1  0.62500008  0.75000004  0.16983307  1
  S  S7  1  0.41983303  0.25000001  0.37500003  1
