# generated using pymatgen
data_YReC2
_symmetry_space_group_name_H-M   'P 1'
_cell_length_a   3.36321902
_cell_length_b   5.67741919
_cell_length_c   10.76234722
_cell_angle_alpha   90.00000000
_cell_angle_beta   90.00000000
_cell_angle_gamma   90.00000000
_symmetry_Int_Tables_number   1
_chemical_formula_structural   YReC2
_chemical_formula_sum   'Y4 Re4 C8'
_cell_volume   205.50060804
_cell_formula_units_Z   4
loop_
 _symmetry_equiv_pos_site_id
 _symmetry_equiv_pos_as_xyz
  1  'x, y, z'
loop_
 _atom_site_type_symbol
 _atom_site_label
 _atom_site_symmetry_multiplicity
 _atom_site_fract_x
 _atom_site_fract_y
 _atom_site_fract_z
 _atom_site_occupancy
  Y  Y0  1  0.25000000  0.08525700  0.86254198  1
  Y  Y1  1  0.25000000  0.58525698  0.63745799  1
  Y  Y2  1  0.74999999  0.91474297  0.13745800  1
  Y  Y3  1  0.74999999  0.41474299  0.36254199  1
  Re  Re4  1  0.25000000  0.40116199  0.10927700  1
  Re  Re5  1  0.25000000  0.90116197  0.39072299  1
  Re  Re6  1  0.74999999  0.59883798  0.89072298  1
  Re  Re7  1  0.74999999  0.09883800  0.60927699  1
  C  C8  1  0.25000000  0.15916699  0.24691099  1
  C  C9  1  0.25000000  0.65916698  0.25308899  1
  C  C10  1  0.74999999  0.84083297  0.75308898  1
  C  C11  1  0.74999999  0.34083299  0.74691098  1
  C  C12  1  0.25000000  0.72763398  0.98650798  1
  C  C13  1  0.25000000  0.22763399  0.51349199  1
  C  C14  1  0.74999999  0.27236599  0.01349200  1
  C  C15  1  0.74999999  0.77236597  0.48650799  1
