# generated using pymatgen
data_K4SnO4
_symmetry_space_group_name_H-M   'P 1'
_cell_length_a   6.47230625
_cell_length_b   6.53397417
_cell_length_c   9.63897514
_cell_angle_alpha   71.38092804
_cell_angle_beta   79.42108154
_cell_angle_gamma   67.89974976
_symmetry_Int_Tables_number   1
_chemical_formula_structural   K4SnO4
_chemical_formula_sum   'K8 Sn2 O8'
_cell_volume   356.97790469
_cell_formula_units_Z   2
loop_
 _symmetry_equiv_pos_site_id
 _symmetry_equiv_pos_as_xyz
  1  'x, y, z'
loop_
 _atom_site_type_symbol
 _atom_site_label
 _atom_site_symmetry_multiplicity
 _atom_site_fract_x
 _atom_site_fract_y
 _atom_site_fract_z
 _atom_site_occupancy
  K  K0  1  0.77060603  0.57718500  0.17611896  1
  K  K1  1  0.22939401  0.42281500  0.82388095  1
  K  K2  1  0.74155303  0.23016200  0.98125193  1
  K  K3  1  0.25844700  0.76983800  0.01874799  1
  K  K4  1  0.72903003  0.48842200  0.56948494  1
  K  K5  1  0.27097001  0.51157800  0.43051497  1
  K  K6  1  0.23215300  0.95668400  0.60616196  1
  K  K7  1  0.76784703  0.04331600  0.39383795  1
  Sn  Sn8  1  0.71506402  0.84826200  0.75674694  1
  Sn  Sn9  1  0.28493601  0.15173800  0.24325298  1
  O  O10  1  0.97968903  0.70015000  0.60844993  1
  O  O11  1  0.02031100  0.29985000  0.39154998  1
  O  O12  1  0.89229403  0.83266400  0.92619592  1
  O  O13  1  0.10770600  0.16733600  0.07380399  1
  O  O14  1  0.51366502  0.62988500  0.80569594  1
  O  O15  1  0.48633502  0.37011500  0.19430397  1
  O  O16  1  0.49353101  0.82075600  0.36711796  1
  O  O17  1  0.50646902  0.17924400  0.63288195  1
