# generated using pymatgen
data_CaHS
_symmetry_space_group_name_H-M   'P 1'
_cell_length_a   3.96797395
_cell_length_b   4.49884605
_cell_length_c   6.02848101
_cell_angle_alpha   90.00000000
_cell_angle_beta   79.97682190
_cell_angle_gamma   90.00000000
_symmetry_Int_Tables_number   1
_chemical_formula_structural   CaHS
_chemical_formula_sum   'Ca2 H2 S2'
_cell_volume   105.97374578
_cell_formula_units_Z   2
loop_
 _symmetry_equiv_pos_site_id
 _symmetry_equiv_pos_as_xyz
  1  'x, y, z'
loop_
 _atom_site_type_symbol
 _atom_site_label
 _atom_site_symmetry_multiplicity
 _atom_site_fract_x
 _atom_site_fract_y
 _atom_site_fract_z
 _atom_site_occupancy
  Ca  Ca0  1  0.22770601  0.25000000  0.23172099  1
  Ca  Ca1  1  0.77229402  0.74999999  0.76827898  1
  H  H2  1  0.53999901  0.25000000  0.60537799  1
  H  H3  1  0.46000101  0.74999999  0.39462199  1
  S  S4  1  0.24074801  0.25000000  0.75159100  1
  S  S5  1  0.75925202  0.74999999  0.24840897  1
