# generated using pymatgen
data_LaSn2
_symmetry_space_group_name_H-M   'P 1'
_cell_length_a   4.99974585
_cell_length_b   4.99974585
_cell_length_c   7.34932089
_cell_angle_alpha   90.00000000
_cell_angle_beta   90.00000000
_cell_angle_gamma   120.00000000
_symmetry_Int_Tables_number   1
_chemical_formula_structural   LaSn2
_chemical_formula_sum   'La2 Sn4'
_cell_volume   159.10128901
_cell_formula_units_Z   2
loop_
 _symmetry_equiv_pos_site_id
 _symmetry_equiv_pos_as_xyz
  1  'x, y, z'
loop_
 _atom_site_type_symbol
 _atom_site_label
 _atom_site_symmetry_multiplicity
 _atom_site_fract_x
 _atom_site_fract_y
 _atom_site_fract_z
 _atom_site_occupancy
  La  La0  1  0.00000000  0.00000000  0.74007401  1
  La  La1  1  0.00000000  0.00000000  0.25992600  1
  Sn  Sn2  1  0.33333334  0.66666668  0.52063601  1
  Sn  Sn3  1  0.66666669  0.33333334  0.47936401  1
  Sn  Sn4  1  0.66666669  0.33333334  0.04148400  1
  Sn  Sn5  1  0.33333334  0.66666668  0.95851601  1
