# generated using pymatgen
data_SmNiGe
_symmetry_space_group_name_H-M   'P 1'
_cell_length_a   4.19830799
_cell_length_b   4.19830847
_cell_length_c   16.41781044
_cell_angle_alpha   90.00000000
_cell_angle_beta   90.00000000
_cell_angle_gamma   119.99999237
_symmetry_Int_Tables_number   1
_chemical_formula_structural   SmNiGe
_chemical_formula_sum   'Sm4 Ni4 Ge4'
_cell_volume   250.60777610
_cell_formula_units_Z   4
loop_
 _symmetry_equiv_pos_site_id
 _symmetry_equiv_pos_as_xyz
  1  'x, y, z'
loop_
 _atom_site_type_symbol
 _atom_site_label
 _atom_site_symmetry_multiplicity
 _atom_site_fract_x
 _atom_site_fract_y
 _atom_site_fract_z
 _atom_site_occupancy
  Sm  Sm0  1  0.00000000  0.00000000  0.75000003  1
  Sm  Sm1  1  0.00000000  0.00000000  0.25000001  1
  Sm  Sm2  1  0.00000000  0.00000000  0.00000000  1
  Sm  Sm3  1  0.00000000  0.00000000  0.50000002  1
  Ni  Ni4  1  0.66666665  0.33333333  0.87160203  1
  Ni  Ni5  1  0.33333329  0.66666666  0.12839800  1
  Ni  Ni6  1  0.33333329  0.66666666  0.37160201  1
  Ni  Ni7  1  0.66666665  0.33333333  0.62839802  1
  Ge  Ge8  1  0.66666665  0.33333333  0.37642901  1
  Ge  Ge9  1  0.33333329  0.66666666  0.62357102  1
  Ge  Ge10  1  0.33333329  0.66666666  0.87642903  1
  Ge  Ge11  1  0.66666665  0.33333333  0.12357100  1
