# generated using pymatgen
data_Cd3(AgS5)2
_symmetry_space_group_name_H-M   'P 1'
_cell_length_a   4.03648663
_cell_length_b   4.03648663
_cell_length_c   16.75648689
_cell_angle_alpha   83.08218384
_cell_angle_beta   83.08218384
_cell_angle_gamma   59.99999237
_symmetry_Int_Tables_number   1
_chemical_formula_structural   Cd3(AgS5)2
_chemical_formula_sum   'Cd3 Ag2 S10'
_cell_volume   234.14193785
_cell_formula_units_Z   1
loop_
 _symmetry_equiv_pos_site_id
 _symmetry_equiv_pos_as_xyz
  1  'x, y, z'
loop_
 _atom_site_type_symbol
 _atom_site_label
 _atom_site_symmetry_multiplicity
 _atom_site_fract_x
 _atom_site_fract_y
 _atom_site_fract_z
 _atom_site_occupancy
  Cd  Cd0  1  0.60141801  0.60141798  0.19574599  1
  Cd  Cd1  1  0.20056200  0.20056199  0.39831398  1
  Cd  Cd2  1  0.79943801  0.79943797  0.60168597  1
  Ag  Ag3  1  0.39858201  0.39858199  0.80425396  1
  Ag  Ag4  1  0.00000000  0.00000000  0.00000000  1
  S  S5  1  0.04732800  0.04732800  0.85801597  1
  S  S6  1  0.84999401  0.84999397  0.45001797  1
  S  S7  1  0.44908901  0.44908899  0.65273297  1
  S  S8  1  0.65171201  0.65171198  0.04486399  1
  S  S9  1  0.25134400  0.25134399  0.24596799  1
  S  S10  1  0.34828801  0.34828799  0.95513596  1
  S  S11  1  0.15000600  0.15000600  0.54998198  1
  S  S12  1  0.74865601  0.74865598  0.75403196  1
  S  S13  1  0.95267202  0.95267197  0.14198398  1
  S  S14  1  0.55091101  0.55091098  0.34726698  1
