# generated using pymatgen
data_In2SnPt
_symmetry_space_group_name_H-M   'P 1'
_cell_length_a   6.79963350
_cell_length_b   6.79963446
_cell_length_c   7.09483814
_cell_angle_alpha   90.00000000
_cell_angle_beta   90.00000000
_cell_angle_gamma   120.00000000
_symmetry_Int_Tables_number   1
_chemical_formula_structural   In2SnPt
_chemical_formula_sum   'In6 Sn3 Pt3'
_cell_volume   284.08231272
_cell_formula_units_Z   3
loop_
 _symmetry_equiv_pos_site_id
 _symmetry_equiv_pos_as_xyz
  1  'x, y, z'
loop_
 _atom_site_type_symbol
 _atom_site_label
 _atom_site_symmetry_multiplicity
 _atom_site_fract_x
 _atom_site_fract_y
 _atom_site_fract_z
 _atom_site_occupancy
  In  In0  1  -0.00000002  0.66920001  0.49999999  1
  In  In1  1  0.66920002  0.00000000  0.49999999  1
  In  In2  1  0.33080000  0.33080001  0.49999999  1
  In  In3  1  -0.00000001  0.33657101  -0.00000000  1
  In  In4  1  0.33657101  0.00000000  0.99999998  1
  In  In5  1  0.66342899  0.66342901  0.99999998  1
  Sn  Sn6  1  0.33333332  0.66666668  0.74955298  1
  Pt  Pt7  1  0.33333332  0.66666668  0.25044699  1
  Sn  Sn8  1  0.66666667  0.33333334  0.25044699  1
  Sn  Sn9  1  0.66666667  0.33333334  0.74955298  1
  Pt  Pt10  1  0.00000000  0.00000000  0.24908800  1
  Pt  Pt11  1  0.00000000  0.00000000  0.75091198  1
