# generated using pymatgen
data_La2B4C5
_symmetry_space_group_name_H-M   'P 1'
_cell_length_a   5.13121796
_cell_length_b   5.54788685
_cell_length_c   6.18013573
_cell_angle_alpha   70.81060791
_cell_angle_beta   65.47199249
_cell_angle_gamma   62.45481491
_symmetry_Int_Tables_number   1
_chemical_formula_structural   La2B4C5
_chemical_formula_sum   'La2 B4 C5'
_cell_volume   139.86006508
_cell_formula_units_Z   1
loop_
 _symmetry_equiv_pos_site_id
 _symmetry_equiv_pos_as_xyz
  1  'x, y, z'
loop_
 _atom_site_type_symbol
 _atom_site_label
 _atom_site_symmetry_multiplicity
 _atom_site_fract_x
 _atom_site_fract_y
 _atom_site_fract_z
 _atom_site_occupancy
  La  La0  1  0.27417397  0.80263699  0.64901504  1
  La  La1  1  0.72582601  0.19736300  0.35098499  1
  B  B2  1  0.67245600  0.27886200  0.87224299  1
  B  B3  1  0.17643899  0.27886200  0.87224301  1
  B  B4  1  0.32754397  0.72113800  0.12775704  1
  B  B5  1  0.82356098  0.72113800  0.12775702  1
  C  C6  1  -0.00000003  0.50000000  0.50000003  1
  C  C7  1  0.77903299  0.60151100  0.84042301  1
  C  C8  1  0.22096698  0.39848900  0.15957702  1
  C  C9  1  0.40087301  0.05958000  0.13867399  1
  C  C10  1  0.59912697  0.94041999  0.86132604  1
