# generated using pymatgen
data_La2Rh
_symmetry_space_group_name_H-M   'P 1'
_cell_length_a   4.51913691
_cell_length_b   7.78107786
_cell_length_c   8.75552177
_cell_angle_alpha   90.00000000
_cell_angle_beta   90.00000000
_cell_angle_gamma   90.00000000
_symmetry_Int_Tables_number   1
_chemical_formula_structural   La2Rh
_chemical_formula_sum   'La8 Rh4'
_cell_volume   307.87703247
_cell_formula_units_Z   4
loop_
 _symmetry_equiv_pos_site_id
 _symmetry_equiv_pos_as_xyz
  1  'x, y, z'
loop_
 _atom_site_type_symbol
 _atom_site_label
 _atom_site_symmetry_multiplicity
 _atom_site_fract_x
 _atom_site_fract_y
 _atom_site_fract_z
 _atom_site_occupancy
  La  La0  1  0.25000001  0.03303000  0.32158001  1
  La  La1  1  0.25000001  0.53303001  0.17842000  1
  La  La2  1  0.75000002  0.96697002  0.67842002  1
  La  La3  1  0.75000002  0.46697001  0.82158002  1
  La  La4  1  0.25000001  0.13155600  0.92952002  1
  La  La5  1  0.25000001  0.63155601  0.57048001  1
  La  La6  1  0.75000002  0.86844402  0.07048000  1
  La  La7  1  0.75000002  0.36844401  0.42952001  1
  Rh  Rh8  1  0.25000001  0.24471300  0.61523102  1
  Rh  Rh9  1  0.25000001  0.74471301  0.88476902  1
  Rh  Rh10  1  0.75000002  0.75528701  0.38476901  1
  Rh  Rh11  1  0.75000002  0.25528700  0.11523100  1
