# generated using pymatgen
data_InOsRu5Se8
_symmetry_space_group_name_H-M   'P 1'
_cell_length_a   6.55515528
_cell_length_b   6.55515528
_cell_length_c   6.55515528
_cell_angle_alpha   89.72762299
_cell_angle_beta   89.72762299
_cell_angle_gamma   89.72762299
_symmetry_Int_Tables_number   1
_chemical_formula_structural   InOsRu5Se8
_chemical_formula_sum   'In1 Os1 Ru5 Se8'
_cell_volume   281.66590188
_cell_formula_units_Z   1
loop_
 _symmetry_equiv_pos_site_id
 _symmetry_equiv_pos_as_xyz
  1  'x, y, z'
loop_
 _atom_site_type_symbol
 _atom_site_label
 _atom_site_symmetry_multiplicity
 _atom_site_fract_x
 _atom_site_fract_y
 _atom_site_fract_z
 _atom_site_occupancy
  In  In0  1  0.00000000  0.00000000  0.00000000  1
  Os  Os1  1  0.22431198  0.41709199  0.55910303  1
  Ru  Ru2  1  0.41709197  0.55910298  0.22431203  1
  Ru  Ru3  1  0.44089697  0.77568797  0.58290805  1
  Ru  Ru4  1  0.77568796  0.58290798  0.44089705  1
  Ru  Ru5  1  0.58290797  0.44089699  0.77568805  1
  Ru  Ru6  1  0.55910298  0.22431199  0.41709203  1
  Se  Se7  1  0.23860499  0.23860499  0.23860502  1
  Se  Se8  1  0.76139495  0.76139497  0.76139506  1
  Se  Se9  1  0.74262697  0.37906399  0.12798604  1
  Se  Se10  1  0.37906398  0.12798600  0.74262703  1
  Se  Se11  1  0.12798598  0.74262698  0.37906403  1
  Se  Se12  1  0.25737298  0.62093598  0.87201405  1
  Se  Se13  1  0.62093596  0.87201397  0.25737305  1
  Se  Se14  1  0.87201396  0.25737299  0.62093605  1
