# generated using pymatgen
data_Li4Mn(TeO4)3
_symmetry_space_group_name_H-M   'P 1'
_cell_length_a   5.18761206
_cell_length_b   5.48533964
_cell_length_c   7.52931118
_cell_angle_alpha   94.22860718
_cell_angle_beta   89.74518585
_cell_angle_gamma   89.88761902
_symmetry_Int_Tables_number   1
_chemical_formula_structural   Li4Mn(TeO4)3
_chemical_formula_sum   'Li4 Mn1 Te3 O12'
_cell_volume   213.66676120
_cell_formula_units_Z   1
loop_
 _symmetry_equiv_pos_site_id
 _symmetry_equiv_pos_as_xyz
  1  'x, y, z'
loop_
 _atom_site_type_symbol
 _atom_site_label
 _atom_site_symmetry_multiplicity
 _atom_site_fract_x
 _atom_site_fract_y
 _atom_site_fract_z
 _atom_site_occupancy
  Li  Li0  1  0.99835698  0.44645599  0.30105396  1
  Li  Li1  1  0.49905398  0.91855399  0.77094297  1
  Li  Li2  1  0.00329299  0.49251899  0.74325498  1
  Li  Li3  1  0.49421498  0.91516899  0.30228698  1
  Mn  Mn4  1  0.50164399  0.49178699  0.50039297  1
  Te  Te5  1  0.99690999  0.00078800  0.00472997  1
  Te  Te6  1  0.00412800  0.00102000  0.50496099  1
  Te  Te7  1  0.49827799  0.49552099  0.00005399  1
  O  O8  1  0.29717799  0.19217600  0.43610298  1
  O  O9  1  0.11721100  0.00875800  0.75258398  1
  O  O10  1  0.31902099  0.81538199  0.05725999  1
  O  O11  1  0.19481899  0.71041199  0.43649799  1
  O  O12  1  0.80398598  0.69019299  0.93020795  1
  O  O13  1  0.38205099  0.51801699  0.75597297  1
  O  O14  1  0.61919599  0.51240499  0.23866198  1
  O  O15  1  0.18758199  0.32293099  0.06005599  1
  O  O16  1  0.82198499  0.30935399  0.54703796  1
  O  O17  1  0.68234699  0.19371000  0.93176696  1
  O  O18  1  0.87935699  0.00382100  0.24663097  1
  O  O19  1  0.69938798  0.81862399  0.55074597  1
