# generated using pymatgen
data_Rb3YbV2O8
_symmetry_space_group_name_H-M   'P 1'
_cell_length_a   6.04182005
_cell_length_b   6.04182053
_cell_length_c   7.90732622
_cell_angle_alpha   90.00000000
_cell_angle_beta   90.00000000
_cell_angle_gamma   120.00000000
_symmetry_Int_Tables_number   1
_chemical_formula_structural   Rb3YbV2O8
_chemical_formula_sum   'Rb3 Yb1 V2 O8'
_cell_volume   249.97460699
_cell_formula_units_Z   1
loop_
 _symmetry_equiv_pos_site_id
 _symmetry_equiv_pos_as_xyz
  1  'x, y, z'
loop_
 _atom_site_type_symbol
 _atom_site_label
 _atom_site_symmetry_multiplicity
 _atom_site_fract_x
 _atom_site_fract_y
 _atom_site_fract_z
 _atom_site_occupancy
  Rb  Rb0  1  0.66666667  0.33333333  0.30154399  1
  Rb  Rb1  1  0.33333336  0.66666666  0.69845598  1
  Rb  Rb2  1  0.00000000  0.00000000  0.00000000  1
  Yb  Yb3  1  0.00000000  0.00000000  0.49999999  1
  V  V4  1  0.66666667  0.33333333  0.74859498  1
  V  V5  1  0.33333336  0.66666666  0.25140499  1
  O  O6  1  0.66666667  0.33333333  0.96621297  1
  O  O7  1  0.33333336  0.66666666  0.03378700  1
  O  O8  1  0.82371102  0.64742199  0.67342998  1
  O  O9  1  0.17628901  0.35257800  0.32656999  1
  O  O10  1  0.82371100  0.17628900  0.67342998  1
  O  O11  1  0.17628903  0.82371099  0.32656999  1
  O  O12  1  0.35257800  0.17628900  0.67342998  1
  O  O13  1  0.64742203  0.82371099  0.32656999  1
