# generated using pymatgen
data_ErGePd
_symmetry_space_group_name_H-M   'P 1'
_cell_length_a   4.36037397
_cell_length_b   5.62284946
_cell_length_c   5.63409138
_cell_angle_alpha   75.87173462
_cell_angle_beta   67.23431396
_cell_angle_gamma   67.18623352
_symmetry_Int_Tables_number   1
_chemical_formula_structural   ErGePd
_chemical_formula_sum   'Er2 Ge2 Pd2'
_cell_volume   116.68822029
_cell_formula_units_Z   2
loop_
 _symmetry_equiv_pos_site_id
 _symmetry_equiv_pos_as_xyz
  1  'x, y, z'
loop_
 _atom_site_type_symbol
 _atom_site_label
 _atom_site_symmetry_multiplicity
 _atom_site_fract_x
 _atom_site_fract_y
 _atom_site_fract_z
 _atom_site_occupancy
  Er  Er0  1  0.54304900  0.69652699  0.21737496  1
  Er  Er1  1  0.45695101  0.30347300  0.78262496  1
  Ge  Ge2  1  0.84036702  0.10784800  0.21141796  1
  Ge  Ge3  1  0.15963299  0.89215199  0.78858196  1
  Pd  Pd4  1  0.17751100  0.27379400  0.37118398  1
  Pd  Pd5  1  0.82248901  0.72620599  0.62881594  1
