# generated using pymatgen
data_CeZnRh
_symmetry_space_group_name_H-M   'P 1'
_cell_length_a   4.36772394
_cell_length_b   6.87620592
_cell_length_c   7.88808203
_cell_angle_alpha   90.00000000
_cell_angle_beta   90.00000000
_cell_angle_gamma   90.00000000
_symmetry_Int_Tables_number   1
_chemical_formula_structural   CeZnRh
_chemical_formula_sum   'Ce4 Zn4 Rh4'
_cell_volume   236.90568005
_cell_formula_units_Z   4
loop_
 _symmetry_equiv_pos_site_id
 _symmetry_equiv_pos_as_xyz
  1  'x, y, z'
loop_
 _atom_site_type_symbol
 _atom_site_label
 _atom_site_symmetry_multiplicity
 _atom_site_fract_x
 _atom_site_fract_y
 _atom_site_fract_z
 _atom_site_occupancy
  Ce  Ce0  1  0.25000000  0.53034301  0.18827500  1
  Ce  Ce1  1  0.75000001  0.46965701  0.81172500  1
  Ce  Ce2  1  0.75000001  0.96965701  0.68827500  1
  Ce  Ce3  1  0.25000000  0.03034300  0.31172500  1
  Zn  Zn4  1  0.25000000  0.65015001  0.56856600  1
  Zn  Zn5  1  0.75000001  0.34985000  0.43143400  1
  Zn  Zn6  1  0.75000001  0.84985001  0.06856600  1
  Zn  Zn7  1  0.25000000  0.15015000  0.93143400  1
  Rh  Rh8  1  0.25000000  0.76081701  0.88953000  1
  Rh  Rh9  1  0.75000001  0.23918300  0.11047000  1
  Rh  Rh10  1  0.75000001  0.73918301  0.38953000  1
  Rh  Rh11  1  0.25000000  0.26081700  0.61047000  1
