# generated using pymatgen
data_Sm3Zn11
_symmetry_space_group_name_H-M   'P 1'
_cell_length_a   4.45842886
_cell_length_b   8.28645134
_cell_length_c   8.28645134
_cell_angle_alpha   66.37257385
_cell_angle_beta   74.39408875
_cell_angle_gamma   74.39408875
_symmetry_Int_Tables_number   1
_chemical_formula_structural   Sm3Zn11
_chemical_formula_sum   'Sm3 Zn11'
_cell_volume   265.59016692
_cell_formula_units_Z   1
loop_
 _symmetry_equiv_pos_site_id
 _symmetry_equiv_pos_as_xyz
  1  'x, y, z'
loop_
 _atom_site_type_symbol
 _atom_site_label
 _atom_site_symmetry_multiplicity
 _atom_site_fract_x
 _atom_site_fract_y
 _atom_site_fract_z
 _atom_site_occupancy
  Sm  Sm0  1  0.69861201  0.30138798  0.30138798  1
  Sm  Sm1  1  0.30138797  0.69861196  0.69861198  1
  Sm  Sm2  1  0.00000000  0.00000000  0.00000000  1
  Zn  Zn3  1  0.66202699  0.70040496  0.97554196  1
  Zn  Zn4  1  0.33797300  0.29959498  0.02445800  1
  Zn  Zn5  1  0.66202697  0.97554194  0.70040499  1
  Zn  Zn6  1  0.33797301  0.02445800  0.29959498  1
  Zn  Zn7  1  0.49999998  0.69840896  0.30159100  1
  Zn  Zn8  1  0.50000000  0.30159098  0.69840896  1
  Zn  Zn9  1  0.86201901  0.41589597  0.86006595  1
  Zn  Zn10  1  0.13798097  0.58410396  0.13993401  1
  Zn  Zn11  1  0.86201898  0.86006595  0.41589599  1
  Zn  Zn12  1  0.13798100  0.13993399  0.58410397  1
  Zn  Zn13  1  -0.00000003  0.49999997  0.49999999  1
