# generated using pymatgen
data_Te(HO)6
_symmetry_space_group_name_H-M   'P 1'
_cell_length_a   5.45482302
_cell_length_b   5.52978659
_cell_length_c   5.72655153
_cell_angle_alpha   116.17440796
_cell_angle_beta   116.41188049
_cell_angle_gamma   91.15443420
_symmetry_Int_Tables_number   1
_chemical_formula_structural   Te(HO)6
_chemical_formula_sum   'Te1 H6 O6'
_cell_volume   133.71670918
_cell_formula_units_Z   1
loop_
 _symmetry_equiv_pos_site_id
 _symmetry_equiv_pos_as_xyz
  1  'x, y, z'
loop_
 _atom_site_type_symbol
 _atom_site_label
 _atom_site_symmetry_multiplicity
 _atom_site_fract_x
 _atom_site_fract_y
 _atom_site_fract_z
 _atom_site_occupancy
  Te  Te0  1  0.99229604  0.99577798  0.99937502  1
  H  H1  1  0.39928601  0.22321400  0.00623299  1
  H  H2  1  0.81221303  0.78140498  0.45768200  1
  H  H3  1  0.76643001  0.38068199  0.97367401  1
  H  H4  1  0.58158304  0.75052498  0.97362903  1
  H  H5  1  0.16489001  0.17287400  0.53466401  1
  H  H6  1  0.21262103  0.59983599  0.99248103  1
  O  O7  1  0.19535601  0.23088299  0.92874103  1
  O  O8  1  0.72885403  0.75787198  0.57026301  1
  O  O9  1  0.73042600  0.23245899  0.01622899  1
  O  O10  1  0.78719903  0.75869498  0.06368199  1
  O  O11  1  0.24362801  0.22370200  0.43202201  1
  O  O12  1  0.25750404  0.76436098  0.97651203  1
