# generated using pymatgen
data_YMn3(CuO3)4
_symmetry_space_group_name_H-M   'P 1'
_cell_length_a   6.33383274
_cell_length_b   6.33383274
_cell_length_c   6.33383274
_cell_angle_alpha   109.47122192
_cell_angle_beta   109.47122192
_cell_angle_gamma   109.47122192
_symmetry_Int_Tables_number   1
_chemical_formula_structural   YMn3(CuO3)4
_chemical_formula_sum   'Y1 Mn3 Cu4 O12'
_cell_volume   195.60405803
_cell_formula_units_Z   1
loop_
 _symmetry_equiv_pos_site_id
 _symmetry_equiv_pos_as_xyz
  1  'x, y, z'
loop_
 _atom_site_type_symbol
 _atom_site_label
 _atom_site_symmetry_multiplicity
 _atom_site_fract_x
 _atom_site_fract_y
 _atom_site_fract_z
 _atom_site_occupancy
  Y  Y0  1  0.00000000  0.00000000  0.00000000  1
  Mn  Mn1  1  0.00000000  0.00000000  0.50000000  1
  Mn  Mn2  1  0.50000006  1.00000003  0.00000007  1
  Mn  Mn3  1  0.00000003  0.50000002  0.00000003  1
  Cu  Cu4  1  0.50000003  0.50000002  0.50000003  1
  Cu  Cu5  1  0.50000000  0.00000000  0.50000001  1
  Cu  Cu6  1  0.00000003  0.50000002  0.50000002  1
  Cu  Cu7  1  0.50000003  0.50000002  0.00000004  1
  O  O8  1  0.86314804  0.69430702  0.16884106  1
  O  O9  1  0.13685202  0.30569301  0.83115901  1
  O  O10  1  0.47453402  0.30569301  0.16884103  1
  O  O11  1  0.83115903  0.52546602  0.69430704  1
  O  O12  1  0.69430705  0.83115903  0.52546606  1
  O  O13  1  0.69430701  0.16884101  0.86314802  1
  O  O14  1  0.83115901  0.13685200  0.30569302  1
  O  O15  1  0.30569301  0.16884101  0.47453401  1
  O  O16  1  0.52546604  0.69430702  0.83115904  1
  O  O17  1  0.16884103  0.47453401  0.30569303  1
  O  O18  1  0.30569305  0.83115903  0.13685205  1
  O  O19  1  0.16884105  0.86314803  0.69430705  1
