# generated using pymatgen
data_CeInPt
_symmetry_space_group_name_H-M   'P 1'
_cell_length_a   4.33864880
_cell_length_b   7.50022697
_cell_length_c   8.83753300
_cell_angle_alpha   89.66870880
_cell_angle_beta   90.00000000
_cell_angle_gamma   90.00000000
_symmetry_Int_Tables_number   1
_chemical_formula_structural   CeInPt
_chemical_formula_sum   'Ce4 In4 Pt4'
_cell_volume   287.57603479
_cell_formula_units_Z   4
loop_
 _symmetry_equiv_pos_site_id
 _symmetry_equiv_pos_as_xyz
  1  'x, y, z'
loop_
 _atom_site_type_symbol
 _atom_site_label
 _atom_site_symmetry_multiplicity
 _atom_site_fract_x
 _atom_site_fract_y
 _atom_site_fract_z
 _atom_site_occupancy
  Ce  Ce0  1  0.50000002  0.52869900  0.82698495  1
  Ce  Ce1  1  0.50000002  0.02192700  0.66422598  1
  Ce  Ce2  1  0.00000000  0.47911100  0.17783798  1
  Ce  Ce3  1  0.00000000  0.96288300  0.33410195  1
  In  In4  1  0.50000002  0.14627600  0.06883999  1
  In  In5  1  0.00000000  0.36165000  0.56334597  1
  In  In6  1  0.00000000  0.85230000  0.93249094  1
  In  In7  1  0.50000002  0.64531600  0.43421096  1
  Pt  Pt8  1  0.50000002  0.75543100  0.13128897  1
  Pt  Pt9  1  0.50000002  0.26780400  0.37561598  1
  Pt  Pt10  1  0.00000000  0.24106300  0.87434996  1
  Pt  Pt11  1  0.00000000  0.73753900  0.61670695  1
