# generated using pymatgen
data_LaAsO4
_symmetry_space_group_name_H-M   'P 1'
_cell_length_a   6.20393181
_cell_length_b   6.20393181
_cell_length_c   6.20393181
_cell_angle_alpha   105.83990479
_cell_angle_beta   105.83990479
_cell_angle_gamma   117.00700378
_symmetry_Int_Tables_number   1
_chemical_formula_structural   LaAsO4
_chemical_formula_sum   'La2 As2 O8'
_cell_volume   181.39984141
_cell_formula_units_Z   2
loop_
 _symmetry_equiv_pos_site_id
 _symmetry_equiv_pos_as_xyz
  1  'x, y, z'
loop_
 _atom_site_type_symbol
 _atom_site_label
 _atom_site_symmetry_multiplicity
 _atom_site_fract_x
 _atom_site_fract_y
 _atom_site_fract_z
 _atom_site_occupancy
  La  La0  1  0.00000000  0.00000000  0.00000000  1
  La  La1  1  0.75000001  0.25000001  0.50000007  1
  As  As2  1  0.25000002  0.75000002  0.50000007  1
  As  As3  1  0.50000002  0.50000001  0.00000007  1
  O  O4  1  0.66744902  0.84697902  0.17953011  1
  O  O5  1  0.59698003  0.91745002  0.67953111  1
  O  O6  1  0.23791902  0.91744902  0.32047008  1
  O  O7  1  0.66744902  0.48791901  0.82046908  1
  O  O8  1  0.15302001  0.33255001  0.82046903  1
  O  O9  1  0.08255101  0.40302101  0.32047003  1
  O  O10  1  0.08255102  0.76208102  0.67953106  1
  O  O11  1  0.51208101  0.33255101  0.17953006  1
