# generated using pymatgen
data_Tl3ClO4
_symmetry_space_group_name_H-M   'P 1'
_cell_length_a   3.85715103
_cell_length_b   3.85715103
_cell_length_c   9.01524258
_cell_angle_alpha   90.00000000
_cell_angle_beta   90.00000000
_cell_angle_gamma   90.00000000
_symmetry_Int_Tables_number   1
_chemical_formula_structural   Tl3ClO4
_chemical_formula_sum   'Tl3 Cl1 O4'
_cell_volume   134.12529989
_cell_formula_units_Z   1
loop_
 _symmetry_equiv_pos_site_id
 _symmetry_equiv_pos_as_xyz
  1  'x, y, z'
loop_
 _atom_site_type_symbol
 _atom_site_label
 _atom_site_symmetry_multiplicity
 _atom_site_fract_x
 _atom_site_fract_y
 _atom_site_fract_z
 _atom_site_occupancy
  Tl  Tl0  1  0.00000000  0.00000000  0.00000000  1
  Tl  Tl1  1  0.50000000  0.50000000  0.27571401  1
  Tl  Tl2  1  0.50000000  0.50000000  0.72428603  1
  Cl  Cl3  1  0.00000000  0.00000000  0.50000002  1
  O  O4  1  0.50000000  0.00000000  0.85156504  1
  O  O5  1  0.00000000  0.50000000  0.85156504  1
  O  O6  1  0.50000000  0.00000000  0.14843501  1
  O  O7  1  0.00000000  0.50000000  0.14843501  1
