# generated using pymatgen
data_Ho2NiGe6
_symmetry_space_group_name_H-M   'P 1'
_cell_length_a   3.98343706
_cell_length_b   4.04785824
_cell_length_c   10.88847923
_cell_angle_alpha   90.00000000
_cell_angle_beta   100.53987122
_cell_angle_gamma   90.00000000
_symmetry_Int_Tables_number   1
_chemical_formula_structural   Ho2NiGe6
_chemical_formula_sum   'Ho2 Ni1 Ge6'
_cell_volume   172.60782587
_cell_formula_units_Z   1
loop_
 _symmetry_equiv_pos_site_id
 _symmetry_equiv_pos_as_xyz
  1  'x, y, z'
loop_
 _atom_site_type_symbol
 _atom_site_label
 _atom_site_symmetry_multiplicity
 _atom_site_fract_x
 _atom_site_fract_y
 _atom_site_fract_z
 _atom_site_occupancy
  Ho  Ho0  1  0.77211998  0.49999997  0.54423898  1
  Ho  Ho1  1  0.10868600  0.49999997  0.21737300  1
  Ni  Ni2  1  0.54997099  0.00000000  0.09994199  1
  Ge  Ge3  1  0.49464999  0.49999997  0.98929998  1
  Ge  Ge4  1  0.37737599  0.49999997  0.75475198  1
  Ge  Ge5  1  0.99392598  0.00000000  0.98785197  1
  Ge  Ge6  1  0.87576798  0.00000000  0.75153697  1
  Ge  Ge7  1  0.65635998  0.00000000  0.31271898  1
  Ge  Ge8  1  0.23134299  0.00000000  0.46268599  1
