# generated using pymatgen
data_SrLaCoRuO6
_symmetry_space_group_name_H-M   'P 1'
_cell_length_a   5.55235720
_cell_length_b   5.61148119
_cell_length_c   7.97447920
_cell_angle_alpha   89.88824463
_cell_angle_beta   89.72914124
_cell_angle_gamma   89.99236298
_symmetry_Int_Tables_number   1
_chemical_formula_structural   SrLaCoRuO6
_chemical_formula_sum   'Sr2 La2 Co2 Ru2 O12'
_cell_volume   248.45718262
_cell_formula_units_Z   2
loop_
 _symmetry_equiv_pos_site_id
 _symmetry_equiv_pos_as_xyz
  1  'x, y, z'
loop_
 _atom_site_type_symbol
 _atom_site_label
 _atom_site_symmetry_multiplicity
 _atom_site_fract_x
 _atom_site_fract_y
 _atom_site_fract_z
 _atom_site_occupancy
  Sr  Sr0  1  0.51056199  0.50260099  0.76713199  1
  Sr  Sr1  1  0.01342800  0.00666800  0.76791401  1
  La  La2  1  0.48943799  0.49739899  0.23286798  1
  La  La3  1  0.98657197  0.99333198  0.23208597  1
  Co  Co4  1  0.49999998  0.00000000  -0.00000001  1
  Co  Co5  1  0.00000000  0.49999999  0.50000000  1
  Ru  Ru6  1  0.49999998  0.00000000  0.49999999  1
  Ru  Ru7  1  0.00000000  0.49999999  -0.00000001  1
  O  O8  1  0.74712398  0.73298098  0.02470097  1
  O  O9  1  0.22095700  0.77629698  0.46848199  1
  O  O10  1  0.27766999  0.27950299  0.53657599  1
  O  O11  1  0.76449897  0.25016999  0.97818299  1
  O  O12  1  0.25287599  0.26701899  0.97529900  1
  O  O13  1  0.77904297  0.22370299  0.53151799  1
  O  O14  1  0.72232998  0.72049698  0.46342398  1
  O  O15  1  0.23550100  0.74982998  0.02181698  1
  O  O16  1  0.50022399  0.94808998  0.73713198  1
  O  O17  1  0.99313997  0.56360599  0.74996798  1
  O  O18  1  0.49977598  0.05191000  0.26286799  1
  O  O19  1  0.00686000  0.43639399  0.25003200  1
