# generated using pymatgen
data_YbZnPd
_symmetry_space_group_name_H-M   'P 1'
_cell_length_a   4.52069902
_cell_length_b   7.22506618
_cell_length_c   7.90113020
_cell_angle_alpha   90.00000000
_cell_angle_beta   90.00000000
_cell_angle_gamma   90.00000000
_symmetry_Int_Tables_number   1
_chemical_formula_structural   YbZnPd
_chemical_formula_sum   'Yb4 Zn4 Pd4'
_cell_volume   258.06947722
_cell_formula_units_Z   4
loop_
 _symmetry_equiv_pos_site_id
 _symmetry_equiv_pos_as_xyz
  1  'x, y, z'
loop_
 _atom_site_type_symbol
 _atom_site_label
 _atom_site_symmetry_multiplicity
 _atom_site_fract_x
 _atom_site_fract_y
 _atom_site_fract_z
 _atom_site_occupancy
  Yb  Yb0  1  0.25000000  0.52817399  0.81756598  1
  Yb  Yb1  1  0.25000000  0.02817400  0.68243398  1
  Yb  Yb2  1  0.75000000  0.97182598  0.31756599  1
  Yb  Yb3  1  0.75000000  0.47182599  0.18243400  1
  Zn  Zn4  1  0.25000000  0.14629500  0.06713700  1
  Zn  Zn5  1  0.75000000  0.35370499  0.56713699  1
  Zn  Zn6  1  0.25000000  0.64629498  0.43286299  1
  Zn  Zn7  1  0.75000000  0.85370498  0.93286298  1
  Pd  Pd8  1  0.25000000  0.78533298  0.11075700  1
  Pd  Pd9  1  0.25000000  0.28533299  0.38924299  1
  Pd  Pd10  1  0.75000000  0.71466698  0.61075698  1
  Pd  Pd11  1  0.75000000  0.21466699  0.88924298  1
