# generated using pymatgen
data_Yb2GaSb2Au
_symmetry_space_group_name_H-M   'P 1'
_cell_length_a   4.79128408
_cell_length_b   4.79128408
_cell_length_c   7.68621302
_cell_angle_alpha   90.00000000
_cell_angle_beta   90.00000000
_cell_angle_gamma   120.00000000
_symmetry_Int_Tables_number   1
_chemical_formula_structural   Yb2GaSb2Au
_chemical_formula_sum   'Yb2 Ga1 Sb2 Au1'
_cell_volume   152.80828149
_cell_formula_units_Z   1
loop_
 _symmetry_equiv_pos_site_id
 _symmetry_equiv_pos_as_xyz
  1  'x, y, z'
loop_
 _atom_site_type_symbol
 _atom_site_label
 _atom_site_symmetry_multiplicity
 _atom_site_fract_x
 _atom_site_fract_y
 _atom_site_fract_z
 _atom_site_occupancy
  Yb  Yb0  1  0.00000000  0.00000000  0.75586100  1
  Yb  Yb1  1  0.00000000  0.00000000  0.25586100  1
  Ga  Ga2  1  0.33333335  0.66666671  0.03111300  1
  Sb  Sb3  1  0.66666667  0.33333335  0.53111300  1
  Sb  Sb4  1  0.66666667  0.33333335  0.93902600  1
  Au  Au5  1  0.33333335  0.66666671  0.43902600  1
