# generated using pymatgen
data_Al2CrFe
_symmetry_space_group_name_H-M   'P 1'
_cell_length_a   2.80449510
_cell_length_b   2.80449510
_cell_length_c   6.40694523
_cell_angle_alpha   90.00000000
_cell_angle_beta   90.00000000
_cell_angle_gamma   90.00000000
_symmetry_Int_Tables_number   1
_chemical_formula_structural   Al2CrFe
_chemical_formula_sum   'Al2 Cr1 Fe1'
_cell_volume   50.39185913
_cell_formula_units_Z   1
loop_
 _symmetry_equiv_pos_site_id
 _symmetry_equiv_pos_as_xyz
  1  'x, y, z'
loop_
 _atom_site_type_symbol
 _atom_site_label
 _atom_site_symmetry_multiplicity
 _atom_site_fract_x
 _atom_site_fract_y
 _atom_site_fract_z
 _atom_site_occupancy
  Al  Al0  1  0.49999998  0.49999998  0.00000000  1
  Al  Al1  1  0.00000000  0.00000000  0.73593797  1
  Cr  Cr2  1  0.00000000  0.00000000  0.26406199  1
  Fe  Fe3  1  0.49999998  0.49999998  0.49999998  1
