# generated using pymatgen
data_Dy(VNi3)3
_symmetry_space_group_name_H-M   'P 1'
_cell_length_a   5.11422110
_cell_length_b   5.11422157
_cell_length_c   8.32366943
_cell_angle_alpha   90.00000000
_cell_angle_beta   90.00000000
_cell_angle_gamma   120.00282288
_symmetry_Int_Tables_number   1
_chemical_formula_structural   Dy(VNi3)3
_chemical_formula_sum   'Dy1 V3 Ni9'
_cell_volume   188.53506755
_cell_formula_units_Z   1
loop_
 _symmetry_equiv_pos_site_id
 _symmetry_equiv_pos_as_xyz
  1  'x, y, z'
loop_
 _atom_site_type_symbol
 _atom_site_label
 _atom_site_symmetry_multiplicity
 _atom_site_fract_x
 _atom_site_fract_y
 _atom_site_fract_z
 _atom_site_occupancy
  Dy  Dy0  1  0.00002200  0.00002200  0.99999995  1
  V  V1  1  0.50001399  0.50001402  0.74901896  1
  V  V2  1  0.50001299  0.00001200  0.74897196  1
  V  V3  1  0.00001200  0.50001302  0.74897196  1
  Ni  Ni4  1  0.50001399  0.50001402  0.25098099  1
  Ni  Ni5  1  0.50001299  0.00001200  0.25102799  1
  Ni  Ni6  1  0.00001200  0.50001302  0.25102799  1
  Ni  Ni7  1  0.66666665  0.33333335  0.99999995  1
  Ni  Ni8  1  0.33333333  0.66666669  0.99999995  1
  Ni  Ni9  1  0.66666665  0.33333335  0.49999997  1
  Ni  Ni10  1  0.33333333  0.66661636  0.49999997  1
  Ni  Ni11  1  0.00001000  0.00001000  0.65376297  1
  Ni  Ni12  1  0.00001000  0.00001000  0.34623698  1
