# generated using pymatgen
data_Lu5Rh3
_symmetry_space_group_name_H-M   'P 1'
_cell_length_a   6.15823078
_cell_length_b   8.11011600
_cell_length_c   8.11011600
_cell_angle_alpha   120.00000000
_cell_angle_beta   90.00000000
_cell_angle_gamma   90.00000000
_symmetry_Int_Tables_number   1
_chemical_formula_structural   Lu5Rh3
_chemical_formula_sum   'Lu10 Rh6'
_cell_volume   350.78476604
_cell_formula_units_Z   2
loop_
 _symmetry_equiv_pos_site_id
 _symmetry_equiv_pos_as_xyz
  1  'x, y, z'
loop_
 _atom_site_type_symbol
 _atom_site_label
 _atom_site_symmetry_multiplicity
 _atom_site_fract_x
 _atom_site_fract_y
 _atom_site_fract_z
 _atom_site_occupancy
  Lu  Lu0  1  0.50000002  0.33333333  0.66666662  1
  Lu  Lu1  1  0.50000002  0.66666665  0.33333329  1
  Lu  Lu2  1  -0.00000000  0.66666665  0.33333329  1
  Lu  Lu3  1  1.00000004  0.33333333  0.66666662  1
  Lu  Lu4  1  0.75000003  0.24991600  0.99999994  1
  Lu  Lu5  1  0.75000003  0.75008399  0.75008393  1
  Lu  Lu6  1  0.75000003  0.99999998  0.24991595  1
  Lu  Lu7  1  0.25000001  0.75008399  -0.00000003  1
  Lu  Lu8  1  0.25000001  0.24991600  0.24991598  1
  Lu  Lu9  1  0.25000001  0.99999998  0.75008393  1
  Rh  Rh10  1  0.75000003  0.60015599  -0.00000002  1
  Rh  Rh11  1  0.75000003  0.39984399  0.39984397  1
  Rh  Rh12  1  0.75000003  0.99999998  0.60015593  1
  Rh  Rh13  1  0.25000001  0.39984399  -0.00000001  1
  Rh  Rh14  1  0.25000001  0.60015599  0.60015595  1
  Rh  Rh15  1  0.25000001  0.99999998  0.39984394  1
