# generated using pymatgen
data_Rb2NbAgS4
_symmetry_space_group_name_H-M   'P 1'
_cell_length_a   5.98885202
_cell_length_b   7.39871073
_cell_length_c   11.93301487
_cell_angle_alpha   84.17101288
_cell_angle_beta   75.46707916
_cell_angle_gamma   66.12625122
_symmetry_Int_Tables_number   1
_chemical_formula_structural   Rb2NbAgS4
_chemical_formula_sum   'Rb4 Nb2 Ag2 S8'
_cell_volume   468.03869738
_cell_formula_units_Z   2
loop_
 _symmetry_equiv_pos_site_id
 _symmetry_equiv_pos_as_xyz
  1  'x, y, z'
loop_
 _atom_site_type_symbol
 _atom_site_label
 _atom_site_symmetry_multiplicity
 _atom_site_fract_x
 _atom_site_fract_y
 _atom_site_fract_z
 _atom_site_occupancy
  Rb  Rb0  1  0.93028302  0.49999998  0.13943400  1
  Rb  Rb1  1  0.81971700  0.00000000  0.36056601  1
  Rb  Rb2  1  0.56971702  0.49999998  0.86056602  1
  Rb  Rb3  1  0.18028300  0.00000000  0.63943402  1
  Nb  Nb4  1  0.00000000  0.00000000  0.00000000  1
  Nb  Nb5  1  0.75000002  0.49999998  0.50000001  1
  Ag  Ag6  1  0.50000000  0.00000000  0.00000000  1
  Ag  Ag7  1  0.25000002  0.49999998  0.50000001  1
  S  S8  1  0.16860601  0.20344299  0.88445603  1
  S  S9  1  0.25650503  0.79655697  0.11554399  1
  S  S10  1  0.62795101  0.20344299  0.11554400  1
  S  S11  1  0.94693803  0.79655697  0.88445602  1
  S  S12  1  0.58139401  0.29655699  0.61554402  1
  S  S13  1  0.80306203  0.70344298  0.61554401  1
  S  S14  1  0.12204901  0.29655699  0.38445601  1
  S  S15  1  0.49349503  0.70344298  0.38445600  1
