# generated using pymatgen
data_Re3W(CN7)2
_symmetry_space_group_name_H-M   'P 1'
_cell_length_a   6.68354797
_cell_length_b   6.68354797
_cell_length_c   7.30179119
_cell_angle_alpha   90.00000000
_cell_angle_beta   90.00000000
_cell_angle_gamma   102.96403503
_symmetry_Int_Tables_number   1
_chemical_formula_structural   Re3W(CN7)2
_chemical_formula_sum   'Re3 W1 C2 N14'
_cell_volume   317.85593746
_cell_formula_units_Z   1
loop_
 _symmetry_equiv_pos_site_id
 _symmetry_equiv_pos_as_xyz
  1  'x, y, z'
loop_
 _atom_site_type_symbol
 _atom_site_label
 _atom_site_symmetry_multiplicity
 _atom_site_fract_x
 _atom_site_fract_y
 _atom_site_fract_z
 _atom_site_occupancy
  W  W0  1  0.99208505  0.99208501  0.05961800  1
  Re  Re1  1  0.00791500  0.00791500  0.55961799  1
  Re  Re2  1  0.06216503  0.55711801  0.78977498  1
  Re  Re3  1  0.55711800  0.06216500  0.78977498  1
  C  C4  1  0.93783502  0.44288201  0.28977499  1
  C  C5  1  0.44288204  0.93783501  0.28977499  1
  N  N6  1  0.92741204  0.92741201  0.28883099  1
  N  N7  1  0.07258800  0.07258800  0.78883098  1
  N  N8  1  0.97128003  0.70071901  0.59707498  1
  N  N9  1  0.70071905  0.97128001  0.59707498  1
  N  N10  1  0.02872001  0.29928100  0.09707500  1
  N  N11  1  0.29928100  0.02872000  0.09707500  1
  N  N12  1  0.96923603  0.69588401  0.98458697  1
  N  N13  1  0.69588405  0.96923601  0.98458697  1
  N  N14  1  0.03076401  0.30411600  0.48458699  1
  N  N15  1  0.30411600  0.03076400  0.48458699  1
  N  N16  1  0.33235203  0.67336901  0.79054198  1
  N  N17  1  0.67336902  0.33235200  0.79054198  1
  N  N18  1  0.66764802  0.32663100  0.29054199  1
  N  N19  1  0.32663103  0.66764801  0.29054199  1
