# generated using pymatgen
data_Ba2SnO4
_symmetry_space_group_name_H-M   'P 1'
_cell_length_a   4.25020218
_cell_length_b   4.25020218
_cell_length_c   7.37036037
_cell_angle_alpha   106.75804138
_cell_angle_beta   106.75804138
_cell_angle_gamma   90.00000000
_symmetry_Int_Tables_number   1
_chemical_formula_structural   Ba2SnO4
_chemical_formula_sum   'Ba2 Sn1 O4'
_cell_volume   121.56843936
_cell_formula_units_Z   1
loop_
 _symmetry_equiv_pos_site_id
 _symmetry_equiv_pos_as_xyz
  1  'x, y, z'
loop_
 _atom_site_type_symbol
 _atom_site_label
 _atom_site_symmetry_multiplicity
 _atom_site_fract_x
 _atom_site_fract_y
 _atom_site_fract_z
 _atom_site_occupancy
  Ba  Ba0  1  0.35373598  0.35373598  0.70747197  1
  Ba  Ba1  1  0.64626396  0.64626397  0.29252797  1
  Sn  Sn2  1  0.00000000  0.00000000  0.00000000  1
  O  O3  1  0.15889699  0.15889699  0.31779398  1
  O  O4  1  0.84110294  0.84110296  0.68220595  1
  O  O5  1  0.49999997  0.00000000  -0.00000001  1
  O  O6  1  -0.00000001  0.49999997  -0.00000001  1
