# generated using pymatgen
data_Ca(BC)2
_symmetry_space_group_name_H-M   'P 1'
_cell_length_a   5.31353283
_cell_length_b   5.31353283
_cell_length_c   5.31353283
_cell_angle_alpha   91.12884521
_cell_angle_beta   119.35041809
_cell_angle_gamma   119.35041809
_symmetry_Int_Tables_number   1
_chemical_formula_structural   Ca(BC)2
_chemical_formula_sum   'Ca2 B4 C4'
_cell_volume   107.09942778
_cell_formula_units_Z   2
loop_
 _symmetry_equiv_pos_site_id
 _symmetry_equiv_pos_as_xyz
  1  'x, y, z'
loop_
 _atom_site_type_symbol
 _atom_site_label
 _atom_site_symmetry_multiplicity
 _atom_site_fract_x
 _atom_site_fract_y
 _atom_site_fract_z
 _atom_site_occupancy
  Ca  Ca0  1  0.00000007  0.75000007  0.75000011  1
  Ca  Ca1  1  0.00000002  0.25000002  0.25000004  1
  B  B2  1  0.77786710  0.63893406  0.13893409  1
  B  B3  1  0.50000004  0.13893301  0.36106704  1
  B  B4  1  0.50000011  0.86106708  0.63893313  1
  B  B5  1  0.22213305  0.36106603  0.86106608  1
  C  C6  1  0.50000006  0.34069903  0.15930105  1
  C  C7  1  0.18139909  0.84070007  0.34070011  1
  C  C8  1  0.50000009  0.65930106  0.84069911  1
  C  C9  1  0.81860105  0.15930001  0.65930006  1
