# generated using pymatgen
data_Nb2Ga
_symmetry_space_group_name_H-M   'P 1'
_cell_length_a   4.94191122
_cell_length_b   7.87519598
_cell_length_c   7.87519598
_cell_angle_alpha   84.35018921
_cell_angle_beta   71.71376801
_cell_angle_gamma   71.71376038
_symmetry_Int_Tables_number   1
_chemical_formula_structural   Nb2Ga
_chemical_formula_sum   'Nb10 Ga5'
_cell_volume   276.31752089
_cell_formula_units_Z   5
loop_
 _symmetry_equiv_pos_site_id
 _symmetry_equiv_pos_as_xyz
  1  'x, y, z'
loop_
 _atom_site_type_symbol
 _atom_site_label
 _atom_site_symmetry_multiplicity
 _atom_site_fract_x
 _atom_site_fract_y
 _atom_site_fract_z
 _atom_site_occupancy
  Nb  Nb0  1  0.69748590  0.87588604  0.71728996  1
  Nb  Nb1  1  0.29066198  0.12411401  0.28270999  1
  Nb  Nb2  1  0.80251395  0.28271001  0.12411397  1
  Nb  Nb3  1  0.20933793  0.71729003  0.87588597  1
  Nb  Nb4  1  0.58522392  0.71729003  0.12411397  1
  Nb  Nb5  1  0.42662796  0.28271001  0.87588597  1
  Nb  Nb6  1  0.07337199  0.12411401  0.71728999  1
  Nb  Nb7  1  0.91477589  0.87588604  0.28270996  1
  Nb  Nb8  1  0.24999999  0.00000000  -0.00000001  1
  Nb  Nb9  1  0.74999998  0.00000000  -0.00000002  1
  Ga  Ga10  1  0.17785195  0.50000002  0.19611099  1
  Ga  Ga11  1  0.87396193  0.50000002  0.80388896  1
  Ga  Ga12  1  0.32214892  0.80388904  0.49999997  1
  Ga  Ga13  1  0.62603696  0.19611101  0.49999997  1
  Ga  Ga14  1  0.74999993  0.50000002  0.49999996  1
