# generated using pymatgen
data_CaAl2AgSn
_symmetry_space_group_name_H-M   'P 1'
_cell_length_a   4.69305992
_cell_length_b   4.69305897
_cell_length_c   7.58628416
_cell_angle_alpha   90.00000000
_cell_angle_beta   90.00000000
_cell_angle_gamma   120.00000763
_symmetry_Int_Tables_number   1
_chemical_formula_structural   CaAl2AgSn
_chemical_formula_sum   'Ca1 Al2 Ag1 Sn1'
_cell_volume   144.70109409
_cell_formula_units_Z   1
loop_
 _symmetry_equiv_pos_site_id
 _symmetry_equiv_pos_as_xyz
  1  'x, y, z'
loop_
 _atom_site_type_symbol
 _atom_site_label
 _atom_site_symmetry_multiplicity
 _atom_site_fract_x
 _atom_site_fract_y
 _atom_site_fract_z
 _atom_site_occupancy
  Ca  Ca0  1  0.00000000  0.00000000  0.00000000  1
  Al  Al1  1  0.33333334  0.66666667  0.63116899  1
  Al  Al2  1  0.66666668  0.33333334  0.36883099  1
  Ag  Ag3  1  0.66666668  0.33333334  0.75581798  1
  Sn  Sn4  1  0.33333334  0.66666667  0.24418199  1
