# generated using pymatgen
data_Zr3Pt
_symmetry_space_group_name_H-M   'P 1'
_cell_length_a   6.17377186
_cell_length_b   7.07360506
_cell_length_c   9.68939972
_cell_angle_alpha   90.00000000
_cell_angle_beta   90.00000000
_cell_angle_gamma   90.00000000
_symmetry_Int_Tables_number   1
_chemical_formula_structural   Zr3Pt
_chemical_formula_sum   'Zr12 Pt4'
_cell_volume   423.14406844
_cell_formula_units_Z   4
loop_
 _symmetry_equiv_pos_site_id
 _symmetry_equiv_pos_as_xyz
  1  'x, y, z'
loop_
 _atom_site_type_symbol
 _atom_site_label
 _atom_site_symmetry_multiplicity
 _atom_site_fract_x
 _atom_site_fract_y
 _atom_site_fract_z
 _atom_site_occupancy
  Zr  Zr0  1  0.34586101  0.66872299  0.05932000  1
  Zr  Zr1  1  0.15413900  0.16872300  0.44068001  1
  Zr  Zr2  1  0.65413902  0.33127700  0.55932002  1
  Zr  Zr3  1  0.84586102  0.83127699  0.94068003  1
  Zr  Zr4  1  0.65413902  0.33127700  0.94068003  1
  Zr  Zr5  1  0.84586102  0.83127699  0.55932002  1
  Zr  Zr6  1  0.34586101  0.66872299  0.44068001  1
  Zr  Zr7  1  0.15413900  0.16872300  0.05932000  1
  Zr  Zr8  1  0.85433402  0.53697000  0.25000001  1
  Zr  Zr9  1  0.64566601  0.03697000  0.25000001  1
  Zr  Zr10  1  0.14566600  0.46303000  0.75000002  1
  Zr  Zr11  1  0.35433401  0.96302999  0.75000002  1
  Pt  Pt12  1  0.07481800  0.87291499  0.25000001  1
  Pt  Pt13  1  0.42518201  0.37291500  0.25000001  1
  Pt  Pt14  1  0.92518202  0.12708500  0.75000002  1
  Pt  Pt15  1  0.57481801  0.62708499  0.75000002  1
