# generated using pymatgen
data_AlBiO6
_symmetry_space_group_name_H-M   'P 1'
_cell_length_a   4.83907700
_cell_length_b   4.83907700
_cell_length_c   9.06250381
_cell_angle_alpha   90.00000000
_cell_angle_beta   90.00000000
_cell_angle_gamma   90.00000000
_symmetry_Int_Tables_number   1
_chemical_formula_structural   AlBiO6
_chemical_formula_sum   'Al2 Bi2 O12'
_cell_volume   212.21362651
_cell_formula_units_Z   2
loop_
 _symmetry_equiv_pos_site_id
 _symmetry_equiv_pos_as_xyz
  1  'x, y, z'
loop_
 _atom_site_type_symbol
 _atom_site_label
 _atom_site_symmetry_multiplicity
 _atom_site_fract_x
 _atom_site_fract_y
 _atom_site_fract_z
 _atom_site_occupancy
  Al  Al0  1  -0.00000000  0.50000000  0.41818701  1
  Al  Al1  1  0.50000000  0.00000000  0.58181301  1
  Bi  Bi2  1  -0.00000000  0.50000000  0.77451102  1
  Bi  Bi3  1  0.50000000  0.00000000  0.22548900  1
  O  O4  1  0.19468200  0.30531800  0.89288102  1
  O  O5  1  0.30531800  0.80531800  0.10711900  1
  O  O6  1  0.80531800  0.69468200  0.89288102  1
  O  O7  1  0.69468200  0.19468200  0.10711900  1
  O  O8  1  0.68465000  0.18465000  0.40428901  1
  O  O9  1  0.81535000  0.68465000  0.59571101  1
  O  O10  1  0.31535000  0.81535000  0.40428901  1
  O  O11  1  0.27445700  0.77445700  0.73948702  1
  O  O12  1  0.72554300  0.22554300  0.73948702  1
  O  O13  1  0.22554300  0.27445700  0.26051301  1
  O  O14  1  0.77445700  0.72554300  0.26051301  1
  O  O15  1  0.18465000  0.31535000  0.59571101  1
