# generated using pymatgen
data_Al2Ni
_symmetry_space_group_name_H-M   'P 1'
_cell_length_a   3.69110608
_cell_length_b   3.69110608
_cell_length_c   9.75963020
_cell_angle_alpha   100.90030670
_cell_angle_beta   100.90030670
_cell_angle_gamma   90.00000000
_symmetry_Int_Tables_number   1
_chemical_formula_structural   Al2Ni
_chemical_formula_sum   'Al6 Ni3'
_cell_volume   128.12477789
_cell_formula_units_Z   3
loop_
 _symmetry_equiv_pos_site_id
 _symmetry_equiv_pos_as_xyz
  1  'x, y, z'
loop_
 _atom_site_type_symbol
 _atom_site_label
 _atom_site_symmetry_multiplicity
 _atom_site_fract_x
 _atom_site_fract_y
 _atom_site_fract_z
 _atom_site_occupancy
  Al  Al0  1  0.50087798  0.50087799  0.00175599  1
  Al  Al1  1  0.90017497  0.40017499  0.80034997  1
  Al  Al2  1  0.40017498  0.90017498  0.80034997  1
  Al  Al3  1  0.10219899  0.60219898  0.20439799  1
  Al  Al4  1  0.60219898  0.10219900  0.20439799  1
  Al  Al5  1  0.80088597  0.80088598  0.60177197  1
  Ni  Ni6  1  0.00033200  0.00033200  0.00066400  1
  Ni  Ni7  1  0.31646799  0.31646799  0.63293598  1
  Ni  Ni8  1  0.67818798  0.67818798  0.35637598  1
