# generated using pymatgen
data_Cs3Ge2I5
_symmetry_space_group_name_H-M   'P 1'
_cell_length_a   5.05829620
_cell_length_b   12.12849712
_cell_length_c   15.76611996
_cell_angle_alpha   100.53612518
_cell_angle_beta   99.23107910
_cell_angle_gamma   90.00000000
_symmetry_Int_Tables_number   1
_chemical_formula_structural   Cs3Ge2I5
_chemical_formula_sum   'Cs6 Ge4 I10'
_cell_volume   938.19203981
_cell_formula_units_Z   2
loop_
 _symmetry_equiv_pos_site_id
 _symmetry_equiv_pos_as_xyz
  1  'x, y, z'
loop_
 _atom_site_type_symbol
 _atom_site_label
 _atom_site_symmetry_multiplicity
 _atom_site_fract_x
 _atom_site_fract_y
 _atom_site_fract_z
 _atom_site_occupancy
  Cs  Cs0  1  0.25305699  0.25798201  0.50611399  1
  Cs  Cs1  1  0.93040095  0.34435001  0.86080198  1
  Cs  Cs2  1  0.06157300  0.15593800  0.12314600  1
  Cs  Cs3  1  0.93842695  0.84406203  0.87685398  1
  Cs  Cs4  1  0.06959899  0.65565002  0.13919799  1
  Cs  Cs5  1  0.74694296  0.74201802  0.49388599  1
  Ge  Ge6  1  0.64569996  0.96475403  0.29139999  1
  Ge  Ge7  1  0.35429998  0.03524600  0.70859999  1
  Ge  Ge8  1  0.64315397  0.41606901  0.28630799  1
  Ge  Ge9  1  0.35684598  0.58393102  0.71369199  1
  I  I10  1  0.33987397  0.80142103  0.67974799  1
  I  I11  1  0.66012597  0.19857901  0.32025199  1
  I  I12  1  0.44569197  0.59328702  0.89138399  1
  I  I13  1  0.55517596  0.89282803  0.11035199  1
  I  I14  1  0.82147296  0.09493100  0.64294599  1
  I  I15  1  0.82305996  0.49346202  0.64611999  1
  I  I16  1  0.17852698  0.90506903  0.35705399  1
  I  I17  1  0.17693999  0.50653802  0.35387999  1
  I  I18  1  0.44482398  0.10717200  0.88964799  1
  I  I19  1  0.55430797  0.40671301  0.10861599  1
