# generated using pymatgen
data_ZrPt3
_symmetry_space_group_name_H-M   'P 1'
_cell_length_a   4.04012299
_cell_length_b   4.06545019
_cell_length_c   8.08569622
_cell_angle_alpha   90.00000000
_cell_angle_beta   90.00000000
_cell_angle_gamma   90.00000000
_symmetry_Int_Tables_number   1
_chemical_formula_structural   ZrPt3
_chemical_formula_sum   'Zr2 Pt6'
_cell_volume   132.80690359
_cell_formula_units_Z   2
loop_
 _symmetry_equiv_pos_site_id
 _symmetry_equiv_pos_as_xyz
  1  'x, y, z'
loop_
 _atom_site_type_symbol
 _atom_site_label
 _atom_site_symmetry_multiplicity
 _atom_site_fract_x
 _atom_site_fract_y
 _atom_site_fract_z
 _atom_site_occupancy
  Zr  Zr0  1  0.00000000  0.00000000  0.25139399  1
  Zr  Zr1  1  0.00000000  0.00000000  0.74860598  1
  Pt  Pt2  1  0.50000000  0.49999998  0.25000399  1
  Pt  Pt3  1  0.50000000  0.49999998  0.74999598  1
  Pt  Pt4  1  0.00000000  0.49999998  0.49999999  1
  Pt  Pt5  1  0.00000000  0.49999998  0.00000000  1
  Pt  Pt6  1  0.50000000  0.00000000  0.49999999  1
  Pt  Pt7  1  0.50000000  0.00000000  -0.00000000  1
