# generated using pymatgen
data_Y5MgNi3
_symmetry_space_group_name_H-M   'P 1'
_cell_length_a   4.24362516
_cell_length_b   7.04067993
_cell_length_c   7.04067945
_cell_angle_alpha   120.00000000
_cell_angle_beta   90.00000000
_cell_angle_gamma   90.00000000
_symmetry_Int_Tables_number   1
_chemical_formula_structural   Y5MgNi3
_chemical_formula_sum   'Y5 Mg1 Ni3'
_cell_volume   182.17837416
_cell_formula_units_Z   1
loop_
 _symmetry_equiv_pos_site_id
 _symmetry_equiv_pos_as_xyz
  1  'x, y, z'
loop_
 _atom_site_type_symbol
 _atom_site_label
 _atom_site_symmetry_multiplicity
 _atom_site_fract_x
 _atom_site_fract_y
 _atom_site_fract_z
 _atom_site_occupancy
  Y  Y0  1  0.49999998  0.76662498  0.76662494  1
  Y  Y1  1  0.49999998  0.23337500  -0.00000001  1
  Y  Y2  1  0.49999998  0.99999998  0.23337494  1
  Y  Y3  1  0.00000000  0.00000000  0.57635999  1
  Y  Y4  1  0.99999996  0.42363999  0.42363997  1
  Mg  Mg5  1  -0.00000000  0.57635999  -0.00000003  1
  Ni  Ni6  1  0.49999998  0.66666665  0.33333329  1
  Ni  Ni7  1  0.49999998  0.33333333  0.66666664  1
  Ni  Ni8  1  0.00000000  0.00000000  0.00000000  1
