# generated using pymatgen
data_SmGe
_symmetry_space_group_name_H-M   'P 1'
_cell_length_a   3.96831989
_cell_length_b   5.97202206
_cell_length_c   8.33957195
_cell_angle_alpha   90.00000000
_cell_angle_beta   90.00000000
_cell_angle_gamma   90.00000000
_symmetry_Int_Tables_number   1
_chemical_formula_structural   SmGe
_chemical_formula_sum   'Sm4 Ge4'
_cell_volume   197.63863111
_cell_formula_units_Z   4
loop_
 _symmetry_equiv_pos_site_id
 _symmetry_equiv_pos_as_xyz
  1  'x, y, z'
loop_
 _atom_site_type_symbol
 _atom_site_label
 _atom_site_symmetry_multiplicity
 _atom_site_fract_x
 _atom_site_fract_y
 _atom_site_fract_z
 _atom_site_occupancy
  Sm  Sm0  1  0.25000001  0.38622900  0.67973900  1
  Sm  Sm1  1  0.75000002  0.61377099  0.32026100  1
  Sm  Sm2  1  0.75000002  0.88622899  0.82026100  1
  Sm  Sm3  1  0.25000001  0.11377100  0.17973900  1
  Ge  Ge4  1  0.25000001  0.87957899  0.53476300  1
  Ge  Ge5  1  0.75000002  0.12042100  0.46523700  1
  Ge  Ge6  1  0.75000002  0.37957900  0.96523701  1
  Ge  Ge7  1  0.25000001  0.62042099  0.03476300  1
