# generated using pymatgen
data_V6O11F
_symmetry_space_group_name_H-M   'P 1'
_cell_length_a   5.39327431
_cell_length_b   5.39327431
_cell_length_c   7.08658504
_cell_angle_alpha   71.96284485
_cell_angle_beta   71.96284485
_cell_angle_gamma   71.67763519
_symmetry_Int_Tables_number   1
_chemical_formula_structural   V6O11F
_chemical_formula_sum   'V6 O11 F1'
_cell_volume   180.84435008
_cell_formula_units_Z   1
loop_
 _symmetry_equiv_pos_site_id
 _symmetry_equiv_pos_as_xyz
  1  'x, y, z'
loop_
 _atom_site_type_symbol
 _atom_site_label
 _atom_site_symmetry_multiplicity
 _atom_site_fract_x
 _atom_site_fract_y
 _atom_site_fract_z
 _atom_site_occupancy
  V  V0  1  0.66778293  0.66778298  0.83436302  1
  V  V1  1  0.65554094  0.65554098  0.33236801  1
  V  V2  1  0.33774797  0.33774799  0.66899301  1
  V  V3  1  0.33109997  0.33109999  0.16178701  1
  V  V4  1  0.00620500  0.00620500  0.51141301  1
  V  V5  1  0.00069600  0.00069600  0.99019401  1
  O  O6  1  0.64040697  0.02831200  0.66415901  1
  O  O7  1  0.97057594  0.36056699  0.33451401  1
  O  O8  1  0.56530094  0.56530098  0.62860602  1
  O  O9  1  0.23162298  0.23162299  0.96105102  1
  O  O10  1  0.10585999  0.10586000  0.70226301  1
  O  O11  1  0.43230896  0.43230899  0.37086101  1
  O  O12  1  0.76724092  0.76724098  0.03834801  1
  O  O13  1  0.69570995  0.30568799  0.00103100  1
  O  O14  1  0.36056693  0.97057597  0.33451402  1
  O  O15  1  0.02831196  0.64040698  0.66415902  1
  O  O16  1  0.30568795  0.69570998  0.00103101  1
  F  F17  1  0.89733191  0.89733197  0.30034401  1
