# generated using pymatgen
data_Ta2(CuS2)3
_symmetry_space_group_name_H-M   'P 1'
_cell_length_a   3.90619993
_cell_length_b   3.90620041
_cell_length_c   18.78408813
_cell_angle_alpha   90.00000000
_cell_angle_beta   90.00000000
_cell_angle_gamma   119.99999237
_symmetry_Int_Tables_number   1
_chemical_formula_structural   Ta2(CuS2)3
_chemical_formula_sum   'Ta2 Cu3 S6'
_cell_volume   248.21599941
_cell_formula_units_Z   1
loop_
 _symmetry_equiv_pos_site_id
 _symmetry_equiv_pos_as_xyz
  1  'x, y, z'
loop_
 _atom_site_type_symbol
 _atom_site_label
 _atom_site_symmetry_multiplicity
 _atom_site_fract_x
 _atom_site_fract_y
 _atom_site_fract_z
 _atom_site_occupancy
  Ta  Ta0  1  0.66666665  0.33333333  0.20226100  1
  Ta  Ta1  1  0.33333329  0.66666666  0.37369100  1
  Cu  Cu2  1  0.66666665  0.33333333  0.77562199  1
  Cu  Cu3  1  0.00000000  0.00000000  0.57839000  1
  Cu  Cu4  1  0.33333329  0.66666666  0.95202899  1
  S  S5  1  0.33333329  0.66666666  0.16500300  1
  S  S6  1  0.66666665  0.33333333  0.33920200  1
  S  S7  1  0.33333329  0.66666666  0.81856899  1
  S  S8  1  0.66666665  0.33333333  0.65602000  1
  S  S9  1  0.66666665  0.33333333  0.00689600  1
  S  S10  1  0.33333329  0.66666666  0.50791700  1
