# generated using pymatgen
data_ThCl4
_symmetry_space_group_name_H-M   'P 1'
_cell_length_a   7.17563295
_cell_length_b   7.17563295
_cell_length_c   7.17563295
_cell_angle_alpha   106.76886749
_cell_angle_beta   106.76886749
_cell_angle_gamma   115.02268219
_symmetry_Int_Tables_number   1
_chemical_formula_structural   ThCl4
_chemical_formula_sum   'Th2 Cl8'
_cell_volume   282.39697244
_cell_formula_units_Z   2
loop_
 _symmetry_equiv_pos_site_id
 _symmetry_equiv_pos_as_xyz
  1  'x, y, z'
loop_
 _atom_site_type_symbol
 _atom_site_label
 _atom_site_symmetry_multiplicity
 _atom_site_fract_x
 _atom_site_fract_y
 _atom_site_fract_z
 _atom_site_occupancy
  Th  Th0  1  0.75000006  0.25000003  0.50000009  1
  Th  Th1  1  0.00000000  0.00000000  0.00000000  1
  Cl  Cl2  1  0.07028407  0.38328105  0.31299706  1
  Cl  Cl3  1  0.13328106  0.32028404  0.81299706  1
  Cl  Cl4  1  0.61671918  0.92971611  0.68700318  1
  Cl  Cl5  1  0.67971617  0.86671910  0.18700317  1
  Cl  Cl6  1  0.67971610  0.49271306  0.81299712  1
  Cl  Cl7  1  0.24271317  0.92971611  0.31299715  1
  Cl  Cl8  1  0.07028413  0.75728709  0.68700312  1
  Cl  Cl9  1  0.50728707  0.32028404  0.18700308  1
