# generated using pymatgen
data_Tl4OF6
_symmetry_space_group_name_H-M   'P 1'
_cell_length_a   3.95099401
_cell_length_b   6.63030863
_cell_length_c   8.60951805
_cell_angle_alpha   90.00000000
_cell_angle_beta   90.00000000
_cell_angle_gamma   107.33448792
_symmetry_Int_Tables_number   1
_chemical_formula_structural   Tl4OF6
_chemical_formula_sum   'Tl4 O1 F6'
_cell_volume   215.29405069
_cell_formula_units_Z   1
loop_
 _symmetry_equiv_pos_site_id
 _symmetry_equiv_pos_as_xyz
  1  'x, y, z'
loop_
 _atom_site_type_symbol
 _atom_site_label
 _atom_site_symmetry_multiplicity
 _atom_site_fract_x
 _atom_site_fract_y
 _atom_site_fract_z
 _atom_site_occupancy
  Tl  Tl0  1  0.68763803  0.37527601  0.76076200  1
  Tl  Tl1  1  0.01105200  0.02210400  0.50000000  1
  Tl  Tl2  1  0.99752208  0.99504403  -0.00000000  1
  Tl  Tl3  1  0.68763803  0.37527601  0.23923900  1
  O  O4  1  0.36377206  0.72754402  0.33232100  1
  F  F5  1  0.36377206  0.72754402  0.66767900  1
  F  F6  1  0.30675005  0.61350002  -0.00000000  1
  F  F7  1  0.58767801  0.17535601  0.99999999  1
  F  F8  1  0.08959901  0.17919801  0.24680300  1
  F  F9  1  0.08959901  0.17919801  0.75319700  1
  F  F10  1  0.61708802  0.23417601  0.50000000  1
