# generated using pymatgen
data_CrF5
_symmetry_space_group_name_H-M   'P 1'
_cell_length_a   5.18373203
_cell_length_b   5.76943588
_cell_length_c   7.34374666
_cell_angle_alpha   109.06379700
_cell_angle_beta   90.00000000
_cell_angle_gamma   116.69498444
_symmetry_Int_Tables_number   1
_chemical_formula_structural   CrF5
_chemical_formula_sum   'Cr2 F10'
_cell_volume   182.63759213
_cell_formula_units_Z   2
loop_
 _symmetry_equiv_pos_site_id
 _symmetry_equiv_pos_as_xyz
  1  'x, y, z'
loop_
 _atom_site_type_symbol
 _atom_site_label
 _atom_site_symmetry_multiplicity
 _atom_site_fract_x
 _atom_site_fract_y
 _atom_site_fract_z
 _atom_site_occupancy
  Cr  Cr0  1  0.00353200  0.99735402  0.49841198  1
  Cr  Cr1  1  0.99382200  0.99735402  0.99841196  1
  F  F2  1  0.00763800  0.31940801  0.62425098  1
  F  F3  1  0.37099300  0.17479500  0.46908499  1
  F  F4  1  0.63435800  0.81323602  0.52267598  1
  F  F5  1  0.31177000  0.31940801  0.12425099  1
  F  F6  1  0.86771500  0.99712702  0.25079998  1
  F  F7  1  0.00683100  0.67668501  0.37988898  1
  F  F8  1  0.80380200  0.17479500  0.96908498  1
  F  F9  1  0.17887800  0.81323602  0.02267599  1
  F  F10  1  0.12941200  0.99712702  0.75079997  1
  F  F11  1  0.66985400  0.67668501  0.87988897  1
