# generated using pymatgen
data_SrH2
_symmetry_space_group_name_H-M   'P 1'
_cell_length_a   3.45097589
_cell_length_b   3.45097518
_cell_length_c   10.22842503
_cell_angle_alpha   90.00000000
_cell_angle_beta   90.00000000
_cell_angle_gamma   120.00000763
_symmetry_Int_Tables_number   1
_chemical_formula_structural   SrH2
_chemical_formula_sum   'Sr2 H4'
_cell_volume   105.49287442
_cell_formula_units_Z   2
loop_
 _symmetry_equiv_pos_site_id
 _symmetry_equiv_pos_as_xyz
  1  'x, y, z'
loop_
 _atom_site_type_symbol
 _atom_site_label
 _atom_site_symmetry_multiplicity
 _atom_site_fract_x
 _atom_site_fract_y
 _atom_site_fract_z
 _atom_site_occupancy
  Sr  Sr0  1  0.66666669  0.33333334  0.35600800  1
  Sr  Sr1  1  0.33333335  0.66666668  0.64399200  1
  H  H2  1  0.66666669  0.33333334  0.55837000  1
  H  H3  1  0.33333335  0.66666668  0.44163000  1
  H  H4  1  0.66666669  0.33333334  0.83118700  1
  H  H5  1  0.33333335  0.66666668  0.16881300  1
