# generated using pymatgen
data_TlCuP2O5
_symmetry_space_group_name_H-M   'P 1'
_cell_length_a   4.66586208
_cell_length_b   6.10820723
_cell_length_c   9.36250401
_cell_angle_alpha   90.00000000
_cell_angle_beta   97.38137817
_cell_angle_gamma   90.00000000
_symmetry_Int_Tables_number   1
_chemical_formula_structural   TlCuP2O5
_chemical_formula_sum   'Tl2 Cu2 P4 O10'
_cell_volume   264.62061206
_cell_formula_units_Z   2
loop_
 _symmetry_equiv_pos_site_id
 _symmetry_equiv_pos_as_xyz
  1  'x, y, z'
loop_
 _atom_site_type_symbol
 _atom_site_label
 _atom_site_symmetry_multiplicity
 _atom_site_fract_x
 _atom_site_fract_y
 _atom_site_fract_z
 _atom_site_occupancy
  Tl  Tl0  1  0.90788698  0.24999999  0.61464901  1
  Tl  Tl1  1  0.09211300  0.74999997  0.38535101  1
  Cu  Cu2  1  -0.00000000  0.49999998  -0.00000000  1
  Cu  Cu3  1  0.00000000  0.00000000  0.00000000  1
  P  P4  1  0.60370299  0.24999999  0.88914303  1
  P  P5  1  0.39629699  0.74999997  0.11085700  1
  P  P6  1  0.51276099  0.24999999  0.23273500  1
  P  P7  1  0.48723899  0.74999997  0.76726502  1
  O  O8  1  0.81602998  0.24999999  0.89898102  1
  O  O9  1  0.18397000  0.74999997  0.10101900  1
  O  O10  1  0.70219898  0.47919398  0.21843100  1
  O  O11  1  0.29780099  0.97919396  0.78156903  1
  O  O12  1  0.29780099  0.52080598  0.78156903  1
  O  O13  1  0.70219898  0.02080600  0.21843100  1
  O  O14  1  0.34891899  0.24999999  0.38048901  1
  O  O15  1  0.65108099  0.74999997  0.61951101  1
  O  O16  1  0.25041899  0.24999999  0.07775900  1
  O  O17  1  0.74958098  0.74999997  0.92224103  1
