# generated using pymatgen
data_Fe(HO)2
_symmetry_space_group_name_H-M   'P 1'
_cell_length_a   3.19638586
_cell_length_b   4.80422688
_cell_length_c   5.59126091
_cell_angle_alpha   93.13420868
_cell_angle_beta   89.99949646
_cell_angle_gamma   89.99849701
_symmetry_Int_Tables_number   1
_chemical_formula_structural   Fe(HO)2
_chemical_formula_sum   'Fe2 H4 O4'
_cell_volume   85.73188358
_cell_formula_units_Z   2
loop_
 _symmetry_equiv_pos_site_id
 _symmetry_equiv_pos_as_xyz
  1  'x, y, z'
loop_
 _atom_site_type_symbol
 _atom_site_label
 _atom_site_symmetry_multiplicity
 _atom_site_fract_x
 _atom_site_fract_y
 _atom_site_fract_z
 _atom_site_occupancy
  Fe  Fe0  1  0.43438803  0.99999702  0.49999799  1
  Fe  Fe1  1  0.93430102  0.00000100  0.00000397  1
  H  H2  1  0.94055603  0.41989501  0.67445996  1
  H  H3  1  0.44021102  0.42026801  0.17367099  1
  H  H4  1  0.44021802  0.57973101  0.82633098  1
  H  H5  1  0.94054803  0.58011401  0.32552697  1
  O  O6  1  0.93553203  0.21704800  0.67239596  1
  O  O7  1  0.43540401  0.21758000  0.17221599  1
  O  O8  1  0.43546503  0.78242701  0.82778798  1
  O  O9  1  0.93548504  0.78293701  0.32760897  1
