# generated using pymatgen
data_Cs2La2TeSe7
_symmetry_space_group_name_H-M   'P 1'
_cell_length_a   6.88038778
_cell_length_b   6.88038778
_cell_length_c   9.26311684
_cell_angle_alpha   90.00000000
_cell_angle_beta   90.00000000
_cell_angle_gamma   90.00000000
_symmetry_Int_Tables_number   1
_chemical_formula_structural   Cs2La2TeSe7
_chemical_formula_sum   'Cs2 La2 Te1 Se7'
_cell_volume   438.51350600
_cell_formula_units_Z   1
loop_
 _symmetry_equiv_pos_site_id
 _symmetry_equiv_pos_as_xyz
  1  'x, y, z'
loop_
 _atom_site_type_symbol
 _atom_site_label
 _atom_site_symmetry_multiplicity
 _atom_site_fract_x
 _atom_site_fract_y
 _atom_site_fract_z
 _atom_site_occupancy
  Cs  Cs0  1  0.50000002  0.50000002  0.00000000  1
  Cs  Cs1  1  0.00000000  0.00000000  0.00000000  1
  La  La2  1  0.50000002  0.50000002  0.50000001  1
  La  La3  1  0.00000000  0.00000000  0.50000001  1
  Te  Te4  1  0.35420701  0.85420703  0.29760301  1
  Se  Se5  1  0.14579300  0.35420701  0.29760301  1
  Se  Se6  1  0.85420703  0.64579302  0.29760301  1
  Se  Se7  1  0.35420701  0.14579300  0.70239701  1
  Se  Se8  1  0.64579302  0.85420703  0.70239701  1
  Se  Se9  1  0.64579302  0.14579300  0.29760301  1
  Se  Se10  1  0.85420703  0.35420701  0.70239701  1
  Se  Se11  1  0.14579300  0.64579302  0.70239701  1
