# generated using pymatgen
data_Sm3Mg
_symmetry_space_group_name_H-M   'P 1'
_cell_length_a   5.67327023
_cell_length_b   7.04457617
_cell_length_c   7.04457521
_cell_angle_alpha   120.00000000
_cell_angle_beta   90.00000000
_cell_angle_gamma   90.00000000
_symmetry_Int_Tables_number   1
_chemical_formula_structural   Sm3Mg
_chemical_formula_sum   'Sm6 Mg2'
_cell_volume   243.82250083
_cell_formula_units_Z   2
loop_
 _symmetry_equiv_pos_site_id
 _symmetry_equiv_pos_as_xyz
  1  'x, y, z'
loop_
 _atom_site_type_symbol
 _atom_site_label
 _atom_site_symmetry_multiplicity
 _atom_site_fract_x
 _atom_site_fract_y
 _atom_site_fract_z
 _atom_site_occupancy
  Sm  Sm0  1  0.74999997  0.82954095  0.17045895  1
  Sm  Sm1  1  0.74999997  0.34091798  0.17045898  1
  Sm  Sm2  1  0.74999997  0.82954095  0.65908196  1
  Sm  Sm3  1  0.24999999  0.17045899  0.82954100  1
  Sm  Sm4  1  0.24999999  0.65908196  0.82954097  1
  Sm  Sm5  1  0.24999999  0.17045899  0.34091799  1
  Mg  Mg6  1  0.24999999  0.66666663  0.33333330  1
  Mg  Mg7  1  0.74999997  0.33333331  0.66666666  1
