# generated using pymatgen
data_YCu4Pd
_symmetry_space_group_name_H-M   'P 1'
_cell_length_a   5.01368284
_cell_length_b   5.01368284
_cell_length_c   5.01368284
_cell_angle_alpha   60.00000000
_cell_angle_beta   60.00000000
_cell_angle_gamma   60.00000000
_symmetry_Int_Tables_number   1
_chemical_formula_structural   YCu4Pd
_chemical_formula_sum   'Y1 Cu4 Pd1'
_cell_volume   89.11597752
_cell_formula_units_Z   1
loop_
 _symmetry_equiv_pos_site_id
 _symmetry_equiv_pos_as_xyz
  1  'x, y, z'
loop_
 _atom_site_type_symbol
 _atom_site_label
 _atom_site_symmetry_multiplicity
 _atom_site_fract_x
 _atom_site_fract_y
 _atom_site_fract_z
 _atom_site_occupancy
  Y  Y0  1  0.74999997  0.74999997  0.74999997  1
  Cu  Cu1  1  0.87710897  0.37429699  0.37429699  1
  Cu  Cu2  1  0.37429699  0.87710897  0.37429699  1
  Cu  Cu3  1  0.37429699  0.37429699  0.37429699  1
  Cu  Cu4  1  0.37429699  0.37429699  0.87710897  1
  Pd  Pd5  1  0.00000000  0.00000000  0.00000000  1
