# generated using pymatgen
data_Sr4BiOF8
_symmetry_space_group_name_H-M   'P 1'
_cell_length_a   3.77679992
_cell_length_b   7.22487783
_cell_length_c   9.08256435
_cell_angle_alpha   77.30956268
_cell_angle_beta   77.99982452
_cell_angle_gamma   74.84836578
_symmetry_Int_Tables_number   1
_chemical_formula_structural   Sr4BiOF8
_chemical_formula_sum   'Sr4 Bi1 O1 F8'
_cell_volume   230.37621876
_cell_formula_units_Z   1
loop_
 _symmetry_equiv_pos_site_id
 _symmetry_equiv_pos_as_xyz
  1  'x, y, z'
loop_
 _atom_site_type_symbol
 _atom_site_label
 _atom_site_symmetry_multiplicity
 _atom_site_fract_x
 _atom_site_fract_y
 _atom_site_fract_z
 _atom_site_occupancy
  Sr  Sr0  1  0.62058502  0.21567500  0.54315604  1
  Sr  Sr1  1  0.37941506  0.78432500  0.45684403  1
  Sr  Sr2  1  0.83712505  0.52760700  0.79814406  1
  Sr  Sr3  1  0.16287504  0.47239300  0.20185602  1
  Bi  Bi4  1  0.88544102  0.06673400  0.16238302  1
  O  O5  1  0.11455907  0.93326600  0.83761705  1
  F  F6  1  0.96510307  0.78890400  0.28089004  1
  F  F7  1  0.03489702  0.21109600  0.71911004  1
  F  F8  1  0.58169504  0.48577000  0.35083903  1
  F  F9  1  0.41830504  0.51423000  0.64916104  1
  F  F10  1  0.79332904  0.35233400  0.06100902  1
  F  F11  1  0.20667105  0.64766600  0.93899105  1
  F  F12  1  0.76752307  0.85209200  0.61286205  1
  F  F13  1  0.23247701  0.14790800  0.38713802  1
