# generated using pymatgen
data_CoNi3(SnS4)2
_symmetry_space_group_name_H-M   'P 1'
_cell_length_a   6.89985180
_cell_length_b   6.89985180
_cell_length_c   6.89985180
_cell_angle_alpha   60.00000000
_cell_angle_beta   60.00000000
_cell_angle_gamma   60.00000000
_symmetry_Int_Tables_number   1
_chemical_formula_structural   CoNi3(SnS4)2
_chemical_formula_sum   'Co1 Ni3 Sn2 S8'
_cell_volume   232.27597419
_cell_formula_units_Z   1
loop_
 _symmetry_equiv_pos_site_id
 _symmetry_equiv_pos_as_xyz
  1  'x, y, z'
loop_
 _atom_site_type_symbol
 _atom_site_label
 _atom_site_symmetry_multiplicity
 _atom_site_fract_x
 _atom_site_fract_y
 _atom_site_fract_z
 _atom_site_occupancy
  Co  Co0  1  0.50000000  0.50000000  0.50000000  1
  Ni  Ni1  1  0.25000000  0.25000000  0.25000000  1
  Ni  Ni2  1  0.87371900  0.87371800  0.37884500  1
  Sn  Sn3  1  0.87371900  0.87371800  0.87371800  1
  Sn  Sn4  1  0.87371900  0.37884500  0.87371800  1
  Ni  Ni5  1  0.37884600  0.87371800  0.87371800  1
  S  S6  1  0.11600200  0.11600200  0.65199400  1
  S  S7  1  0.11600200  0.11600200  0.11600200  1
  S  S8  1  0.11600200  0.65199400  0.11600200  1
  S  S9  1  0.65199400  0.11600200  0.11600200  1
  S  S10  1  0.62623900  0.62624000  0.12128100  1
  S  S11  1  0.62623900  0.62624000  0.62624000  1
  S  S12  1  0.62623900  0.12128100  0.62624000  1
  S  S13  1  0.12128000  0.62624000  0.62624000  1
