# generated using pymatgen
data_Li2MnCo3O8
_symmetry_space_group_name_H-M   'P 1'
_cell_length_a   2.84258199
_cell_length_b   4.82017803
_cell_length_c   9.84019852
_cell_angle_alpha   80.41795349
_cell_angle_beta   89.99803925
_cell_angle_gamma   89.99898529
_symmetry_Int_Tables_number   1
_chemical_formula_structural   Li2MnCo3O8
_chemical_formula_sum   'Li2 Mn1 Co3 O8'
_cell_volume   132.94686571
_cell_formula_units_Z   1
loop_
 _symmetry_equiv_pos_site_id
 _symmetry_equiv_pos_as_xyz
  1  'x, y, z'
loop_
 _atom_site_type_symbol
 _atom_site_label
 _atom_site_symmetry_multiplicity
 _atom_site_fract_x
 _atom_site_fract_y
 _atom_site_fract_z
 _atom_site_occupancy
  Li  Li0  1  0.00000100  0.00223700  0.00102500  1
  Li  Li1  1  0.99999896  0.49776598  0.49897500  1
  Co  Co2  1  0.99999998  0.24999999  0.25000000  1
  Mn  Mn3  1  0.49999998  0.24999999  0.75000100  1
  Co  Co4  1  -0.00000007  0.74999997  0.75000099  1
  Co  Co5  1  0.49999994  0.74999997  0.24999900  1
  O  O6  1  0.50000595  0.62023098  0.64593200  1
  O  O7  1  0.50002699  0.11917600  0.14648400  1
  O  O8  1  0.49999492  0.87976897  0.85406900  1
  O  O9  1  0.49997297  0.38082499  0.35351500  1
  O  O10  1  0.99999597  0.38475099  0.84961600  1
  O  O11  1  0.00002492  0.88157897  0.34854600  1
  O  O12  1  0.00000399  0.11524800  0.65038499  1
  O  O13  1  0.99997495  0.61841898  0.15145300  1
