# generated using pymatgen
data_Ce(GeIr)3
_symmetry_space_group_name_H-M   'P 1'
_cell_length_a   6.02249002
_cell_length_b   6.02249002
_cell_length_c   7.63183594
_cell_angle_alpha   90.00000000
_cell_angle_beta   90.00000000
_cell_angle_gamma   90.00000000
_symmetry_Int_Tables_number   1
_chemical_formula_structural   Ce(GeIr)3
_chemical_formula_sum   'Ce2 Ge6 Ir6'
_cell_volume   276.80963607
_cell_formula_units_Z   2
loop_
 _symmetry_equiv_pos_site_id
 _symmetry_equiv_pos_as_xyz
  1  'x, y, z'
loop_
 _atom_site_type_symbol
 _atom_site_label
 _atom_site_symmetry_multiplicity
 _atom_site_fract_x
 _atom_site_fract_y
 _atom_site_fract_z
 _atom_site_occupancy
  Ce  Ce0  1  -0.00000000  0.50000000  0.00000000  1
  Ce  Ce1  1  0.50000000  0.00000000  0.00000000  1
  Ge  Ge2  1  0.50000000  0.50000000  0.16233100  1
  Ge  Ge3  1  0.00000000  0.00000000  0.83766901  1
  Ge  Ge4  1  0.50000000  0.50000000  0.83766901  1
  Ge  Ge5  1  0.00000000  0.00000000  0.16233100  1
  Ir  Ir6  1  0.18629600  0.68629600  0.35082500  1
  Ir  Ir7  1  0.81370400  0.31370400  0.35082500  1
  Ge  Ge8  1  0.68629600  0.18629600  0.64917501  1
  Ge  Ge9  1  0.31370400  0.81370400  0.64917501  1
  Ir  Ir10  1  0.18629600  0.31370400  0.64917501  1
  Ir  Ir11  1  0.81370400  0.68629600  0.64917501  1
  Ir  Ir12  1  0.68629600  0.81370400  0.35082500  1
  Ir  Ir13  1  0.31370400  0.18629600  0.35082500  1
