# generated using pymatgen
data_Ca2Ta2O7
_symmetry_space_group_name_H-M   'P 1'
_cell_length_a   3.93106890
_cell_length_b   3.93106890
_cell_length_c   11.18403149
_cell_angle_alpha   100.12200165
_cell_angle_beta   100.12199402
_cell_angle_gamma   90.00000000
_symmetry_Int_Tables_number   1
_chemical_formula_structural   Ca2Ta2O7
_chemical_formula_sum   'Ca2 Ta2 O7'
_cell_volume   167.40706980
_cell_formula_units_Z   1
loop_
 _symmetry_equiv_pos_site_id
 _symmetry_equiv_pos_as_xyz
  1  'x, y, z'
loop_
 _atom_site_type_symbol
 _atom_site_label
 _atom_site_symmetry_multiplicity
 _atom_site_fract_x
 _atom_site_fract_y
 _atom_site_fract_z
 _atom_site_occupancy
  Ca  Ca0  1  0.75000001  0.25000001  0.49999998  1
  Ca  Ca1  1  0.00000000  0.00000000  0.00000000  1
  Ta  Ta2  1  0.39345700  0.39345701  0.78691398  1
  Ta  Ta3  1  0.60654300  0.60654301  0.21308598  1
  O  O4  1  0.58643101  0.08643200  0.17286299  1
  O  O5  1  0.08565200  0.58565301  0.17130499  1
  O  O6  1  0.41434800  0.91434702  0.82869497  1
  O  O7  1  0.91356901  0.41356801  0.82713697  1
  O  O8  1  0.31004800  0.31004701  0.62009498  1
  O  O9  1  0.68995201  0.68995302  0.37990498  1
  O  O10  1  0.50000000  0.50000001  -0.00000001  1
