# generated using pymatgen
data_LuAg3
_symmetry_space_group_name_H-M   'P 1'
_cell_length_a   4.98478222
_cell_length_b   6.59471798
_cell_length_c   6.59471750
_cell_angle_alpha   120.00000000
_cell_angle_beta   90.00000000
_cell_angle_gamma   90.00000000
_symmetry_Int_Tables_number   1
_chemical_formula_structural   LuAg3
_chemical_formula_sum   'Lu2 Ag6'
_cell_volume   187.74537407
_cell_formula_units_Z   2
loop_
 _symmetry_equiv_pos_site_id
 _symmetry_equiv_pos_as_xyz
  1  'x, y, z'
loop_
 _atom_site_type_symbol
 _atom_site_label
 _atom_site_symmetry_multiplicity
 _atom_site_fract_x
 _atom_site_fract_y
 _atom_site_fract_z
 _atom_site_occupancy
  Lu  Lu0  1  0.24999999  0.66666666  0.33333333  1
  Lu  Lu1  1  0.74999997  0.33333333  0.66666668  1
  Ag  Ag2  1  0.74999997  0.83269399  0.16730698  1
  Ag  Ag3  1  0.74999997  0.33461300  0.16730700  1
  Ag  Ag4  1  0.74999997  0.83269399  0.66538800  1
  Ag  Ag5  1  0.24999999  0.16730600  0.83269302  1
  Ag  Ag6  1  0.24999999  0.66538699  0.83269301  1
  Ag  Ag7  1  0.24999999  0.16730600  0.33461201  1
