# generated using pymatgen
data_CsBr
_symmetry_space_group_name_H-M   'P 1'
_cell_length_a   6.65534592
_cell_length_b   10.11871624
_cell_length_c   10.11871719
_cell_angle_alpha   120.00000000
_cell_angle_beta   90.00000000
_cell_angle_gamma   90.00000000
_symmetry_Int_Tables_number   1
_chemical_formula_structural   CsBr
_chemical_formula_sum   'Cs6 Br6'
_cell_volume   590.13604266
_cell_formula_units_Z   6
loop_
 _symmetry_equiv_pos_site_id
 _symmetry_equiv_pos_as_xyz
  1  'x, y, z'
loop_
 _atom_site_type_symbol
 _atom_site_label
 _atom_site_symmetry_multiplicity
 _atom_site_fract_x
 _atom_site_fract_y
 _atom_site_fract_z
 _atom_site_occupancy
  Cs  Cs0  1  -0.00000000  0.34598400  0.34598400  1
  Cs  Cs1  1  -0.00000000  0.65401600  0.00000003  1
  Cs  Cs2  1  -0.00000000  1.00000000  0.65401602  1
  Cs  Cs3  1  0.50000001  0.67980400  0.67980401  1
  Cs  Cs4  1  0.50000001  0.32019600  0.00000002  1
  Cs  Cs5  1  0.50000001  0.00000000  0.32019599  1
  Br  Br6  1  0.78778201  0.00000000  -0.00000000  1
  Br  Br7  1  0.21221800  0.00000000  -0.00000000  1
  Br  Br8  1  0.71315901  0.66666667  0.33333335  1
  Br  Br9  1  0.28684100  0.66666667  0.33333335  1
  Br  Br10  1  0.28684100  0.33333333  0.66666666  1
  Br  Br11  1  0.71315901  0.33333333  0.66666666  1
