# generated using pymatgen
data_Sc2C
_symmetry_space_group_name_H-M   'P 1'
_cell_length_a   3.52832603
_cell_length_b   3.52832603
_cell_length_c   6.20524502
_cell_angle_alpha   90.00000000
_cell_angle_beta   90.00000000
_cell_angle_gamma   120.00000000
_symmetry_Int_Tables_number   1
_chemical_formula_structural   Sc2C
_chemical_formula_sum   'Sc2 C1'
_cell_volume   66.90013355
_cell_formula_units_Z   1
loop_
 _symmetry_equiv_pos_site_id
 _symmetry_equiv_pos_as_xyz
  1  'x, y, z'
loop_
 _atom_site_type_symbol
 _atom_site_label
 _atom_site_symmetry_multiplicity
 _atom_site_fract_x
 _atom_site_fract_y
 _atom_site_fract_z
 _atom_site_occupancy
  Sc  Sc0  1  0.00000000  0.00000000  0.00000000  1
  Sc  Sc1  1  0.33333334  0.66666667  0.21523200  1
  C  C2  1  0.66666666  0.33333334  0.78476800  1
