# generated using pymatgen
data_LiLaO2
_symmetry_space_group_name_H-M   'P 1'
_cell_length_a   6.21958923
_cell_length_b   6.71070337
_cell_length_c   6.73839712
_cell_angle_alpha   117.39405823
_cell_angle_beta   90.00000000
_cell_angle_gamma   90.00000000
_symmetry_Int_Tables_number   1
_chemical_formula_structural   LiLaO2
_chemical_formula_sum   'Li4 La4 O8'
_cell_volume   249.70794290
_cell_formula_units_Z   4
loop_
 _symmetry_equiv_pos_site_id
 _symmetry_equiv_pos_as_xyz
  1  'x, y, z'
loop_
 _atom_site_type_symbol
 _atom_site_label
 _atom_site_symmetry_multiplicity
 _atom_site_fract_x
 _atom_site_fract_y
 _atom_site_fract_z
 _atom_site_occupancy
  Li  Li0  1  0.82998897  0.60278801  0.28409603  1
  Li  Li1  1  0.32998899  0.89721201  0.21590405  1
  Li  Li2  1  0.67001097  0.10278800  0.78409599  1
  Li  Li3  1  0.17001099  0.39721200  0.71590401  1
  La  La4  1  0.13880199  0.95907701  0.73798505  1
  La  La5  1  0.36119799  0.45907701  0.23798502  1
  La  La6  1  0.63880198  0.54092301  0.76201502  1
  La  La7  1  0.86119797  0.04092300  0.26201500  1
  O  O8  1  0.80413397  0.89045101  0.85724204  1
  O  O9  1  0.69586597  0.39045100  0.35724202  1
  O  O10  1  0.09972900  0.76289001  0.31780704  1
  O  O11  1  0.59972898  0.73711001  0.18219304  1
  O  O12  1  0.40027098  0.26289000  0.81780700  1
  O  O13  1  0.90027097  0.23711000  0.68219300  1
  O  O14  1  0.30413399  0.60954901  0.64275803  1
  O  O15  1  0.19586599  0.10954900  0.14275800  1
