# generated using pymatgen
data_CsYAgSe3
_symmetry_space_group_name_H-M   'P 1'
_cell_length_a   4.27583981
_cell_length_b   8.00599861
_cell_length_c   10.92069626
_cell_angle_alpha   90.00000000
_cell_angle_beta   90.00000000
_cell_angle_gamma   105.48818970
_symmetry_Int_Tables_number   1
_chemical_formula_structural   CsYAgSe3
_chemical_formula_sum   'Cs2 Y2 Ag2 Se6'
_cell_volume   360.26543554
_cell_formula_units_Z   2
loop_
 _symmetry_equiv_pos_site_id
 _symmetry_equiv_pos_as_xyz
  1  'x, y, z'
loop_
 _atom_site_type_symbol
 _atom_site_label
 _atom_site_symmetry_multiplicity
 _atom_site_fract_x
 _atom_site_fract_y
 _atom_site_fract_z
 _atom_site_occupancy
  Cs  Cs0  1  0.25394299  0.50788601  0.74999998  1
  Cs  Cs1  1  0.74605701  0.49211401  0.24999999  1
  Y  Y2  1  0.00000000  0.00000000  0.49999999  1
  Y  Y3  1  0.00000000  0.00000000  0.00000000  1
  Ag  Ag4  1  0.45861298  0.91722601  0.24999999  1
  Ag  Ag5  1  0.54138702  0.08277400  0.74999998  1
  Se  Se6  1  0.37809798  0.75619601  0.46032799  1
  Se  Se7  1  0.62190202  0.24380400  0.53967199  1
  Se  Se8  1  0.62190202  0.24380400  0.96032798  1
  Se  Se9  1  0.06283700  0.12567400  0.24999999  1
  Se  Se10  1  0.93716300  0.87432601  0.74999998  1
  Se  Se11  1  0.37809798  0.75619601  0.03967200  1
