# generated using pymatgen
data_Ca2NiSbO6
_symmetry_space_group_name_H-M   'P 1'
_cell_length_a   5.50338888
_cell_length_b   5.78455210
_cell_length_c   7.80433512
_cell_angle_alpha   90.00000000
_cell_angle_beta   89.59696960
_cell_angle_gamma   90.00000000
_symmetry_Int_Tables_number   1
_chemical_formula_structural   Ca2NiSbO6
_chemical_formula_sum   'Ca4 Ni2 Sb2 O12'
_cell_volume   248.44204995
_cell_formula_units_Z   2
loop_
 _symmetry_equiv_pos_site_id
 _symmetry_equiv_pos_as_xyz
  1  'x, y, z'
loop_
 _atom_site_type_symbol
 _atom_site_label
 _atom_site_symmetry_multiplicity
 _atom_site_fract_x
 _atom_site_fract_y
 _atom_site_fract_z
 _atom_site_occupancy
  Ca  Ca0  1  0.48244701  0.06254200  0.24657700  1
  Ca  Ca1  1  0.51755301  0.93745798  0.75342300  1
  Ca  Ca2  1  0.01755300  0.56254199  0.25342300  1
  Ca  Ca3  1  0.98244702  0.43745799  0.74657701  1
  Ni  Ni4  1  0.50000001  0.49999999  0.00000001  1
  Ni  Ni5  1  0.00000000  0.00000000  0.50000000  1
  Sb  Sb6  1  0.50000001  0.49999999  0.50000000  1
  Sb  Sb7  1  0.00000000  0.00000000  0.00000000  1
  O  O8  1  0.60411801  0.46048599  0.25178001  1
  O  O9  1  0.39588201  0.53951399  0.74822000  1
  O  O10  1  0.89588202  0.96048598  0.24822001  1
  O  O11  1  0.10411800  0.03951400  0.75178000  1
  O  O12  1  0.30869601  0.79397699  0.44345400  1
  O  O13  1  0.69130401  0.20602300  0.55654601  1
  O  O14  1  0.19130400  0.29397700  0.05654600  1
  O  O15  1  0.80869602  0.70602299  0.94345401  1
  O  O16  1  0.19680100  0.30443599  0.45232500  1
  O  O17  1  0.80319902  0.69556399  0.54767501  1
  O  O18  1  0.30319901  0.80443599  0.04767500  1
  O  O19  1  0.69680101  0.19556400  0.95232500  1
