# generated using pymatgen
data_TiFeNi
_symmetry_space_group_name_H-M   'P 1'
_cell_length_a   2.95837998
_cell_length_b   2.95837998
_cell_length_c   4.80225515
_cell_angle_alpha   107.93994141
_cell_angle_beta   107.93994141
_cell_angle_gamma   90.00000000
_symmetry_Int_Tables_number   1
_chemical_formula_structural   TiFeNi
_chemical_formula_sum   'Ti1 Fe1 Ni1'
_cell_volume   37.83223377
_cell_formula_units_Z   1
loop_
 _symmetry_equiv_pos_site_id
 _symmetry_equiv_pos_as_xyz
  1  'x, y, z'
loop_
 _atom_site_type_symbol
 _atom_site_label
 _atom_site_symmetry_multiplicity
 _atom_site_fract_x
 _atom_site_fract_y
 _atom_site_fract_z
 _atom_site_occupancy
  Ti  Ti0  1  0.00000000  0.00000000  0.00000000  1
  Fe  Fe1  1  0.31567102  0.31567101  0.63134203  1
  Ni  Ni2  1  0.68432904  0.68432902  0.36865805  1
