# generated using pymatgen
data_ZnCl2
_symmetry_space_group_name_H-M   'P 1'
_cell_length_a   6.35769987
_cell_length_b   6.57585096
_cell_length_c   8.09504128
_cell_angle_alpha   90.00000000
_cell_angle_beta   90.00000000
_cell_angle_gamma   90.00000000
_symmetry_Int_Tables_number   1
_chemical_formula_structural   ZnCl2
_chemical_formula_sum   'Zn4 Cl8'
_cell_volume   338.43171243
_cell_formula_units_Z   4
loop_
 _symmetry_equiv_pos_site_id
 _symmetry_equiv_pos_as_xyz
  1  'x, y, z'
loop_
 _atom_site_type_symbol
 _atom_site_label
 _atom_site_symmetry_multiplicity
 _atom_site_fract_x
 _atom_site_fract_y
 _atom_site_fract_z
 _atom_site_occupancy
  Zn  Zn0  1  0.37469601  0.57650700  0.37508499  1
  Zn  Zn1  1  0.87469602  0.42349300  0.62491498  1
  Zn  Zn2  1  0.87469602  0.92349301  0.87508497  1
  Zn  Zn3  1  0.37469601  0.07650700  0.12491500  1
  Cl  Cl4  1  0.98590502  0.59073600  0.85919897  1
  Cl  Cl5  1  0.48590501  0.40926400  0.14080100  1
  Cl  Cl6  1  0.48590501  0.90926401  0.35919899  1
  Cl  Cl7  1  0.98590502  0.09073600  0.64080098  1
  Cl  Cl8  1  0.01229900  0.06309200  0.11243100  1
  Cl  Cl9  1  0.51229901  0.93690801  0.88756897  1
  Cl  Cl10  1  0.51229901  0.43690800  0.61243098  1
  Cl  Cl11  1  0.01229900  0.56309200  0.38756899  1
