# generated using pymatgen
data_SnPb
_symmetry_space_group_name_H-M   'P 1'
_cell_length_a   5.54599762
_cell_length_b   5.54599762
_cell_length_c   5.71221352
_cell_angle_alpha   105.05852509
_cell_angle_beta   105.05852509
_cell_angle_gamma   117.69830322
_symmetry_Int_Tables_number   1
_chemical_formula_structural   SnPb
_chemical_formula_sum   'Sn3 Pb3'
_cell_volume   134.51986393
_cell_formula_units_Z   3
loop_
 _symmetry_equiv_pos_site_id
 _symmetry_equiv_pos_as_xyz
  1  'x, y, z'
loop_
 _atom_site_type_symbol
 _atom_site_label
 _atom_site_symmetry_multiplicity
 _atom_site_fract_x
 _atom_site_fract_y
 _atom_site_fract_z
 _atom_site_occupancy
  Sn  Sn0  1  0.74999997  0.24999999  0.49999991  1
  Sn  Sn1  1  0.24999995  0.74999996  0.49999990  1
  Pb  Pb2  1  0.34645796  0.65354197  -0.00000008  1
  Pb  Pb3  1  0.65354197  0.34645798  -0.00000007  1
  Pb  Pb4  1  0.15085699  0.15085699  0.30171397  1
  Sn  Sn5  1  0.84914294  0.84914296  0.69828585  1
