# generated using pymatgen
data_Ca2MnIrO6
_symmetry_space_group_name_H-M   'P 1'
_cell_length_a   5.38181019
_cell_length_b   5.75038385
_cell_length_c   7.50055552
_cell_angle_alpha   90.00000000
_cell_angle_beta   90.57482910
_cell_angle_gamma   90.00000000
_symmetry_Int_Tables_number   1
_chemical_formula_structural   Ca2MnIrO6
_chemical_formula_sum   'Ca4 Mn2 Ir2 O12'
_cell_volume   232.11156788
_cell_formula_units_Z   2
loop_
 _symmetry_equiv_pos_site_id
 _symmetry_equiv_pos_as_xyz
  1  'x, y, z'
loop_
 _atom_site_type_symbol
 _atom_site_label
 _atom_site_symmetry_multiplicity
 _atom_site_fract_x
 _atom_site_fract_y
 _atom_site_fract_z
 _atom_site_occupancy
  Ca  Ca0  1  0.51883798  0.42852801  0.24955001  1
  Ca  Ca1  1  0.98116197  0.92852802  0.25045002  1
  Ca  Ca2  1  0.48116198  0.57147201  0.75045001  1
  Ca  Ca3  1  0.01883800  0.07147200  0.74955000  1
  Mn  Mn4  1  0.00000000  0.50000001  0.00000000  1
  Mn  Mn5  1  0.49999998  0.00000000  0.50000001  1
  Ir  Ir6  1  0.00000000  0.50000001  0.50000000  1
  Ir  Ir7  1  0.49999998  0.00000000  1.00000001  1
  O  O8  1  0.80330797  0.18625800  0.05733602  1
  O  O9  1  0.69669198  0.68625802  0.44266402  1
  O  O10  1  0.18889799  0.80493802  0.55378800  1
  O  O11  1  0.31110199  0.30493801  0.94621200  1
  O  O12  1  0.19669199  0.81374202  0.94266400  1
  O  O13  1  0.30330799  0.31374201  0.55733600  1
  O  O14  1  0.81110197  0.19506200  0.44621202  1
  O  O15  1  0.68889798  0.69506202  0.05378802  1
  O  O16  1  0.38784499  0.03981500  0.25523701  1
  O  O17  1  0.11215500  0.53981501  0.24476300  1
  O  O18  1  0.61215498  0.96018502  0.74476301  1
  O  O19  1  0.88784497  0.46018501  0.75523702  1
