# generated using pymatgen
data_Sr4Zn3Sb8
_symmetry_space_group_name_H-M   'P 1'
_cell_length_a   4.42204905
_cell_length_b   4.42204905
_cell_length_c   21.22191048
_cell_angle_alpha   90.00000000
_cell_angle_beta   90.00000000
_cell_angle_gamma   90.00000000
_symmetry_Int_Tables_number   1
_chemical_formula_structural   Sr4Zn3Sb8
_chemical_formula_sum   'Sr4 Zn3 Sb8'
_cell_volume   414.98422535
_cell_formula_units_Z   1
loop_
 _symmetry_equiv_pos_site_id
 _symmetry_equiv_pos_as_xyz
  1  'x, y, z'
loop_
 _atom_site_type_symbol
 _atom_site_label
 _atom_site_symmetry_multiplicity
 _atom_site_fract_x
 _atom_site_fract_y
 _atom_site_fract_z
 _atom_site_occupancy
  Sr  Sr0  1  0.49999999  0.00000000  0.36378901  1
  Sr  Sr1  1  0.49999999  0.00000000  0.88118402  1
  Sr  Sr2  1  0.00000000  0.49999999  0.11881600  1
  Sr  Sr3  1  0.00000000  0.49999999  0.63621102  1
  Zn  Zn4  1  0.49999999  0.49999999  0.50000001  1
  Zn  Zn5  1  0.00000000  0.00000000  0.00000000  1
  Zn  Zn6  1  0.00000000  0.00000000  0.50000001  1
  Sb  Sb7  1  0.49999999  0.49999999  0.24063201  1
  Sb  Sb8  1  0.49999999  0.49999999  0.75936802  1
  Sb  Sb9  1  0.00000000  0.00000000  0.23997101  1
  Sb  Sb10  1  0.00000000  0.00000000  0.76002902  1
  Sb  Sb11  1  0.49999999  0.00000000  0.06751400  1
  Sb  Sb12  1  0.49999999  0.00000000  0.58071801  1
  Sb  Sb13  1  0.00000000  0.49999999  0.41928201  1
  Sb  Sb14  1  0.00000000  0.49999999  0.93248602  1
