# generated using pymatgen
data_CaN
_symmetry_space_group_name_H-M   'P 1'
_cell_length_a   4.71907187
_cell_length_b   4.71907187
_cell_length_c   6.34440660
_cell_angle_alpha   111.83334351
_cell_angle_beta   111.83334351
_cell_angle_gamma   90.00000000
_symmetry_Int_Tables_number   1
_chemical_formula_structural   CaN
_chemical_formula_sum   'Ca4 N4'
_cell_volume   120.16667724
_cell_formula_units_Z   4
loop_
 _symmetry_equiv_pos_site_id
 _symmetry_equiv_pos_as_xyz
  1  'x, y, z'
loop_
 _atom_site_type_symbol
 _atom_site_label
 _atom_site_symmetry_multiplicity
 _atom_site_fract_x
 _atom_site_fract_y
 _atom_site_fract_z
 _atom_site_occupancy
  Ca  Ca0  1  0.50000005  0.50000003  0.00000005  1
  Ca  Ca1  1  0.25000005  0.75000004  0.50000005  1
  Ca  Ca2  1  0.00000000  0.00000000  0.00000000  1
  Ca  Ca3  1  0.75000005  0.25000001  0.50000005  1
  N  N4  1  0.21988902  0.21988901  0.43977802  1
  N  N5  1  0.53011103  0.03011100  0.06022202  1
  N  N6  1  0.96988907  0.46988903  0.93977807  1
  N  N7  1  0.78011107  0.78011104  0.56022208  1
