# generated using pymatgen
data_CeAg2
_symmetry_space_group_name_H-M   'P 1'
_cell_length_a   4.92396212
_cell_length_b   5.89781523
_cell_length_c   5.89781523
_cell_angle_alpha   65.67705536
_cell_angle_beta   65.32696533
_cell_angle_gamma   65.32696533
_symmetry_Int_Tables_number   1
_chemical_formula_structural   CeAg2
_chemical_formula_sum   'Ce2 Ag4'
_cell_volume   135.44782448
_cell_formula_units_Z   2
loop_
 _symmetry_equiv_pos_site_id
 _symmetry_equiv_pos_as_xyz
  1  'x, y, z'
loop_
 _atom_site_type_symbol
 _atom_site_label
 _atom_site_symmetry_multiplicity
 _atom_site_fract_x
 _atom_site_fract_y
 _atom_site_fract_z
 _atom_site_occupancy
  Ce  Ce0  1  0.50509601  0.74490403  0.24490399  1
  Ce  Ce1  1  0.49490399  0.25509601  0.75509603  1
  Ag  Ag2  1  0.16726803  0.83846103  0.82700200  1
  Ag  Ag3  1  0.83273198  0.16153901  0.17299802  1
  Ag  Ag4  1  0.16726901  0.32700101  0.33846100  1
  Ag  Ag5  1  0.83273100  0.67299903  0.66153902  1
