# generated using pymatgen
data_Sb2S3
_symmetry_space_group_name_H-M   'P 1'
_cell_length_a   3.87740207
_cell_length_b   11.21426487
_cell_length_c   12.20111370
_cell_angle_alpha   90.00000000
_cell_angle_beta   90.00000000
_cell_angle_gamma   90.00000000
_symmetry_Int_Tables_number   1
_chemical_formula_structural   Sb2S3
_chemical_formula_sum   'Sb8 S12'
_cell_volume   530.53143439
_cell_formula_units_Z   4
loop_
 _symmetry_equiv_pos_site_id
 _symmetry_equiv_pos_as_xyz
  1  'x, y, z'
loop_
 _atom_site_type_symbol
 _atom_site_label
 _atom_site_symmetry_multiplicity
 _atom_site_fract_x
 _atom_site_fract_y
 _atom_site_fract_z
 _atom_site_occupancy
  Sb  Sb0  1  0.49999999  0.17430100  0.28522301  1
  Sb  Sb1  1  0.00000000  0.67430101  0.71477702  1
  Sb  Sb2  1  0.00000000  0.46633401  0.39557701  1
  Sb  Sb3  1  0.49999999  0.96633401  0.60442301  1
  Sb  Sb4  1  0.00000000  0.83063901  0.21932501  1
  Sb  Sb5  1  0.49999999  0.33063900  0.78067502  1
  Sb  Sb6  1  0.49999999  0.53230701  0.11487900  1
  Sb  Sb7  1  -0.00000000  0.03230700  0.88512102  1
  S  S8  1  0.00000000  0.05583500  0.37211301  1
  S  S9  1  0.49999999  0.55583501  0.62788702  1
  S  S10  1  0.49999999  0.30983400  0.45253201  1
  S  S11  1  0.00000000  0.80983401  0.54746801  1
  S  S12  1  0.00000000  0.37267100  0.21041901  1
  S  S13  1  0.49999999  0.87267101  0.78958102  1
  S  S14  1  0.49999999  0.94082701  0.12601300  1
  S  S15  1  0.00000000  0.44082701  0.87398702  1
  S  S16  1  0.00000000  0.68535201  0.05674800  1
  S  S17  1  0.49999999  0.18535200  0.94325202  1
  S  S18  1  0.49999999  0.62294001  0.30071601  1
  S  S19  1  0.00000000  0.12294000  0.69928402  1
