# generated using pymatgen
data_Dy3CoSi4Ir
_symmetry_space_group_name_H-M   'P 1'
_cell_length_a   4.16753912
_cell_length_b   5.70356226
_cell_length_c   8.02938175
_cell_angle_alpha   106.52386475
_cell_angle_beta   90.00000000
_cell_angle_gamma   111.42884064
_symmetry_Int_Tables_number   1
_chemical_formula_structural   Dy3CoSi4Ir
_chemical_formula_sum   'Dy3 Co1 Si4 Ir1'
_cell_volume   169.16764039
_cell_formula_units_Z   1
loop_
 _symmetry_equiv_pos_site_id
 _symmetry_equiv_pos_as_xyz
  1  'x, y, z'
loop_
 _atom_site_type_symbol
 _atom_site_label
 _atom_site_symmetry_multiplicity
 _atom_site_fract_x
 _atom_site_fract_y
 _atom_site_fract_z
 _atom_site_occupancy
  Dy  Dy0  1  0.37629503  0.75259099  0.30781600  1
  Dy  Dy1  1  0.62370499  0.24740900  0.69218401  1
  Dy  Dy2  1  0.00000000  0.00000000  0.00000000  1
  Si  Si3  1  0.31015502  0.62030999  0.63047101  1
  Co  Co4  1  0.68984500  0.37969000  0.36952900  1
  Si  Si5  1  0.09806601  0.19613300  0.40072501  1
  Si  Si6  1  0.90193401  0.80386699  0.59927500  1
  Ir  Ir7  1  0.70991100  0.41982300  0.08067800  1
  Si  Si8  1  0.29008902  0.58017699  0.91932201  1
