# generated using pymatgen
data_Rb2InTeBr6
_symmetry_space_group_name_H-M   'P 1'
_cell_length_a   7.84388304
_cell_length_b   7.84388304
_cell_length_c   7.84388304
_cell_angle_alpha   60.00000000
_cell_angle_beta   60.00000000
_cell_angle_gamma   60.00000000
_symmetry_Int_Tables_number   1
_chemical_formula_structural   Rb2InTeBr6
_chemical_formula_sum   'Rb2 In1 Te1 Br6'
_cell_volume   341.25445494
_cell_formula_units_Z   1
loop_
 _symmetry_equiv_pos_site_id
 _symmetry_equiv_pos_as_xyz
  1  'x, y, z'
loop_
 _atom_site_type_symbol
 _atom_site_label
 _atom_site_symmetry_multiplicity
 _atom_site_fract_x
 _atom_site_fract_y
 _atom_site_fract_z
 _atom_site_occupancy
  Rb  Rb0  1  0.25000001  0.25000001  0.25000001  1
  Rb  Rb1  1  0.75000002  0.75000002  0.75000002  1
  In  In2  1  0.50000001  0.50000001  0.50000001  1
  Te  Te3  1  0.00000000  0.00000000  0.00000000  1
  Br  Br4  1  0.24616301  0.75383702  0.24616301  1
  Br  Br5  1  0.24616301  0.24616301  0.75383702  1
  Br  Br6  1  0.75383702  0.24616301  0.75383702  1
  Br  Br7  1  0.24616301  0.75383702  0.75383702  1
  Br  Br8  1  0.75383702  0.24616301  0.24616301  1
  Br  Br9  1  0.75383702  0.75383702  0.24616301  1
