# generated using pymatgen
data_Te2WCl6
_symmetry_space_group_name_H-M   'P 1'
_cell_length_a   6.69973993
_cell_length_b   7.83180046
_cell_length_c   11.54732132
_cell_angle_alpha   77.76538086
_cell_angle_beta   76.07930756
_cell_angle_gamma   88.46553040
_symmetry_Int_Tables_number   1
_chemical_formula_structural   Te2WCl6
_chemical_formula_sum   'Te4 W2 Cl12'
_cell_volume   574.56018179
_cell_formula_units_Z   2
loop_
 _symmetry_equiv_pos_site_id
 _symmetry_equiv_pos_as_xyz
  1  'x, y, z'
loop_
 _atom_site_type_symbol
 _atom_site_label
 _atom_site_symmetry_multiplicity
 _atom_site_fract_x
 _atom_site_fract_y
 _atom_site_fract_z
 _atom_site_occupancy
  Te  Te0  1  0.26376201  0.14795900  0.49431402  1
  Te  Te1  1  0.38306204  0.90450101  0.67193701  1
  Te  Te2  1  0.73623804  0.85204101  0.50568602  1
  Te  Te3  1  0.61693800  0.09549900  0.32806302  1
  W  W4  1  0.20870903  0.67093901  0.19569100  1
  W  W5  1  0.79129102  0.32906100  0.80430904  1
  Cl  Cl6  1  0.26982403  0.63040301  0.39116201  1
  Cl  Cl7  1  0.14068403  0.71130301  0.00497299  1
  Cl  Cl8  1  0.12121902  0.44774001  0.71700002  1
  Cl  Cl9  1  0.33477902  0.39141801  0.18155401  1
  Cl  Cl10  1  0.46781601  0.20336800  0.88796403  1
  Cl  Cl11  1  0.85931601  0.28869700  0.99502705  1
  Cl  Cl12  1  0.92030800  0.04844200  0.78253805  1
  Cl  Cl13  1  0.73017602  0.36959701  0.60883803  1
  Cl  Cl14  1  0.66522103  0.60858201  0.81844603  1
  Cl  Cl15  1  0.07969205  0.95155801  0.21746199  1
  Cl  Cl16  1  0.53218404  0.79663201  0.11203600  1
  Cl  Cl17  1  0.87878103  0.55226001  0.28300002  1
