# generated using pymatgen
data_Sm2Si
_symmetry_space_group_name_H-M   'P 1'
_cell_length_a   5.12154198
_cell_length_b   6.53184509
_cell_length_c   9.39522266
_cell_angle_alpha   90.00000000
_cell_angle_beta   90.00000000
_cell_angle_gamma   90.00000000
_symmetry_Int_Tables_number   1
_chemical_formula_structural   Sm2Si
_chemical_formula_sum   'Sm8 Si4'
_cell_volume   314.29950020
_cell_formula_units_Z   4
loop_
 _symmetry_equiv_pos_site_id
 _symmetry_equiv_pos_as_xyz
  1  'x, y, z'
loop_
 _atom_site_type_symbol
 _atom_site_label
 _atom_site_symmetry_multiplicity
 _atom_site_fract_x
 _atom_site_fract_y
 _atom_site_fract_z
 _atom_site_occupancy
  Sm  Sm0  1  0.25000000  0.80856999  0.92781403  1
  Sm  Sm1  1  0.25000000  0.30857000  0.57218602  1
  Sm  Sm2  1  0.75000000  0.19143000  0.07218600  1
  Sm  Sm3  1  0.75000000  0.69142999  0.42781402  1
  Sm  Sm4  1  0.25000000  0.97241099  0.28979401  1
  Sm  Sm5  1  0.25000000  0.47241099  0.21020601  1
  Sm  Sm6  1  0.75000000  0.02758900  0.71020603  1
  Sm  Sm7  1  0.75000000  0.52758899  0.78979403  1
  Si  Si8  1  0.25000000  0.29069500  0.89757803  1
  Si  Si9  1  0.25000000  0.79069499  0.60242202  1
  Si  Si10  1  0.75000000  0.70930499  0.10242200  1
  Si  Si11  1  0.75000000  0.20930500  0.39757801  1
