# generated using pymatgen
data_Ca2TaRuO6
_symmetry_space_group_name_H-M   'P 1'
_cell_length_a   5.43940592
_cell_length_b   5.62870789
_cell_length_c   7.81804466
_cell_angle_alpha   90.00000000
_cell_angle_beta   90.51165771
_cell_angle_gamma   90.00000000
_symmetry_Int_Tables_number   1
_chemical_formula_structural   Ca2TaRuO6
_chemical_formula_sum   'Ca4 Ta2 Ru2 O12'
_cell_volume   239.35417660
_cell_formula_units_Z   2
loop_
 _symmetry_equiv_pos_site_id
 _symmetry_equiv_pos_as_xyz
  1  'x, y, z'
loop_
 _atom_site_type_symbol
 _atom_site_label
 _atom_site_symmetry_multiplicity
 _atom_site_fract_x
 _atom_site_fract_y
 _atom_site_fract_z
 _atom_site_occupancy
  Ca  Ca0  1  0.48394501  0.44419801  0.75391301  1
  Ca  Ca1  1  0.51605501  0.55580201  0.24608701  1
  Ca  Ca2  1  0.01605500  0.94419802  0.74608701  1
  Ca  Ca3  1  0.98394501  0.05580200  0.25391301  1
  Ta  Ta4  1  0.50000001  0.00000000  0.00000000  1
  Ta  Ta5  1  -0.00000000  0.50000001  0.00000000  1
  Ru  Ru6  1  0.50000001  0.00000000  0.50000001  1
  Ru  Ru7  1  -0.00000000  0.50000001  0.50000000  1
  O  O8  1  0.30148100  0.70865301  0.94929401  1
  O  O9  1  0.69851901  0.29134701  0.05070601  1
  O  O10  1  0.79580301  0.79451002  0.05810301  1
  O  O11  1  0.20419700  0.20549000  0.94189701  1
  O  O12  1  0.29580300  0.70549001  0.55810301  1
  O  O13  1  0.70419701  0.29451001  0.44189701  1
  O  O14  1  0.80148101  0.79134702  0.44929401  1
  O  O15  1  0.19851900  0.20865300  0.55070601  1
  O  O16  1  0.59940701  0.03399400  0.74589301  1
  O  O17  1  0.40059301  0.96600602  0.25410701  1
  O  O18  1  0.90059301  0.53399401  0.75410701  1
  O  O19  1  0.09940700  0.46600601  0.24589300  1
