# generated using pymatgen
data_Li4BiSbF12
_symmetry_space_group_name_H-M   'P 1'
_cell_length_a   4.82391977
_cell_length_b   4.82391977
_cell_length_c   9.44015217
_cell_angle_alpha   90.00000000
_cell_angle_beta   90.00000000
_cell_angle_gamma   90.00000000
_symmetry_Int_Tables_number   1
_chemical_formula_structural   Li4BiSbF12
_chemical_formula_sum   'Li4 Bi1 Sb1 F12'
_cell_volume   219.67424765
_cell_formula_units_Z   1
loop_
 _symmetry_equiv_pos_site_id
 _symmetry_equiv_pos_as_xyz
  1  'x, y, z'
loop_
 _atom_site_type_symbol
 _atom_site_label
 _atom_site_symmetry_multiplicity
 _atom_site_fract_x
 _atom_site_fract_y
 _atom_site_fract_z
 _atom_site_occupancy
  Li  Li0  1  0.00000000  0.00000000  0.00000000  1
  Li  Li1  1  0.50000002  0.50000002  0.49999999  1
  Li  Li2  1  0.00000000  0.00000000  0.33002399  1
  Li  Li3  1  0.50000002  0.50000002  0.83002399  1
  Bi  Bi4  1  0.00000000  0.00000000  0.66997599  1
  Sb  Sb5  1  0.50000002  0.50000002  0.16997600  1
  F  F6  1  0.70133703  0.70133703  0.66675199  1
  F  F7  1  0.29866301  0.29866301  0.66675199  1
  F  F8  1  0.70133703  0.70133703  0.33324799  1
  F  F9  1  0.20133701  0.79866304  0.16675200  1
  F  F10  1  0.79866304  0.20133701  0.16675200  1
  F  F11  1  0.79866304  0.20133701  0.83324799  1
  F  F12  1  0.31189701  0.31189701  0.00000000  1
  F  F13  1  0.18810301  0.81189704  0.49999999  1
  F  F14  1  0.81189704  0.18810301  0.49999999  1
  F  F15  1  0.68810303  0.68810303  -0.00000000  1
  F  F16  1  0.29866301  0.29866301  0.33324799  1
  F  F17  1  0.20133701  0.79866304  0.83324799  1
