# generated using pymatgen
data_AlGe2
_symmetry_space_group_name_H-M   'P 1'
_cell_length_a   4.56494808
_cell_length_b   4.56494713
_cell_length_c   6.37215614
_cell_angle_alpha   90.00000000
_cell_angle_beta   90.00000000
_cell_angle_gamma   120.00000763
_symmetry_Int_Tables_number   1
_chemical_formula_structural   AlGe2
_chemical_formula_sum   'Al3 Ge6'
_cell_volume   114.99755372
_cell_formula_units_Z   3
loop_
 _symmetry_equiv_pos_site_id
 _symmetry_equiv_pos_as_xyz
  1  'x, y, z'
loop_
 _atom_site_type_symbol
 _atom_site_label
 _atom_site_symmetry_multiplicity
 _atom_site_fract_x
 _atom_site_fract_y
 _atom_site_fract_z
 _atom_site_occupancy
  Al  Al0  1  0.00000002  0.50000002  0.66666665  1
  Al  Al1  1  0.49999999  0.00000000  0.33333333  1
  Al  Al2  1  0.50000001  0.50000002  -0.00000000  1
  Ge  Ge3  1  0.16284203  0.83715803  -0.00000000  1
  Ge  Ge4  1  0.83715801  0.67431602  0.33333333  1
  Ge  Ge5  1  0.32568400  0.16284201  0.66666665  1
  Ge  Ge6  1  0.83715799  0.16284201  0.99999998  1
  Ge  Ge7  1  0.16284201  0.32568401  0.33333333  1
  Ge  Ge8  1  0.67431602  0.83715803  0.66666665  1
