# generated using pymatgen
data_Mg2ZnCl4
_symmetry_space_group_name_H-M   'P 1'
_cell_length_a   3.70012808
_cell_length_b   3.70012808
_cell_length_c   12.08947754
_cell_angle_alpha   90.00000000
_cell_angle_beta   90.00000000
_cell_angle_gamma   120.00000000
_symmetry_Int_Tables_number   1
_chemical_formula_structural   Mg2ZnCl4
_chemical_formula_sum   'Mg2 Zn1 Cl4'
_cell_volume   143.34141224
_cell_formula_units_Z   1
loop_
 _symmetry_equiv_pos_site_id
 _symmetry_equiv_pos_as_xyz
  1  'x, y, z'
loop_
 _atom_site_type_symbol
 _atom_site_label
 _atom_site_symmetry_multiplicity
 _atom_site_fract_x
 _atom_site_fract_y
 _atom_site_fract_z
 _atom_site_occupancy
  Mg  Mg0  1  0.00000000  0.00000000  0.00000000  1
  Mg  Mg1  1  0.66666666  0.33333334  0.29266301  1
  Zn  Zn2  1  0.33333334  0.66666668  0.70733703  1
  Cl  Cl3  1  0.66666666  0.33333334  0.10365600  1
  Cl  Cl4  1  0.33333334  0.66666668  0.89634403  1
  Cl  Cl5  1  0.66666666  0.33333334  0.62467602  1
  Cl  Cl6  1  0.33333334  0.66666668  0.37532401  1
