# generated using pymatgen
data_Li3CdSn2
_symmetry_space_group_name_H-M   'P 1'
_cell_length_a   4.34890413
_cell_length_b   4.34890366
_cell_length_c   7.08871794
_cell_angle_alpha   90.00000000
_cell_angle_beta   90.00000000
_cell_angle_gamma   120.00000000
_symmetry_Int_Tables_number   1
_chemical_formula_structural   Li3CdSn2
_chemical_formula_sum   'Li3 Cd1 Sn2'
_cell_volume   116.10687826
_cell_formula_units_Z   1
loop_
 _symmetry_equiv_pos_site_id
 _symmetry_equiv_pos_as_xyz
  1  'x, y, z'
loop_
 _atom_site_type_symbol
 _atom_site_label
 _atom_site_symmetry_multiplicity
 _atom_site_fract_x
 _atom_site_fract_y
 _atom_site_fract_z
 _atom_site_occupancy
  Li  Li0  1  0.66666663  0.33333333  0.26977600  1
  Li  Li1  1  0.66666663  0.33333333  0.73906201  1
  Li  Li2  1  0.33333329  0.66666666  0.52386800  1
  Cd  Cd3  1  0.33333329  0.66666666  0.95353801  1
  Sn  Sn4  1  0.00000000  0.00000000  0.05127900  1
  Sn  Sn5  1  0.00000000  0.00000000  0.46247800  1
