# generated using pymatgen
data_Be3Rh
_symmetry_space_group_name_H-M   'P 1'
_cell_length_a   3.74555111
_cell_length_b   4.83198404
_cell_length_c   4.83198404
_cell_angle_alpha   60.00000000
_cell_angle_beta   90.00000000
_cell_angle_gamma   90.00000000
_symmetry_Int_Tables_number   1
_chemical_formula_structural   Be3Rh
_chemical_formula_sum   'Be6 Rh2'
_cell_volume   75.73512422
_cell_formula_units_Z   2
loop_
 _symmetry_equiv_pos_site_id
 _symmetry_equiv_pos_as_xyz
  1  'x, y, z'
loop_
 _atom_site_type_symbol
 _atom_site_label
 _atom_site_symmetry_multiplicity
 _atom_site_fract_x
 _atom_site_fract_y
 _atom_site_fract_z
 _atom_site_occupancy
  Be  Be0  1  0.74999998  0.68205700  0.15897099  1
  Be  Be1  1  0.74999998  0.15897200  0.15897100  1
  Be  Be2  1  0.74999998  0.15897200  0.68205600  1
  Be  Be3  1  0.24999999  0.31794300  0.84102900  1
  Be  Be4  1  0.24999999  0.84102800  0.84102900  1
  Be  Be5  1  0.24999999  0.84102800  0.31794399  1
  Rh  Rh6  1  0.24999999  0.33333333  0.33333333  1
  Rh  Rh7  1  0.74999998  0.66666666  0.66666666  1
