# generated using pymatgen
data_NaCeS4
_symmetry_space_group_name_H-M   'P 1'
_cell_length_a   3.90079403
_cell_length_b   3.90079403
_cell_length_c   6.55619621
_cell_angle_alpha   90.00000000
_cell_angle_beta   90.00000000
_cell_angle_gamma   90.00000000
_symmetry_Int_Tables_number   1
_chemical_formula_structural   NaCeS4
_chemical_formula_sum   'Na1 Ce1 S4'
_cell_volume   99.76035386
_cell_formula_units_Z   1
loop_
 _symmetry_equiv_pos_site_id
 _symmetry_equiv_pos_as_xyz
  1  'x, y, z'
loop_
 _atom_site_type_symbol
 _atom_site_label
 _atom_site_symmetry_multiplicity
 _atom_site_fract_x
 _atom_site_fract_y
 _atom_site_fract_z
 _atom_site_occupancy
  Na  Na0  1  0.00000000  0.50000000  0.16803699  1
  Ce  Ce1  1  0.50000000  0.00000000  0.83196297  1
  S  S2  1  0.00000000  0.00000000  0.49999998  1
  S  S3  1  0.50000000  0.50000000  0.49999998  1
  S  S4  1  0.50000000  0.00000000  0.26168799  1
  S  S5  1  0.00000000  0.50000000  0.73831198  1
