# generated using pymatgen
data_U2GePd2Rh
_symmetry_space_group_name_H-M   'P 1'
_cell_length_a   5.21497250
_cell_length_b   5.21497250
_cell_length_c   5.21497250
_cell_angle_alpha   64.97424316
_cell_angle_beta   64.97424316
_cell_angle_gamma   64.97424316
_symmetry_Int_Tables_number   1
_chemical_formula_structural   U2GePd2Rh
_chemical_formula_sum   'U2 Ge1 Pd2 Rh1'
_cell_volume   111.18199441
_cell_formula_units_Z   1
loop_
 _symmetry_equiv_pos_site_id
 _symmetry_equiv_pos_as_xyz
  1  'x, y, z'
loop_
 _atom_site_type_symbol
 _atom_site_label
 _atom_site_symmetry_multiplicity
 _atom_site_fract_x
 _atom_site_fract_y
 _atom_site_fract_z
 _atom_site_occupancy
  U  U0  1  0.37231202  0.37231200  0.37231198  1
  U  U1  1  0.62768804  0.62768801  0.62768796  1
  Ge  Ge2  1  0.00000000  0.00000000  0.00000000  1
  Pd  Pd3  1  0.50000005  1.00000001  -0.00000004  1
  Pd  Pd4  1  0.00000002  0.50000001  -0.00000002  1
  Rh  Rh5  1  0.00000000  0.00000000  0.49999999  1
