# generated using pymatgen
data_Nb5(CS2)2
_symmetry_space_group_name_H-M   'P 1'
_cell_length_a   3.34451890
_cell_length_b   5.77382088
_cell_length_c   8.96825790
_cell_angle_alpha   101.63933563
_cell_angle_beta   90.00000000
_cell_angle_gamma   90.00000000
_symmetry_Int_Tables_number   1
_chemical_formula_structural   Nb5(CS2)2
_chemical_formula_sum   'Nb5 C2 S4'
_cell_volume   169.62175157
_cell_formula_units_Z   1
loop_
 _symmetry_equiv_pos_site_id
 _symmetry_equiv_pos_as_xyz
  1  'x, y, z'
loop_
 _atom_site_type_symbol
 _atom_site_label
 _atom_site_symmetry_multiplicity
 _atom_site_fract_x
 _atom_site_fract_y
 _atom_site_fract_z
 _atom_site_occupancy
  Nb  Nb0  1  0.00000000  0.00000000  0.00000000  1
  Nb  Nb1  1  0.50000001  0.36736401  0.62940198  1
  Nb  Nb2  1  -0.00000000  0.88154503  0.63100900  1
  Nb  Nb3  1  0.50000001  0.63263602  0.37059800  1
  Nb  Nb4  1  1.00000003  0.11845500  0.36899099  1
  C  C5  1  -0.00000000  0.50000002  0.49999999  1
  C  C6  1  0.50000001  0.00000000  0.49999997  1
  S  S7  1  0.50000001  0.23431401  0.17603900  1
  S  S8  1  -0.00000000  0.72706802  0.17748701  1
  S  S9  1  0.50000001  0.76568602  0.82396098  1
  S  S10  1  -0.00000000  0.27293201  0.82251297  1
