# generated using pymatgen
data_V2NiS4
_symmetry_space_group_name_H-M   'P 1'
_cell_length_a   3.67400599
_cell_length_b   6.19680166
_cell_length_c   6.24691105
_cell_angle_alpha   118.97127533
_cell_angle_beta   107.10152435
_cell_angle_gamma   90.00000000
_symmetry_Int_Tables_number   1
_chemical_formula_structural   V2NiS4
_chemical_formula_sum   'V2 Ni1 S4'
_cell_volume   117.18684926
_cell_formula_units_Z   1
loop_
 _symmetry_equiv_pos_site_id
 _symmetry_equiv_pos_as_xyz
  1  'x, y, z'
loop_
 _atom_site_type_symbol
 _atom_site_label
 _atom_site_symmetry_multiplicity
 _atom_site_fract_x
 _atom_site_fract_y
 _atom_site_fract_z
 _atom_site_occupancy
  V  V0  1  0.00000000  0.00000000  0.00000000  1
  V  V1  1  0.74013494  0.72082399  0.48026995  1
  Ni  Ni2  1  0.25986498  0.27917600  0.51972999  1
  S  S3  1  0.88163095  0.54213900  0.76326195  1
  S  S4  1  0.11836897  0.45786100  0.23673798  1
  S  S5  1  0.36448799  0.02279100  0.72897599  1
  S  S6  1  0.63551192  0.97720899  0.27102395  1
