# generated using pymatgen
data_LaNdNi10
_symmetry_space_group_name_H-M   'P 1'
_cell_length_a   3.96955895
_cell_length_b   4.91602707
_cell_length_c   8.51295185
_cell_angle_alpha   90.00000000
_cell_angle_beta   90.00000000
_cell_angle_gamma   90.00000000
_symmetry_Int_Tables_number   1
_chemical_formula_structural   LaNdNi10
_chemical_formula_sum   'La1 Nd1 Ni10'
_cell_volume   166.12565217
_cell_formula_units_Z   1
loop_
 _symmetry_equiv_pos_site_id
 _symmetry_equiv_pos_as_xyz
  1  'x, y, z'
loop_
 _atom_site_type_symbol
 _atom_site_label
 _atom_site_symmetry_multiplicity
 _atom_site_fract_x
 _atom_site_fract_y
 _atom_site_fract_z
 _atom_site_occupancy
  La  La0  1  0.00000000  0.00000000  0.50000001  1
  Nd  Nd1  1  -0.00000000  0.49999999  0.00000000  1
  Ni  Ni2  1  -0.00000000  0.49999999  0.32573001  1
  Ni  Ni3  1  0.00000000  0.00000000  0.83917201  1
  Ni  Ni4  1  0.00000000  0.00000000  0.16082800  1
  Ni  Ni5  1  -0.00000000  0.49999999  0.67427001  1
  Ni  Ni6  1  0.50000001  0.49999999  0.50000001  1
  Ni  Ni7  1  0.50000001  0.00000000  0.00000000  1
  Ni  Ni8  1  0.50000001  0.74720899  0.24500800  1
  Ni  Ni9  1  0.50000001  0.25279100  0.75499201  1
  Ni  Ni10  1  0.50000001  0.25279100  0.24500800  1
  Ni  Ni11  1  0.50000001  0.74720899  0.75499201  1
