# generated using pymatgen
data_BiW5O14
_symmetry_space_group_name_H-M   'P 1'
_cell_length_a   5.71172714
_cell_length_b   6.80879307
_cell_length_c   8.31859779
_cell_angle_alpha   90.55812836
_cell_angle_beta   90.00000000
_cell_angle_gamma   90.00000000
_symmetry_Int_Tables_number   1
_chemical_formula_structural   BiW5O14
_chemical_formula_sum   'Bi1 W5 O14'
_cell_volume   323.49465454
_cell_formula_units_Z   1
loop_
 _symmetry_equiv_pos_site_id
 _symmetry_equiv_pos_as_xyz
  1  'x, y, z'
loop_
 _atom_site_type_symbol
 _atom_site_label
 _atom_site_symmetry_multiplicity
 _atom_site_fract_x
 _atom_site_fract_y
 _atom_site_fract_z
 _atom_site_occupancy
  W  W0  1  0.46974699  0.25000000  0.24999999  1
  W  W1  1  0.53025299  0.74999999  0.74999996  1
  W  W2  1  0.82571498  0.25000000  0.74999998  1
  Bi  Bi3  1  0.17428500  0.74999999  0.24999997  1
  W  W4  1  0.01672800  0.07718200  0.71539499  1
  W  W5  1  0.52860899  0.02849200  0.71093799  1
  O  O6  1  0.28986899  0.71356699  0.59162297  1
  O  O7  1  0.75934498  0.71624099  0.58565997  1
  O  O8  1  0.98327198  0.57718199  0.21539498  1
  O  O9  1  0.47139099  0.52849199  0.21093798  1
  O  O10  1  0.24065499  0.28375900  0.41433998  1
  O  O11  1  0.71013098  0.28643300  0.40837698  1
  O  O12  1  0.24065499  0.21624100  0.08565999  1
  O  O13  1  0.71013098  0.21356700  0.09162299  1
  O  O14  1  0.47139099  0.97150799  0.28906196  1
  O  O15  1  0.98327198  0.92281799  0.28460496  1
  O  O16  1  0.28986899  0.78643299  0.90837696  1
  O  O17  1  0.75934498  0.78375899  0.91433996  1
  O  O18  1  0.52860899  0.47150800  0.78906197  1
  O  O19  1  0.01672800  0.42281800  0.78460497  1
