# generated using pymatgen
data_Hf6Re3Si7Mo2
_symmetry_space_group_name_H-M   'P 1'
_cell_length_a   6.82707977
_cell_length_b   7.77004433
_cell_length_c   7.53579378
_cell_angle_alpha   119.00762939
_cell_angle_beta   90.00000000
_cell_angle_gamma   116.06053925
_symmetry_Int_Tables_number   1
_chemical_formula_structural   Hf6Re3Si7Mo2
_chemical_formula_sum   'Hf6 Si7 Re3 Mo2'
_cell_volume   302.29176263
_cell_formula_units_Z   1
loop_
 _symmetry_equiv_pos_site_id
 _symmetry_equiv_pos_as_xyz
  1  'x, y, z'
loop_
 _atom_site_type_symbol
 _atom_site_label
 _atom_site_symmetry_multiplicity
 _atom_site_fract_x
 _atom_site_fract_y
 _atom_site_fract_z
 _atom_site_occupancy
  Hf  Hf0  1  0.94779606  0.43940802  0.96970404  1
  Hf  Hf1  1  0.89950006  0.39375402  0.44687703  1
  Hf  Hf2  1  0.08413407  0.99652304  0.24826204  1
  Hf  Hf3  1  0.08761200  0.00347800  0.75173902  1
  Hf  Hf4  1  0.50574606  0.60624603  0.55312304  1
  Hf  Hf5  1  0.50838806  0.56059202  0.03029602  1
  Si  Si6  1  0.17190503  0.33455101  0.66245103  1
  Re  Re7  1  0.52242802  0.05064200  0.77532102  1
  Si  Si8  1  0.17190503  0.33455101  0.17210102  1
  Si  Si9  1  0.47178608  0.94935804  0.22467904  1
  Si  Si10  1  0.83735508  0.66545003  0.82790005  1
  Si  Si11  1  0.83735508  0.66545003  0.33755003  1
  Re  Re12  1  0.25712306  0.75428203  0.40536004  1
  Re  Re13  1  0.74708210  1.00000004  0.00000004  1
  Si  Si14  1  0.50284103  0.24571801  0.15107801  1
  Si  Si15  1  0.25712206  0.75428103  0.84892105  1
  Mo  Mo16  1  0.74708202  0.00000000  0.50000001  1
  Mo  Mo17  1  0.50284003  0.24571701  0.59463903  1
