# generated using pymatgen
data_CoSeS2
_symmetry_space_group_name_H-M   'P 1'
_cell_length_a   3.90773201
_cell_length_b   4.80947113
_cell_length_c   6.91959810
_cell_angle_alpha   100.26363373
_cell_angle_beta   106.40152740
_cell_angle_gamma   90.00000000
_symmetry_Int_Tables_number   1
_chemical_formula_structural   CoSeS2
_chemical_formula_sum   'Co2 Se2 S4'
_cell_volume   122.58489314
_cell_formula_units_Z   2
loop_
 _symmetry_equiv_pos_site_id
 _symmetry_equiv_pos_as_xyz
  1  'x, y, z'
loop_
 _atom_site_type_symbol
 _atom_site_label
 _atom_site_symmetry_multiplicity
 _atom_site_fract_x
 _atom_site_fract_y
 _atom_site_fract_z
 _atom_site_occupancy
  Co  Co0  1  0.32939100  0.28758101  0.65878198  1
  Co  Co1  1  0.67060900  0.71241902  0.34121798  1
  Se  Se2  1  0.19416100  0.72346802  0.06456697  1
  Se  Se3  1  0.87040600  0.72346802  0.06456699  1
  S  S4  1  0.12959400  0.27653201  0.93543297  1
  S  S5  1  0.80583901  0.27653201  0.93543299  1
  S  S6  1  0.25703800  0.74321602  0.51407596  1
  S  S7  1  0.74296201  0.25678401  0.48592400  1
