# generated using pymatgen
data_Li2Mg(CO3)4
_symmetry_space_group_name_H-M   'P 1'
_cell_length_a   5.21385288
_cell_length_b   6.69075251
_cell_length_c   7.58371496
_cell_angle_alpha   88.27367401
_cell_angle_beta   89.84927368
_cell_angle_gamma   67.92250824
_symmetry_Int_Tables_number   1
_chemical_formula_structural   Li2Mg(CO3)4
_chemical_formula_sum   'Li2 Mg1 C4 O12'
_cell_volume   245.03466996
_cell_formula_units_Z   1
loop_
 _symmetry_equiv_pos_site_id
 _symmetry_equiv_pos_as_xyz
  1  'x, y, z'
loop_
 _atom_site_type_symbol
 _atom_site_label
 _atom_site_symmetry_multiplicity
 _atom_site_fract_x
 _atom_site_fract_y
 _atom_site_fract_z
 _atom_site_occupancy
  Li  Li0  1  0.78381204  0.83147698  0.55753199  1
  Li  Li1  1  0.99546202  0.00332400  0.99726797  1
  Mg  Mg2  1  0.49449102  0.48350799  0.50136799  1
  C  C3  1  0.75145602  0.11506500  0.26253498  1
  C  C4  1  0.76301003  0.36881699  0.76781498  1
  C  C5  1  0.22596402  0.64459298  0.23896000  1
  C  C6  1  0.26450303  0.87993998  0.73661500  1
  O  O7  1  0.01086800  0.09349800  0.23873200  1
  O  O8  1  0.63598802  0.08177600  0.12054399  1
  O  O9  1  0.63539902  0.15487100  0.41146498  1
  O  O10  1  0.90767903  0.29489999  0.90884698  1
  O  O11  1  0.85981703  0.44311499  0.63418298  1
  O  O12  1  0.51146702  0.37568199  0.74855099  1
  O  O13  1  0.49324903  0.58361599  0.25234900  1
  O  O14  1  0.10195702  0.62233598  0.38355000  1
  O  O15  1  0.09586502  0.71188598  0.09197701  1
  O  O16  1  0.40736703  0.81998898  0.59951400  1
  O  O17  1  0.35943403  0.92573398  0.88169000  1
  O  O18  1  0.00108302  0.90287998  0.74749501  1
