# generated using pymatgen
data_La5Tl3
_symmetry_space_group_name_H-M   'P 1'
_cell_length_a   8.07803440
_cell_length_b   8.07803440
_cell_length_c   9.77850819
_cell_angle_alpha   114.39659882
_cell_angle_beta   114.39659882
_cell_angle_gamma   90.00000000
_symmetry_Int_Tables_number   1
_chemical_formula_structural   La5Tl3
_chemical_formula_sum   'La10 Tl6'
_cell_volume   517.90941105
_cell_formula_units_Z   2
loop_
 _symmetry_equiv_pos_site_id
 _symmetry_equiv_pos_as_xyz
  1  'x, y, z'
loop_
 _atom_site_type_symbol
 _atom_site_label
 _atom_site_symmetry_multiplicity
 _atom_site_fract_x
 _atom_site_fract_y
 _atom_site_fract_z
 _atom_site_occupancy
  La  La0  1  0.03897496  0.53897495  0.71794595  1
  La  La1  1  0.53897491  0.67897094  0.71794590  1
  La  La2  1  0.17897098  0.03897500  0.71794598  1
  La  La3  1  0.46102494  0.32102897  0.28205394  1
  La  La4  1  0.67897093  0.17897098  0.71794594  1
  La  La5  1  0.96102489  0.46102496  0.28205390  1
  La  La6  1  0.32102891  0.82102892  0.28205391  1
  La  La7  1  0.82102886  0.96102491  0.28205386  1
  La  La8  1  0.49999992  0.49999995  -0.00000008  1
  La  La9  1  0.00000000  0.00000000  0.00000000  1
  Tl  Tl10  1  0.10766996  0.39232996  -0.00000004  1
  Tl  Tl11  1  0.60766994  0.10766999  -0.00000005  1
  Tl  Tl12  1  0.39232990  0.89232992  -0.00000011  1
  Tl  Tl13  1  0.89232988  0.60766994  0.99999989  1
  Tl  Tl14  1  0.74999988  0.74999993  0.49999989  1
  Tl  Tl15  1  0.24999996  0.24999998  0.49999996  1
