# generated using pymatgen
data_UInNi
_symmetry_space_group_name_H-M   'P 1'
_cell_length_a   3.94272304
_cell_length_b   7.26656199
_cell_length_c   7.26656199
_cell_angle_alpha   120.00000000
_cell_angle_beta   90.00000000
_cell_angle_gamma   90.00000000
_symmetry_Int_Tables_number   1
_chemical_formula_structural   UInNi
_chemical_formula_sum   'U3 In3 Ni3'
_cell_volume   180.29549158
_cell_formula_units_Z   3
loop_
 _symmetry_equiv_pos_site_id
 _symmetry_equiv_pos_as_xyz
  1  'x, y, z'
loop_
 _atom_site_type_symbol
 _atom_site_label
 _atom_site_symmetry_multiplicity
 _atom_site_fract_x
 _atom_site_fract_y
 _atom_site_fract_z
 _atom_site_occupancy
  U  U0  1  -0.00000000  0.99999999  0.58389596  1
  U  U1  1  -0.00000000  0.58389599  -0.00000001  1
  U  U2  1  0.99999999  0.41610400  0.41610398  1
  In  In3  1  0.50000000  0.77110799  0.77110796  1
  In  In4  1  0.50000000  0.22889200  -0.00000001  1
  In  In5  1  0.50000000  0.99999999  0.22889197  1
  Ni  Ni6  1  0.00000000  0.00000000  0.00000000  1
  Ni  Ni7  1  0.50000000  0.33333333  0.66666664  1
  Ni  Ni8  1  0.50000000  0.66666666  0.33333331  1
