# generated using pymatgen
data_Li9Re2OsN8
_symmetry_space_group_name_H-M   'P 1'
_cell_length_a   4.49481583
_cell_length_b   6.82578421
_cell_length_c   6.82578373
_cell_angle_alpha   120.00000000
_cell_angle_beta   90.00000000
_cell_angle_gamma   90.00000000
_symmetry_Int_Tables_number   1
_chemical_formula_structural   Li9Re2OsN8
_chemical_formula_sum   'Li9 Re2 Os1 N8'
_cell_volume   181.36254900
_cell_formula_units_Z   1
loop_
 _symmetry_equiv_pos_site_id
 _symmetry_equiv_pos_as_xyz
  1  'x, y, z'
loop_
 _atom_site_type_symbol
 _atom_site_label
 _atom_site_symmetry_multiplicity
 _atom_site_fract_x
 _atom_site_fract_y
 _atom_site_fract_z
 _atom_site_occupancy
  Li  Li0  1  0.68418003  0.90869596  0.45434797  1
  Li  Li1  1  0.18418001  0.45434798  0.90869598  1
  Li  Li2  1  0.01031600  0.87759396  0.75518797  1
  Li  Li3  1  0.51031602  0.75518897  0.87759497  1
  Li  Li4  1  0.51031602  0.12240599  0.87759499  1
  Li  Li5  1  0.01031600  0.87759396  0.12240497  1
  Li  Li6  1  0.01031600  0.24481099  0.12240499  1
  Li  Li7  1  0.51031602  0.12240599  0.24481200  1
  Li  Li8  1  0.68418003  0.54565198  0.45434798  1
  Re  Re9  1  0.18418001  0.45434798  0.54565198  1
  Os  Os10  1  0.18418001  0.09130400  0.54565199  1
  Re  Re11  1  0.68418003  0.54565198  0.09130398  1
  N  N12  1  0.69211103  0.33333332  0.66666665  1
  N  N13  1  0.19211101  0.66666664  0.33333331  1
  N  N14  1  0.90413303  0.18655899  0.37311799  1
  N  N15  1  0.40413302  0.37311798  0.18655899  1
  N  N16  1  0.40413302  0.81344096  0.18655898  1
  N  N17  1  0.90413303  0.18655899  0.81344099  1
  N  N18  1  0.90413303  0.62688197  0.81344098  1
  N  N19  1  0.40413302  0.81344096  0.62688197  1
