# generated using pymatgen
data_PrZrGe
_symmetry_space_group_name_H-M   'P 1'
_cell_length_a   4.34907818
_cell_length_b   4.34907818
_cell_length_c   8.66613579
_cell_angle_alpha   104.53218079
_cell_angle_beta   104.53218079
_cell_angle_gamma   90.00000000
_symmetry_Int_Tables_number   1
_chemical_formula_structural   PrZrGe
_chemical_formula_sum   'Pr2 Zr2 Ge2'
_cell_volume   153.24776820
_cell_formula_units_Z   2
loop_
 _symmetry_equiv_pos_site_id
 _symmetry_equiv_pos_as_xyz
  1  'x, y, z'
loop_
 _atom_site_type_symbol
 _atom_site_label
 _atom_site_symmetry_multiplicity
 _atom_site_fract_x
 _atom_site_fract_y
 _atom_site_fract_z
 _atom_site_occupancy
  Pr  Pr0  1  0.32356899  0.32356899  0.64713802  1
  Pr  Pr1  1  0.67643099  0.67643098  0.35286202  1
  Zr  Zr2  1  0.49999998  0.00000000  0.00000001  1
  Zr  Zr3  1  0.00000001  0.49999998  0.00000001  1
  Ge  Ge4  1  0.11811500  0.11811500  0.23623001  1
  Ge  Ge5  1  0.88188498  0.88188497  0.76377004  1
