# generated using pymatgen
data_ErGaPd
_symmetry_space_group_name_H-M   'P 1'
_cell_length_a   3.82527399
_cell_length_b   7.34575605
_cell_length_c   7.34575558
_cell_angle_alpha   120.00000000
_cell_angle_beta   90.00000000
_cell_angle_gamma   90.00000000
_symmetry_Int_Tables_number   1
_chemical_formula_structural   ErGaPd
_chemical_formula_sum   'Er3 Ga3 Pd3'
_cell_volume   178.75827474
_cell_formula_units_Z   3
loop_
 _symmetry_equiv_pos_site_id
 _symmetry_equiv_pos_as_xyz
  1  'x, y, z'
loop_
 _atom_site_type_symbol
 _atom_site_label
 _atom_site_symmetry_multiplicity
 _atom_site_fract_x
 _atom_site_fract_y
 _atom_site_fract_z
 _atom_site_occupancy
  Er  Er0  1  0.50000000  0.59507699  1.00000001  1
  Er  Er1  1  0.50000000  0.40492299  0.40492300  1
  Er  Er2  1  0.50000000  0.00000000  0.59507701  1
  Ga  Ga3  1  -0.00000000  0.25386099  1.00000001  1
  Ga  Ga4  1  -0.00000000  0.74613899  0.74613900  1
  Ga  Ga5  1  1.00000000  0.00000000  0.25386101  1
  Pd  Pd6  1  -0.00000000  0.33333333  0.66666667  1
  Pd  Pd7  1  1.00000000  0.66666665  0.33333332  1
  Pd  Pd8  1  0.50000000  0.00000000  -0.00000000  1
