# generated using pymatgen
data_NaY(PO5)2
_symmetry_space_group_name_H-M   'P 1'
_cell_length_a   4.39485598
_cell_length_b   6.65870810
_cell_length_c   6.77253151
_cell_angle_alpha   102.83799744
_cell_angle_beta   90.00000000
_cell_angle_gamma   90.00000000
_symmetry_Int_Tables_number   1
_chemical_formula_structural   NaY(PO5)2
_chemical_formula_sum   'Na1 Y1 P2 O10'
_cell_volume   193.23743313
_cell_formula_units_Z   1
loop_
 _symmetry_equiv_pos_site_id
 _symmetry_equiv_pos_as_xyz
  1  'x, y, z'
loop_
 _atom_site_type_symbol
 _atom_site_label
 _atom_site_symmetry_multiplicity
 _atom_site_fract_x
 _atom_site_fract_y
 _atom_site_fract_z
 _atom_site_occupancy
  Na  Na0  1  0.00020100  0.17040600  0.66797998  1
  Y  Y1  1  0.50020100  0.82959398  0.33201995  1
  P  P2  1  0.75776800  0.28564799  0.20214198  1
  P  P3  1  0.25776800  0.71435198  0.79785794  1
  O  O4  1  0.92257701  0.32013899  0.00101398  1
  O  O5  1  0.42257700  0.67986098  0.99898594  1
  O  O6  1  0.50070800  0.12005200  0.58261698  1
  O  O7  1  0.00070800  0.87994798  0.41738294  1
  O  O8  1  0.55067200  0.48184999  0.28911797  1
  O  O9  1  0.05067200  0.51814999  0.71088196  1
  O  O10  1  0.55207300  0.08322500  0.14394499  1
  O  O11  1  0.05207300  0.91677497  0.85605493  1
  O  O12  1  0.01420100  0.26272699  0.36105698  1
  O  O13  1  0.51420100  0.73727298  0.63894294  1
