# generated using pymatgen
data_CeAlCu4
_symmetry_space_group_name_H-M   'P 1'
_cell_length_a   4.30259991
_cell_length_b   5.19722891
_cell_length_c   5.19705296
_cell_angle_alpha   119.98575592
_cell_angle_beta   90.00000000
_cell_angle_gamma   90.00000000
_symmetry_Int_Tables_number   1
_chemical_formula_structural   CeAlCu4
_chemical_formula_sum   'Ce1 Al1 Cu4'
_cell_volume   100.65906694
_cell_formula_units_Z   1
loop_
 _symmetry_equiv_pos_site_id
 _symmetry_equiv_pos_as_xyz
  1  'x, y, z'
loop_
 _atom_site_type_symbol
 _atom_site_label
 _atom_site_symmetry_multiplicity
 _atom_site_fract_x
 _atom_site_fract_y
 _atom_site_fract_z
 _atom_site_occupancy
  Ce  Ce0  1  1.00000002  0.99998706  0.99999600  1
  Al  Al1  1  1.00000002  0.66659704  0.33326368  1
  Cu  Cu2  1  0.50000001  0.49592203  0.99184498  1
  Cu  Cu3  1  0.50000001  0.49591403  0.50408000  1
  Cu  Cu4  1  0.50000001  0.00814600  0.50407098  1
  Cu  Cu5  1  1.00000002  0.33333335  0.66666666  1
