# generated using pymatgen
data_Al4Ni15Sn
_symmetry_space_group_name_H-M   'P 1'
_cell_length_a   3.61717200
_cell_length_b   3.61717200
_cell_length_c   17.89136314
_cell_angle_alpha   90.00000000
_cell_angle_beta   90.00000000
_cell_angle_gamma   90.00000000
_symmetry_Int_Tables_number   1
_chemical_formula_structural   Al4Ni15Sn
_chemical_formula_sum   'Al4 Ni15 Sn1'
_cell_volume   234.08940198
_cell_formula_units_Z   1
loop_
 _symmetry_equiv_pos_site_id
 _symmetry_equiv_pos_as_xyz
  1  'x, y, z'
loop_
 _atom_site_type_symbol
 _atom_site_label
 _atom_site_symmetry_multiplicity
 _atom_site_fract_x
 _atom_site_fract_y
 _atom_site_fract_z
 _atom_site_occupancy
  Al  Al0  1  0.00000000  0.00000000  0.20367201  1
  Al  Al1  1  0.00000000  0.00000000  0.39997302  1
  Al  Al2  1  0.00000000  0.00000000  0.60002703  1
  Al  Al3  1  0.00000000  0.00000000  0.79632804  1
  Ni  Ni4  1  0.50000000  0.50000000  0.00000000  1
  Ni  Ni5  1  0.50000000  0.50000000  0.20295001  1
  Ni  Ni6  1  0.50000000  0.50000000  0.40024502  1
  Ni  Ni7  1  0.50000000  0.50000000  0.59975503  1
  Ni  Ni8  1  0.50000000  0.50000000  0.79705004  1
  Ni  Ni9  1  0.50000000  0.00000000  0.10689101  1
  Ni  Ni10  1  0.50000000  0.00000000  0.30117501  1
  Ni  Ni11  1  0.50000000  0.00000000  0.50000002  1
  Ni  Ni12  1  0.50000000  0.00000000  0.69882503  1
  Ni  Ni13  1  0.50000000  0.00000000  0.89310904  1
  Ni  Ni14  1  0.00000000  0.50000000  0.10689101  1
  Ni  Ni15  1  0.00000000  0.50000000  0.30117501  1
  Ni  Ni16  1  0.00000000  0.50000000  0.50000002  1
  Ni  Ni17  1  0.00000000  0.50000000  0.69882503  1
  Ni  Ni18  1  0.00000000  0.50000000  0.89310904  1
  Sn  Sn19  1  0.00000000  0.00000000  0.00000000  1
