# generated using pymatgen
data_NbSe2
_symmetry_space_group_name_H-M   'P 1'
_cell_length_a   3.44368052
_cell_length_b   3.44368052
_cell_length_c   33.97964478
_cell_angle_alpha   87.09542084
_cell_angle_beta   87.09542084
_cell_angle_gamma   59.99998856
_symmetry_Int_Tables_number   1
_chemical_formula_structural   NbSe2
_chemical_formula_sum   'Nb5 Se10'
_cell_volume   348.37775494
_cell_formula_units_Z   5
loop_
 _symmetry_equiv_pos_site_id
 _symmetry_equiv_pos_as_xyz
  1  'x, y, z'
loop_
 _atom_site_type_symbol
 _atom_site_label
 _atom_site_symmetry_multiplicity
 _atom_site_fract_x
 _atom_site_fract_y
 _atom_site_fract_z
 _atom_site_occupancy
  Nb  Nb0  1  0.39987200  0.39987201  0.80038302  1
  Nb  Nb1  1  0.79995100  0.79995101  0.60014701  1
  Nb  Nb2  1  0.19995600  0.19995600  0.40013101  1
  Nb  Nb3  1  0.60002800  0.60002801  0.19991600  1
  Nb  Nb4  1  0.99999200  0.99999202  0.00002499  1
  Se  Se5  1  0.88321800  0.88321801  0.35034500  1
  Se  Se6  1  0.28328300  0.28328300  0.15015200  1
  Se  Se7  1  0.68267200  0.68267201  0.95198302  1
  Se  Se8  1  0.08311800  0.08311800  0.75064702  1
  Se  Se9  1  0.48321600  0.48321701  0.55035001  1
  Se  Se10  1  0.04995500  0.04995500  0.85013602  1
  Se  Se11  1  0.45002300  0.45002301  0.64993101  1
  Se  Se12  1  0.85002500  0.85002501  0.44992400  1
  Se  Se13  1  0.25009100  0.25009000  0.24972900  1
  Se  Se14  1  0.65060000  0.65060001  0.04820099  1
