# generated using pymatgen
data_ErOs2
_symmetry_space_group_name_H-M   'P 1'
_cell_length_a   5.21618462
_cell_length_b   5.21618462
_cell_length_c   8.87281799
_cell_angle_alpha   90.00000000
_cell_angle_beta   90.00000000
_cell_angle_gamma   119.94403839
_symmetry_Int_Tables_number   1
_chemical_formula_structural   ErOs2
_chemical_formula_sum   'Er4 Os8'
_cell_volume   209.19087567
_cell_formula_units_Z   4
loop_
 _symmetry_equiv_pos_site_id
 _symmetry_equiv_pos_as_xyz
  1  'x, y, z'
loop_
 _atom_site_type_symbol
 _atom_site_label
 _atom_site_symmetry_multiplicity
 _atom_site_fract_x
 _atom_site_fract_y
 _atom_site_fract_z
 _atom_site_occupancy
  Er  Er0  1  0.33333333  0.66666665  0.43546200  1
  Er  Er1  1  0.66666665  0.33333332  0.56453800  1
  Er  Er2  1  0.66666665  0.33333332  0.93546200  1
  Er  Er3  1  0.33333333  0.66666665  0.06453800  1
  Os  Os4  1  0.00000000  0.00000000  0.50000000  1
  Os  Os5  1  0.00000000  0.00000000  0.00000000  1
  Os  Os6  1  0.34356599  0.17172799  0.25000000  1
  Os  Os7  1  0.82819197  0.17180799  0.25000000  1
  Os  Os8  1  0.82827198  0.65643398  0.25000000  1
  Os  Os9  1  0.65643398  0.82827197  0.75000000  1
  Os  Os10  1  0.17180800  0.82819197  0.75000000  1
  Os  Os11  1  0.17172800  0.34356599  0.75000000  1
