# generated using pymatgen
data_InBi4O11
_symmetry_space_group_name_H-M   'P 1'
_cell_length_a   5.38053894
_cell_length_b   5.38053894
_cell_length_c   7.88737011
_cell_angle_alpha   90.00000000
_cell_angle_beta   90.00000000
_cell_angle_gamma   90.00000000
_symmetry_Int_Tables_number   1
_chemical_formula_structural   InBi4O11
_chemical_formula_sum   'In1 Bi4 O11'
_cell_volume   228.34093654
_cell_formula_units_Z   1
loop_
 _symmetry_equiv_pos_site_id
 _symmetry_equiv_pos_as_xyz
  1  'x, y, z'
loop_
 _atom_site_type_symbol
 _atom_site_label
 _atom_site_symmetry_multiplicity
 _atom_site_fract_x
 _atom_site_fract_y
 _atom_site_fract_z
 _atom_site_occupancy
  In  In0  1  0.50000001  0.50000001  0.74999999  1
  Bi  Bi1  1  0.50000001  0.50000001  0.25000000  1
  Bi  Bi2  1  0.00000000  0.00000000  0.49999999  1
  Bi  Bi3  1  0.00000000  0.00000000  0.00000000  1
  O  O4  1  0.65340301  0.30329400  0.49999999  1
  Bi  Bi5  1  0.69670601  0.65340301  0.00000000  1
  O  O6  1  0.30329400  0.34659700  0.00000000  1
  O  O7  1  0.34659700  0.69670601  0.49999999  1
  O  O8  1  0.18770800  0.25236500  0.32602300  1
  O  O9  1  0.74763501  0.18770800  0.82602299  1
  O  O10  1  0.25236500  0.81229201  0.82602299  1
  O  O11  1  0.81229201  0.74763501  0.32602300  1
  O  O12  1  0.81229201  0.74763501  0.67397699  1
  O  O13  1  0.25236500  0.81229201  0.17397700  1
  O  O14  1  0.74763501  0.18770800  0.17397700  1
  O  O15  1  0.18770800  0.25236500  0.67397699  1
