# generated using pymatgen
data_Ca3(AlN2)2
_symmetry_space_group_name_H-M   'P 1'
_cell_length_a   5.60355139
_cell_length_b   6.80863333
_cell_length_c   6.80863333
_cell_angle_alpha   76.17086792
_cell_angle_beta   89.12647247
_cell_angle_gamma   89.12647247
_symmetry_Int_Tables_number   1
_chemical_formula_structural   Ca3(AlN2)2
_chemical_formula_sum   'Ca6 Al4 N8'
_cell_volume   252.18935858
_cell_formula_units_Z   2
loop_
 _symmetry_equiv_pos_site_id
 _symmetry_equiv_pos_as_xyz
  1  'x, y, z'
loop_
 _atom_site_type_symbol
 _atom_site_label
 _atom_site_symmetry_multiplicity
 _atom_site_fract_x
 _atom_site_fract_y
 _atom_site_fract_z
 _atom_site_occupancy
  Ca  Ca0  1  0.45749198  0.25164101  0.98087001  1
  Ca  Ca1  1  0.95749193  0.98087004  0.25164094  1
  Ca  Ca2  1  0.74999996  0.39953602  0.60046398  1
  Ca  Ca3  1  0.54250795  0.74835903  0.01912995  1
  Ca  Ca4  1  0.24999997  0.60046403  0.39953598  1
  Ca  Ca5  1  0.04250800  0.01913000  0.74835902  1
  Al  Al6  1  0.09453697  0.58368903  0.82216200  1
  Al  Al7  1  0.59453695  0.82216204  0.58368897  1
  Al  Al8  1  0.40546298  0.17783801  0.41631099  1
  Al  Al9  1  0.90546296  0.41631102  0.17783796  1
  N  N10  1  0.56743597  0.42457102  0.26086797  1
  N  N11  1  0.47977595  0.94273304  0.29189096  1
  N  N12  1  0.06743599  0.26086801  0.42457100  1
  N  N13  1  0.43256396  0.57542902  0.73913199  1
  N  N14  1  0.02022397  0.70810903  0.05726698  1
  N  N15  1  0.93256394  0.73913203  0.57542896  1
  N  N16  1  0.97977596  0.29189101  0.94273299  1
  N  N17  1  0.52022498  0.05726700  0.70810900  1
