# generated using pymatgen
data_CsAgBr3
_symmetry_space_group_name_H-M   'P 1'
_cell_length_a   7.58235550
_cell_length_b   7.58235550
_cell_length_c   7.58235550
_cell_angle_alpha   60.78152084
_cell_angle_beta   60.78152084
_cell_angle_gamma   60.78151703
_symmetry_Int_Tables_number   1
_chemical_formula_structural   CsAgBr3
_chemical_formula_sum   'Cs2 Ag2 Br6'
_cell_volume   313.68020244
_cell_formula_units_Z   2
loop_
 _symmetry_equiv_pos_site_id
 _symmetry_equiv_pos_as_xyz
  1  'x, y, z'
loop_
 _atom_site_type_symbol
 _atom_site_label
 _atom_site_symmetry_multiplicity
 _atom_site_fract_x
 _atom_site_fract_y
 _atom_site_fract_z
 _atom_site_occupancy
  Cs  Cs0  1  0.73184696  0.73184699  0.73184705  1
  Cs  Cs1  1  0.23184699  0.23184700  0.23184701  1
  Ag  Ag2  1  0.99696895  0.99696899  0.99696906  1
  Ag  Ag3  1  0.49696898  0.49696900  0.49696903  1
  Br  Br4  1  0.74837198  0.19050900  0.30380303  1
  Br  Br5  1  0.19050899  0.30380300  0.74837202  1
  Br  Br6  1  0.30380297  0.74837199  0.19050904  1
  Br  Br7  1  0.80380296  0.69050899  0.24837205  1
  Br  Br8  1  0.24837197  0.80380299  0.69050904  1
  Br  Br9  1  0.69050898  0.24837200  0.80380303  1
