# generated using pymatgen
data_Sr(GeRu)2
_symmetry_space_group_name_H-M   'P 1'
_cell_length_a   4.23209000
_cell_length_b   4.23209000
_cell_length_c   6.23684025
_cell_angle_alpha   109.83310699
_cell_angle_beta   109.83310699
_cell_angle_gamma   90.00000000
_symmetry_Int_Tables_number   1
_chemical_formula_structural   Sr(GeRu)2
_chemical_formula_sum   'Sr1 Ge2 Ru2'
_cell_volume   98.00689203
_cell_formula_units_Z   1
loop_
 _symmetry_equiv_pos_site_id
 _symmetry_equiv_pos_as_xyz
  1  'x, y, z'
loop_
 _atom_site_type_symbol
 _atom_site_label
 _atom_site_symmetry_multiplicity
 _atom_site_fract_x
 _atom_site_fract_y
 _atom_site_fract_z
 _atom_site_occupancy
  Sr  Sr0  1  0.00000000  0.00000000  0.00000000  1
  Ge  Ge1  1  0.63237796  0.63237798  0.26475594  1
  Ge  Ge2  1  0.36762198  0.36762199  0.73524396  1
  Ru  Ru3  1  0.24999996  0.74999998  0.49999995  1
  Ru  Ru4  1  0.74999997  0.24999999  0.49999995  1
