# generated using pymatgen
data_U(SnPt)2
_symmetry_space_group_name_H-M   'P 1'
_cell_length_a   6.73403120
_cell_length_b   7.68310308
_cell_length_c   7.68310308
_cell_angle_alpha   90.00000000
_cell_angle_beta   90.00000000
_cell_angle_gamma   90.00000000
_symmetry_Int_Tables_number   1
_chemical_formula_structural   U(SnPt)2
_chemical_formula_sum   'U4 Sn8 Pt8'
_cell_volume   397.51035340
_cell_formula_units_Z   4
loop_
 _symmetry_equiv_pos_site_id
 _symmetry_equiv_pos_as_xyz
  1  'x, y, z'
loop_
 _atom_site_type_symbol
 _atom_site_label
 _atom_site_symmetry_multiplicity
 _atom_site_fract_x
 _atom_site_fract_y
 _atom_site_fract_z
 _atom_site_occupancy
  U  U0  1  0.24999999  0.49999999  0.00000000  1
  U  U1  1  0.74999998  0.49999999  0.00000000  1
  U  U2  1  0.24999999  0.00000000  0.49999999  1
  U  U3  1  0.74999998  0.00000000  0.49999999  1
  Sn  Sn4  1  0.00000000  0.70095099  0.29904900  1
  Sn  Sn5  1  0.00000000  0.29904900  0.70095099  1
  Sn  Sn6  1  0.49999999  0.79904899  0.79904899  1
  Sn  Sn7  1  0.49999999  0.20095100  0.20095100  1
  Sn  Sn8  1  0.00000000  0.15572500  0.15572500  1
  Sn  Sn9  1  0.00000000  0.84427499  0.84427499  1
  Sn  Sn10  1  0.49999999  0.65572499  0.34427500  1
  Sn  Sn11  1  0.49999999  0.34427500  0.65572499  1
  Pt  Pt12  1  0.20191699  0.38005300  0.38005300  1
  Pt  Pt13  1  0.79808298  0.61994699  0.61994699  1
  Pt  Pt14  1  0.20191699  0.61994699  0.61994699  1
  Pt  Pt15  1  0.70191698  0.88005299  0.11994700  1
  Pt  Pt16  1  0.29808299  0.88005299  0.11994700  1
  Pt  Pt17  1  0.79808298  0.38005300  0.38005300  1
  Pt  Pt18  1  0.29808299  0.11994700  0.88005299  1
  Pt  Pt19  1  0.70191698  0.11994700  0.88005299  1
