# generated using pymatgen
data_Ba2I2O7
_symmetry_space_group_name_H-M   'P 1'
_cell_length_a   4.33216906
_cell_length_b   7.60384989
_cell_length_c   7.75272226
_cell_angle_alpha   111.48474884
_cell_angle_beta   90.00000000
_cell_angle_gamma   106.55088043
_symmetry_Int_Tables_number   1
_chemical_formula_structural   Ba2I2O7
_chemical_formula_sum   'Ba2 I2 O7'
_cell_volume   226.22862546
_cell_formula_units_Z   1
loop_
 _symmetry_equiv_pos_site_id
 _symmetry_equiv_pos_as_xyz
  1  'x, y, z'
loop_
 _atom_site_type_symbol
 _atom_site_label
 _atom_site_symmetry_multiplicity
 _atom_site_fract_x
 _atom_site_fract_y
 _atom_site_fract_z
 _atom_site_occupancy
  Ba  Ba0  1  0.39650391  0.78371999  0.57037396  1
  Ba  Ba1  1  0.61278397  0.21628000  0.42962599  1
  I  I2  1  0.12075197  0.29144000  0.99276398  1
  I  I3  1  0.82931191  0.70855999  0.00723597  1
  O  O4  1  0.18385496  0.38687499  0.25492998  1
  O  O5  1  0.79697993  0.61312499  0.74506996  1
  O  O6  1  0.28781993  0.61632299  0.00406897  1
  O  O7  1  0.67149795  0.38367699  0.99593097  1
  O  O8  1  0.89822290  0.82368799  0.26980096  1
  O  O9  1  0.07453498  0.17631200  0.73019899  1
  O  O10  1  0.88673799  0.00000000  -0.00000000  1
