# generated using pymatgen
data_Tb5Ta2O12
_symmetry_space_group_name_H-M   'P 1'
_cell_length_a   5.77934217
_cell_length_b   6.93043280
_cell_length_c   7.32143354
_cell_angle_alpha   105.35859680
_cell_angle_beta   90.00000000
_cell_angle_gamma   114.64242554
_symmetry_Int_Tables_number   1
_chemical_formula_structural   Tb5Ta2O12
_chemical_formula_sum   'Tb5 Ta2 O12'
_cell_volume   254.97375483
_cell_formula_units_Z   1
loop_
 _symmetry_equiv_pos_site_id
 _symmetry_equiv_pos_as_xyz
  1  'x, y, z'
loop_
 _atom_site_type_symbol
 _atom_site_label
 _atom_site_symmetry_multiplicity
 _atom_site_fract_x
 _atom_site_fract_y
 _atom_site_fract_z
 _atom_site_occupancy
  Tb  Tb0  1  0.30408102  0.60816201  0.66623697  1
  Tb  Tb1  1  0.29973502  0.59947001  0.13854497  1
  Tb  Tb2  1  0.00000000  0.00000000  0.00000000  1
  Tb  Tb3  1  0.70026500  0.40053001  0.86145499  1
  Tb  Tb4  1  0.69591900  0.39183801  0.33376298  1
  Ta  Ta5  1  0.73100298  0.00000000  0.50000001  1
  Ta  Ta6  1  0.26899699  0.00000000  0.50000001  1
  O  O7  1  0.59993802  0.69581801  0.92671197  1
  O  O8  1  0.43595200  0.33109901  0.58467099  1
  O  O9  1  0.10485303  0.66890101  0.41532897  1
  O  O10  1  0.90411999  0.30418200  0.07328798  1
  O  O11  1  0.00042200  0.00084400  0.32939800  1
  O  O12  1  0.49933703  0.99867402  0.70694295  1
  O  O13  1  0.09588003  0.69581801  0.92671197  1
  O  O14  1  0.89514699  0.33109901  0.58467099  1
  O  O15  1  0.56404801  0.66890101  0.41532897  1
  O  O16  1  0.40006200  0.30418200  0.07328798  1
  O  O17  1  0.50066298  0.00132600  0.29305700  1
  O  O18  1  0.99957802  0.99915602  0.67060195  1
