# generated using pymatgen
data_Lu2Si3
_symmetry_space_group_name_H-M   'P 1'
_cell_length_a   4.09608221
_cell_length_b   5.45293760
_cell_length_c   8.65546131
_cell_angle_alpha   81.24617004
_cell_angle_beta   76.31295776
_cell_angle_gamma   67.93952942
_symmetry_Int_Tables_number   1
_chemical_formula_structural   Lu2Si3
_chemical_formula_sum   'Lu4 Si6'
_cell_volume   173.65293381
_cell_formula_units_Z   2
loop_
 _symmetry_equiv_pos_site_id
 _symmetry_equiv_pos_as_xyz
  1  'x, y, z'
loop_
 _atom_site_type_symbol
 _atom_site_label
 _atom_site_symmetry_multiplicity
 _atom_site_fract_x
 _atom_site_fract_y
 _atom_site_fract_z
 _atom_site_occupancy
  Lu  Lu0  1  0.18171796  0.74414500  0.89241893  1
  Lu  Lu1  1  0.99526995  0.33259500  0.67686493  1
  Lu  Lu2  1  0.81828196  0.25585500  0.10758096  1
  Lu  Lu3  1  0.00472997  0.66740500  0.32313496  1
  Si  Si4  1  0.51181994  0.85449200  0.12186795  1
  Si  Si5  1  0.63909396  0.28644000  0.43537196  1
  Si  Si6  1  0.48817998  0.14550800  0.87813195  1
  Si  Si7  1  0.36090595  0.71356000  0.56462794  1
  Si  Si8  1  0.26962199  0.09035400  0.37040197  1
  Si  Si9  1  0.73037793  0.90964600  0.62959792  1
