# generated using pymatgen
data_Sc2FeB2Ir5
_symmetry_space_group_name_H-M   'P 1'
_cell_length_a   3.05941010
_cell_length_b   9.35977364
_cell_length_c   9.35977364
_cell_angle_alpha   90.00000000
_cell_angle_beta   90.00000000
_cell_angle_gamma   90.00000000
_symmetry_Int_Tables_number   1
_chemical_formula_structural   Sc2FeB2Ir5
_chemical_formula_sum   'Sc4 Fe2 B4 Ir10'
_cell_volume   268.02073047
_cell_formula_units_Z   2
loop_
 _symmetry_equiv_pos_site_id
 _symmetry_equiv_pos_as_xyz
  1  'x, y, z'
loop_
 _atom_site_type_symbol
 _atom_site_label
 _atom_site_symmetry_multiplicity
 _atom_site_fract_x
 _atom_site_fract_y
 _atom_site_fract_z
 _atom_site_occupancy
  Sc  Sc0  1  0.00000000  0.67568203  0.17568201  1
  Sc  Sc1  1  0.99999997  0.32431801  0.82431803  1
  Sc  Sc2  1  0.00000000  0.17568201  0.32431801  1
  Sc  Sc3  1  0.00000000  0.82431803  0.67568203  1
  Fe  Fe4  1  0.00000000  0.00000000  0.00000000  1
  Fe  Fe5  1  0.00000000  0.50000002  0.50000002  1
  B  B6  1  0.00000000  0.12653900  0.62653902  1
  B  B7  1  0.00000000  0.87346103  0.37346101  1
  B  B8  1  0.00000000  0.62653902  0.87346103  1
  B  B9  1  0.00000000  0.37346101  0.12653900  1
  Ir  Ir10  1  0.49999998  0.21499901  0.07067800  1
  Ir  Ir11  1  0.49999998  0.78500103  0.92932204  1
  Ir  Ir12  1  0.49999998  0.07067800  0.78500103  1
  Ir  Ir13  1  0.49999998  0.71499903  0.42932202  1
  Ir  Ir14  1  0.49999998  0.92932204  0.21499901  1
  Ir  Ir15  1  0.49999998  0.28500101  0.57067802  1
  Ir  Ir16  1  0.49999998  0.57067802  0.71499903  1
  Ir  Ir17  1  0.49999998  0.42932202  0.28500101  1
  Ir  Ir18  1  0.49999998  0.50000002  0.00000000  1
  Ir  Ir19  1  0.49999998  0.00000000  0.50000002  1
