# generated using pymatgen
data_Sm3Lu
_symmetry_space_group_name_H-M   'P 1'
_cell_length_a   5.74982977
_cell_length_b   7.33239985
_cell_length_c   7.33239937
_cell_angle_alpha   120.00000000
_cell_angle_beta   90.00000000
_cell_angle_gamma   90.00000000
_symmetry_Int_Tables_number   1
_chemical_formula_structural   Sm3Lu
_chemical_formula_sum   'Sm6 Lu2'
_cell_volume   267.71818352
_cell_formula_units_Z   2
loop_
 _symmetry_equiv_pos_site_id
 _symmetry_equiv_pos_as_xyz
  1  'x, y, z'
loop_
 _atom_site_type_symbol
 _atom_site_label
 _atom_site_symmetry_multiplicity
 _atom_site_fract_x
 _atom_site_fract_y
 _atom_site_fract_z
 _atom_site_occupancy
  Sm  Sm0  1  0.75000003  0.82462000  0.17538096  1
  Sm  Sm1  1  0.75000003  0.82462000  0.64923996  1
  Sm  Sm2  1  0.75000003  0.35076100  0.17538098  1
  Sm  Sm3  1  0.25000001  0.64923900  0.82461897  1
  Sm  Sm4  1  0.25000001  0.17538000  0.35075999  1
  Sm  Sm5  1  0.25000001  0.17538000  0.82461900  1
  Lu  Lu6  1  0.75000003  0.33333333  0.66666665  1
  Lu  Lu7  1  0.25000001  0.66666666  0.33333330  1
