# generated using pymatgen
data_HfSnIr
_symmetry_space_group_name_H-M   'P 1'
_cell_length_a   3.70748210
_cell_length_b   7.35830021
_cell_length_c   7.35829926
_cell_angle_alpha   120.00000000
_cell_angle_beta   90.00000000
_cell_angle_gamma   90.00000000
_symmetry_Int_Tables_number   1
_chemical_formula_structural   HfSnIr
_chemical_formula_sum   'Hf3 Sn3 Ir3'
_cell_volume   173.84597628
_cell_formula_units_Z   3
loop_
 _symmetry_equiv_pos_site_id
 _symmetry_equiv_pos_as_xyz
  1  'x, y, z'
loop_
 _atom_site_type_symbol
 _atom_site_label
 _atom_site_symmetry_multiplicity
 _atom_site_fract_x
 _atom_site_fract_y
 _atom_site_fract_z
 _atom_site_occupancy
  Hf  Hf0  1  0.49999999  0.60455797  0.99999998  1
  Hf  Hf1  1  0.49999999  0.39544198  0.39544198  1
  Hf  Hf2  1  0.49999999  0.00000000  0.60455801  1
  Sn  Sn3  1  -0.00000000  0.26741798  1.00000000  1
  Sn  Sn4  1  -0.00000000  0.73258196  0.73258197  1
  Sn  Sn5  1  0.99999997  0.00000000  0.26741800  1
  Ir  Ir6  1  -0.00000000  0.33333331  0.66666666  1
  Ir  Ir7  1  0.99999997  0.66666663  0.33333330  1
  Ir  Ir8  1  0.49999999  0.00000000  -0.00000000  1
