# generated using pymatgen
data_CaInAu
_symmetry_space_group_name_H-M   'P 1'
_cell_length_a   4.40051413
_cell_length_b   7.47164297
_cell_length_c   8.54717827
_cell_angle_alpha   90.00000000
_cell_angle_beta   90.00000000
_cell_angle_gamma   90.00000000
_symmetry_Int_Tables_number   1
_chemical_formula_structural   CaInAu
_chemical_formula_sum   'Ca4 In4 Au4'
_cell_volume   281.02327633
_cell_formula_units_Z   4
loop_
 _symmetry_equiv_pos_site_id
 _symmetry_equiv_pos_as_xyz
  1  'x, y, z'
loop_
 _atom_site_type_symbol
 _atom_site_label
 _atom_site_symmetry_multiplicity
 _atom_site_fract_x
 _atom_site_fract_y
 _atom_site_fract_z
 _atom_site_occupancy
  Ca  Ca0  1  0.24999999  0.02793800  0.32294699  1
  Ca  Ca1  1  0.24999999  0.52793800  0.17705299  1
  Ca  Ca2  1  0.74999998  0.97206200  0.67705298  1
  Ca  Ca3  1  0.74999998  0.47206200  0.82294697  1
  In  In4  1  0.24999999  0.14685300  0.93592897  1
  In  In5  1  0.24999999  0.64685300  0.56407098  1
  In  In6  1  0.74999998  0.85314700  0.06407100  1
  In  In7  1  0.74999998  0.35314700  0.43592899  1
  Au  Au8  1  0.24999999  0.27481000  0.62757998  1
  Au  Au9  1  0.24999999  0.77481000  0.87241997  1
  Au  Au10  1  0.74999998  0.72519000  0.37241999  1
  Au  Au11  1  0.74999998  0.22519000  0.12758000  1
