# generated using pymatgen
data_Y5(SbAu)2
_symmetry_space_group_name_H-M   'P 1'
_cell_length_a   7.82693195
_cell_length_b   7.83582020
_cell_length_c   8.56946945
_cell_angle_alpha   62.79381180
_cell_angle_beta   90.00000000
_cell_angle_gamma   90.00000000
_symmetry_Int_Tables_number   1
_chemical_formula_structural   Y5(SbAu)2
_chemical_formula_sum   'Y10 Sb4 Au4'
_cell_volume   467.42395500
_cell_formula_units_Z   2
loop_
 _symmetry_equiv_pos_site_id
 _symmetry_equiv_pos_as_xyz
  1  'x, y, z'
loop_
 _atom_site_type_symbol
 _atom_site_label
 _atom_site_symmetry_multiplicity
 _atom_site_fract_x
 _atom_site_fract_y
 _atom_site_fract_z
 _atom_site_occupancy
  Y  Y0  1  0.00000000  0.00000000  0.00000000  1
  Y  Y1  1  0.50000000  0.49999998  0.00000001  1
  Y  Y2  1  0.83925000  0.45978298  0.75611699  1
  Y  Y3  1  0.16075000  0.78409997  0.75611700  1
  Y  Y4  1  0.33925000  0.28409999  0.75611699  1
  Y  Y5  1  0.66075000  0.95978296  0.75611701  1
  Y  Y6  1  0.16075000  0.54021698  0.24388301  1
  Y  Y7  1  0.83925000  0.21589999  0.24388300  1
  Y  Y8  1  0.66075000  0.71589997  0.24388301  1
  Y  Y9  1  0.33925000  0.04021700  0.24388299  1
  Sb  Sb10  1  1.00000001  0.20840399  0.58319199  1
  Sb  Sb11  1  0.50000000  0.70840397  0.58319200  1
  Sb  Sb12  1  -0.00000000  0.79159597  0.41680801  1
  Sb  Sb13  1  0.50000000  0.29159599  0.41680800  1
  Au  Au14  1  0.63488300  0.13657899  0.00000000  1
  Au  Au15  1  0.36511700  0.86342097  1.00000000  1
  Au  Au16  1  0.13488300  0.36342099  0.00000001  1
  Au  Au17  1  0.86511701  0.63657897  0.00000002  1
