# generated using pymatgen
data_Mg
_symmetry_space_group_name_H-M   'P 1'
_cell_length_a   5.65820408
_cell_length_b   5.65820408
_cell_length_c   6.25980806
_cell_angle_alpha   96.75855255
_cell_angle_beta   111.38175964
_cell_angle_gamma   117.80458832
_symmetry_Int_Tables_number   1
_chemical_formula_structural   Mg
_chemical_formula_sum   Mg6
_cell_volume   154.66900313
_cell_formula_units_Z   6
loop_
 _symmetry_equiv_pos_site_id
 _symmetry_equiv_pos_as_xyz
  1  'x, y, z'
loop_
 _atom_site_type_symbol
 _atom_site_label
 _atom_site_symmetry_multiplicity
 _atom_site_fract_x
 _atom_site_fract_y
 _atom_site_fract_z
 _atom_site_occupancy
  Mg  Mg0  1  0.16375699  0.91375701  0.25000001  1
  Mg  Mg1  1  0.83624300  0.08624300  0.74999998  1
  Mg  Mg2  1  0.17072999  0.75832101  0.74232000  1
  Mg  Mg3  1  0.51600100  0.42841000  0.75767999  1
  Mg  Mg4  1  0.48399900  0.57159001  0.24232000  1
  Mg  Mg5  1  0.82927000  0.24167900  0.25767999  1
