# generated using pymatgen
data_LaSiPt
_symmetry_space_group_name_H-M   'P 1'
_cell_length_a   6.39332819
_cell_length_b   6.39332819
_cell_length_c   6.39332819
_cell_angle_alpha   90.00000000
_cell_angle_beta   90.00000000
_cell_angle_gamma   90.00000000
_symmetry_Int_Tables_number   1
_chemical_formula_structural   LaSiPt
_chemical_formula_sum   'La4 Si4 Pt4'
_cell_volume   261.32502232
_cell_formula_units_Z   4
loop_
 _symmetry_equiv_pos_site_id
 _symmetry_equiv_pos_as_xyz
  1  'x, y, z'
loop_
 _atom_site_type_symbol
 _atom_site_label
 _atom_site_symmetry_multiplicity
 _atom_site_fract_x
 _atom_site_fract_y
 _atom_site_fract_z
 _atom_site_occupancy
  La  La0  1  0.37790199  0.37790199  0.37790199  1
  La  La1  1  0.12209800  0.62209798  0.87790197  1
  La  La2  1  0.62209798  0.87790197  0.12209800  1
  La  La3  1  0.87790197  0.12209800  0.62209798  1
  Si  Si4  1  0.66436298  0.66436298  0.66436298  1
  Si  Si5  1  0.83563698  0.33563699  0.16436300  1
  Si  Si6  1  0.33563699  0.16436300  0.83563698  1
  Si  Si7  1  0.16436300  0.83563698  0.33563699  1
  Pt  Pt8  1  0.07069200  0.07069200  0.07069200  1
  Pt  Pt9  1  0.42930799  0.92930797  0.57069198  1
  Pt  Pt10  1  0.92930797  0.57069198  0.42930799  1
  Pt  Pt11  1  0.57069198  0.42930799  0.92930797  1
