# generated using pymatgen
data_HoCoSi3
_symmetry_space_group_name_H-M   'P 1'
_cell_length_a   3.97651410
_cell_length_b   3.97651410
_cell_length_c   5.54894733
_cell_angle_alpha   110.99659729
_cell_angle_beta   110.99659729
_cell_angle_gamma   90.00000000
_symmetry_Int_Tables_number   1
_chemical_formula_structural   HoCoSi3
_chemical_formula_sum   'Ho1 Co1 Si3'
_cell_volume   75.64419511
_cell_formula_units_Z   1
loop_
 _symmetry_equiv_pos_site_id
 _symmetry_equiv_pos_as_xyz
  1  'x, y, z'
loop_
 _atom_site_type_symbol
 _atom_site_label
 _atom_site_symmetry_multiplicity
 _atom_site_fract_x
 _atom_site_fract_y
 _atom_site_fract_z
 _atom_site_occupancy
  Ho  Ho0  1  0.00000000  0.00000000  0.00000000  1
  Co  Co1  1  0.62689702  0.62689700  0.25379404  1
  Si  Si2  1  0.37310301  0.37310300  0.74620602  1
  Si  Si3  1  0.25000002  0.75000000  0.50000003  1
  Si  Si4  1  0.75000000  0.25000000  0.50000003  1
