# generated using pymatgen
data_Ce3Ni3Bi4
_symmetry_space_group_name_H-M   'P 1'
_cell_length_a   8.49374485
_cell_length_b   8.49374485
_cell_length_c   8.49374485
_cell_angle_alpha   109.47122192
_cell_angle_beta   109.47122192
_cell_angle_gamma   109.47122192
_symmetry_Int_Tables_number   1
_chemical_formula_structural   Ce3Ni3Bi4
_chemical_formula_sum   'Ce6 Ni6 Bi8'
_cell_volume   471.71069258
_cell_formula_units_Z   2
loop_
 _symmetry_equiv_pos_site_id
 _symmetry_equiv_pos_as_xyz
  1  'x, y, z'
loop_
 _atom_site_type_symbol
 _atom_site_label
 _atom_site_symmetry_multiplicity
 _atom_site_fract_x
 _atom_site_fract_y
 _atom_site_fract_z
 _atom_site_occupancy
  Ce  Ce0  1  0.75000007  0.62500004  0.87500008  1
  Ce  Ce1  1  0.25000006  0.87500006  0.62500007  1
  Ce  Ce2  1  0.87500004  0.12500001  0.75000005  1
  Ce  Ce3  1  0.62500005  0.37500002  0.25000004  1
  Ce  Ce4  1  0.12500002  0.25000002  0.37500003  1
  Ce  Ce5  1  0.37500006  0.75000005  0.12500005  1
  Ni  Ni6  1  0.75000003  0.12500001  0.37500003  1
  Ni  Ni7  1  0.25000003  0.37500002  0.12500003  1
  Ni  Ni8  1  0.37500005  0.62500004  0.75000006  1
  Ni  Ni9  1  0.12500006  0.87500006  0.25000006  1
  Ni  Ni10  1  0.62500004  0.25000002  0.87500005  1
  Ni  Ni11  1  0.87500008  0.75000005  0.62500008  1
  Bi  Bi12  1  0.65220609  1.00000007  0.00000007  1
  Bi  Bi13  1  0.00000003  0.50000003  0.15220603  1
  Bi  Bi14  1  0.50000006  0.65220604  0.50000006  1
  Bi  Bi15  1  0.15220607  1.00000007  0.00000006  1
  Bi  Bi16  1  0.84779408  0.84779406  0.34779408  1
  Bi  Bi17  1  0.00000003  0.50000003  0.65220604  1
  Bi  Bi18  1  0.34779403  0.34779402  0.84779405  1
  Bi  Bi19  1  0.50000003  0.15220601  0.50000003  1
