# generated using pymatgen
data_DyAu
_symmetry_space_group_name_H-M   'P 1'
_cell_length_a   3.95993400
_cell_length_b   4.59203815
_cell_length_c   5.84172821
_cell_angle_alpha   90.00000000
_cell_angle_beta   109.81201172
_cell_angle_gamma   90.00000000
_symmetry_Int_Tables_number   1
_chemical_formula_structural   DyAu
_chemical_formula_sum   'Dy2 Au2'
_cell_volume   99.93936473
_cell_formula_units_Z   2
loop_
 _symmetry_equiv_pos_site_id
 _symmetry_equiv_pos_as_xyz
  1  'x, y, z'
loop_
 _atom_site_type_symbol
 _atom_site_label
 _atom_site_symmetry_multiplicity
 _atom_site_fract_x
 _atom_site_fract_y
 _atom_site_fract_z
 _atom_site_occupancy
  Dy  Dy0  1  0.86278501  0.24999999  0.72557004  1
  Dy  Dy1  1  0.13721500  0.74999997  0.27443001  1
  Au  Au2  1  0.58771601  0.24999999  0.17543202  1
  Au  Au3  1  0.41228400  0.74999997  0.82456804  1
