# generated using pymatgen
data_Fe(NiS2)2
_symmetry_space_group_name_H-M   'P 1'
_cell_length_a   3.22149801
_cell_length_b   5.77488470
_cell_length_c   6.18154335
_cell_angle_alpha   115.03581238
_cell_angle_beta   105.10411835
_cell_angle_gamma   90.00000000
_symmetry_Int_Tables_number   1
_chemical_formula_structural   Fe(NiS2)2
_chemical_formula_sum   'Fe1 Ni2 S4'
_cell_volume   99.79302827
_cell_formula_units_Z   1
loop_
 _symmetry_equiv_pos_site_id
 _symmetry_equiv_pos_as_xyz
  1  'x, y, z'
loop_
 _atom_site_type_symbol
 _atom_site_label
 _atom_site_symmetry_multiplicity
 _atom_site_fract_x
 _atom_site_fract_y
 _atom_site_fract_z
 _atom_site_occupancy
  Fe  Fe0  1  0.74054497  0.68865001  0.48108996  1
  Ni  Ni1  1  0.25945499  0.31135001  0.51890998  1
  Ni  Ni2  1  0.00000000  0.00000000  0.00000000  1
  S  S3  1  0.63517196  0.97737102  0.27034396  1
  S  S4  1  0.36482800  0.02262900  0.72965598  1
  S  S5  1  0.89620997  0.55905701  0.79241996  1
  S  S6  1  0.10378998  0.44094301  0.20757998  1
