# generated using pymatgen
data_Sr2SnO4
_symmetry_space_group_name_H-M   'P 1'
_cell_length_a   4.11572599
_cell_length_b   4.11572599
_cell_length_c   7.04503536
_cell_angle_alpha   106.98378754
_cell_angle_beta   106.98378754
_cell_angle_gamma   90.00000000
_symmetry_Int_Tables_number   1
_chemical_formula_structural   Sr2SnO4
_chemical_formula_sum   'Sr2 Sn1 O4'
_cell_volume   108.67909926
_cell_formula_units_Z   1
loop_
 _symmetry_equiv_pos_site_id
 _symmetry_equiv_pos_as_xyz
  1  'x, y, z'
loop_
 _atom_site_type_symbol
 _atom_site_label
 _atom_site_symmetry_multiplicity
 _atom_site_fract_x
 _atom_site_fract_y
 _atom_site_fract_z
 _atom_site_occupancy
  Sr  Sr0  1  0.64773296  0.64773299  0.29546596  1
  Sr  Sr1  1  0.35226698  0.35226699  0.70453399  1
  Sn  Sn2  1  0.00000000  0.00000000  0.00000000  1
  O  O3  1  0.49999999  0.00000000  -0.00000002  1
  O  O4  1  -0.00000002  0.49999999  -0.00000002  1
  O  O5  1  0.83607995  0.83607998  0.67215996  1
  O  O6  1  0.16391999  0.16392000  0.32784000  1
