# generated using pymatgen
data_Y3Cu9Sn2
_symmetry_space_group_name_H-M   'P 1'
_cell_length_a   4.31702995
_cell_length_b   8.11491680
_cell_length_c   8.11491680
_cell_angle_alpha   72.66944122
_cell_angle_beta   74.57400513
_cell_angle_gamma   74.57400513
_symmetry_Int_Tables_number   1
_chemical_formula_structural   Y3Cu9Sn2
_chemical_formula_sum   'Y3 Cu9 Sn2'
_cell_volume   256.15787772
_cell_formula_units_Z   1
loop_
 _symmetry_equiv_pos_site_id
 _symmetry_equiv_pos_as_xyz
  1  'x, y, z'
loop_
 _atom_site_type_symbol
 _atom_site_label
 _atom_site_symmetry_multiplicity
 _atom_site_fract_x
 _atom_site_fract_y
 _atom_site_fract_z
 _atom_site_occupancy
  Y  Y0  1  0.31781700  0.68218300  0.68218298  1
  Y  Y1  1  0.68218301  0.31781700  0.31781699  1
  Y  Y2  1  0.00000000  0.00000000  0.00000000  1
  Cu  Cu3  1  0.10737100  0.16550200  0.61975499  1
  Cu  Cu4  1  0.89262901  0.83449799  0.38024498  1
  Cu  Cu5  1  0.10737200  0.61975400  0.16550199  1
  Cu  Cu6  1  0.50000000  0.69546200  0.30453798  1
  Cu  Cu7  1  0.50000000  0.30453800  0.69546198  1
  Cu  Cu8  1  0.89262801  0.38024600  0.83449798  1
  Cu  Cu9  1  0.32313400  0.33582900  0.01790299  1
  Sn  Sn10  1  0.67686600  0.98209699  0.66417097  1
  Cu  Cu11  1  0.32313400  0.01790300  0.33582899  1
  Cu  Cu12  1  -0.00000000  0.50000000  0.49999998  1
  Sn  Sn13  1  0.67686600  0.66417100  0.98209697  1
