# generated using pymatgen
data_Ta
_symmetry_space_group_name_H-M   'P 1'
_cell_length_a   6.47841454
_cell_length_b   6.47841454
_cell_length_c   7.18782330
_cell_angle_alpha   63.21446991
_cell_angle_beta   63.21446991
_cell_angle_gamma   59.99999619
_symmetry_Int_Tables_number   1
_chemical_formula_structural   Ta
_chemical_formula_sum   Ta6
_cell_volume   223.09705738
_cell_formula_units_Z   6
loop_
 _symmetry_equiv_pos_site_id
 _symmetry_equiv_pos_as_xyz
  1  'x, y, z'
loop_
 _atom_site_type_symbol
 _atom_site_label
 _atom_site_symmetry_multiplicity
 _atom_site_fract_x
 _atom_site_fract_y
 _atom_site_fract_z
 _atom_site_occupancy
  Ta  Ta0  1  0.49999996  0.84006097  0.50000002  1
  Ta  Ta1  1  0.15993898  0.49999998  0.50000001  1
  Ta  Ta2  1  0.84006096  0.15993899  0.50000001  1
  Ta  Ta3  1  0.66545096  0.66545098  0.00364703  1
  Ta  Ta4  1  0.33454898  0.33454899  0.99635300  1
  Ta  Ta5  1  0.00000000  0.00000000  0.00000000  1
