# generated using pymatgen
data_Pr2Al
_symmetry_space_group_name_H-M   'P 1'
_cell_length_a   5.05559778
_cell_length_b   6.83136415
_cell_length_c   10.04370213
_cell_angle_alpha   90.00000000
_cell_angle_beta   90.00000000
_cell_angle_gamma   90.00000000
_symmetry_Int_Tables_number   1
_chemical_formula_structural   Pr2Al
_chemical_formula_sum   'Pr8 Al4'
_cell_volume   346.87561882
_cell_formula_units_Z   4
loop_
 _symmetry_equiv_pos_site_id
 _symmetry_equiv_pos_as_xyz
  1  'x, y, z'
loop_
 _atom_site_type_symbol
 _atom_site_label
 _atom_site_symmetry_multiplicity
 _atom_site_fract_x
 _atom_site_fract_y
 _atom_site_fract_z
 _atom_site_occupancy
  Pr  Pr0  1  0.25000001  0.82258798  0.93801299  1
  Pr  Pr1  1  0.75000003  0.55729299  0.80422499  1
  Pr  Pr2  1  0.75000003  0.05729300  0.69577499  1
  Pr  Pr3  1  0.75000003  0.17741200  0.06198700  1
  Pr  Pr4  1  0.75000003  0.67741198  0.43801299  1
  Pr  Pr5  1  0.25000001  0.94270698  0.30422500  1
  Pr  Pr6  1  0.25000001  0.44270699  0.19577500  1
  Pr  Pr7  1  0.25000001  0.32258799  0.56198699  1
  Al  Al8  1  0.75000003  0.71498598  0.12088700  1
  Al  Al9  1  0.25000001  0.28501399  0.87911299  1
  Al  Al10  1  0.75000003  0.21498600  0.37911300  1
  Al  Al11  1  0.25000001  0.78501398  0.62088699  1
