# generated using pymatgen
data_Ge7Pt3
_symmetry_space_group_name_H-M   'P 1'
_cell_length_a   7.61908197
_cell_length_b   7.61908197
_cell_length_c   7.61908197
_cell_angle_alpha   109.47122192
_cell_angle_beta   109.47122192
_cell_angle_gamma   109.47122192
_symmetry_Int_Tables_number   1
_chemical_formula_structural   Ge7Pt3
_chemical_formula_sum   'Ge14 Pt6'
_cell_volume   340.47562603
_cell_formula_units_Z   2
loop_
 _symmetry_equiv_pos_site_id
 _symmetry_equiv_pos_as_xyz
  1  'x, y, z'
loop_
 _atom_site_type_symbol
 _atom_site_label
 _atom_site_symmetry_multiplicity
 _atom_site_fract_x
 _atom_site_fract_y
 _atom_site_fract_z
 _atom_site_occupancy
  Ge  Ge0  1  0.50000005  0.75000002  0.25000005  1
  Ge  Ge1  1  0.25000003  0.50000002  0.75000003  1
  Ge  Ge2  1  0.75000003  0.50000002  0.25000004  1
  Ge  Ge3  1  0.25000005  0.75000002  0.50000004  1
  Ge  Ge4  1  0.75000002  0.25000001  0.50000003  1
  Ge  Ge5  1  0.50000002  0.25000001  0.75000002  1
  Ge  Ge6  1  0.66536506  1.00000003  1.00000006  1
  Ge  Ge7  1  0.66536504  0.66536502  0.66536505  1
  Ge  Ge8  1  0.00000000  0.00000000  0.33463500  1
  Ge  Ge9  1  1.00000002  0.33463501  1.00000004  1
  Ge  Ge10  1  0.00000000  0.00000000  0.66536500  1
  Ge  Ge11  1  1.00000004  0.66536502  0.00000006  1
  Ge  Ge12  1  0.33463502  0.33463501  0.33463502  1
  Ge  Ge13  1  0.33463506  1.00000003  1.00000006  1
  Pt  Pt14  1  0.00000002  0.33974801  0.33974802  1
  Pt  Pt15  1  0.66025206  1.00000003  0.66025207  1
  Pt  Pt16  1  0.33974806  1.00000003  0.33974806  1
  Pt  Pt17  1  0.33974802  0.33974801  1.00000002  1
  Pt  Pt18  1  0.66025204  0.66025202  1.00000005  1
  Pt  Pt19  1  1.00000004  0.66025202  0.66025206  1
