# generated using pymatgen
data_Zr2SeN2
_symmetry_space_group_name_H-M   'P 1'
_cell_length_a   3.68367791
_cell_length_b   3.68367815
_cell_length_c   13.32423019
_cell_angle_alpha   90.00000000
_cell_angle_beta   90.00000000
_cell_angle_gamma   120.00000000
_symmetry_Int_Tables_number   1
_chemical_formula_structural   Zr2SeN2
_chemical_formula_sum   'Zr4 Se2 N4'
_cell_volume   156.57992721
_cell_formula_units_Z   2
loop_
 _symmetry_equiv_pos_site_id
 _symmetry_equiv_pos_as_xyz
  1  'x, y, z'
loop_
 _atom_site_type_symbol
 _atom_site_label
 _atom_site_symmetry_multiplicity
 _atom_site_fract_x
 _atom_site_fract_y
 _atom_site_fract_z
 _atom_site_occupancy
  Zr  Zr0  1  0.66666670  0.33333335  0.40147099  1
  Zr  Zr1  1  0.33333337  0.66666670  0.59852899  1
  Zr  Zr2  1  0.33333337  0.66666670  0.90147099  1
  Zr  Zr3  1  0.66666670  0.33333335  0.09852900  1
  Se  Se4  1  0.00000000  0.00000000  0.74999999  1
  Se  Se5  1  0.00000000  0.00000000  0.25000000  1
  N  N6  1  0.66666670  0.33333335  0.56685099  1
  N  N7  1  0.33333337  0.66666670  0.43314899  1
  N  N8  1  0.33333337  0.66666670  0.06685100  1
  N  N9  1  0.66666670  0.33333335  0.93314899  1
