# generated using pymatgen
data_ThSi
_symmetry_space_group_name_H-M   'P 1'
_cell_length_a   4.79323578
_cell_length_b   5.85846090
_cell_length_c   7.57531786
_cell_angle_alpha   90.00000000
_cell_angle_beta   90.00000000
_cell_angle_gamma   90.00000000
_symmetry_Int_Tables_number   1
_chemical_formula_structural   ThSi
_chemical_formula_sum   'Th4 Si4'
_cell_volume   212.72238272
_cell_formula_units_Z   4
loop_
 _symmetry_equiv_pos_site_id
 _symmetry_equiv_pos_as_xyz
  1  'x, y, z'
loop_
 _atom_site_type_symbol
 _atom_site_label
 _atom_site_symmetry_multiplicity
 _atom_site_fract_x
 _atom_site_fract_y
 _atom_site_fract_z
 _atom_site_occupancy
  Th  Th0  1  0.25000001  0.35060501  0.68853301  1
  Th  Th1  1  0.25000001  0.14939500  0.18853300  1
  Th  Th2  1  0.75000003  0.64939501  0.31146701  1
  Th  Th3  1  0.75000003  0.85060501  0.81146702  1
  Si  Si4  1  0.25000001  0.84568201  0.54195401  1
  Si  Si5  1  0.25000001  0.65431801  0.04195400  1
  Si  Si6  1  0.75000003  0.15431800  0.45804601  1
  Si  Si7  1  0.75000003  0.34568201  0.95804602  1
