# generated using pymatgen
data_TiPOs
_symmetry_space_group_name_H-M   'P 1'
_cell_length_a   3.71258712
_cell_length_b   6.26296186
_cell_length_c   6.26296186
_cell_angle_alpha   120.00000000
_cell_angle_beta   90.00000000
_cell_angle_gamma   90.00000000
_symmetry_Int_Tables_number   1
_chemical_formula_structural   TiPOs
_chemical_formula_sum   'Ti3 P3 Os3'
_cell_volume   126.11502191
_cell_formula_units_Z   3
loop_
 _symmetry_equiv_pos_site_id
 _symmetry_equiv_pos_as_xyz
  1  'x, y, z'
loop_
 _atom_site_type_symbol
 _atom_site_label
 _atom_site_symmetry_multiplicity
 _atom_site_fract_x
 _atom_site_fract_y
 _atom_site_fract_z
 _atom_site_occupancy
  Ti  Ti0  1  0.49999998  0.58539601  0.99999998  1
  Ti  Ti1  1  0.49999998  0.41460401  0.41460399  1
  Ti  Ti2  1  0.49999998  1.00000001  0.58539598  1
  P  P3  1  0.99999997  0.33333334  0.66666666  1
  P  P4  1  -0.00000000  0.66666667  0.33333332  1
  P  P5  1  0.49999998  0.00000000  -0.00000000  1
  Os  Os6  1  -0.00000000  0.25288200  -0.00000000  1
  Os  Os7  1  0.99999997  0.74711801  0.74711798  1
  Os  Os8  1  -0.00000000  1.00000001  0.25288198  1
