# generated using pymatgen
data_SrS2
_symmetry_space_group_name_H-M   'P 1'
_cell_length_a   5.03118420
_cell_length_b   5.03118420
_cell_length_c   18.18596077
_cell_angle_alpha   97.95099640
_cell_angle_beta   97.95099640
_cell_angle_gamma   90.00000000
_symmetry_Int_Tables_number   1
_chemical_formula_structural   SrS2
_chemical_formula_sum   'Sr5 S10'
_cell_volume   451.44377490
_cell_formula_units_Z   5
loop_
 _symmetry_equiv_pos_site_id
 _symmetry_equiv_pos_as_xyz
  1  'x, y, z'
loop_
 _atom_site_type_symbol
 _atom_site_label
 _atom_site_symmetry_multiplicity
 _atom_site_fract_x
 _atom_site_fract_y
 _atom_site_fract_z
 _atom_site_occupancy
  Sr  Sr0  1  0.00000000  0.00000000  0.00000000  1
  Sr  Sr1  1  0.39805399  0.39805399  0.79610803  1
  Sr  Sr2  1  0.79964199  0.79964198  0.59928404  1
  Sr  Sr3  1  0.20035800  0.20035799  0.40071602  1
  Sr  Sr4  1  0.60194599  0.60194598  0.20389203  1
  S  S5  1  0.55323698  0.05323700  0.10647401  1
  S  S6  1  0.74999998  0.24999999  0.50000003  1
  S  S7  1  0.15105101  0.65105098  0.30210202  1
  S  S8  1  0.94676298  0.44676299  0.89352605  1
  S  S9  1  0.34894900  0.84894897  0.69789804  1
  S  S10  1  0.44676300  0.94676297  0.89352605  1
  S  S11  1  0.65105098  0.15105100  0.30210202  1
  S  S12  1  0.05323701  0.55323698  0.10647401  1
  S  S13  1  0.84894898  0.34894899  0.69789804  1
  S  S14  1  0.25000000  0.74999998  0.50000003  1
