# generated using pymatgen
data_Eu3(Fe2P5)2
_symmetry_space_group_name_H-M   'P 1'
_cell_length_a   5.58773422
_cell_length_b   5.65958500
_cell_length_c   9.24147987
_cell_angle_alpha   81.41711426
_cell_angle_beta   72.40311432
_cell_angle_gamma   60.41907883
_symmetry_Int_Tables_number   1
_chemical_formula_structural   Eu3(Fe2P5)2
_chemical_formula_sum   'Eu3 Fe4 P10'
_cell_volume   242.26924940
_cell_formula_units_Z   1
loop_
 _symmetry_equiv_pos_site_id
 _symmetry_equiv_pos_as_xyz
  1  'x, y, z'
loop_
 _atom_site_type_symbol
 _atom_site_label
 _atom_site_symmetry_multiplicity
 _atom_site_fract_x
 _atom_site_fract_y
 _atom_site_fract_z
 _atom_site_occupancy
  Eu  Eu0  1  0.00000000  0.00000000  0.00000000  1
  Eu  Eu1  1  0.81798995  0.00000000  0.36402003  1
  Eu  Eu2  1  0.18200999  0.00000000  0.63598000  1
  Fe  Fe3  1  0.66916093  0.66167799  0.00000005  1
  Fe  Fe4  1  0.33083896  0.33832200  0.00000003  1
  Fe  Fe5  1  0.16499398  0.32807200  0.34194002  1
  Fe  Fe6  1  0.49306594  0.67192799  0.34194004  1
  P  P7  1  0.83500592  0.67192799  0.65806005  1
  P  P8  1  0.50693395  0.32807200  0.65806003  1
  P  P9  1  0.41418595  0.49999999  0.17162803  1
  P  P10  1  0.41317998  0.00000000  0.17364002  1
  P  P11  1  0.58681996  0.00000000  0.82636002  1
  P  P12  1  0.74999993  0.49999999  0.50000004  1
  P  P13  1  0.24999996  0.49999999  0.50000002  1
  P  P14  1  0.58581394  0.49999999  0.82837203  1
  P  P15  1  0.08581397  0.49999999  0.82837201  1
  P  P16  1  0.91418592  0.49999999  0.17162805  1
