# generated using pymatgen
data_Te2IBr5
_symmetry_space_group_name_H-M   'P 1'
_cell_length_a   9.26186752
_cell_length_b   9.26186752
_cell_length_c   9.59259605
_cell_angle_alpha   106.73606110
_cell_angle_beta   116.61972046
_cell_angle_gamma   103.75008392
_symmetry_Int_Tables_number   1
_chemical_formula_structural   Te2IBr5
_chemical_formula_sum   'Te4 I2 Br10'
_cell_volume   636.58853068
_cell_formula_units_Z   2
loop_
 _symmetry_equiv_pos_site_id
 _symmetry_equiv_pos_as_xyz
  1  'x, y, z'
loop_
 _atom_site_type_symbol
 _atom_site_label
 _atom_site_symmetry_multiplicity
 _atom_site_fract_x
 _atom_site_fract_y
 _atom_site_fract_z
 _atom_site_occupancy
  Te  Te0  1  0.18777102  0.18777101  0.00000002  1
  Te  Te1  1  0.81222907  0.81222904  1.00000009  1
  Te  Te2  1  0.16851003  0.66851003  0.50000005  1
  Te  Te3  1  0.83149005  0.33149002  0.50000005  1
  I  I4  1  0.81149806  0.55745003  0.36894806  1
  I  I5  1  0.18850203  0.44255002  0.63105204  1
  Br  Br6  1  0.75075505  0.50695602  0.91480407  1
  Br  Br7  1  0.59215206  0.83595104  0.08519606  1
  Br  Br8  1  0.24924503  0.49304402  0.08519603  1
  Br  Br9  1  0.40784802  0.16404901  0.91480404  1
  Br  Br10  1  0.07236704  0.91028604  0.32909905  1
  Br  Br11  1  0.58118705  0.74326804  0.67090107  1
  Br  Br12  1  0.06926804  0.85053504  0.91980306  1
  Br  Br13  1  0.93073204  0.14946501  0.08019704  1
  Br  Br14  1  0.41881303  0.25673201  0.32909903  1
  Br  Br15  1  0.92763304  0.08971400  0.67090105  1
