# generated using pymatgen
data_Mn2O3F
_symmetry_space_group_name_H-M   'P 1'
_cell_length_a   5.52051258
_cell_length_b   5.52051258
_cell_length_c   7.39767218
_cell_angle_alpha   69.81939697
_cell_angle_beta   69.81939697
_cell_angle_gamma   71.83518219
_symmetry_Int_Tables_number   1
_chemical_formula_structural   Mn2O3F
_chemical_formula_sum   'Mn6 O9 F3'
_cell_volume   193.80891741
_cell_formula_units_Z   3
loop_
 _symmetry_equiv_pos_site_id
 _symmetry_equiv_pos_as_xyz
  1  'x, y, z'
loop_
 _atom_site_type_symbol
 _atom_site_label
 _atom_site_symmetry_multiplicity
 _atom_site_fract_x
 _atom_site_fract_y
 _atom_site_fract_z
 _atom_site_occupancy
  Mn  Mn0  1  0.17363700  0.17363701  0.35444098  1
  Mn  Mn1  1  0.50000000  0.50000003  0.49999995  1
  Mn  Mn2  1  0.18871200  0.18871201  0.82463798  1
  Mn  Mn3  1  0.50000000  0.50000003  -0.00000004  1
  Mn  Mn4  1  0.82636301  0.82636304  0.64555892  1
  Mn  Mn5  1  0.81128801  0.81128804  0.17536193  1
  O  O6  1  0.80036603  0.19963401  0.49999995  1
  O  O7  1  0.46550699  0.86425905  0.83648294  1
  O  O8  1  0.60349400  0.60349403  0.19196895  1
  O  O9  1  0.26242300  0.26242301  0.54240797  1
  O  O10  1  0.73757701  0.73757704  0.45759193  1
  O  O11  1  0.39650600  0.39650602  0.80803096  1
  O  O12  1  0.53449302  0.13574101  0.16351697  1
  O  O13  1  0.19963398  0.80036604  0.49999996  1
  F  F14  1  0.86425902  0.46550703  0.83648293  1
  O  O15  1  0.13574099  0.53449303  0.16351697  1
  F  F16  1  0.93818501  0.93818505  0.86981391  1
  F  F17  1  0.06181500  0.06181500  0.13018599  1
