# generated using pymatgen
data_Sm2Fe17
_symmetry_space_group_name_H-M   'P 1'
_cell_length_a   6.47086620
_cell_length_b   6.47086620
_cell_length_c   6.47086668
_cell_angle_alpha   82.67557526
_cell_angle_beta   82.67557526
_cell_angle_gamma   82.67557526
_symmetry_Int_Tables_number   1
_chemical_formula_structural   Sm2Fe17
_chemical_formula_sum   'Sm2 Fe17'
_cell_volume   264.83568127
_cell_formula_units_Z   1
loop_
 _symmetry_equiv_pos_site_id
 _symmetry_equiv_pos_as_xyz
  1  'x, y, z'
loop_
 _atom_site_type_symbol
 _atom_site_label
 _atom_site_symmetry_multiplicity
 _atom_site_fract_x
 _atom_site_fract_y
 _atom_site_fract_z
 _atom_site_occupancy
  Sm  Sm0  1  0.34832399  0.34832401  0.34832400  1
  Sm  Sm1  1  0.65167598  0.65167603  0.65167600  1
  Fe  Fe2  1  0.10240700  0.10240700  0.10240700  1
  Fe  Fe3  1  0.89759297  0.89759304  0.89759301  1
  Fe  Fe4  1  0.00000000  0.00000000  0.49999999  1
  Fe  Fe5  1  -0.00000003  0.50000002  0.00000001  1
  Fe  Fe6  1  0.50000002  0.00000000  0.00000000  1
  Fe  Fe7  1  0.71057800  0.28942201  0.00000001  1
  Fe  Fe8  1  0.28942201  0.00000000  0.71057799  1
  Fe  Fe9  1  -0.00000005  0.71057803  0.28942201  1
  Fe  Fe10  1  0.71057802  0.00000000  0.28942200  1
  Fe  Fe11  1  -0.00000002  0.28942201  0.71057799  1
  Fe  Fe12  1  0.28942196  0.71057803  0.00000001  1
  Fe  Fe13  1  0.65931798  0.65931803  0.15299201  1
  Fe  Fe14  1  0.65931801  0.15299201  0.65931800  1
  Fe  Fe15  1  0.15299196  0.65931803  0.65931800  1
  Fe  Fe16  1  0.34068199  0.34068201  0.84700799  1
  Fe  Fe17  1  0.34068195  0.84700803  0.34068201  1
  Fe  Fe18  1  0.84700800  0.34068201  0.34068201  1
