# generated using pymatgen
data_Nb10AlGa5
_symmetry_space_group_name_H-M   'P 1'
_cell_length_a   5.10935783
_cell_length_b   7.57901144
_cell_length_c   7.57901144
_cell_angle_alpha   83.47607422
_cell_angle_beta   70.30136108
_cell_angle_gamma   70.30136108
_symmetry_Int_Tables_number   1
_chemical_formula_structural   Nb10AlGa5
_chemical_formula_sum   'Nb10 Al1 Ga5'
_cell_volume   260.14309723
_cell_formula_units_Z   1
loop_
 _symmetry_equiv_pos_site_id
 _symmetry_equiv_pos_as_xyz
  1  'x, y, z'
loop_
 _atom_site_type_symbol
 _atom_site_label
 _atom_site_symmetry_multiplicity
 _atom_site_fract_x
 _atom_site_fract_y
 _atom_site_fract_z
 _atom_site_occupancy
  Nb  Nb0  1  0.42403496  0.85667600  0.29525400  1
  Nb  Nb1  1  0.28071099  0.29525400  0.14332400  1
  Nb  Nb2  1  0.57596502  0.14332400  0.70474598  1
  Nb  Nb3  1  0.24999997  0.50000000  0.50000000  1
  Nb  Nb4  1  0.07596495  0.70474600  0.14332401  1
  Nb  Nb5  1  0.21928895  0.85667600  0.70474601  1
  Nb  Nb6  1  0.71928898  0.70474600  0.85667599  1
  Nb  Nb7  1  0.92403502  0.29525400  0.85667597  1
  Nb  Nb8  1  0.78071103  0.14332400  0.29525398  1
  Nb  Nb9  1  0.75000000  0.50000000  0.49999998  1
  Al  Al10  1  0.83527898  0.82944200  0.49999999  1
  Ga  Ga11  1  0.25000001  0.00000000  0.99999998  1
  Ga  Ga12  1  0.75000004  0.00000000  0.99999997  1
  Ga  Ga13  1  0.33527898  0.50000000  0.82944199  1
  Ga  Ga14  1  0.66472099  0.50000000  0.17055799  1
  Ga  Ga15  1  0.16472099  0.17055800  0.49999999  1
