# generated using pymatgen
data_SrZnSb2
_symmetry_space_group_name_H-M   'P 1'
_cell_length_a   4.43220901
_cell_length_b   4.46812487
_cell_length_c   23.06083679
_cell_angle_alpha   90.00000000
_cell_angle_beta   90.00000000
_cell_angle_gamma   90.00000000
_symmetry_Int_Tables_number   1
_chemical_formula_structural   SrZnSb2
_chemical_formula_sum   'Sr4 Zn4 Sb8'
_cell_volume   456.68904754
_cell_formula_units_Z   4
loop_
 _symmetry_equiv_pos_site_id
 _symmetry_equiv_pos_as_xyz
  1  'x, y, z'
loop_
 _atom_site_type_symbol
 _atom_site_label
 _atom_site_symmetry_multiplicity
 _atom_site_fract_x
 _atom_site_fract_y
 _atom_site_fract_z
 _atom_site_occupancy
  Sr  Sr0  1  0.25000000  0.77188002  0.61597201  1
  Sr  Sr1  1  0.75000000  0.22812001  0.38402800  1
  Sr  Sr2  1  0.75000000  0.27188001  0.88402801  1
  Sr  Sr3  1  0.25000000  0.72812002  0.11597200  1
  Zn  Zn4  1  0.25000000  0.27530601  0.75002301  1
  Zn  Zn5  1  0.75000000  0.72469402  0.24997700  1
  Zn  Zn6  1  0.75000000  0.77530602  0.74997701  1
  Zn  Zn7  1  0.25000000  0.22469401  0.25002300  1
  Sb  Sb8  1  0.25000000  0.22425501  0.00112800  1
  Sb  Sb9  1  0.75000000  0.77574502  0.99887201  1
  Sb  Sb10  1  0.75000000  0.72425502  0.49887200  1
  Sb  Sb11  1  0.25000000  0.27574501  0.50112800  1
  Sb  Sb12  1  0.25000000  0.72579402  0.32323000  1
  Sb  Sb13  1  0.75000000  0.27420601  0.67677001  1
  Sb  Sb14  1  0.75000000  0.22579401  0.17677000  1
  Sb  Sb15  1  0.25000000  0.77420602  0.82323001  1
