# generated using pymatgen
data_Mn9CoC4
_symmetry_space_group_name_H-M   'P 1'
_cell_length_a   4.50732183
_cell_length_b   4.98962641
_cell_length_c   6.22366428
_cell_angle_alpha   97.05803680
_cell_angle_beta   111.22993469
_cell_angle_gamma   90.00000000
_symmetry_Int_Tables_number   1
_chemical_formula_structural   Mn9CoC4
_chemical_formula_sum   'Mn9 Co1 C4'
_cell_volume   129.33169803
_cell_formula_units_Z   1
loop_
 _symmetry_equiv_pos_site_id
 _symmetry_equiv_pos_as_xyz
  1  'x, y, z'
loop_
 _atom_site_type_symbol
 _atom_site_label
 _atom_site_symmetry_multiplicity
 _atom_site_fract_x
 _atom_site_fract_y
 _atom_site_fract_z
 _atom_site_occupancy
  Mn  Mn0  1  0.98497806  0.58300602  0.80321107  1
  Mn  Mn1  1  0.18176703  0.91699404  0.19678903  1
  Mn  Mn2  1  0.63242304  0.31061201  0.42862604  1
  Mn  Mn3  1  0.20379701  0.18938801  0.57137403  1
  Mn  Mn4  1  0.36757703  0.68938803  0.57137405  1
  Mn  Mn5  1  0.79620306  0.81061203  0.42862606  1
  Mn  Mn6  1  0.81823304  0.08300600  0.80321106  1
  Mn  Mn7  1  0.01502201  0.41699402  0.19678902  1
  Mn  Mn8  1  0.56722504  0.75000003  0.00000003  1
  Co  Co9  1  0.43277503  0.25000001  0.00000002  1
  C  C10  1  0.42752503  0.57871102  0.22611503  1
  C  C11  1  0.20141003  0.92128904  0.77388505  1
  C  C12  1  0.57247504  0.42128902  0.77388506  1
  C  C13  1  0.79859004  0.07871100  0.22611504  1
