# generated using pymatgen
data_Mn2CoO4
_symmetry_space_group_name_H-M   'P 1'
_cell_length_a   5.91522694
_cell_length_b   5.91522694
_cell_length_c   5.91522694
_cell_angle_alpha   60.00000000
_cell_angle_beta   60.00000000
_cell_angle_gamma   60.00000000
_symmetry_Int_Tables_number   1
_chemical_formula_structural   Mn2CoO4
_chemical_formula_sum   'Mn4 Co2 O8'
_cell_volume   146.35219313
_cell_formula_units_Z   2
loop_
 _symmetry_equiv_pos_site_id
 _symmetry_equiv_pos_as_xyz
  1  'x, y, z'
loop_
 _atom_site_type_symbol
 _atom_site_label
 _atom_site_symmetry_multiplicity
 _atom_site_fract_x
 _atom_site_fract_y
 _atom_site_fract_z
 _atom_site_occupancy
  Mn  Mn0  1  0.87499998  0.37499999  0.37499999  1
  Mn  Mn1  1  0.37499999  0.37499999  0.37499999  1
  Mn  Mn2  1  0.37499999  0.37499999  0.87499998  1
  Mn  Mn3  1  0.37499999  0.87499998  0.37499999  1
  Co  Co4  1  0.00000000  0.00000000  0.00000000  1
  Co  Co5  1  0.74999999  0.74999999  0.74999999  1
  O  O6  1  0.12288800  0.12288900  0.63133399  1
  O  O7  1  0.62711199  0.11866600  0.62711099  1
  O  O8  1  0.11866700  0.62711099  0.62711099  1
  O  O9  1  0.62711199  0.62711099  0.62711099  1
  O  O10  1  0.12288800  0.63133399  0.12288900  1
  O  O11  1  0.62711199  0.62711099  0.11866600  1
  O  O12  1  0.63133299  0.12288900  0.12288900  1
  O  O13  1  0.12288800  0.12288900  0.12288900  1
