# generated using pymatgen
data_Li2ZnFeF6
_symmetry_space_group_name_H-M   'P 1'
_cell_length_a   5.11225367
_cell_length_b   5.11645079
_cell_length_c   5.48292589
_cell_angle_alpha   62.85228348
_cell_angle_beta   89.86580658
_cell_angle_gamma   119.28655243
_symmetry_Int_Tables_number   1
_chemical_formula_structural   Li2ZnFeF6
_chemical_formula_sum   'Li2 Zn1 Fe1 F6'
_cell_volume   106.49995460
_cell_formula_units_Z   1
loop_
 _symmetry_equiv_pos_site_id
 _symmetry_equiv_pos_as_xyz
  1  'x, y, z'
loop_
 _atom_site_type_symbol
 _atom_site_label
 _atom_site_symmetry_multiplicity
 _atom_site_fract_x
 _atom_site_fract_y
 _atom_site_fract_z
 _atom_site_occupancy
  Li  Li0  1  0.88985901  0.73956701  0.40033199  1
  Li  Li1  1  0.12341201  0.26687900  0.56049800  1
  Zn  Zn2  1  0.32680201  0.69098001  0.94341800  1
  Fe  Fe3  1  0.65619300  0.32680700  0.03418999  1
  F  F4  1  0.42213900  0.14041000  0.78875600  1
  F  F5  1  0.28327100  0.24399700  0.24025300  1
  F  F6  1  0.94947600  0.48937300  0.23942499  1
  F  F7  1  0.06215501  0.48697000  0.76232801  1
  F  F8  1  0.73909801  0.81225401  0.76077600  1
  F  F9  1  0.54759201  0.80276601  0.27002399  1
