# generated using pymatgen
data_PPd4S5
_symmetry_space_group_name_H-M   'P 1'
_cell_length_a   5.04314089
_cell_length_b   5.04314089
_cell_length_c   5.49003792
_cell_angle_alpha   90.00000000
_cell_angle_beta   90.00000000
_cell_angle_gamma   91.87757111
_symmetry_Int_Tables_number   1
_chemical_formula_structural   PPd4S5
_chemical_formula_sum   'P1 Pd4 S5'
_cell_volume   139.55465219
_cell_formula_units_Z   1
loop_
 _symmetry_equiv_pos_site_id
 _symmetry_equiv_pos_as_xyz
  1  'x, y, z'
loop_
 _atom_site_type_symbol
 _atom_site_label
 _atom_site_symmetry_multiplicity
 _atom_site_fract_x
 _atom_site_fract_y
 _atom_site_fract_z
 _atom_site_occupancy
  P  P0  1  0.23325504  0.85647401  0.66333001  1
  Pd  Pd1  1  0.76674502  0.14352600  0.66333001  1
  Pd  Pd2  1  0.85647402  0.23325500  0.16333000  1
  Pd  Pd3  1  0.14352603  0.76674501  0.16333000  1
  S  S4  1  0.50000001  0.00000000  0.99233001  1
  Pd  Pd5  1  0.00000002  0.50000001  0.49233001  1
  S  S6  1  0.64505804  0.75146701  0.34050501  1
  S  S7  1  0.35494202  0.24853300  0.34050501  1
  S  S8  1  0.24853302  0.35494200  0.84050501  1
  S  S9  1  0.75146704  0.64505801  0.84050501  1
