# generated using pymatgen
data_Cs3SrZr4BrCl4O7
_symmetry_space_group_name_H-M   'P 1'
_cell_length_a   3.52349305
_cell_length_b   9.42706490
_cell_length_c   14.72465420
_cell_angle_alpha   90.00000000
_cell_angle_beta   90.00000000
_cell_angle_gamma   90.00000000
_symmetry_Int_Tables_number   1
_chemical_formula_structural   Cs3SrZr4BrCl4O7
_chemical_formula_sum   'Cs3 Sr1 Zr4 Br1 Cl4 O7'
_cell_volume   489.09702425
_cell_formula_units_Z   1
loop_
 _symmetry_equiv_pos_site_id
 _symmetry_equiv_pos_as_xyz
  1  'x, y, z'
loop_
 _atom_site_type_symbol
 _atom_site_label
 _atom_site_symmetry_multiplicity
 _atom_site_fract_x
 _atom_site_fract_y
 _atom_site_fract_z
 _atom_site_occupancy
  Sr  Sr0  1  0.25000000  0.15906300  0.43038499  1
  Cs  Cs1  1  0.74999999  0.84093701  0.56961499  1
  Zr  Zr2  1  0.25000000  0.65906301  0.06961500  1
  Cs  Cs3  1  0.74999999  0.34093700  0.93038499  1
  Cs  Cs4  1  0.74999999  0.01658700  0.17254500  1
  Zr  Zr5  1  0.25000000  0.98341301  0.82745499  1
  Zr  Zr6  1  0.74999999  0.51658701  0.32745500  1
  Zr  Zr7  1  0.25000000  0.48341301  0.67254499  1
  Cl  Cl8  1  0.25000000  0.02281200  0.59619899  1
  Cl  Cl9  1  0.74999999  0.97718801  0.40380099  1
  Br  Br10  1  0.25000000  0.52281201  0.90380099  1
  Cl  Cl11  1  0.74999999  0.47718801  0.09619900  1
  O  O12  1  0.25000000  0.24893100  0.28809700  1
  O  O13  1  0.74999999  0.75106901  0.71190299  1
  O  O14  1  0.25000000  0.74893101  0.21190300  1
  Cl  Cl15  1  0.74999999  0.25106900  0.78809699  1
  O  O16  1  0.25000000  0.19307800  0.99840999  1
  O  O17  1  0.74999999  0.80692201  0.00159000  1
  O  O18  1  0.25000000  0.69307801  0.50158999  1
  O  O19  1  0.74999999  0.30692200  0.49840999  1
