# generated using pymatgen
data_CaN2
_symmetry_space_group_name_H-M   'P 1'
_cell_length_a   3.77862191
_cell_length_b   4.16004086
_cell_length_c   3.77862191
_cell_angle_alpha   117.01069641
_cell_angle_beta   90.00000000
_cell_angle_gamma   117.01069641
_symmetry_Int_Tables_number   1
_chemical_formula_structural   CaN2
_chemical_formula_sum   'Ca1 N2'
_cell_volume   45.52628141
_cell_formula_units_Z   1
loop_
 _symmetry_equiv_pos_site_id
 _symmetry_equiv_pos_as_xyz
  1  'x, y, z'
loop_
 _atom_site_type_symbol
 _atom_site_label
 _atom_site_symmetry_multiplicity
 _atom_site_fract_x
 _atom_site_fract_y
 _atom_site_fract_z
 _atom_site_occupancy
  Ca  Ca0  1  0.00000000  0.00000000  0.00000000  1
  N  N1  1  0.39811198  0.79622395  0.39811198  1
  N  N2  1  0.60188801  0.20377599  0.60188801  1
