# generated using pymatgen
data_MnF3
_symmetry_space_group_name_H-M   'P 1'
_cell_length_a   5.23445177
_cell_length_b   5.39858198
_cell_length_c   7.53548193
_cell_angle_alpha   90.00000000
_cell_angle_beta   89.55239868
_cell_angle_gamma   90.00000000
_symmetry_Int_Tables_number   1
_chemical_formula_structural   MnF3
_chemical_formula_sum   'Mn4 F12'
_cell_volume   212.93580005
_cell_formula_units_Z   4
loop_
 _symmetry_equiv_pos_site_id
 _symmetry_equiv_pos_as_xyz
  1  'x, y, z'
loop_
 _atom_site_type_symbol
 _atom_site_label
 _atom_site_symmetry_multiplicity
 _atom_site_fract_x
 _atom_site_fract_y
 _atom_site_fract_z
 _atom_site_occupancy
  Mn  Mn0  1  0.00000000  0.00000000  0.50000000  1
  Mn  Mn1  1  0.50000002  0.50000000  -0.00000002  1
  Mn  Mn2  1  0.00000000  0.00000000  0.00000000  1
  Mn  Mn3  1  0.50000002  0.50000000  0.49999998  1
  F  F4  1  0.91218804  0.01945700  0.23223196  1
  F  F5  1  0.81377804  0.27740300  0.95475697  1
  F  F6  1  0.78078503  0.30988100  0.54214497  1
  F  F7  1  0.71921503  0.80988100  0.95785497  1
  F  F8  1  0.68622203  0.77740300  0.54524297  1
  F  F9  1  0.58781203  0.51945700  0.26776798  1
  F  F10  1  0.41218802  0.48054300  0.73223198  1
  F  F11  1  0.31377801  0.22259700  0.45475699  1
  F  F12  1  0.28078501  0.19011900  0.04214499  1
  F  F13  1  0.21921501  0.69011900  0.45785499  1
  F  F14  1  0.18622201  0.72259700  0.04524299  1
  F  F15  1  0.08781200  0.98054300  0.76776800  1
