# generated using pymatgen
data_Y2CuP3
_symmetry_space_group_name_H-M   'P 1'
_cell_length_a   3.90201211
_cell_length_b   3.90201235
_cell_length_c   15.41366482
_cell_angle_alpha   90.00000000
_cell_angle_beta   90.00000000
_cell_angle_gamma   120.00000000
_symmetry_Int_Tables_number   1
_chemical_formula_structural   Y2CuP3
_chemical_formula_sum   'Y4 Cu2 P6'
_cell_volume   203.24215665
_cell_formula_units_Z   2
loop_
 _symmetry_equiv_pos_site_id
 _symmetry_equiv_pos_as_xyz
  1  'x, y, z'
loop_
 _atom_site_type_symbol
 _atom_site_label
 _atom_site_symmetry_multiplicity
 _atom_site_fract_x
 _atom_site_fract_y
 _atom_site_fract_z
 _atom_site_occupancy
  Y  Y0  1  0.00000000  0.00000000  0.50000001  1
  Y  Y1  1  0.00000000  0.00000000  0.00000000  1
  Y  Y2  1  0.00000000  0.00000000  0.75000001  1
  Y  Y3  1  0.00000000  0.00000000  0.25000000  1
  Cu  Cu4  1  0.66666667  0.33333335  0.62801301  1
  Cu  Cu5  1  0.33333337  0.66666670  0.37198700  1
  P  P6  1  0.33333337  0.66666670  0.12801300  1
  P  P7  1  0.66666667  0.33333335  0.87198701  1
  P  P8  1  0.66666667  0.33333335  0.12307100  1
  P  P9  1  0.33333337  0.66666670  0.87692901  1
  P  P10  1  0.33333337  0.66666670  0.62307101  1
  P  P11  1  0.66666667  0.33333335  0.37692900  1
