# generated using pymatgen
data_PrCuSb
_symmetry_space_group_name_H-M   'P 1'
_cell_length_a   4.58001614
_cell_length_b   4.58001661
_cell_length_c   7.83281612
_cell_angle_alpha   90.00000000
_cell_angle_beta   90.00000000
_cell_angle_gamma   119.99999237
_symmetry_Int_Tables_number   1
_chemical_formula_structural   PrCuSb
_chemical_formula_sum   'Pr2 Cu2 Sb2'
_cell_volume   142.29271241
_cell_formula_units_Z   2
loop_
 _symmetry_equiv_pos_site_id
 _symmetry_equiv_pos_as_xyz
  1  'x, y, z'
loop_
 _atom_site_type_symbol
 _atom_site_label
 _atom_site_symmetry_multiplicity
 _atom_site_fract_x
 _atom_site_fract_y
 _atom_site_fract_z
 _atom_site_occupancy
  Pr  Pr0  1  0.00000000  0.00000000  0.49999999  1
  Pr  Pr1  1  0.00000000  0.00000000  0.00000000  1
  Cu  Cu2  1  0.66666663  0.33333333  0.74999999  1
  Cu  Cu3  1  0.33333329  0.66666666  0.25000000  1
  Sb  Sb4  1  0.66666663  0.33333333  0.25000000  1
  Sb  Sb5  1  0.33333329  0.66666666  0.74999999  1
