# generated using pymatgen
data_Y2Ge5Rh3
_symmetry_space_group_name_H-M   'P 1'
_cell_length_a   5.95648050
_cell_length_b   8.38087749
_cell_length_c   8.38087749
_cell_angle_alpha   92.50724030
_cell_angle_beta   109.62564087
_cell_angle_gamma   109.62564087
_symmetry_Int_Tables_number   1
_chemical_formula_structural   Y2Ge5Rh3
_chemical_formula_sum   'Y4 Ge10 Rh6'
_cell_volume   365.35549589
_cell_formula_units_Z   2
loop_
 _symmetry_equiv_pos_site_id
 _symmetry_equiv_pos_as_xyz
  1  'x, y, z'
loop_
 _atom_site_type_symbol
 _atom_site_label
 _atom_site_symmetry_multiplicity
 _atom_site_fract_x
 _atom_site_fract_y
 _atom_site_fract_z
 _atom_site_occupancy
  Y  Y0  1  0.23289910  0.59271504  0.86520809  1
  Y  Y1  1  0.26710102  0.13479201  0.40728504  1
  Y  Y2  1  0.76710107  0.40728503  0.13479208  1
  Y  Y3  1  0.73289915  0.86520806  0.59271514  1
  Ge  Ge4  1  0.16646404  0.26282702  0.07006704  1
  Ge  Ge5  1  0.33353615  0.92993306  0.73717313  1
  Ge  Ge6  1  0.83353613  0.73717305  0.92993313  1
  Ge  Ge7  1  0.66646402  0.07006700  0.26282704  1
  Ge  Ge8  1  0.25000013  0.78692405  0.21307610  1
  Ge  Ge9  1  0.75000004  0.21307601  0.78692407  1
  Ge  Ge10  1  0.25000008  0.49281203  0.50718807  1
  Ge  Ge11  1  0.75000009  0.50718803  0.49281210  1
  Ge  Ge12  1  0.25000004  0.22228501  0.77771505  1
  Ge  Ge13  1  0.75000013  0.77771505  0.22228512  1
  Rh  Rh14  1  0.38303609  0.53975504  0.25507008  1
  Rh  Rh15  1  0.11696412  0.74493005  0.46024509  1
  Rh  Rh16  1  0.61696408  0.46024503  0.74493009  1
  Rh  Rh17  1  0.88303605  0.25507002  0.53975508  1
  Rh  Rh18  1  0.25000016  0.99841307  0.00158711  1
  Rh  Rh19  1  0.75000001  0.00158700  0.99841306  1
