# generated using pymatgen
data_CaRhO3
_symmetry_space_group_name_H-M   'P 1'
_cell_length_a   5.41192913
_cell_length_b   5.70620298
_cell_length_c   7.74671888
_cell_angle_alpha   90.00000000
_cell_angle_beta   90.00000000
_cell_angle_gamma   90.00000000
_symmetry_Int_Tables_number   1
_chemical_formula_structural   CaRhO3
_chemical_formula_sum   'Ca4 Rh4 O12'
_cell_volume   239.23081167
_cell_formula_units_Z   4
loop_
 _symmetry_equiv_pos_site_id
 _symmetry_equiv_pos_as_xyz
  1  'x, y, z'
loop_
 _atom_site_type_symbol
 _atom_site_label
 _atom_site_symmetry_multiplicity
 _atom_site_fract_x
 _atom_site_fract_y
 _atom_site_fract_z
 _atom_site_occupancy
  Ca  Ca0  1  0.98164498  0.06911700  0.25000000  1
  Ca  Ca1  1  0.48164499  0.43088300  0.75000001  1
  Ca  Ca2  1  0.51835499  0.56911700  0.25000000  1
  Ca  Ca3  1  0.01835500  0.93088300  0.75000001  1
  Rh  Rh4  1  -0.00000000  0.50000000  -0.00000000  1
  Rh  Rh5  1  0.49999999  0.00000000  0.00000000  1
  Rh  Rh6  1  0.49999999  0.00000000  0.50000001  1
  Rh  Rh7  1  -0.00000000  0.50000000  0.50000001  1
  O  O8  1  0.10526600  0.46766100  0.25000000  1
  O  O9  1  0.60526599  0.03233900  0.75000001  1
  O  O10  1  0.39473399  0.96766100  0.25000000  1
  O  O11  1  0.89473398  0.53233900  0.75000001  1
  O  O12  1  0.69467198  0.29999200  0.05261800  1
  O  O13  1  0.19467200  0.20000800  0.94738201  1
  O  O14  1  0.80532798  0.79999200  0.44738201  1
  O  O15  1  0.30532799  0.70000800  0.55261801  1
  O  O16  1  0.30532799  0.70000800  0.94738201  1
  O  O17  1  0.80532798  0.79999200  0.05261800  1
  O  O18  1  0.19467200  0.20000800  0.55261801  1
  O  O19  1  0.69467198  0.29999200  0.44738201  1
