# generated using pymatgen
data_BaNb(PO4)2
_symmetry_space_group_name_H-M   'P 1'
_cell_length_a   4.91571999
_cell_length_b   4.91571999
_cell_length_c   7.84115505
_cell_angle_alpha   86.50878906
_cell_angle_beta   86.50878906
_cell_angle_gamma   64.64427948
_symmetry_Int_Tables_number   1
_chemical_formula_structural   BaNb(PO4)2
_chemical_formula_sum   'Ba1 Nb1 P2 O8'
_cell_volume   170.77801842
_cell_formula_units_Z   1
loop_
 _symmetry_equiv_pos_site_id
 _symmetry_equiv_pos_as_xyz
  1  'x, y, z'
loop_
 _atom_site_type_symbol
 _atom_site_label
 _atom_site_symmetry_multiplicity
 _atom_site_fract_x
 _atom_site_fract_y
 _atom_site_fract_z
 _atom_site_occupancy
  Ba  Ba0  1  0.00000000  0.00000000  0.49999999  1
  Nb  Nb1  1  0.00000000  0.00000000  0.00000000  1
  P  P2  1  0.63334603  0.63334603  0.20565301  1
  P  P3  1  0.36665402  0.36665402  0.79434699  1
  O  O4  1  0.68637803  0.68637803  0.38832701  1
  O  O5  1  0.31362201  0.31362201  0.61167299  1
  O  O6  1  0.76837803  0.28704901  0.17968301  1
  O  O7  1  0.23162201  0.71295103  0.82031699  1
  O  O8  1  0.71295103  0.23162201  0.82031699  1
  O  O9  1  0.28704901  0.76837803  0.17968301  1
  O  O10  1  0.77403704  0.77403703  0.06517402  1
  O  O11  1  0.22596301  0.22596301  0.93482598  1
