# generated using pymatgen
data_NdMn12
_symmetry_space_group_name_H-M   'P 1'
_cell_length_a   4.62510204
_cell_length_b   6.31867361
_cell_length_c   6.31867361
_cell_angle_alpha   82.30230713
_cell_angle_beta   68.53167725
_cell_angle_gamma   68.53167725
_symmetry_Int_Tables_number   1
_chemical_formula_structural   NdMn12
_chemical_formula_sum   'Nd1 Mn12'
_cell_volume   159.92559609
_cell_formula_units_Z   1
loop_
 _symmetry_equiv_pos_site_id
 _symmetry_equiv_pos_as_xyz
  1  'x, y, z'
loop_
 _atom_site_type_symbol
 _atom_site_label
 _atom_site_symmetry_multiplicity
 _atom_site_fract_x
 _atom_site_fract_y
 _atom_site_fract_z
 _atom_site_occupancy
  Nd  Nd0  1  0.00000000  0.00000000  0.00000000  1
  Mn  Mn1  1  0.99999998  0.36131100  0.63868903  1
  Mn  Mn2  1  0.49999999  0.22698900  0.77301102  1
  Mn  Mn3  1  0.27301099  0.22698900  0.22698901  1
  Mn  Mn4  1  0.72698898  0.77301101  0.77301104  1
  Mn  Mn5  1  0.00000000  0.00000000  0.50000001  1
  Mn  Mn6  1  0.49999999  0.77301101  0.22698904  1
  Mn  Mn7  1  0.36131099  0.63868901  0.63868904  1
  Mn  Mn8  1  -0.00000001  0.63868901  0.36131103  1
  Mn  Mn9  1  -0.00000001  0.50000001  1.00000003  1
  Mn  Mn10  1  0.63868899  0.36131100  0.36131102  1
  Mn  Mn11  1  0.49999999  0.50000001  0.00000002  1
  Mn  Mn12  1  0.49999999  0.00000000  0.50000001  1
