# generated using pymatgen
data_Sm3Al2
_symmetry_space_group_name_H-M   'P 1'
_cell_length_a   7.61133289
_cell_length_b   8.23744202
_cell_length_c   8.23744202
_cell_angle_alpha   90.00000000
_cell_angle_beta   90.00000000
_cell_angle_gamma   90.00000000
_symmetry_Int_Tables_number   1
_chemical_formula_structural   Sm3Al2
_chemical_formula_sum   'Sm12 Al8'
_cell_volume   516.47042601
_cell_formula_units_Z   4
loop_
 _symmetry_equiv_pos_site_id
 _symmetry_equiv_pos_as_xyz
  1  'x, y, z'
loop_
 _atom_site_type_symbol
 _atom_site_label
 _atom_site_symmetry_multiplicity
 _atom_site_fract_x
 _atom_site_fract_y
 _atom_site_fract_z
 _atom_site_occupancy
  Sm  Sm0  1  0.25000000  0.50000000  0.00000000  1
  Sm  Sm1  1  0.75000001  0.00000000  0.50000000  1
  Sm  Sm2  1  0.75000001  0.50000000  0.00000000  1
  Sm  Sm3  1  0.25000000  0.00000000  0.50000000  1
  Sm  Sm4  1  0.50000001  0.84886300  0.15113700  1
  Sm  Sm5  1  0.50000001  0.15113700  0.84886300  1
  Sm  Sm6  1  1.00000001  0.34886300  0.34886300  1
  Sm  Sm7  1  0.00000000  0.65113700  0.65113700  1
  Sm  Sm8  1  0.50000001  0.70011500  0.70011500  1
  Sm  Sm9  1  0.50000001  0.29988500  0.29988500  1
  Sm  Sm10  1  1.00000001  0.20011500  0.79988500  1
  Sm  Sm11  1  -0.00000000  0.79988500  0.20011500  1
  Al  Al12  1  0.30244500  0.61927500  0.38072500  1
  Al  Al13  1  0.30244500  0.38072500  0.61927500  1
  Al  Al14  1  0.80244501  0.11927500  0.11927500  1
  Al  Al15  1  0.80244501  0.88072500  0.88072500  1
  Al  Al16  1  0.69755501  0.38072500  0.61927500  1
  Al  Al17  1  0.69755501  0.61927500  0.38072500  1
  Al  Al18  1  0.19755500  0.88072500  0.88072500  1
  Al  Al19  1  0.19755500  0.11927500  0.11927500  1
