# generated using pymatgen
data_TlCu5Se3
_symmetry_space_group_name_H-M   'P 1'
_cell_length_a   4.08540392
_cell_length_b   4.08540392
_cell_length_c   10.88405323
_cell_angle_alpha   100.81732941
_cell_angle_beta   100.81732941
_cell_angle_gamma   90.00000000
_symmetry_Int_Tables_number   1
_chemical_formula_structural   TlCu5Se3
_chemical_formula_sum   'Tl1 Cu5 Se3'
_cell_volume   175.14505734
_cell_formula_units_Z   1
loop_
 _symmetry_equiv_pos_site_id
 _symmetry_equiv_pos_as_xyz
  1  'x, y, z'
loop_
 _atom_site_type_symbol
 _atom_site_label
 _atom_site_symmetry_multiplicity
 _atom_site_fract_x
 _atom_site_fract_y
 _atom_site_fract_z
 _atom_site_occupancy
  Tl  Tl0  1  0.99980101  0.99980102  0.99960203  1
  Cu  Cu1  1  0.67686501  0.67686501  0.35373001  1
  Cu  Cu2  1  0.31825300  0.31825301  0.63650602  1
  Cu  Cu3  1  0.90641101  0.40641101  0.81282203  1
  Se  Se4  1  0.40641100  0.90641102  0.81282203  1
  Se  Se5  1  0.09584400  0.59584401  0.19168800  1
  Cu  Cu6  1  0.59584401  0.09584400  0.19168800  1
  Cu  Cu7  1  0.50124101  0.50124101  0.00248199  1
  Se  Se8  1  0.80195101  0.80195101  0.60390202  1
