# generated using pymatgen
data_TiAlPt3
_symmetry_space_group_name_H-M   'P 1'
_cell_length_a   3.10957789
_cell_length_b   3.10957789
_cell_length_c   15.96866322
_cell_angle_alpha   90.00000000
_cell_angle_beta   90.00000000
_cell_angle_gamma   90.00000000
_symmetry_Int_Tables_number   1
_chemical_formula_structural   TiAlPt3
_chemical_formula_sum   'Ti2 Al2 Pt6'
_cell_volume   154.40858464
_cell_formula_units_Z   2
loop_
 _symmetry_equiv_pos_site_id
 _symmetry_equiv_pos_as_xyz
  1  'x, y, z'
loop_
 _atom_site_type_symbol
 _atom_site_label
 _atom_site_symmetry_multiplicity
 _atom_site_fract_x
 _atom_site_fract_y
 _atom_site_fract_z
 _atom_site_occupancy
  Ti  Ti0  1  0.50000002  0.50000002  0.10667400  1
  Ti  Ti1  1  0.50000002  0.50000002  0.30286500  1
  Al  Al2  1  0.50000002  0.50000002  0.49999999  1
  Al  Al3  1  0.50000002  0.50000002  0.69713499  1
  Pt  Pt4  1  0.50000002  0.50000002  0.89332599  1
  Pt  Pt5  1  0.00000000  0.00000000  0.00000000  1
  Pt  Pt6  1  0.00000000  0.00000000  0.20577700  1
  Pt  Pt7  1  0.00000000  0.00000000  0.39983899  1
  Pt  Pt8  1  0.00000000  0.00000000  0.60016099  1
  Pt  Pt9  1  0.00000000  0.00000000  0.79422299  1
