# generated using pymatgen
data_Mn2CuGe
_symmetry_space_group_name_H-M   'P 1'
_cell_length_a   3.38605094
_cell_length_b   5.92091799
_cell_length_c   6.36880684
_cell_angle_alpha   90.00000000
_cell_angle_beta   90.00000000
_cell_angle_gamma   90.00000000
_symmetry_Int_Tables_number   1
_chemical_formula_structural   Mn2CuGe
_chemical_formula_sum   'Mn4 Cu2 Ge2'
_cell_volume   127.68521444
_cell_formula_units_Z   2
loop_
 _symmetry_equiv_pos_site_id
 _symmetry_equiv_pos_as_xyz
  1  'x, y, z'
loop_
 _atom_site_type_symbol
 _atom_site_label
 _atom_site_symmetry_multiplicity
 _atom_site_fract_x
 _atom_site_fract_y
 _atom_site_fract_z
 _atom_site_occupancy
  Mn  Mn0  1  -0.00000000  0.50969800  0.43352801  1
  Mn  Mn1  1  0.00000000  0.00969800  0.56647201  1
  Mn  Mn2  1  0.50000001  0.49145300  0.06554500  1
  Mn  Mn3  1  0.50000001  0.99145300  0.93445502  1
  Cu  Cu4  1  0.50000001  0.30853600  0.66983302  1
  Ge  Ge5  1  0.50000001  0.80853600  0.33016701  1
  Cu  Cu6  1  0.00000000  0.69031400  0.81216102  1
  Ge  Ge7  1  -0.00000000  0.19031400  0.18783900  1
