# generated using pymatgen
data_NbC
_symmetry_space_group_name_H-M   'P 1'
_cell_length_a   3.21882987
_cell_length_b   3.21882987
_cell_length_c   10.71246338
_cell_angle_alpha   81.35930634
_cell_angle_beta   81.35930634
_cell_angle_gamma   60.00000000
_symmetry_Int_Tables_number   1
_chemical_formula_structural   NbC
_chemical_formula_sum   'Nb4 C4'
_cell_volume   94.66307432
_cell_formula_units_Z   4
loop_
 _symmetry_equiv_pos_site_id
 _symmetry_equiv_pos_as_xyz
  1  'x, y, z'
loop_
 _atom_site_type_symbol
 _atom_site_label
 _atom_site_symmetry_multiplicity
 _atom_site_fract_x
 _atom_site_fract_y
 _atom_site_fract_z
 _atom_site_occupancy
  Nb  Nb0  1  0.00000000  0.00000000  0.00000000  1
  Nb  Nb1  1  0.24826501  0.24826501  0.25520498  1
  Nb  Nb2  1  0.50000002  0.50000002  0.49999996  1
  Nb  Nb3  1  0.75173504  0.75173503  0.74479494  1
  C  C4  1  0.37771102  0.37771102  0.86686695  1
  C  C5  1  0.12577201  0.12577201  0.62268397  1
  C  C6  1  0.62228903  0.62228903  0.13313297  1
  C  C7  1  0.87422804  0.87422804  0.37731595  1
