# generated using pymatgen
data_Bi5SbAsSe5
_symmetry_space_group_name_H-M   'P 1'
_cell_length_a   6.54197216
_cell_length_b   6.54197216
_cell_length_c   6.54197216
_cell_angle_alpha   90.00000000
_cell_angle_beta   90.00000000
_cell_angle_gamma   90.00000000
_symmetry_Int_Tables_number   1
_chemical_formula_structural   Bi5SbAsSe5
_chemical_formula_sum   'Bi5 Sb1 As1 Se5'
_cell_volume   279.97939768
_cell_formula_units_Z   1
loop_
 _symmetry_equiv_pos_site_id
 _symmetry_equiv_pos_as_xyz
  1  'x, y, z'
loop_
 _atom_site_type_symbol
 _atom_site_label
 _atom_site_symmetry_multiplicity
 _atom_site_fract_x
 _atom_site_fract_y
 _atom_site_fract_z
 _atom_site_occupancy
  Bi  Bi0  1  0.13203800  0.86796198  0.36796199  1
  Bi  Bi1  1  0.86796198  0.36796199  0.13203800  1
  Sb  Sb2  1  0.36796199  0.13203800  0.86796198  1
  Bi  Bi3  1  0.63203798  0.63203798  0.63203798  1
  As  As4  1  0.86796198  0.13203800  0.63203798  1
  Se  Se5  1  0.13203800  0.63203798  0.86796198  1
  Bi  Bi6  1  0.63203798  0.86796198  0.13203800  1
  Bi  Bi7  1  0.36796199  0.36796199  0.36796199  1
  Se  Se8  1  0.49999999  0.49999999  0.00000000  1
  Se  Se9  1  0.49999999  0.00000000  0.49999999  1
  Se  Se10  1  0.00000000  0.49999999  0.49999999  1
  Se  Se11  1  0.00000000  0.00000000  0.00000000  1
