# generated using pymatgen
data_Al3Cr3C2
_symmetry_space_group_name_H-M   'P 1'
_cell_length_a   2.89196396
_cell_length_b   2.89196372
_cell_length_c   12.93831730
_cell_angle_alpha   90.00000000
_cell_angle_beta   90.00000000
_cell_angle_gamma   120.00000000
_symmetry_Int_Tables_number   1
_chemical_formula_structural   Al3Cr3C2
_chemical_formula_sum   'Al3 Cr3 C2'
_cell_volume   93.71177111
_cell_formula_units_Z   1
loop_
 _symmetry_equiv_pos_site_id
 _symmetry_equiv_pos_as_xyz
  1  'x, y, z'
loop_
 _atom_site_type_symbol
 _atom_site_label
 _atom_site_symmetry_multiplicity
 _atom_site_fract_x
 _atom_site_fract_y
 _atom_site_fract_z
 _atom_site_occupancy
  Al  Al0  1  0.33333330  0.66666665  0.41438399  1
  Al  Al1  1  0.33333330  0.66666665  0.75440798  1
  Al  Al2  1  0.66666666  0.33333333  0.23735799  1
  Cr  Cr3  1  0.66666666  0.33333333  0.59038599  1
  Cr  Cr4  1  0.66666666  0.33333333  0.91640998  1
  Cr  Cr5  1  0.33333330  0.66666665  0.07869800  1
  C  C6  1  0.00000000  0.00000000  0.51047899  1
  C  C7  1  0.00000000  0.00000000  0.99787698  1
