# generated using pymatgen
data_Pr2C3
_symmetry_space_group_name_H-M   'P 1'
_cell_length_a   7.40105486
_cell_length_b   7.40105486
_cell_length_c   7.40105486
_cell_angle_alpha   109.47122192
_cell_angle_beta   109.47122192
_cell_angle_gamma   109.47122192
_symmetry_Int_Tables_number   1
_chemical_formula_structural   Pr2C3
_chemical_formula_sum   'Pr8 C12'
_cell_volume   312.07498521
_cell_formula_units_Z   4
loop_
 _symmetry_equiv_pos_site_id
 _symmetry_equiv_pos_as_xyz
  1  'x, y, z'
loop_
 _atom_site_type_symbol
 _atom_site_label
 _atom_site_symmetry_multiplicity
 _atom_site_fract_x
 _atom_site_fract_y
 _atom_site_fract_z
 _atom_site_occupancy
  Pr  Pr0  1  0.10706200  0.00000000  1.00000000  1
  Pr  Pr1  1  0.00000003  0.50000002  0.60706203  1
  Pr  Pr2  1  0.50000001  0.10706200  0.50000002  1
  Pr  Pr3  1  0.39293803  0.39293801  0.89293803  1
  Pr  Pr4  1  0.00000003  0.50000002  0.10081703  1
  Pr  Pr5  1  0.60081700  0.00000000  1.00000001  1
  Pr  Pr6  1  0.50000004  0.60081702  0.50000004  1
  Pr  Pr7  1  0.89918306  0.89918303  0.39918307  1
  C  C8  1  0.30445305  0.75000003  0.05445305  1
  C  C9  1  0.19554702  0.25000001  0.44554702  1
  C  C10  1  0.03920802  0.25000001  0.28920801  1
  C  C11  1  0.46079205  0.75000003  0.21079205  1
  C  C12  1  0.75000004  0.55445302  0.80445305  1
  C  C13  1  0.25000006  0.94554703  0.69554706  1
  C  C14  1  0.25000005  0.78920803  0.53920805  1
  C  C15  1  0.75000005  0.71079203  0.96079205  1
  C  C16  1  0.55445302  0.30445301  0.25000003  1
  C  C17  1  0.94554702  0.19554701  0.75000003  1
  C  C18  1  0.78920801  0.03920800  0.75000002  1
  C  C19  1  0.71079203  0.46079202  0.25000004  1
