# generated using pymatgen
data_SmAl3Ni2
_symmetry_space_group_name_H-M   'P 1'
_cell_length_a   4.07602882
_cell_length_b   9.10288239
_cell_length_c   9.10288239
_cell_angle_alpha   120.00000000
_cell_angle_beta   90.00000000
_cell_angle_gamma   90.00000000
_symmetry_Int_Tables_number   1
_chemical_formula_structural   SmAl3Ni2
_chemical_formula_sum   'Sm3 Al9 Ni6'
_cell_volume   292.49991285
_cell_formula_units_Z   3
loop_
 _symmetry_equiv_pos_site_id
 _symmetry_equiv_pos_as_xyz
  1  'x, y, z'
loop_
 _atom_site_type_symbol
 _atom_site_label
 _atom_site_symmetry_multiplicity
 _atom_site_fract_x
 _atom_site_fract_y
 _atom_site_fract_z
 _atom_site_occupancy
  Sm  Sm0  1  0.50000002  0.66666664  0.33333331  1
  Sm  Sm1  1  0.50000002  0.33333332  0.66666663  1
  Sm  Sm2  1  0.00000000  0.00000000  0.00000000  1
  Al  Al3  1  -0.00000000  0.49999998  0.49999997  1
  Al  Al4  1  1.00000004  0.00000000  0.49999998  1
  Al  Al5  1  -0.00000000  0.49999998  -0.00000000  1
  Al  Al6  1  0.50000002  0.69905597  0.69905596  1
  Al  Al7  1  0.50000002  0.30094399  0.30094398  1
  Al  Al8  1  0.50000002  0.00000000  0.30094399  1
  Al  Al9  1  0.50000002  0.00000000  0.69905597  1
  Al  Al10  1  0.50000002  0.30094399  -0.00000000  1
  Al  Al11  1  0.50000002  0.69905597  -0.00000000  1
  Ni  Ni12  1  -0.00000000  0.81967096  0.18032799  1
  Ni  Ni13  1  -0.00000000  0.18032899  0.81967196  1
  Ni  Ni14  1  -0.00000000  0.36065698  0.18032799  1
  Ni  Ni15  1  -0.00000000  0.63934297  0.81967196  1
  Ni  Ni16  1  -0.00000000  0.81967096  0.63934197  1
  Ni  Ni17  1  -0.00000000  0.18032899  0.36065798  1
