# generated using pymatgen
data_Lu
_symmetry_space_group_name_H-M   'P 1'
_cell_length_a   6.16138172
_cell_length_b   6.16138172
_cell_length_c   6.62834835
_cell_angle_alpha   62.30434036
_cell_angle_beta   62.30434036
_cell_angle_gamma   60.00000000
_symmetry_Int_Tables_number   1
_chemical_formula_structural   Lu
_chemical_formula_sum   Lu6
_cell_volume   183.87630576
_cell_formula_units_Z   6
loop_
 _symmetry_equiv_pos_site_id
 _symmetry_equiv_pos_as_xyz
  1  'x, y, z'
loop_
 _atom_site_type_symbol
 _atom_site_label
 _atom_site_symmetry_multiplicity
 _atom_site_fract_x
 _atom_site_fract_y
 _atom_site_fract_z
 _atom_site_occupancy
  Lu  Lu0  1  0.34045099  0.65954902  -0.00000001  1
  Lu  Lu1  1  0.65954899  1.00000004  -0.00000002  1
  Lu  Lu2  1  -0.00000001  0.34045101  -0.00000000  1
  Lu  Lu3  1  0.83196200  0.83196203  0.50411397  1
  Lu  Lu4  1  0.16803800  0.16803801  0.49588599  1
  Lu  Lu5  1  0.50000000  0.50000002  0.49999998  1
