# generated using pymatgen
data_DyAl7Sn3Ge2
_symmetry_space_group_name_H-M   'P 1'
_cell_length_a   5.34758615
_cell_length_b   5.34758568
_cell_length_c   8.66926670
_cell_angle_alpha   90.00000000
_cell_angle_beta   90.00000000
_cell_angle_gamma   120.00000000
_symmetry_Int_Tables_number   1
_chemical_formula_structural   DyAl7Sn3Ge2
_chemical_formula_sum   'Dy1 Al7 Sn3 Ge2'
_cell_volume   214.69826614
_cell_formula_units_Z   1
loop_
 _symmetry_equiv_pos_site_id
 _symmetry_equiv_pos_as_xyz
  1  'x, y, z'
loop_
 _atom_site_type_symbol
 _atom_site_label
 _atom_site_symmetry_multiplicity
 _atom_site_fract_x
 _atom_site_fract_y
 _atom_site_fract_z
 _atom_site_occupancy
  Dy  Dy0  1  0.00000000  0.00000000  0.00000000  1
  Al  Al1  1  0.49999999  0.00000000  0.23284101  1
  Al  Al2  1  0.49999999  0.00000000  0.76715903  1
  Al  Al3  1  -0.00000002  0.50000000  0.23284101  1
  Al  Al4  1  -0.00000002  0.50000000  0.76715903  1
  Al  Al5  1  0.49999997  0.50000000  0.23284101  1
  Al  Al6  1  0.49999997  0.50000000  0.76715903  1
  Al  Al7  1  0.33333330  0.66666666  0.50000002  1
  Sn  Sn8  1  0.66666664  0.33333333  0.50000002  1
  Sn  Sn9  1  0.00000000  0.00000000  0.33384001  1
  Sn  Sn10  1  0.00000000  0.00000000  0.66616002  1
  Ge  Ge11  1  0.33333330  0.66666666  1.00000003  1
  Ge  Ge12  1  0.66666664  0.33333333  -0.00000000  1
