# generated using pymatgen
data_Cu2H3Se3O10
_symmetry_space_group_name_H-M   'P 1'
_cell_length_a   6.14342499
_cell_length_b   6.28762341
_cell_length_c   6.44461632
_cell_angle_alpha   92.10613251
_cell_angle_beta   101.25823975
_cell_angle_gamma   117.87799072
_symmetry_Int_Tables_number   1
_chemical_formula_structural   Cu2H3Se3O10
_chemical_formula_sum   'Cu2 H3 Se3 O10'
_cell_volume   213.44798305
_cell_formula_units_Z   1
loop_
 _symmetry_equiv_pos_site_id
 _symmetry_equiv_pos_as_xyz
  1  'x, y, z'
loop_
 _atom_site_type_symbol
 _atom_site_label
 _atom_site_symmetry_multiplicity
 _atom_site_fract_x
 _atom_site_fract_y
 _atom_site_fract_z
 _atom_site_occupancy
  Cu  Cu0  1  0.72234795  0.70820497  0.68920600  1
  Cu  Cu1  1  0.27765198  0.29179499  0.31079400  1
  H  H2  1  0.79506899  0.28949299  0.57755702  1
  H  H3  1  0.20493095  0.71050697  0.42244298  1
  H  H4  1  0.99033298  0.42320598  0.79767202  1
  Se  Se5  1  0.00966696  0.57679397  0.20232798  1
  Se  Se6  1  0.66195195  0.80821696  0.15789900  1
  Se  Se7  1  0.33804799  0.19178299  0.84210100  1
  O  O8  1  0.61188794  0.89999596  0.70684199  1
  O  O9  1  0.38811200  0.10000400  0.29315801  1
  O  O10  1  0.85959698  0.43020398  0.68677102  1
  O  O11  1  0.14040296  0.56979597  0.31322899  1
  O  O12  1  0.79472696  0.68281997  0.01024501  1
  O  O13  1  0.20527298  0.31717999  0.98975499  1
  O  O14  1  0.90774400  0.07282300  0.29812003  1
  O  O15  1  0.09225593  0.92717696  0.70187997  1
  O  O16  1  0.62490696  0.61301197  0.36105500  1
  O  O17  1  0.37509297  0.38698798  0.63894500  1
