# generated using pymatgen
data_SrNdVCuO5
_symmetry_space_group_name_H-M   'P 1'
_cell_length_a   5.35781336
_cell_length_b   5.60455036
_cell_length_c   9.13226414
_cell_angle_alpha   107.84030914
_cell_angle_beta   107.02766418
_cell_angle_gamma   90.09557343
_symmetry_Int_Tables_number   1
_chemical_formula_structural   SrNdVCuO5
_chemical_formula_sum   'Sr2 Nd2 V2 Cu2 O10'
_cell_volume   248.33433685
_cell_formula_units_Z   2
loop_
 _symmetry_equiv_pos_site_id
 _symmetry_equiv_pos_as_xyz
  1  'x, y, z'
loop_
 _atom_site_type_symbol
 _atom_site_label
 _atom_site_symmetry_multiplicity
 _atom_site_fract_x
 _atom_site_fract_y
 _atom_site_fract_z
 _atom_site_occupancy
  Sr  Sr0  1  0.10598099  0.59692602  0.72141202  1
  Sr  Sr1  1  0.38456898  0.87551403  0.27858801  1
  Nd  Nd2  1  0.88964796  0.42560901  0.29632600  1
  Nd  Nd3  1  0.59332197  0.12928300  0.70367401  1
  V  V4  1  0.70870596  0.81441503  0.00000001  1
  V  V5  1  0.21749499  0.18081601  1.00000001  1
  Cu  Cu6  1  0.49539798  0.50440802  0.49981801  1
  Cu  Cu7  1  0.99557996  0.00459000  0.50018200  1
  O  O8  1  0.68164397  0.57789302  0.80405701  1
  O  O9  1  0.39419798  0.39948901  0.20134901  1
  O  O10  1  0.87758696  0.77383603  0.19594301  1
  O  O11  1  0.19284899  0.19814001  0.79865101  1
  O  O12  1  0.85465996  0.13212100  -0.00000001  1
  O  O13  1  0.35800698  0.87036303  1.00000002  1
  O  O14  1  0.73917497  0.24667501  0.49146800  1
  O  O15  1  0.74990196  0.76352403  0.51233201  1
  O  O16  1  0.24770698  0.75520703  0.50853202  1
  O  O17  1  0.23756999  0.25119201  0.48766801  1
