# generated using pymatgen
data_Sn7Pd9
_symmetry_space_group_name_H-M   'P 1'
_cell_length_a   5.32166719
_cell_length_b   5.33528805
_cell_length_c   10.64233780
_cell_angle_alpha   90.00000000
_cell_angle_beta   90.00000000
_cell_angle_gamma   90.00000000
_symmetry_Int_Tables_number   1
_chemical_formula_structural   Sn7Pd9
_chemical_formula_sum   'Sn7 Pd9'
_cell_volume   302.16393154
_cell_formula_units_Z   1
loop_
 _symmetry_equiv_pos_site_id
 _symmetry_equiv_pos_as_xyz
  1  'x, y, z'
loop_
 _atom_site_type_symbol
 _atom_site_label
 _atom_site_symmetry_multiplicity
 _atom_site_fract_x
 _atom_site_fract_y
 _atom_site_fract_z
 _atom_site_occupancy
  Sn  Sn0  1  0.00000000  0.50000000  0.37745401  1
  Sn  Sn1  1  0.00000000  0.50000000  0.87854302  1
  Sn  Sn2  1  0.49999998  0.24479700  0.00000000  1
  Sn  Sn3  1  0.49999998  0.24623300  0.50000001  1
  Sn  Sn4  1  0.75478797  0.00000000  0.25068900  1
  Sn  Sn5  1  0.75478797  0.00000000  0.74931101  1
  Pd  Pd6  1  0.00000000  0.50000000  0.12145700  1
  Sn  Sn7  1  0.00000000  0.50000000  0.62254601  1
  Pd  Pd8  1  0.49999998  0.75520299  0.00000000  1
  Pd  Pd9  1  0.49999998  0.75376699  0.50000001  1
  Pd  Pd10  1  0.24521199  0.00000000  0.25068900  1
  Pd  Pd11  1  0.24521199  0.00000000  0.74931101  1
  Pd  Pd12  1  0.49999998  0.50000000  0.25005600  1
  Pd  Pd13  1  0.49999998  0.50000000  0.74994401  1
  Pd  Pd14  1  0.00000000  0.00000000  0.00000000  1
  Pd  Pd15  1  0.00000000  0.00000000  0.50000001  1
