# generated using pymatgen
data_KAsF6
_symmetry_space_group_name_H-M   'P 1'
_cell_length_a   5.15481424
_cell_length_b   5.15481424
_cell_length_c   5.15481377
_cell_angle_alpha   97.21006775
_cell_angle_beta   97.21006775
_cell_angle_gamma   97.21007538
_symmetry_Int_Tables_number   1
_chemical_formula_structural   KAsF6
_chemical_formula_sum   'K1 As1 F6'
_cell_volume   133.42092655
_cell_formula_units_Z   1
loop_
 _symmetry_equiv_pos_site_id
 _symmetry_equiv_pos_as_xyz
  1  'x, y, z'
loop_
 _atom_site_type_symbol
 _atom_site_label
 _atom_site_symmetry_multiplicity
 _atom_site_fract_x
 _atom_site_fract_y
 _atom_site_fract_z
 _atom_site_occupancy
  K  K0  1  0.50000002  0.50000001  0.49999998  1
  As  As1  1  0.00000000  0.00000000  0.00000000  1
  F  F2  1  0.78784004  0.73098802  0.07842695  1
  F  F3  1  0.73098802  0.07842700  0.78784000  1
  F  F4  1  0.92157303  0.21216001  0.26901197  1
  F  F5  1  0.26901203  0.92157303  0.21215997  1
  F  F6  1  0.21216001  0.26901201  0.92157301  1
  F  F7  1  0.07842702  0.78784002  0.73098799  1
