# generated using pymatgen
data_MnInPd2
_symmetry_space_group_name_H-M   'P 1'
_cell_length_a   4.49459934
_cell_length_b   4.49459934
_cell_length_c   7.83467674
_cell_angle_alpha   73.33112335
_cell_angle_beta   73.33112335
_cell_angle_gamma   60.00001144
_symmetry_Int_Tables_number   1
_chemical_formula_structural   MnInPd2
_chemical_formula_sum   'Mn2 In2 Pd4'
_cell_volume   129.33056369
_cell_formula_units_Z   2
loop_
 _symmetry_equiv_pos_site_id
 _symmetry_equiv_pos_as_xyz
  1  'x, y, z'
loop_
 _atom_site_type_symbol
 _atom_site_label
 _atom_site_symmetry_multiplicity
 _atom_site_fract_x
 _atom_site_fract_y
 _atom_site_fract_z
 _atom_site_occupancy
  Mn  Mn0  1  0.25072599  0.25072599  0.24782201  1
  Mn  Mn1  1  0.74936098  0.74936098  0.75191704  1
  In  In2  1  0.99904197  0.99904197  0.00287406  1
  In  In3  1  0.50084399  0.50084399  0.49746803  1
  Pd  Pd4  1  0.62511198  0.62511198  0.12466403  1
  Pd  Pd5  1  0.12488900  0.12488900  0.62533301  1
  Pd  Pd6  1  0.87514598  0.87514598  0.37456205  1
  Pd  Pd7  1  0.37487799  0.37487799  0.87536602  1
