# generated using pymatgen
data_TiAlReOs
_symmetry_space_group_name_H-M   'P 1'
_cell_length_a   4.32945633
_cell_length_b   4.32945633
_cell_length_c   4.32945633
_cell_angle_alpha   60.00000000
_cell_angle_beta   60.00000000
_cell_angle_gamma   60.00000000
_symmetry_Int_Tables_number   1
_chemical_formula_structural   TiAlReOs
_chemical_formula_sum   'Ti1 Al1 Re1 Os1'
_cell_volume   57.38324346
_cell_formula_units_Z   1
loop_
 _symmetry_equiv_pos_site_id
 _symmetry_equiv_pos_as_xyz
  1  'x, y, z'
loop_
 _atom_site_type_symbol
 _atom_site_label
 _atom_site_symmetry_multiplicity
 _atom_site_fract_x
 _atom_site_fract_y
 _atom_site_fract_z
 _atom_site_occupancy
  Ti  Ti0  1  0.00000000  0.00000000  0.00000000  1
  Al  Al1  1  0.50000001  0.50000001  0.50000001  1
  Re  Re2  1  0.75000002  0.75000002  0.75000002  1
  Os  Os3  1  0.25000001  0.25000001  0.25000001  1
