# generated using pymatgen
data_Sn9Pt11
_symmetry_space_group_name_H-M   'P 1'
_cell_length_a   7.67679739
_cell_length_b   7.67679739
_cell_length_c   7.67679739
_cell_angle_alpha   109.47122192
_cell_angle_beta   109.47122192
_cell_angle_gamma   109.47122192
_symmetry_Int_Tables_number   1
_chemical_formula_structural   Sn9Pt11
_chemical_formula_sum   'Sn9 Pt11'
_cell_volume   348.27181114
_cell_formula_units_Z   1
loop_
 _symmetry_equiv_pos_site_id
 _symmetry_equiv_pos_as_xyz
  1  'x, y, z'
loop_
 _atom_site_type_symbol
 _atom_site_label
 _atom_site_symmetry_multiplicity
 _atom_site_fract_x
 _atom_site_fract_y
 _atom_site_fract_z
 _atom_site_occupancy
  Sn  Sn0  1  0.65963504  0.65963502  0.00000005  1
  Sn  Sn1  1  0.65963500  0.00000000  0.65963501  1
  Sn  Sn2  1  0.34036500  0.00000000  0.34036500  1
  Sn  Sn3  1  0.00000002  0.34036501  0.34036502  1
  Sn  Sn4  1  0.00000004  0.65963502  0.65963503  1
  Sn  Sn5  1  0.34036502  0.34036501  0.00000003  1
  Sn  Sn6  1  0.75000002  0.25000001  0.50000003  1
  Sn  Sn7  1  0.75000003  0.50000002  0.25000004  1
  Sn  Sn8  1  0.25000003  0.50000002  0.75000003  1
  Pt  Pt9  1  0.50000005  0.75000002  0.25000005  1
  Pt  Pt10  1  0.50000002  0.25000001  0.75000002  1
  Pt  Pt11  1  0.25000005  0.75000002  0.50000004  1
  Pt  Pt12  1  0.66816204  0.66816202  0.66816205  1
  Pt  Pt13  1  1.00000006  1.00000003  0.66816207  1
  Pt  Pt14  1  0.00000004  0.66816202  0.00000004  1
  Pt  Pt15  1  0.66816200  0.00000000  0.00000002  1
  Pt  Pt16  1  1.00000002  0.33183801  0.00000004  1
  Pt  Pt17  1  0.33183806  1.00000003  0.00000006  1
  Pt  Pt18  1  1.00000006  1.00000003  0.33183808  1
  Pt  Pt19  1  0.33183802  0.33183801  0.33183802  1
