# generated using pymatgen
data_Y6BiN7
_symmetry_space_group_name_H-M   'P 1'
_cell_length_a   6.49357986
_cell_length_b   6.49357986
_cell_length_c   6.49357986
_cell_angle_alpha   91.32476044
_cell_angle_beta   91.32476044
_cell_angle_gamma   91.32476044
_symmetry_Int_Tables_number   1
_chemical_formula_structural   Y6BiN7
_chemical_formula_sum   'Y6 Bi1 N7'
_cell_volume   273.58904589
_cell_formula_units_Z   1
loop_
 _symmetry_equiv_pos_site_id
 _symmetry_equiv_pos_as_xyz
  1  'x, y, z'
loop_
 _atom_site_type_symbol
 _atom_site_label
 _atom_site_symmetry_multiplicity
 _atom_site_fract_x
 _atom_site_fract_y
 _atom_site_fract_z
 _atom_site_occupancy
  Y  Y0  1  0.59464304  0.78787400  0.44949201  1
  Y  Y1  1  0.78787402  0.44949200  0.59464301  1
  Y  Y2  1  0.44949203  0.59464300  0.78787401  1
  Y  Y3  1  0.40535701  0.21212600  0.55050801  1
  Y  Y4  1  0.21212603  0.55050800  0.40535701  1
  Y  Y5  1  0.55050802  0.40535700  0.21212600  1
  N  N6  1  0.86696803  0.61170800  0.26722400  1
  Bi  Bi7  1  0.61170801  0.26722400  0.86696801  1
  N  N8  1  0.26722405  0.86696800  0.61170801  1
  N  N9  1  0.13303202  0.38829200  0.73277601  1
  N  N10  1  0.38829204  0.73277600  0.13303200  1
  N  N11  1  0.73277600  0.13303200  0.38829200  1
  N  N12  1  0.77895904  0.77895900  0.77895901  1
  N  N13  1  0.22104101  0.22104100  0.22104100  1
