# generated using pymatgen
data_Nd2Sn5
_symmetry_space_group_name_H-M   'P 1'
_cell_length_a   4.65514183
_cell_length_b   4.68411589
_cell_length_c   17.89697647
_cell_angle_alpha   90.00000000
_cell_angle_beta   97.47270203
_cell_angle_gamma   90.00000000
_symmetry_Int_Tables_number   1
_chemical_formula_structural   Nd2Sn5
_chemical_formula_sum   'Nd4 Sn10'
_cell_volume   386.93317996
_cell_formula_units_Z   2
loop_
 _symmetry_equiv_pos_site_id
 _symmetry_equiv_pos_as_xyz
  1  'x, y, z'
loop_
 _atom_site_type_symbol
 _atom_site_label
 _atom_site_symmetry_multiplicity
 _atom_site_fract_x
 _atom_site_fract_y
 _atom_site_fract_z
 _atom_site_occupancy
  Nd  Nd0  1  0.93236503  0.50000001  0.86472998  1
  Nd  Nd1  1  0.06763500  0.50000001  0.13527000  1
  Nd  Nd2  1  0.79785302  0.50000001  0.59570598  1
  Nd  Nd3  1  0.20214701  0.50000001  0.40429399  1
  Sn  Sn4  1  0.63726602  0.50000001  0.27453199  1
  Sn  Sn5  1  0.36273401  0.50000001  0.72546799  1
  Sn  Sn6  1  0.72122502  0.00000000  0.44244998  1
  Sn  Sn7  1  0.27877501  0.00000000  0.55754999  1
  Sn  Sn8  1  0.50000001  0.50000001  0.99999998  1
  Sn  Sn9  1  0.57076902  0.00000000  0.14153799  1
  Sn  Sn10  1  0.42923101  0.00000000  0.85846198  1
  Sn  Sn11  1  0.86206202  1.00000002  0.72412398  1
  Sn  Sn12  1  0.13793800  1.00000002  0.27587600  1
  Sn  Sn13  1  0.00000000  0.00000000  0.00000000  1
