# generated using pymatgen
data_Li5ReN4
_symmetry_space_group_name_H-M   'P 1'
_cell_length_a   4.97182989
_cell_length_b   6.63032722
_cell_length_c   6.72486115
_cell_angle_alpha   90.00000000
_cell_angle_beta   90.00000000
_cell_angle_gamma   90.00000000
_symmetry_Int_Tables_number   1
_chemical_formula_structural   Li5ReN4
_chemical_formula_sum   'Li10 Re2 N8'
_cell_volume   221.68410001
_cell_formula_units_Z   2
loop_
 _symmetry_equiv_pos_site_id
 _symmetry_equiv_pos_as_xyz
  1  'x, y, z'
loop_
 _atom_site_type_symbol
 _atom_site_label
 _atom_site_symmetry_multiplicity
 _atom_site_fract_x
 _atom_site_fract_y
 _atom_site_fract_z
 _atom_site_occupancy
  Li  Li0  1  0.75630302  0.23958599  0.30030099  1
  Li  Li1  1  0.75630302  0.23958599  0.69969898  1
  Li  Li2  1  0.75630302  0.76041397  0.30030099  1
  Li  Li3  1  0.75630302  0.76041397  0.69969898  1
  Li  Li4  1  0.24369701  0.26041399  0.19969900  1
  Li  Li5  1  0.24369701  0.26041399  0.80030098  1
  Li  Li6  1  0.24369701  0.73958597  0.19969900  1
  Li  Li7  1  0.24369701  0.73958597  0.80030098  1
  Li  Li8  1  0.31063901  0.49999998  0.49999999  1
  Li  Li9  1  0.68936102  0.00000000  0.00000000  1
  Re  Re10  1  0.27836501  0.00000000  0.49999999  1
  Re  Re11  1  0.72163502  0.49999998  0.00000000  1
  N  N12  1  0.07290900  0.76838097  0.49999999  1
  N  N13  1  0.07290900  0.23161899  0.49999999  1
  N  N14  1  0.92709102  0.73161898  0.00000000  1
  N  N15  1  0.92709102  0.26838099  0.00000000  1
  N  N16  1  0.51749901  0.49999998  0.22980100  1
  N  N17  1  0.51749901  0.49999998  0.77019898  1
  N  N18  1  0.48250101  0.00000000  0.27019899  1
  N  N19  1  0.48250101  0.00000000  0.72980098  1
