# generated using pymatgen
data_MnBO3
_symmetry_space_group_name_H-M   'P 1'
_cell_length_a   4.69694471
_cell_length_b   4.69693899
_cell_length_c   5.66533709
_cell_angle_alpha   65.51008606
_cell_angle_beta   65.51011658
_cell_angle_gamma   60.00002670
_symmetry_Int_Tables_number   1
_chemical_formula_structural   MnBO3
_chemical_formula_sum   'Mn2 B2 O6'
_cell_volume   95.03447962
_cell_formula_units_Z   2
loop_
 _symmetry_equiv_pos_site_id
 _symmetry_equiv_pos_as_xyz
  1  'x, y, z'
loop_
 _atom_site_type_symbol
 _atom_site_label
 _atom_site_symmetry_multiplicity
 _atom_site_fract_x
 _atom_site_fract_y
 _atom_site_fract_z
 _atom_site_occupancy
  Mn  Mn0  1  0.00000000  0.00000000  0.00000000  1
  Mn  Mn1  1  0.49999999  0.50000002  0.50000001  1
  B  B2  1  0.24999800  0.24999801  0.25000600  1
  B  B3  1  0.75000199  0.75000203  0.74999401  1
  O  O4  1  0.95472202  0.25000901  0.25000698  1
  O  O5  1  0.45473901  0.04527900  0.74999097  1
  O  O6  1  0.74999100  0.45473902  0.74999199  1
  O  O7  1  0.25000898  0.54526102  0.25000802  1
  O  O8  1  0.54526097  0.95472103  0.25000904  1
  O  O9  1  0.04527797  0.74999103  0.74999303  1
