# generated using pymatgen
data_Ho5Ge3
_symmetry_space_group_name_H-M   'P 1'
_cell_length_a   6.60935879
_cell_length_b   8.74665642
_cell_length_c   8.74665642
_cell_angle_alpha   120.00000763
_cell_angle_beta   90.00000000
_cell_angle_gamma   90.00000000
_symmetry_Int_Tables_number   1
_chemical_formula_structural   Ho5Ge3
_chemical_formula_sum   'Ho10 Ge6'
_cell_volume   437.89910807
_cell_formula_units_Z   2
loop_
 _symmetry_equiv_pos_site_id
 _symmetry_equiv_pos_as_xyz
  1  'x, y, z'
loop_
 _atom_site_type_symbol
 _atom_site_label
 _atom_site_symmetry_multiplicity
 _atom_site_fract_x
 _atom_site_fract_y
 _atom_site_fract_z
 _atom_site_occupancy
  Ho  Ho0  1  -0.00000000  0.33333335  0.66666670  1
  Ho  Ho1  1  -0.00000000  0.66666670  0.33333338  1
  Ho  Ho2  1  0.50000002  0.66666670  0.33333338  1
  Ho  Ho3  1  0.50000002  0.33333335  0.66666670  1
  Ho  Ho4  1  0.25000001  0.24324401  0.00000001  1
  Ho  Ho5  1  0.25000001  0.75675604  0.75675606  1
  Ho  Ho6  1  0.25000001  0.00000000  0.24324401  1
  Ho  Ho7  1  0.75000002  0.75675604  0.00000005  1
  Ho  Ho8  1  0.75000002  0.24324401  0.24324402  1
  Ho  Ho9  1  0.75000002  0.00000000  0.75675602  1
  Ge  Ge10  1  0.25000001  0.60689603  0.00000004  1
  Ge  Ge11  1  0.25000001  0.39310402  0.39310403  1
  Ge  Ge12  1  0.25000001  0.00000000  0.60689601  1
  Ge  Ge13  1  0.75000002  0.39310402  0.00000002  1
  Ge  Ge14  1  0.75000002  0.60689603  0.60689605  1
  Ge  Ge15  1  0.75000002  0.00000000  0.39310401  1
