# generated using pymatgen
data_Na2WN3
_symmetry_space_group_name_H-M   'P 1'
_cell_length_a   4.02604580
_cell_length_b   4.02604485
_cell_length_c   6.84540796
_cell_angle_alpha   90.00000000
_cell_angle_beta   90.00000000
_cell_angle_gamma   120.00000763
_symmetry_Int_Tables_number   1
_chemical_formula_structural   Na2WN3
_chemical_formula_sum   'Na2 W1 N3'
_cell_volume   96.09200454
_cell_formula_units_Z   1
loop_
 _symmetry_equiv_pos_site_id
 _symmetry_equiv_pos_as_xyz
  1  'x, y, z'
loop_
 _atom_site_type_symbol
 _atom_site_label
 _atom_site_symmetry_multiplicity
 _atom_site_fract_x
 _atom_site_fract_y
 _atom_site_fract_z
 _atom_site_occupancy
  Na  Na0  1  0.33333335  0.66666670  0.30069100  1
  Na  Na1  1  0.66666670  0.33333335  0.69930900  1
  W  W2  1  0.33333335  0.66666670  0.64916400  1
  N  N3  1  0.66666670  0.33333335  0.35083600  1
  N  N4  1  0.00000000  0.00000000  0.50000000  1
  N  N5  1  0.00000000  0.00000000  0.00000000  1
