# generated using pymatgen
data_Y(AlFe)6
_symmetry_space_group_name_H-M   'P 1'
_cell_length_a   5.02069616
_cell_length_b   6.63701248
_cell_length_c   6.63701248
_cell_angle_alpha   81.21506500
_cell_angle_beta   67.77562714
_cell_angle_gamma   67.77562714
_symmetry_Int_Tables_number   1
_chemical_formula_structural   Y(AlFe)6
_chemical_formula_sum   'Y1 Al6 Fe6'
_cell_volume   189.50963028
_cell_formula_units_Z   1
loop_
 _symmetry_equiv_pos_site_id
 _symmetry_equiv_pos_as_xyz
  1  'x, y, z'
loop_
 _atom_site_type_symbol
 _atom_site_label
 _atom_site_symmetry_multiplicity
 _atom_site_fract_x
 _atom_site_fract_y
 _atom_site_fract_z
 _atom_site_occupancy
  Y  Y0  1  0.00000000  0.00000000  0.00000000  1
  Al  Al1  1  0.34843204  0.65156797  0.65156795  1
  Al  Al2  1  0.65156800  0.34843198  0.34843199  1
  Al  Al3  1  1.00000001  0.66088096  0.33911899  1
  Al  Al4  1  0.00000003  0.33911898  0.66088096  1
  Al  Al5  1  0.29855400  0.20144599  0.20144599  1
  Al  Al6  1  0.70144604  0.79855396  0.79855395  1
  Fe  Fe7  1  0.49999997  0.00000000  0.50000000  1
  Fe  Fe8  1  0.00000000  0.00000000  0.49999998  1
  Fe  Fe9  1  0.50000002  0.49999997  0.99999996  1
  Fe  Fe10  1  0.00000005  0.49999997  -0.00000003  1
  Fe  Fe11  1  0.50000000  0.24092099  0.75907898  1
  Fe  Fe12  1  0.50000005  0.75907896  0.24092097  1
