# generated using pymatgen
data_Ce2Sb3Pd2Pb
_symmetry_space_group_name_H-M   'P 1'
_cell_length_a   4.38660908
_cell_length_b   4.38660908
_cell_length_c   9.84207344
_cell_angle_alpha   90.00000000
_cell_angle_beta   90.00000000
_cell_angle_gamma   90.00000000
_symmetry_Int_Tables_number   1
_chemical_formula_structural   Ce2Sb3Pd2Pb
_chemical_formula_sum   'Ce2 Sb3 Pd2 Pb1'
_cell_volume   189.38451556
_cell_formula_units_Z   1
loop_
 _symmetry_equiv_pos_site_id
 _symmetry_equiv_pos_as_xyz
  1  'x, y, z'
loop_
 _atom_site_type_symbol
 _atom_site_label
 _atom_site_symmetry_multiplicity
 _atom_site_fract_x
 _atom_site_fract_y
 _atom_site_fract_z
 _atom_site_occupancy
  Ce  Ce0  1  0.00000000  0.49999999  0.24732699  1
  Ce  Ce1  1  0.49999999  0.00000000  0.75267297  1
  Sb  Sb2  1  0.00000000  0.00000000  0.00000000  1
  Sb  Sb3  1  0.49999999  0.49999999  0.00000000  1
  Pb  Pb4  1  0.00000000  0.49999999  0.81464096  1
  Sb  Sb5  1  0.49999999  0.00000000  0.18535899  1
  Pd  Pd6  1  0.00000000  0.00000000  0.49999998  1
  Pd  Pd7  1  0.49999999  0.49999999  0.49999998  1
