# generated using pymatgen
data_Cr2PO8
_symmetry_space_group_name_H-M   'P 1'
_cell_length_a   4.58253860
_cell_length_b   5.46579933
_cell_length_c   5.46579933
_cell_angle_alpha   103.72109985
_cell_angle_beta   97.81673431
_cell_angle_gamma   97.81673431
_symmetry_Int_Tables_number   1
_chemical_formula_structural   Cr2PO8
_chemical_formula_sum   'Cr2 P1 O8'
_cell_volume   129.73107954
_cell_formula_units_Z   1
loop_
 _symmetry_equiv_pos_site_id
 _symmetry_equiv_pos_as_xyz
  1  'x, y, z'
loop_
 _atom_site_type_symbol
 _atom_site_label
 _atom_site_symmetry_multiplicity
 _atom_site_fract_x
 _atom_site_fract_y
 _atom_site_fract_z
 _atom_site_occupancy
  Cr  Cr0  1  -0.00000009  0.91327000  0.08672993  1
  Cr  Cr1  1  0.58596701  0.00371700  0.58396999  1
  P  P2  1  0.41403297  0.41603000  0.99628298  1
  O  O3  1  -0.00000006  0.54113900  0.45886097  1
  O  O4  1  0.28716792  0.86475100  0.41032693  1
  O  O5  1  0.75291400  0.17590200  0.45056897  1
  O  O6  1  0.77862093  0.82748800  0.68906392  1
  O  O7  1  0.22137897  0.31093600  0.17251197  1
  O  O8  1  0.71283195  0.58967300  0.13524892  1
  O  O9  1  0.49999999  0.16019700  0.83980299  1
  O  O10  1  0.24708595  0.54943100  0.82409797  1
