# generated using pymatgen
data_LuAlCu
_symmetry_space_group_name_H-M   'P 1'
_cell_length_a   4.11519384
_cell_length_b   6.91102982
_cell_length_c   6.91103029
_cell_angle_alpha   120.00000000
_cell_angle_beta   90.00000000
_cell_angle_gamma   90.00000000
_symmetry_Int_Tables_number   1
_chemical_formula_structural   LuAlCu
_chemical_formula_sum   'Lu3 Al3 Cu3'
_cell_volume   170.21839535
_cell_formula_units_Z   3
loop_
 _symmetry_equiv_pos_site_id
 _symmetry_equiv_pos_as_xyz
  1  'x, y, z'
loop_
 _atom_site_type_symbol
 _atom_site_label
 _atom_site_symmetry_multiplicity
 _atom_site_fract_x
 _atom_site_fract_y
 _atom_site_fract_z
 _atom_site_occupancy
  Lu  Lu0  1  0.50000002  0.57841003  1.00000004  1
  Lu  Lu1  1  0.50000002  0.42159002  0.42159002  1
  Lu  Lu2  1  0.50000002  0.00000000  0.57841001  1
  Al  Al3  1  1.00000004  0.23677501  0.00000001  1
  Al  Al4  1  1.00000004  0.76322503  0.76322504  1
  Al  Al5  1  0.00000000  0.00000000  0.23677500  1
  Cu  Cu6  1  1.00000004  0.33333335  0.66666669  1
  Cu  Cu7  1  -0.00000000  0.66666670  0.33333336  1
  Cu  Cu8  1  0.50000002  0.00000000  -0.00000000  1
