# generated using pymatgen
data_YCu4Ni
_symmetry_space_group_name_H-M   'P 1'
_cell_length_a   3.92439795
_cell_length_b   4.94918203
_cell_length_c   4.94918156
_cell_angle_alpha   120.00000000
_cell_angle_beta   90.00000000
_cell_angle_gamma   90.00000000
_symmetry_Int_Tables_number   1
_chemical_formula_structural   YCu4Ni
_chemical_formula_sum   'Y1 Cu4 Ni1'
_cell_volume   83.24736291
_cell_formula_units_Z   1
loop_
 _symmetry_equiv_pos_site_id
 _symmetry_equiv_pos_as_xyz
  1  'x, y, z'
loop_
 _atom_site_type_symbol
 _atom_site_label
 _atom_site_symmetry_multiplicity
 _atom_site_fract_x
 _atom_site_fract_y
 _atom_site_fract_z
 _atom_site_occupancy
  Y  Y0  1  -0.00000000  0.33333332  0.66666667  1
  Cu  Cu1  1  0.00000000  0.00000000  0.00000000  1
  Cu  Cu2  1  1.00000001  0.66666665  0.33333332  1
  Cu  Cu3  1  0.50000001  0.33408299  0.16704099  1
  Cu  Cu4  1  0.50000001  0.83295798  0.66591599  1
  Ni  Ni5  1  0.50000001  0.83295798  0.16704097  1
