# generated using pymatgen
data_Mn2Cr3GaS8
_symmetry_space_group_name_H-M   'P 1'
_cell_length_a   7.01888037
_cell_length_b   7.28047037
_cell_length_c   7.28047037
_cell_angle_alpha   61.06255341
_cell_angle_beta   61.18161774
_cell_angle_gamma   61.18161774
_symmetry_Int_Tables_number   1
_chemical_formula_structural   Mn2Cr3GaS8
_chemical_formula_sum   'Mn2 Cr3 Ga1 S8'
_cell_volume   269.82960542
_cell_formula_units_Z   1
loop_
 _symmetry_equiv_pos_site_id
 _symmetry_equiv_pos_as_xyz
  1  'x, y, z'
loop_
 _atom_site_type_symbol
 _atom_site_label
 _atom_site_symmetry_multiplicity
 _atom_site_fract_x
 _atom_site_fract_y
 _atom_site_fract_z
 _atom_site_occupancy
  Mn  Mn0  1  0.50000001  0.50000000  0.00000003  1
  Mn  Mn1  1  0.00000000  0.50000000  0.00000002  1
  Cr  Cr2  1  0.36778301  0.88221701  0.38221705  1
  Ga  Ga3  1  0.63221701  0.11778300  0.61778303  1
  Cr  Cr4  1  0.00000000  0.50000000  0.50000003  1
  Cr  Cr5  1  0.00000000  0.00000000  0.00000000  1
  S  S6  1  0.76018901  0.73538701  0.23538705  1
  S  S7  1  0.26903700  0.73538701  0.23538704  1
  S  S8  1  0.24971100  0.73233101  0.76824805  1
  S  S9  1  0.24971100  0.26824800  0.23233102  1
  S  S10  1  0.23981100  0.26461300  0.76461303  1
  S  S11  1  0.73096301  0.26461300  0.76461304  1
  S  S12  1  0.75028901  0.26766900  0.23175203  1
  S  S13  1  0.75028901  0.73175201  0.76766906  1
