# generated using pymatgen
data_K
_symmetry_space_group_name_H-M   'P 1'
_cell_length_a   4.24611092
_cell_length_b   4.24611092
_cell_length_c   10.72823715
_cell_angle_alpha   78.58615875
_cell_angle_beta   78.58615875
_cell_angle_gamma   59.99998856
_symmetry_Int_Tables_number   1
_chemical_formula_structural   K
_chemical_formula_sum   K3
_cell_volume   163.07833756
_cell_formula_units_Z   3
loop_
 _symmetry_equiv_pos_site_id
 _symmetry_equiv_pos_as_xyz
  1  'x, y, z'
loop_
 _atom_site_type_symbol
 _atom_site_label
 _atom_site_symmetry_multiplicity
 _atom_site_fract_x
 _atom_site_fract_y
 _atom_site_fract_z
 _atom_site_occupancy
  K  K0  1  0.00000000  0.00000000  0.00000000  1
  K  K1  1  0.22238300  0.22238299  0.33285100  1
  K  K2  1  0.77761701  0.77761697  0.66714900  1
