# generated using pymatgen
data_Co2Ge
_symmetry_space_group_name_H-M   'P 1'
_cell_length_a   3.38000607
_cell_length_b   6.19924784
_cell_length_c   6.19924784
_cell_angle_alpha   120.00000000
_cell_angle_beta   90.00000000
_cell_angle_gamma   90.00000000
_symmetry_Int_Tables_number   1
_chemical_formula_structural   Co2Ge
_chemical_formula_sum   'Co6 Ge3'
_cell_volume   112.49315853
_cell_formula_units_Z   3
loop_
 _symmetry_equiv_pos_site_id
 _symmetry_equiv_pos_as_xyz
  1  'x, y, z'
loop_
 _atom_site_type_symbol
 _atom_site_label
 _atom_site_symmetry_multiplicity
 _atom_site_fract_x
 _atom_site_fract_y
 _atom_site_fract_z
 _atom_site_occupancy
  Co  Co0  1  0.99999998  0.41074301  0.41074299  1
  Co  Co1  1  0.00000000  0.00000000  0.58925699  1
  Co  Co2  1  -0.00000000  0.58925701  -0.00000001  1
  Co  Co3  1  0.49999999  0.75281601  0.75281598  1
  Co  Co4  1  0.49999999  0.00000000  0.24718400  1
  Co  Co5  1  0.49999999  0.24718400  -0.00000001  1
  Ge  Ge6  1  0.49999999  0.66666668  0.33333331  1
  Ge  Ge7  1  0.49999999  0.33333334  0.66666665  1
  Ge  Ge8  1  0.00000000  0.00000000  0.00000000  1
