# generated using pymatgen
data_Pr5SmDy2
_symmetry_space_group_name_H-M   'P 1'
_cell_length_a   5.81886578
_cell_length_b   7.34524822
_cell_length_c   7.34524775
_cell_angle_alpha   120.00000000
_cell_angle_beta   90.00000000
_cell_angle_gamma   90.00000000
_symmetry_Int_Tables_number   1
_chemical_formula_structural   Pr5SmDy2
_chemical_formula_sum   'Pr5 Sm1 Dy2'
_cell_volume   271.88290176
_cell_formula_units_Z   1
loop_
 _symmetry_equiv_pos_site_id
 _symmetry_equiv_pos_as_xyz
  1  'x, y, z'
loop_
 _atom_site_type_symbol
 _atom_site_label
 _atom_site_symmetry_multiplicity
 _atom_site_fract_x
 _atom_site_fract_y
 _atom_site_fract_z
 _atom_site_occupancy
  Pr  Pr0  1  0.75000003  0.83340796  0.16659297  1
  Pr  Pr1  1  0.75000003  0.33318498  0.16659299  1
  Pr  Pr2  1  0.75000003  0.83340796  0.66681597  1
  Pr  Pr3  1  0.25000001  0.16659199  0.83340699  1
  Pr  Pr4  1  0.25000001  0.66681497  0.83340697  1
  Sm  Sm5  1  0.25000001  0.16659199  0.33318399  1
  Dy  Dy6  1  0.25000001  0.66666664  0.33333331  1
  Dy  Dy7  1  0.75000003  0.33333332  0.66666665  1
