# generated using pymatgen
data_NbMo3S4
_symmetry_space_group_name_H-M   'P 1'
_cell_length_a   4.95932913
_cell_length_b   7.15123081
_cell_length_c   7.15900326
_cell_angle_alpha   82.84322357
_cell_angle_beta   69.73454285
_cell_angle_gamma   69.71155548
_symmetry_Int_Tables_number   1
_chemical_formula_structural   NbMo3S4
_chemical_formula_sum   'Nb2 Mo6 S8'
_cell_volume   223.39972322
_cell_formula_units_Z   2
loop_
 _symmetry_equiv_pos_site_id
 _symmetry_equiv_pos_as_xyz
  1  'x, y, z'
loop_
 _atom_site_type_symbol
 _atom_site_label
 _atom_site_symmetry_multiplicity
 _atom_site_fract_x
 _atom_site_fract_y
 _atom_site_fract_z
 _atom_site_occupancy
  Nb  Nb0  1  0.72324299  0.84956698  0.70394696  1
  Nb  Nb1  1  0.27659299  0.15015900  0.29665599  1
  Mo  Mo2  1  0.77529498  0.29839799  0.15101298  1
  Mo  Mo3  1  0.22470700  0.70395098  0.84663397  1
  Mo  Mo4  1  0.57330299  0.70144398  0.15195096  1
  Mo  Mo5  1  0.25308000  0.99646397  0.00163395  1
  Mo  Mo6  1  0.74882199  0.99646397  0.00163394  1
  S  S7  1  0.17083800  0.49772699  0.16059698  1
  S  S8  1  0.82454598  0.50779199  0.84311598  1
  Mo  Mo9  1  0.33157399  0.83870998  0.49814096  1
  S  S10  1  0.67172398  0.16020400  0.49634699  1
  S  S11  1  0.42525699  0.29914199  0.85034299  1
  S  S12  1  0.07411900  0.14990700  0.70185500  1
  S  S13  1  0.92630798  0.84934198  0.29804195  1
  S  S14  1  0.75026598  0.50036399  0.49904498  1
  S  S15  1  0.25032500  0.50036399  0.49904498  1
