# generated using pymatgen
data_Co2AsSe3
_symmetry_space_group_name_H-M   'P 1'
_cell_length_a   3.56141901
_cell_length_b   4.83412123
_cell_length_c   5.78817987
_cell_angle_alpha   91.26956177
_cell_angle_beta   90.00000000
_cell_angle_gamma   90.00000000
_symmetry_Int_Tables_number   1
_chemical_formula_structural   Co2AsSe3
_chemical_formula_sum   'Co2 As1 Se3'
_cell_volume   99.62675967
_cell_formula_units_Z   1
loop_
 _symmetry_equiv_pos_site_id
 _symmetry_equiv_pos_as_xyz
  1  'x, y, z'
loop_
 _atom_site_type_symbol
 _atom_site_label
 _atom_site_symmetry_multiplicity
 _atom_site_fract_x
 _atom_site_fract_y
 _atom_site_fract_z
 _atom_site_occupancy
  Co  Co0  1  0.50000000  0.49999998  0.50000001  1
  Co  Co1  1  0.00000000  0.00000000  0.00000000  1
  As  As2  1  0.50000000  0.70788397  0.12852202  1
  Se  Se3  1  0.50000000  0.29211599  0.87147801  1
  Se  Se4  1  0.00000000  0.21581899  0.36287701  1
  Se  Se5  1  0.00000000  0.78418096  0.63712302  1
