# generated using pymatgen
data_CeGaSe2
_symmetry_space_group_name_H-M   'P 1'
_cell_length_a   6.84824085
_cell_length_b   7.61052322
_cell_length_c   7.26759100
_cell_angle_alpha   90.00000000
_cell_angle_beta   82.92655182
_cell_angle_gamma   90.00000000
_symmetry_Int_Tables_number   1
_chemical_formula_structural   CeGaSe2
_chemical_formula_sum   'Ce4 Ga4 Se8'
_cell_volume   375.89453357
_cell_formula_units_Z   4
loop_
 _symmetry_equiv_pos_site_id
 _symmetry_equiv_pos_as_xyz
  1  'x, y, z'
loop_
 _atom_site_type_symbol
 _atom_site_label
 _atom_site_symmetry_multiplicity
 _atom_site_fract_x
 _atom_site_fract_y
 _atom_site_fract_z
 _atom_site_occupancy
  Ce  Ce0  1  0.69160501  0.45087399  0.70135301  1
  Ce  Ce1  1  0.30839501  0.95087397  0.79864699  1
  Ce  Ce2  1  0.30839501  0.54912598  0.29864700  1
  Ce  Ce3  1  0.69160501  0.04912600  0.20135302  1
  Ga  Ga4  1  0.06714800  0.16112700  0.45506499  1
  Ga  Ga5  1  0.93285202  0.83887298  0.54493502  1
  Ga  Ga6  1  0.06714800  0.33887299  0.95506498  1
  Ga  Ga7  1  0.93285202  0.66112698  0.04493503  1
  Se  Se8  1  0.41160401  0.27444599  0.99891899  1
  Se  Se9  1  0.41160401  0.22555399  0.49891900  1
  Se  Se10  1  0.58839601  0.77444598  0.50108101  1
  Se  Se11  1  0.58839601  0.72555398  0.00108102  1
  Se  Se12  1  0.90569302  0.38706799  0.27872402  1
  Se  Se13  1  0.09430700  0.88706797  0.22127600  1
  Se  Se14  1  0.09430700  0.61293198  0.72127599  1
  Se  Se15  1  0.90569302  0.11293200  0.77872401  1
