# generated using pymatgen
data_LiCo3N4
_symmetry_space_group_name_H-M   'P 1'
_cell_length_a   3.77351594
_cell_length_b   4.88678789
_cell_length_c   8.84649658
_cell_angle_alpha   90.00000000
_cell_angle_beta   90.00000000
_cell_angle_gamma   112.71165466
_symmetry_Int_Tables_number   1
_chemical_formula_structural   LiCo3N4
_chemical_formula_sum   'Li2 Co6 N8'
_cell_volume   150.48330951
_cell_formula_units_Z   2
loop_
 _symmetry_equiv_pos_site_id
 _symmetry_equiv_pos_as_xyz
  1  'x, y, z'
loop_
 _atom_site_type_symbol
 _atom_site_label
 _atom_site_symmetry_multiplicity
 _atom_site_fract_x
 _atom_site_fract_y
 _atom_site_fract_z
 _atom_site_occupancy
  Li  Li0  1  0.83460199  0.66920396  0.57036203  1
  Li  Li1  1  0.16539799  0.33079598  0.42963802  1
  Co  Co2  1  0.83460199  0.66920396  0.92963804  1
  Co  Co3  1  0.16539799  0.33079598  0.07036200  1
  Co  Co4  1  0.51243001  0.02486000  0.75000004  1
  Co  Co5  1  0.48756997  0.97513994  0.25000001  1
  Co  Co6  1  0.06755300  0.13510599  0.87682904  1
  Co  Co7  1  0.93244698  0.86489395  0.12317101  1
  N  N8  1  0.06755300  0.13510599  0.62317103  1
  N  N9  1  0.93244698  0.86489395  0.37682902  1
  N  N10  1  0.33567598  0.67135196  0.61316303  1
  N  N11  1  0.66432400  0.32864798  0.38683702  1
  N  N12  1  0.33567598  0.67135196  0.88683704  1
  N  N13  1  0.66432400  0.32864798  0.11316301  1
  N  N14  1  0.20583699  0.41167398  0.75000004  1
  N  N15  1  0.79416299  0.58832597  0.25000001  1
