# generated using pymatgen
data_K2Ag2Hg3SCl5O7
_symmetry_space_group_name_H-M   'P 1'
_cell_length_a   6.18865824
_cell_length_b   7.03473806
_cell_length_c   11.61418533
_cell_angle_alpha   90.00000000
_cell_angle_beta   105.45174408
_cell_angle_gamma   90.00000000
_symmetry_Int_Tables_number   1
_chemical_formula_structural   K2Ag2Hg3SCl5O7
_chemical_formula_sum   'K2 Ag2 Hg3 S1 Cl5 O7'
_cell_volume   487.35449006
_cell_formula_units_Z   1
loop_
 _symmetry_equiv_pos_site_id
 _symmetry_equiv_pos_as_xyz
  1  'x, y, z'
loop_
 _atom_site_type_symbol
 _atom_site_label
 _atom_site_symmetry_multiplicity
 _atom_site_fract_x
 _atom_site_fract_y
 _atom_site_fract_z
 _atom_site_occupancy
  K  K0  1  0.73825597  0.30464100  0.47651201  1
  K  K1  1  0.26174399  0.80464099  0.52348801  1
  Hg  Hg2  1  0.09872600  0.15700100  0.19745200  1
  Hg  Hg3  1  0.43927598  0.28034300  0.87855202  1
  Ag  Ag4  1  0.90127397  0.65700099  0.80254802  1
  Hg  Hg5  1  0.56072398  0.78034299  0.12144800  1
  Ag  Ag6  1  0.33260599  0.34990100  0.66521201  1
  S  S7  1  0.66739397  0.84990099  0.33478801  1
  Cl  Cl8  1  0.15395599  0.43606600  0.30791201  1
  Cl  Cl9  1  0.45321698  0.73910399  0.90643402  1
  O  O10  1  0.84604397  0.93606599  0.69208801  1
  Cl  Cl11  1  0.96013396  0.38238600  0.92026802  1
  Cl  Cl12  1  0.03986600  0.88238599  0.07973200  1
  Cl  Cl13  1  0.54678298  0.23910400  0.09356600  1
  O  O14  1  0.48016098  0.96483699  0.35628501  1
  O  O15  1  0.70099197  0.67058599  0.40198401  1
  O  O16  1  0.51983898  0.46483700  0.64371501  1
  O  O17  1  0.12387600  0.46483700  0.64371501  1
  O  O18  1  0.29900799  0.17058600  0.59801601  1
  O  O19  1  0.87612397  0.96483699  0.35628501  1
