# generated using pymatgen
data_Mg5In
_symmetry_space_group_name_H-M   'P 1'
_cell_length_a   3.36461997
_cell_length_b   5.05479908
_cell_length_c   8.24787617
_cell_angle_alpha   90.00000000
_cell_angle_beta   101.76914215
_cell_angle_gamma   90.00000000
_symmetry_Int_Tables_number   1
_chemical_formula_structural   Mg5In
_chemical_formula_sum   'Mg5 In1'
_cell_volume   137.32661219
_cell_formula_units_Z   1
loop_
 _symmetry_equiv_pos_site_id
 _symmetry_equiv_pos_as_xyz
  1  'x, y, z'
loop_
 _atom_site_type_symbol
 _atom_site_label
 _atom_site_symmetry_multiplicity
 _atom_site_fract_x
 _atom_site_fract_y
 _atom_site_fract_z
 _atom_site_occupancy
  Mg  Mg0  1  0.00054100  0.00000000  0.00108200  1
  Mg  Mg1  1  0.33303500  0.00000000  0.66606998  1
  Mg  Mg2  1  0.66566300  0.00000000  0.33132598  1
  Mg  Mg3  1  0.11086200  0.49999999  0.22172399  1
  Mg  Mg4  1  0.44588900  0.49999999  0.89177798  1
  In  In5  1  0.77734200  0.49999999  0.55468398  1
