# generated using pymatgen
data_Tm2CdSe4
_symmetry_space_group_name_H-M   'P 1'
_cell_length_a   8.23277760
_cell_length_b   8.23277760
_cell_length_c   8.23277760
_cell_angle_alpha   60.00000000
_cell_angle_beta   60.00000000
_cell_angle_gamma   60.00000000
_symmetry_Int_Tables_number   1
_chemical_formula_structural   Tm2CdSe4
_chemical_formula_sum   'Tm4 Cd2 Se8'
_cell_volume   394.57008202
_cell_formula_units_Z   2
loop_
 _symmetry_equiv_pos_site_id
 _symmetry_equiv_pos_as_xyz
  1  'x, y, z'
loop_
 _atom_site_type_symbol
 _atom_site_label
 _atom_site_symmetry_multiplicity
 _atom_site_fract_x
 _atom_site_fract_y
 _atom_site_fract_z
 _atom_site_occupancy
  Tm  Tm0  1  0.37500001  0.37500001  0.87500002  1
  Tm  Tm1  1  0.37500001  0.37500001  0.37500001  1
  Tm  Tm2  1  0.37500001  0.87500002  0.37500001  1
  Tm  Tm3  1  0.87500002  0.37500001  0.37500001  1
  Cd  Cd4  1  0.75000002  0.75000002  0.75000002  1
  Cd  Cd5  1  0.00000000  0.00000000  0.00000000  1
  Se  Se6  1  0.61690501  0.61690501  0.14928500  1
  Se  Se7  1  0.61690501  0.61690501  0.61690501  1
  Se  Se8  1  0.61690501  0.14928500  0.61690501  1
  Se  Se9  1  0.14928500  0.61690501  0.61690501  1
  Se  Se10  1  0.13309500  0.13309500  0.60071501  1
  Se  Se11  1  0.13309500  0.13309500  0.13309500  1
  Se  Se12  1  0.13309500  0.60071501  0.13309500  1
  Se  Se13  1  0.60071501  0.13309500  0.13309500  1
