# generated using pymatgen
data_In2Pt3
_symmetry_space_group_name_H-M   'P 1'
_cell_length_a   5.73520613
_cell_length_b   5.73520613
_cell_length_c   14.25910568
_cell_angle_alpha   90.00000000
_cell_angle_beta   90.00000000
_cell_angle_gamma   120.00000000
_symmetry_Int_Tables_number   1
_chemical_formula_structural   In2Pt3
_chemical_formula_sum   'In8 Pt12'
_cell_volume   406.18228857
_cell_formula_units_Z   4
loop_
 _symmetry_equiv_pos_site_id
 _symmetry_equiv_pos_as_xyz
  1  'x, y, z'
loop_
 _atom_site_type_symbol
 _atom_site_label
 _atom_site_symmetry_multiplicity
 _atom_site_fract_x
 _atom_site_fract_y
 _atom_site_fract_z
 _atom_site_occupancy
  In  In0  1  0.00000000  0.00000000  0.75000002  1
  In  In1  1  0.00000000  0.00000000  0.25000001  1
  In  In2  1  0.66666665  0.33333332  0.75000002  1
  In  In3  1  0.33333332  0.66666664  0.25000001  1
  In  In4  1  0.66666665  0.33333332  0.41067001  1
  In  In5  1  0.33333332  0.66666664  0.91067002  1
  In  In6  1  0.33333332  0.66666664  0.58933001  1
  In  In7  1  0.66666665  0.33333332  0.08933000  1
  Pt  Pt8  1  0.83460098  0.16539899  0.58722901  1
  Pt  Pt9  1  0.83460098  0.66920197  0.58722901  1
  Pt  Pt10  1  0.33079799  0.16539899  0.58722901  1
  Pt  Pt11  1  0.16539899  0.33079799  0.08722900  1
  Pt  Pt12  1  0.66920198  0.83460097  0.08722900  1
  Pt  Pt13  1  0.16539899  0.83460097  0.08722900  1
  Pt  Pt14  1  0.16539899  0.83460097  0.41277101  1
  Pt  Pt15  1  0.16539899  0.33079799  0.41277101  1
  Pt  Pt16  1  0.66920198  0.83460097  0.41277101  1
  Pt  Pt17  1  0.83460098  0.66920197  0.91277102  1
  Pt  Pt18  1  0.33079799  0.16539899  0.91277102  1
  Pt  Pt19  1  0.83460098  0.16539899  0.91277102  1
