# generated using pymatgen
data_Na2InBr3
_symmetry_space_group_name_H-M   'P 1'
_cell_length_a   4.42809582
_cell_length_b   4.42809629
_cell_length_c   10.75644684
_cell_angle_alpha   90.00000000
_cell_angle_beta   90.00000000
_cell_angle_gamma   120.00000000
_symmetry_Int_Tables_number   1
_chemical_formula_structural   Na2InBr3
_chemical_formula_sum   'Na2 In1 Br3'
_cell_volume   182.65582776
_cell_formula_units_Z   1
loop_
 _symmetry_equiv_pos_site_id
 _symmetry_equiv_pos_as_xyz
  1  'x, y, z'
loop_
 _atom_site_type_symbol
 _atom_site_label
 _atom_site_symmetry_multiplicity
 _atom_site_fract_x
 _atom_site_fract_y
 _atom_site_fract_z
 _atom_site_occupancy
  Na  Na0  1  0.00000000  0.00000000  0.50000001  1
  Na  Na1  1  0.66666671  0.33333334  0.84307401  1
  In  In2  1  0.33333338  0.66666669  0.15692600  1
  Br  Br3  1  0.00000000  0.00000000  0.00000000  1
  Br  Br4  1  0.66666671  0.33333334  0.32831400  1
  Br  Br5  1  0.33333338  0.66666669  0.67168601  1
