# generated using pymatgen
data_Ti5(O2F3)3
_symmetry_space_group_name_H-M   'P 1'
_cell_length_a   5.25899792
_cell_length_b   5.41406679
_cell_length_c   8.44338608
_cell_angle_alpha   90.00000000
_cell_angle_beta   90.00000000
_cell_angle_gamma   90.00000000
_symmetry_Int_Tables_number   1
_chemical_formula_structural   Ti5(O2F3)3
_chemical_formula_sum   'Ti5 O6 F9'
_cell_volume   240.40486720
_cell_formula_units_Z   1
loop_
 _symmetry_equiv_pos_site_id
 _symmetry_equiv_pos_as_xyz
  1  'x, y, z'
loop_
 _atom_site_type_symbol
 _atom_site_label
 _atom_site_symmetry_multiplicity
 _atom_site_fract_x
 _atom_site_fract_y
 _atom_site_fract_z
 _atom_site_occupancy
  Ti  Ti0  1  0.51683101  0.13058001  0.00522800  1
  Ti  Ti1  1  0.01683100  0.63058002  0.49477200  1
  Ti  Ti2  1  0.51683101  0.36942001  0.50522800  1
  Ti  Ti3  1  0.01683100  0.86942003  0.99477199  1
  O  O4  1  0.55285601  0.64448402  0.17510500  1
  Ti  Ti5  1  0.05285600  0.14448401  0.32489500  1
  O  O6  1  0.55285601  0.85551603  0.67510499  1
  O  O7  1  0.05285600  0.35551601  0.82489499  1
  O  O8  1  0.34396701  0.43668702  0.00616700  1
  F  F9  1  0.27807500  0.94202104  0.15811900  1
  F  F10  1  0.77499901  0.99137004  0.15727100  1
  O  O11  1  0.27499900  0.49137002  0.34272900  1
  O  O12  1  0.77807501  0.44202102  0.34188100  1
  F  F13  1  0.84396701  0.93668704  0.49383300  1
  F  F14  1  0.34396701  0.06331300  0.50616700  1
  F  F15  1  0.27807500  0.55797902  0.65811899  1
  F  F16  1  0.77499901  0.50863002  0.65727099  1
  F  F17  1  0.27499900  0.00863000  0.84272899  1
  F  F18  1  0.77807501  0.05797900  0.84188099  1
  F  F19  1  0.84396701  0.56331302  0.99383299  1
