# generated using pymatgen
data_Hf4Ni7Ge
_symmetry_space_group_name_H-M   'P 1'
_cell_length_a   4.91974783
_cell_length_b   4.91974831
_cell_length_c   8.09784603
_cell_angle_alpha   90.00000000
_cell_angle_beta   90.00000000
_cell_angle_gamma   120.00000000
_symmetry_Int_Tables_number   1
_chemical_formula_structural   Hf4Ni7Ge
_chemical_formula_sum   'Hf4 Ni7 Ge1'
_cell_volume   169.74065527
_cell_formula_units_Z   1
loop_
 _symmetry_equiv_pos_site_id
 _symmetry_equiv_pos_as_xyz
  1  'x, y, z'
loop_
 _atom_site_type_symbol
 _atom_site_label
 _atom_site_symmetry_multiplicity
 _atom_site_fract_x
 _atom_site_fract_y
 _atom_site_fract_z
 _atom_site_occupancy
  Hf  Hf0  1  0.66666670  0.33333333  0.43377800  1
  Hf  Hf1  1  0.33333336  0.66666666  0.56622200  1
  Hf  Hf2  1  0.33333336  0.66666666  0.93377800  1
  Hf  Hf3  1  0.66666670  0.33333333  0.06622200  1
  Ni  Ni4  1  0.82539803  0.17460200  0.75000000  1
  Ni  Ni5  1  0.17460203  0.82539800  0.25000000  1
  Ni  Ni6  1  0.34920402  0.17460200  0.75000000  1
  Ni  Ni7  1  0.65079605  0.82539800  0.25000000  1
  Ni  Ni8  1  0.82539805  0.65079600  0.75000000  1
  Ni  Ni9  1  0.17460202  0.34920400  0.25000000  1
  Ge  Ge10  1  0.00000000  0.00000000  0.00000000  1
  Ni  Ni11  1  0.00000000  0.00000000  0.50000000  1
