# generated using pymatgen
data_BaInSi2
_symmetry_space_group_name_H-M   'P 1'
_cell_length_a   4.10064077
_cell_length_b   4.10064077
_cell_length_c   8.04342651
_cell_angle_alpha   75.23197174
_cell_angle_beta   75.23197174
_cell_angle_gamma   59.99998856
_symmetry_Int_Tables_number   1
_chemical_formula_structural   BaInSi2
_chemical_formula_sum   'Ba1 In1 Si2'
_cell_volume   111.94302062
_cell_formula_units_Z   1
loop_
 _symmetry_equiv_pos_site_id
 _symmetry_equiv_pos_as_xyz
  1  'x, y, z'
loop_
 _atom_site_type_symbol
 _atom_site_label
 _atom_site_symmetry_multiplicity
 _atom_site_fract_x
 _atom_site_fract_y
 _atom_site_fract_z
 _atom_site_occupancy
  Ba  Ba0  1  0.00000000  0.00000000  0.00000000  1
  In  In1  1  0.49999996  0.49999999  0.49999999  1
  Si  Si2  1  0.76916694  0.76916698  0.69249899  1
  Si  Si3  1  0.23083298  0.23083299  0.30750099  1
