# generated using pymatgen
data_BaUSe3
_symmetry_space_group_name_H-M   'P 1'
_cell_length_a   7.69781494
_cell_length_b   8.04372120
_cell_length_c   11.09011936
_cell_angle_alpha   90.00000000
_cell_angle_beta   90.00000000
_cell_angle_gamma   90.00000000
_symmetry_Int_Tables_number   1
_chemical_formula_structural   BaUSe3
_chemical_formula_sum   'Ba4 U4 Se12'
_cell_volume   686.68995726
_cell_formula_units_Z   4
loop_
 _symmetry_equiv_pos_site_id
 _symmetry_equiv_pos_as_xyz
  1  'x, y, z'
loop_
 _atom_site_type_symbol
 _atom_site_label
 _atom_site_symmetry_multiplicity
 _atom_site_fract_x
 _atom_site_fract_y
 _atom_site_fract_z
 _atom_site_occupancy
  Ba  Ba0  1  0.01662900  0.43605399  0.24999999  1
  Ba  Ba1  1  0.98337101  0.56394599  0.74999998  1
  Ba  Ba2  1  0.51662900  0.06394600  0.74999998  1
  Ba  Ba3  1  0.48337100  0.93605398  0.24999999  1
  U  U4  1  0.00000000  0.00000000  0.00000000  1
  U  U5  1  0.50000000  0.49999999  0.00000000  1
  U  U6  1  0.00000000  0.00000000  0.49999998  1
  U  U7  1  0.50000000  0.49999999  0.49999998  1
  Se  Se8  1  0.30460400  0.19929600  0.05061700  1
  Se  Se9  1  0.69539601  0.80070398  0.94938297  1
  Se  Se10  1  0.80460401  0.30070399  0.94938297  1
  Se  Se11  1  0.69539601  0.80070398  0.55061698  1
  Se  Se12  1  0.19539600  0.69929598  0.05061700  1
  Se  Se13  1  0.30460400  0.19929600  0.44938299  1
  Se  Se14  1  0.19539600  0.69929598  0.44938299  1
  Se  Se15  1  0.80460401  0.30070399  0.55061698  1
  Se  Se16  1  0.59950900  0.53241199  0.24999999  1
  Se  Se17  1  0.40049100  0.46758799  0.74999998  1
  Se  Se18  1  0.09950900  0.96758798  0.74999998  1
  Se  Se19  1  0.90049101  0.03241200  0.24999999  1
