# generated using pymatgen
data_Mn3(OF2)2
_symmetry_space_group_name_H-M   'P 1'
_cell_length_a   4.71532202
_cell_length_b   4.73741293
_cell_length_c   8.96750736
_cell_angle_alpha   88.23653412
_cell_angle_beta   90.00309753
_cell_angle_gamma   90.00124359
_symmetry_Int_Tables_number   1
_chemical_formula_structural   Mn3(OF2)2
_chemical_formula_sum   'Mn6 O4 F8'
_cell_volume   200.22513831
_cell_formula_units_Z   2
loop_
 _symmetry_equiv_pos_site_id
 _symmetry_equiv_pos_as_xyz
  1  'x, y, z'
loop_
 _atom_site_type_symbol
 _atom_site_label
 _atom_site_symmetry_multiplicity
 _atom_site_fract_x
 _atom_site_fract_y
 _atom_site_fract_z
 _atom_site_occupancy
  Mn  Mn0  1  0.50001797  0.49995700  0.49998897  1
  Mn  Mn1  1  0.97706494  0.96585100  0.65397294  1
  Mn  Mn2  1  0.02296300  0.03411600  0.34601300  1
  Mn  Mn3  1  0.99995800  0.00001100  0.00001497  1
  Mn  Mn4  1  0.47704297  0.53416900  0.84604597  1
  Mn  Mn5  1  0.52294597  0.46582400  0.15393997  1
  O  O6  1  0.80091899  0.20408300  0.50441096  1
  O  O7  1  0.30087298  0.29593200  0.99563197  1
  F  F8  1  0.69912496  0.70407700  0.00436496  1
  O  O9  1  0.19910796  0.79589100  0.49564498  1
  F  F10  1  0.81704699  0.18986500  0.17137597  1
  O  O11  1  0.31704598  0.31020300  0.32861898  1
  F  F12  1  0.68297496  0.68982000  0.67136596  1
  F  F13  1  0.18291596  0.81018100  0.82861897  1
  F  F14  1  0.78734599  0.20290400  0.82867196  1
  F  F15  1  0.28738698  0.29708300  0.67134598  1
  F  F16  1  0.71261396  0.70292300  0.32864296  1
  F  F17  1  0.21265096  0.79711100  0.17133098  1
