# generated using pymatgen
data_Sr(SbPd)2
_symmetry_space_group_name_H-M   'P 1'
_cell_length_a   4.58474493
_cell_length_b   4.63670588
_cell_length_c   11.32971573
_cell_angle_alpha   90.74314117
_cell_angle_beta   90.00000000
_cell_angle_gamma   90.00000000
_symmetry_Int_Tables_number   1
_chemical_formula_structural   Sr(SbPd)2
_chemical_formula_sum   'Sr2 Sb4 Pd4'
_cell_volume   240.82812738
_cell_formula_units_Z   2
loop_
 _symmetry_equiv_pos_site_id
 _symmetry_equiv_pos_as_xyz
  1  'x, y, z'
loop_
 _atom_site_type_symbol
 _atom_site_label
 _atom_site_symmetry_multiplicity
 _atom_site_fract_x
 _atom_site_fract_y
 _atom_site_fract_z
 _atom_site_occupancy
  Sr  Sr0  1  0.25000000  0.74064602  0.24591501  1
  Sr  Sr1  1  0.75000001  0.25935401  0.75408502  1
  Sb  Sb2  1  0.75000001  0.26054401  0.36066901  1
  Sb  Sb3  1  0.25000000  0.27971401  0.99921702  1
  Sb  Sb4  1  0.25000000  0.73945602  0.63933102  1
  Sb  Sb5  1  0.75000001  0.72028602  0.00078301  1
  Pd  Pd6  1  0.75000001  0.22103901  0.13238500  1
  Pd  Pd7  1  0.25000000  0.77896102  0.86761503  1
  Pd  Pd8  1  0.25000000  0.24229801  0.50051001  1
  Pd  Pd9  1  0.75000001  0.75770202  0.49949002  1
