# generated using pymatgen
data_MgZn(BS)2
_symmetry_space_group_name_H-M   'P 1'
_cell_length_a   3.59225607
_cell_length_b   3.59225607
_cell_length_c   7.56091976
_cell_angle_alpha   90.00000000
_cell_angle_beta   90.00000000
_cell_angle_gamma   90.00000000
_symmetry_Int_Tables_number   1
_chemical_formula_structural   MgZn(BS)2
_chemical_formula_sum   'Mg1 Zn1 B2 S2'
_cell_volume   97.56840460
_cell_formula_units_Z   1
loop_
 _symmetry_equiv_pos_site_id
 _symmetry_equiv_pos_as_xyz
  1  'x, y, z'
loop_
 _atom_site_type_symbol
 _atom_site_label
 _atom_site_symmetry_multiplicity
 _atom_site_fract_x
 _atom_site_fract_y
 _atom_site_fract_z
 _atom_site_occupancy
  Mg  Mg0  1  0.00000000  0.49999999  0.64788102  1
  Zn  Zn1  1  0.49999999  0.00000000  0.35211901  1
  B  B2  1  0.00000000  0.49999999  0.08353500  1
  B  B3  1  0.49999999  0.00000000  0.91646503  1
  S  S4  1  0.00000000  0.49999999  0.32940901  1
  S  S5  1  0.49999999  0.00000000  0.67059102  1
