# generated using pymatgen
data_NbCu3I5
_symmetry_space_group_name_H-M   'P 1'
_cell_length_a   3.57558393
_cell_length_b   7.62561941
_cell_length_c   9.36610603
_cell_angle_alpha   111.78635406
_cell_angle_beta   90.00000000
_cell_angle_gamma   103.55893707
_symmetry_Int_Tables_number   1
_chemical_formula_structural   NbCu3I5
_chemical_formula_sum   'Nb1 Cu3 I5'
_cell_volume   229.45352730
_cell_formula_units_Z   1
loop_
 _symmetry_equiv_pos_site_id
 _symmetry_equiv_pos_as_xyz
  1  'x, y, z'
loop_
 _atom_site_type_symbol
 _atom_site_label
 _atom_site_symmetry_multiplicity
 _atom_site_fract_x
 _atom_site_fract_y
 _atom_site_fract_z
 _atom_site_occupancy
  Nb  Nb0  1  0.00000000  0.00000000  0.00000000  1
  Cu  Cu1  1  0.63847301  0.27694601  0.29085799  1
  Cu  Cu2  1  0.36152699  0.72305402  0.70914199  1
  I  I3  1  0.64326201  0.28652401  0.02003500  1
  Cu  Cu4  1  0.35673799  0.71347601  0.97996498  1
  I  I5  1  0.29036899  0.58073801  0.38538399  1
  I  I6  1  0.70963100  0.41926201  0.61461599  1
  I  I7  1  0.99037500  0.98075002  0.69893499  1
  I  I8  1  0.00962500  0.01925000  0.30106499  1
