# generated using pymatgen
data_Mn2O3
_symmetry_space_group_name_H-M   'P 1'
_cell_length_a   5.03680182
_cell_length_b   5.03850842
_cell_length_c   5.44528484
_cell_angle_alpha   115.16823578
_cell_angle_beta   115.19915009
_cell_angle_gamma   65.89643860
_symmetry_Int_Tables_number   1
_chemical_formula_structural   Mn2O3
_chemical_formula_sum   'Mn4 O6'
_cell_volume   108.72110320
_cell_formula_units_Z   2
loop_
 _symmetry_equiv_pos_site_id
 _symmetry_equiv_pos_as_xyz
  1  'x, y, z'
loop_
 _atom_site_type_symbol
 _atom_site_label
 _atom_site_symmetry_multiplicity
 _atom_site_fract_x
 _atom_site_fract_y
 _atom_site_fract_z
 _atom_site_occupancy
  Mn  Mn0  1  0.65166107  0.65685299  0.95215499  1
  Mn  Mn1  1  0.84216810  0.84821199  0.54656802  1
  Mn  Mn2  1  0.15692002  0.15255400  0.45307299  1
  Mn  Mn3  1  0.34874304  0.34216700  0.04772101  1
  O  O4  1  0.22489508  0.97108199  0.74410598  1
  O  O5  1  0.08609703  0.41541399  0.25106199  1
  O  O6  1  0.47038507  0.72495499  0.24389201  1
  O  O7  1  0.53023704  0.27424800  0.75626300  1
  O  O8  1  0.91443708  0.58529899  0.74943801  1
  O  O9  1  0.77445803  0.02921500  0.25572303  1
