# generated using pymatgen
data_LiMo3W2NO
_symmetry_space_group_name_H-M   'P 1'
_cell_length_a   5.33951759
_cell_length_b   5.33951759
_cell_length_c   5.49309206
_cell_angle_alpha   60.92059708
_cell_angle_beta   60.92059708
_cell_angle_gamma   60.00000381
_symmetry_Int_Tables_number   1
_chemical_formula_structural   LiMo3W2NO
_chemical_formula_sum   'Li1 Mo3 W2 N1 O1'
_cell_volume   112.25635828
_cell_formula_units_Z   1
loop_
 _symmetry_equiv_pos_site_id
 _symmetry_equiv_pos_as_xyz
  1  'x, y, z'
loop_
 _atom_site_type_symbol
 _atom_site_label
 _atom_site_symmetry_multiplicity
 _atom_site_fract_x
 _atom_site_fract_y
 _atom_site_fract_z
 _atom_site_occupancy
  Li  Li0  1  0.00000000  0.00000000  0.00000000  1
  Mo  Mo1  1  0.50000003  0.50000001  0.49999999  1
  Mo  Mo2  1  0.84788804  0.67360702  0.24033098  1
  Mo  Mo3  1  0.23817403  0.84788802  0.24033099  1
  W  W4  1  0.32639303  0.76182602  0.75966899  1
  W  W5  1  0.76182603  0.15211200  0.75966900  1
  O  O6  1  0.15211201  0.32639301  0.75966900  1
  N  N7  1  0.67360703  0.23817401  0.24033099  1
