# generated using pymatgen
data_Ba8Bi3
_symmetry_space_group_name_H-M   'P 1'
_cell_length_a   8.42287636
_cell_length_b   8.42287636
_cell_length_c   10.35621357
_cell_angle_alpha   113.99507141
_cell_angle_beta   113.99507141
_cell_angle_gamma   90.00000000
_symmetry_Int_Tables_number   1
_chemical_formula_structural   Ba8Bi3
_chemical_formula_sum   'Ba8 Bi3'
_cell_volume   601.06131886
_cell_formula_units_Z   1
loop_
 _symmetry_equiv_pos_site_id
 _symmetry_equiv_pos_as_xyz
  1  'x, y, z'
loop_
 _atom_site_type_symbol
 _atom_site_label
 _atom_site_symmetry_multiplicity
 _atom_site_fract_x
 _atom_site_fract_y
 _atom_site_fract_z
 _atom_site_occupancy
  Ba  Ba0  1  0.88440990  0.84513894  0.23253190  1
  Ba  Ba1  1  0.61260696  0.11558999  0.76746794  1
  Ba  Ba2  1  0.34812196  0.38739297  0.23253195  1
  Ba  Ba3  1  0.15486096  0.65187795  0.76746793  1
  Ba  Ba4  1  0.15486098  0.11558999  0.76746796  1
  Ba  Ba5  1  0.88440992  0.38739297  0.23253193  1
  Ba  Ba6  1  0.61260693  0.65187795  0.76746791  1
  Ba  Ba7  1  0.34812193  0.84513894  0.23253192  1
  Bi  Bi8  1  0.49999994  0.49999996  -0.00000005  1
  Bi  Bi9  1  0.24999994  0.74999994  0.49999993  1
  Bi  Bi10  1  0.00000000  0.00000000  0.00000000  1
