# generated using pymatgen
data_TiCrP2
_symmetry_space_group_name_H-M   'P 1'
_cell_length_a   3.34778309
_cell_length_b   5.41713715
_cell_length_c   12.15044880
_cell_angle_alpha   90.00000000
_cell_angle_beta   90.00000000
_cell_angle_gamma   90.00000000
_symmetry_Int_Tables_number   1
_chemical_formula_structural   TiCrP2
_chemical_formula_sum   'Ti4 Cr4 P8'
_cell_volume   220.35325069
_cell_formula_units_Z   4
loop_
 _symmetry_equiv_pos_site_id
 _symmetry_equiv_pos_as_xyz
  1  'x, y, z'
loop_
 _atom_site_type_symbol
 _atom_site_label
 _atom_site_symmetry_multiplicity
 _atom_site_fract_x
 _atom_site_fract_y
 _atom_site_fract_z
 _atom_site_occupancy
  Ti  Ti0  1  0.24999999  0.01529600  0.82954701  1
  Ti  Ti1  1  0.24999999  0.51529599  0.67045301  1
  Ti  Ti2  1  0.74999998  0.98470397  0.17045300  1
  Ti  Ti3  1  0.74999998  0.48470399  0.32954701  1
  Cr  Cr4  1  0.24999999  0.02172800  0.58521001  1
  Cr  Cr5  1  0.24999999  0.52172799  0.91479002  1
  Cr  Cr6  1  0.74999998  0.97827197  0.41479001  1
  Cr  Cr7  1  0.74999998  0.47827199  0.08521000  1
  P  P8  1  0.24999999  0.13841000  0.30953201  1
  P  P9  1  0.24999999  0.63840998  0.19046800  1
  P  P10  1  0.74999998  0.86158998  0.69046801  1
  P  P11  1  0.74999998  0.36158999  0.80953201  1
  P  P12  1  0.24999999  0.18998599  0.03562600  1
  P  P13  1  0.24999999  0.68998598  0.46437401  1
  P  P14  1  0.74999998  0.81001398  0.96437402  1
  P  P15  1  0.74999998  0.31001399  0.53562601  1
