# generated using pymatgen
data_Li3Fe3(SbO4)2
_symmetry_space_group_name_H-M   'P 1'
_cell_length_a   6.01455832
_cell_length_b   6.01455832
_cell_length_c   6.01455832
_cell_angle_alpha   60.95335007
_cell_angle_beta   60.95335007
_cell_angle_gamma   60.95335007
_symmetry_Int_Tables_number   1
_chemical_formula_structural   Li3Fe3(SbO4)2
_chemical_formula_sum   'Li3 Fe3 Sb2 O8'
_cell_volume   157.15436783
_cell_formula_units_Z   1
loop_
 _symmetry_equiv_pos_site_id
 _symmetry_equiv_pos_as_xyz
  1  'x, y, z'
loop_
 _atom_site_type_symbol
 _atom_site_label
 _atom_site_symmetry_multiplicity
 _atom_site_fract_x
 _atom_site_fract_y
 _atom_site_fract_z
 _atom_site_occupancy
  Li  Li0  1  0.50000002  0.49999999  0.49999995  1
  Li  Li1  1  0.00000000  0.00000000  0.49999999  1
  Li  Li2  1  0.00000002  0.49999999  -0.00000003  1
  Fe  Fe3  1  0.50000000  0.00000000  -0.00000002  1
  Fe  Fe4  1  0.50000002  0.49999999  -0.00000004  1
  Fe  Fe5  1  0.50000000  0.00000000  0.49999997  1
  Sb  Sb6  1  0.00000002  0.49999999  0.49999997  1
  Sb  Sb7  1  0.00000000  0.00000000  0.00000000  1
  O  O8  1  0.73905203  0.73905198  0.73905192  1
  O  O9  1  0.23074301  0.23074299  0.77334697  1
  O  O10  1  0.23074303  0.77334698  0.23074295  1
  O  O11  1  0.26094801  0.26094799  0.26094797  1
  O  O12  1  0.77334700  0.23074299  0.23074296  1
  O  O13  1  0.76925703  0.76925698  0.22665293  1
  O  O14  1  0.76925700  0.22665299  0.76925695  1
  O  O15  1  0.22665303  0.76925698  0.76925694  1
