# generated using pymatgen
data_YVS4
_symmetry_space_group_name_H-M   'P 1'
_cell_length_a   3.97997689
_cell_length_b   3.97997689
_cell_length_c   6.78733110
_cell_angle_alpha   90.00000000
_cell_angle_beta   90.00000000
_cell_angle_gamma   90.00000000
_symmetry_Int_Tables_number   1
_chemical_formula_structural   YVS4
_chemical_formula_sum   'Y1 V1 S4'
_cell_volume   107.51279119
_cell_formula_units_Z   1
loop_
 _symmetry_equiv_pos_site_id
 _symmetry_equiv_pos_as_xyz
  1  'x, y, z'
loop_
 _atom_site_type_symbol
 _atom_site_label
 _atom_site_symmetry_multiplicity
 _atom_site_fract_x
 _atom_site_fract_y
 _atom_site_fract_z
 _atom_site_occupancy
  Y  Y0  1  0.50000001  0.00000000  0.79989499  1
  V  V1  1  0.00000000  0.50000001  0.20010500  1
  S  S2  1  0.00000000  0.50000001  0.63797899  1
  S  S3  1  0.50000001  0.00000000  0.36202099  1
  S  S4  1  0.00000000  0.00000000  0.00000000  1
  S  S5  1  0.50000001  0.50000001  0.00000000  1
