# generated using pymatgen
data_Ge5Pt11
_symmetry_space_group_name_H-M   'P 1'
_cell_length_a   4.92343998
_cell_length_b   4.92456198
_cell_length_c   9.85498047
_cell_angle_alpha   90.00000000
_cell_angle_beta   90.00000000
_cell_angle_gamma   90.00000000
_symmetry_Int_Tables_number   1
_chemical_formula_structural   Ge5Pt11
_chemical_formula_sum   'Ge5 Pt11'
_cell_volume   238.94174079
_cell_formula_units_Z   1
loop_
 _symmetry_equiv_pos_site_id
 _symmetry_equiv_pos_as_xyz
  1  'x, y, z'
loop_
 _atom_site_type_symbol
 _atom_site_label
 _atom_site_symmetry_multiplicity
 _atom_site_fract_x
 _atom_site_fract_y
 _atom_site_fract_z
 _atom_site_occupancy
  Ge  Ge0  1  0.50000000  0.50000000  0.24999999  1
  Ge  Ge1  1  0.00000000  0.00000000  0.99998695  1
  Ge  Ge2  1  0.00000000  0.00000000  0.50001298  1
  Ge  Ge3  1  0.50000000  0.50000000  0.74999996  1
  Ge  Ge4  1  0.50000000  0.00000000  0.62462197  1
  Pt  Pt5  1  0.50000000  0.00000000  0.12555899  1
  Pt  Pt6  1  0.75028000  0.50000000  0.99948595  1
  Pt  Pt7  1  0.75028000  0.50000000  0.50051398  1
  Pt  Pt8  1  0.00000000  0.24983700  0.74999996  1
  Pt  Pt9  1  0.00000000  0.25074900  0.24999999  1
  Pt  Pt10  1  0.50000000  0.00000000  0.87537796  1
  Pt  Pt11  1  0.50000000  0.00000000  0.37444098  1
  Pt  Pt12  1  0.24972000  0.50000000  0.99948595  1
  Pt  Pt13  1  0.24972000  0.50000000  0.50051398  1
  Pt  Pt14  1  0.00000000  0.75016300  0.74999996  1
  Pt  Pt15  1  0.00000000  0.74925100  0.24999999  1
