# generated using pymatgen
data_TiNi3
_symmetry_space_group_name_H-M   'P 1'
_cell_length_a   3.58875608
_cell_length_b   3.58875608
_cell_length_c   4.37357235
_cell_angle_alpha   114.22226715
_cell_angle_beta   114.22226715
_cell_angle_gamma   90.00000000
_symmetry_Int_Tables_number   1
_chemical_formula_structural   TiNi3
_chemical_formula_sum   'Ti1 Ni3'
_cell_volume   45.87687780
_cell_formula_units_Z   1
loop_
 _symmetry_equiv_pos_site_id
 _symmetry_equiv_pos_as_xyz
  1  'x, y, z'
loop_
 _atom_site_type_symbol
 _atom_site_label
 _atom_site_symmetry_multiplicity
 _atom_site_fract_x
 _atom_site_fract_y
 _atom_site_fract_z
 _atom_site_occupancy
  Ti  Ti0  1  0.00000000  0.00000000  0.00000000  1
  Ni  Ni1  1  0.75000002  0.25000000  0.50000004  1
  Ni  Ni2  1  0.25000005  0.75000001  0.50000005  1
  Ni  Ni3  1  0.50000003  0.50000001  0.00000006  1
