# generated using pymatgen
data_Mn(NiSe2)2
_symmetry_space_group_name_H-M   'P 1'
_cell_length_a   3.50120211
_cell_length_b   6.34834003
_cell_length_c   6.51680231
_cell_angle_alpha   119.01007843
_cell_angle_beta   105.58268738
_cell_angle_gamma   90.00000000
_symmetry_Int_Tables_number   1
_chemical_formula_structural   Mn(NiSe2)2
_chemical_formula_sum   'Mn1 Ni2 Se4'
_cell_volume   120.55036272
_cell_formula_units_Z   1
loop_
 _symmetry_equiv_pos_site_id
 _symmetry_equiv_pos_as_xyz
  1  'x, y, z'
loop_
 _atom_site_type_symbol
 _atom_site_label
 _atom_site_symmetry_multiplicity
 _atom_site_fract_x
 _atom_site_fract_y
 _atom_site_fract_z
 _atom_site_occupancy
  Mn  Mn0  1  0.00000000  0.00000000  0.00000000  1
  Ni  Ni1  1  0.25721097  0.27403701  0.51442198  1
  Ni  Ni2  1  0.74278892  0.72596302  0.48557796  1
  Se  Se3  1  0.13222097  0.45724801  0.26444199  1
  Se  Se4  1  0.86777893  0.54275201  0.73555795  1
  Se  Se5  1  0.36403598  0.03447600  0.72807197  1
  Se  Se6  1  0.63596391  0.96552402  0.27192797  1
