# generated using pymatgen
data_Lu2GaCo3
_symmetry_space_group_name_H-M   'P 1'
_cell_length_a   5.19444466
_cell_length_b   5.19444513
_cell_length_c   8.40955830
_cell_angle_alpha   90.00000000
_cell_angle_beta   90.00000000
_cell_angle_gamma   120.00000000
_symmetry_Int_Tables_number   1
_chemical_formula_structural   Lu2GaCo3
_chemical_formula_sum   'Lu4 Ga2 Co6'
_cell_volume   196.50884545
_cell_formula_units_Z   2
loop_
 _symmetry_equiv_pos_site_id
 _symmetry_equiv_pos_as_xyz
  1  'x, y, z'
loop_
 _atom_site_type_symbol
 _atom_site_label
 _atom_site_symmetry_multiplicity
 _atom_site_fract_x
 _atom_site_fract_y
 _atom_site_fract_z
 _atom_site_occupancy
  Lu  Lu0  1  0.66666667  0.33333333  0.56313198  1
  Lu  Lu1  1  0.33333337  0.66666667  0.43686798  1
  Lu  Lu2  1  0.33333337  0.66666667  0.06313200  1
  Lu  Lu3  1  0.66666667  0.33333333  0.93686797  1
  Ga  Ga4  1  0.00000000  0.00000000  0.49999998  1
  Ga  Ga5  1  0.00000000  0.00000000  0.00000000  1
  Co  Co6  1  0.16474602  0.32949200  0.74999997  1
  Co  Co7  1  0.16474605  0.83525400  0.74999997  1
  Co  Co8  1  0.67050804  0.83525400  0.74999997  1
  Co  Co9  1  0.83525402  0.67050800  0.24999999  1
  Co  Co10  1  0.83525398  0.16474600  0.24999999  1
  Co  Co11  1  0.32949200  0.16474600  0.24999999  1
