# generated using pymatgen
data_Ho2NiAs2
_symmetry_space_group_name_H-M   'P 1'
_cell_length_a   4.13067389
_cell_length_b   4.13067436
_cell_length_c   14.22549915
_cell_angle_alpha   90.00000000
_cell_angle_beta   90.00000000
_cell_angle_gamma   120.00000000
_symmetry_Int_Tables_number   1
_chemical_formula_structural   Ho2NiAs2
_chemical_formula_sum   'Ho4 Ni2 As4'
_cell_volume   210.20353435
_cell_formula_units_Z   2
loop_
 _symmetry_equiv_pos_site_id
 _symmetry_equiv_pos_as_xyz
  1  'x, y, z'
loop_
 _atom_site_type_symbol
 _atom_site_label
 _atom_site_symmetry_multiplicity
 _atom_site_fract_x
 _atom_site_fract_y
 _atom_site_fract_z
 _atom_site_occupancy
  Ho  Ho0  1  0.33333338  0.66666668  0.38190400  1
  Ho  Ho1  1  0.66666670  0.33333334  0.88190399  1
  Ho  Ho2  1  0.33333338  0.66666668  0.64758199  1
  Ho  Ho3  1  0.66666670  0.33333334  0.14758200  1
  Ni  Ni4  1  0.00000000  0.00000000  0.00222900  1
  Ni  Ni5  1  0.00000000  0.00000000  0.50222899  1
  As  As6  1  0.33333338  0.66666668  0.01717300  1
  As  As7  1  0.66666670  0.33333334  0.51717299  1
  As  As8  1  0.00000000  0.00000000  0.26678100  1
  As  As9  1  0.00000000  0.00000000  0.76678099  1
