# generated using pymatgen
data_CaSO4
_symmetry_space_group_name_H-M   'P 1'
_cell_length_a   6.48746014
_cell_length_b   7.19048214
_cell_length_c   7.19048119
_cell_angle_alpha   120.00000763
_cell_angle_beta   90.00000000
_cell_angle_gamma   90.00000000
_symmetry_Int_Tables_number   1
_chemical_formula_structural   CaSO4
_chemical_formula_sum   'Ca3 S3 O12'
_cell_volume   290.48336490
_cell_formula_units_Z   3
loop_
 _symmetry_equiv_pos_site_id
 _symmetry_equiv_pos_as_xyz
  1  'x, y, z'
loop_
 _atom_site_type_symbol
 _atom_site_label
 _atom_site_symmetry_multiplicity
 _atom_site_fract_x
 _atom_site_fract_y
 _atom_site_fract_z
 _atom_site_occupancy
  Ca  Ca0  1  0.33333333  0.00000000  0.49999999  1
  Ca  Ca1  1  0.66666665  0.50000001  0.00000003  1
  Ca  Ca2  1  0.99999998  0.50000001  0.50000003  1
  S  S3  1  0.83333298  0.00000000  0.49999999  1
  S  S4  1  0.16666700  0.50000001  0.00000003  1
  S  S5  1  0.49999999  0.50000001  0.50000003  1
  O  O6  1  0.01999900  0.55380201  0.86283002  1
  O  O7  1  0.35333199  0.30902800  0.44619801  1
  O  O8  1  0.68666499  0.13717000  0.69097200  1
  O  O9  1  0.68666499  0.86283001  0.30902805  1
  O  O10  1  0.64666799  0.44619801  0.30902803  1
  O  O11  1  0.01999900  0.44619801  0.13717003  1
  O  O12  1  0.64666799  0.55380201  0.69097203  1
  O  O13  1  0.31333499  0.69097201  0.13717004  1
  O  O14  1  0.98000098  0.86283001  0.55380205  1
  O  O15  1  0.98000098  0.13717000  0.44619800  1
  O  O16  1  0.31333499  0.30902800  0.86283001  1
  O  O17  1  0.35333199  0.69097201  0.55380204  1
