# generated using pymatgen
data_MnCu(Ge4Pt)2
_symmetry_space_group_name_H-M   'P 1'
_cell_length_a   3.68315005
_cell_length_b   5.76509285
_cell_length_c   6.92043161
_cell_angle_alpha   89.68515778
_cell_angle_beta   90.00000000
_cell_angle_gamma   90.00000000
_symmetry_Int_Tables_number   1
_chemical_formula_structural   MnCu(Ge4Pt)2
_chemical_formula_sum   'Mn1 Cu1 Ge8 Pt2'
_cell_volume   146.94416430
_cell_formula_units_Z   1
loop_
 _symmetry_equiv_pos_site_id
 _symmetry_equiv_pos_as_xyz
  1  'x, y, z'
loop_
 _atom_site_type_symbol
 _atom_site_label
 _atom_site_symmetry_multiplicity
 _atom_site_fract_x
 _atom_site_fract_y
 _atom_site_fract_z
 _atom_site_occupancy
  Mn  Mn0  1  -0.00000000  0.53548301  0.68718300  1
  Ge  Ge1  1  -0.00000000  0.02195600  0.81969198  1
  Cu  Cu2  1  0.49999999  0.47835001  0.30923600  1
  Ge  Ge3  1  0.49999999  0.97388803  0.18384602  1
  Ge  Ge4  1  -0.00000000  0.65807602  0.06122301  1
  Ge  Ge5  1  0.00000000  0.15281700  0.43245100  1
  Pt  Pt6  1  0.49999999  0.34301401  0.94594399  1
  Ge  Ge7  1  0.49999999  0.83351202  0.56007301  1
  Pt  Pt8  1  0.00000000  0.26719801  0.12213700  1
  Ge  Ge9  1  -0.00000000  0.76643502  0.37581201  1
  Ge  Ge10  1  0.49999999  0.73261902  0.88026100  1
  Ge  Ge11  1  0.49999999  0.23665001  0.62214199  1
