# generated using pymatgen
data_Mg5Be7(GeRh2)2
_symmetry_space_group_name_H-M   'P 1'
_cell_length_a   5.64561987
_cell_length_b   5.64561987
_cell_length_c   10.41326332
_cell_angle_alpha   90.00000000
_cell_angle_beta   90.00000000
_cell_angle_gamma   120.00000000
_symmetry_Int_Tables_number   1
_chemical_formula_structural   Mg5Be7(GeRh2)2
_chemical_formula_sum   'Mg5 Be7 Ge2 Rh4'
_cell_volume   287.43572699
_cell_formula_units_Z   1
loop_
 _symmetry_equiv_pos_site_id
 _symmetry_equiv_pos_as_xyz
  1  'x, y, z'
loop_
 _atom_site_type_symbol
 _atom_site_label
 _atom_site_symmetry_multiplicity
 _atom_site_fract_x
 _atom_site_fract_y
 _atom_site_fract_z
 _atom_site_occupancy
  Mg  Mg0  1  0.00000000  0.00000000  0.00000000  1
  Mg  Mg1  1  0.33333332  0.66666664  0.49999998  1
  Mg  Mg2  1  0.00000000  0.00000000  0.34340999  1
  Mg  Mg3  1  0.00000000  0.00000000  0.65658998  1
  Mg  Mg4  1  0.66666667  0.33333332  0.49999998  1
  Be  Be5  1  0.33333332  0.66666664  0.85375397  1
  Be  Be6  1  0.66666667  0.33333332  0.14624600  1
  Be  Be7  1  0.33333332  0.66666664  0.14624600  1
  Be  Be8  1  0.66666667  0.33333332  0.85375397  1
  Be  Be9  1  1.00000001  0.48117198  0.72519698  1
  Be  Be10  1  0.51882799  0.51882798  0.27480299  1
  Ge  Ge11  1  0.51882799  0.51882798  0.72519698  1
  Rh  Rh12  1  -0.00000002  0.48146698  -0.00000000  1
  Be  Be13  1  0.48117201  0.00000000  0.27480299  1
  Ge  Ge14  1  1.00000001  0.48117198  0.27480299  1
  Rh  Rh15  1  0.48146701  0.00000000  0.00000000  1
  Rh  Rh16  1  0.51853299  0.51853298  -0.00000000  1
  Rh  Rh17  1  0.48117201  0.00000000  0.72519698  1
