# generated using pymatgen
data_PrGa2Ni
_symmetry_space_group_name_H-M   'P 1'
_cell_length_a   4.07745409
_cell_length_b   5.82519436
_cell_length_c   6.90388298
_cell_angle_alpha   90.00000000
_cell_angle_beta   90.00000000
_cell_angle_gamma   110.48635864
_symmetry_Int_Tables_number   1
_chemical_formula_structural   PrGa2Ni
_chemical_formula_sum   'Pr2 Ga4 Ni2'
_cell_volume   153.60989523
_cell_formula_units_Z   2
loop_
 _symmetry_equiv_pos_site_id
 _symmetry_equiv_pos_as_xyz
  1  'x, y, z'
loop_
 _atom_site_type_symbol
 _atom_site_label
 _atom_site_symmetry_multiplicity
 _atom_site_fract_x
 _atom_site_fract_y
 _atom_site_fract_z
 _atom_site_occupancy
  Pr  Pr0  1  0.44601097  0.89202198  0.75000000  1
  Pr  Pr1  1  0.55398899  0.10797800  0.25000000  1
  Ga  Ga2  1  0.16923699  0.33847399  0.94329200  1
  Ga  Ga3  1  0.83076296  0.66152599  0.05670800  1
  Ga  Ga4  1  0.83076296  0.66152599  0.44329200  1
  Ga  Ga5  1  0.16923699  0.33847399  0.55670800  1
  Ni  Ni6  1  0.71945497  0.43890999  0.75000000  1
  Ni  Ni7  1  0.28054498  0.56108999  0.25000000  1
