# generated using pymatgen
data_LiCaO2
_symmetry_space_group_name_H-M   'P 1'
_cell_length_a   5.36149693
_cell_length_b   5.71879816
_cell_length_c   6.76434278
_cell_angle_alpha   90.00000000
_cell_angle_beta   90.00000000
_cell_angle_gamma   90.00000000
_symmetry_Int_Tables_number   1
_chemical_formula_structural   LiCaO2
_chemical_formula_sum   'Li4 Ca4 O8'
_cell_volume   207.40367029
_cell_formula_units_Z   4
loop_
 _symmetry_equiv_pos_site_id
 _symmetry_equiv_pos_as_xyz
  1  'x, y, z'
loop_
 _atom_site_type_symbol
 _atom_site_label
 _atom_site_symmetry_multiplicity
 _atom_site_fract_x
 _atom_site_fract_y
 _atom_site_fract_z
 _atom_site_occupancy
  Ca  Ca0  1  0.98975301  0.83421098  0.00000000  1
  Li  Li1  1  0.48975301  0.16578900  0.50000002  1
  Ca  Ca2  1  0.49830801  0.18254099  -0.00000000  1
  Li  Li3  1  0.99411301  0.33247899  0.25353601  1
  Li  Li4  1  0.49411301  0.66752098  0.24646401  1
  Li  Li5  1  0.99830801  0.81745898  0.50000002  1
  Ca  Ca6  1  0.49411301  0.66752098  0.75353602  1
  Ca  Ca7  1  0.99411301  0.33247899  0.74646402  1
  O  O8  1  0.85084301  0.21636599  0.00000000  1
  O  O9  1  0.43526301  0.85534398  0.00000000  1
  O  O10  1  0.86114101  0.65355098  0.28439101  1
  O  O11  1  0.36114101  0.34644899  0.21560901  1
  O  O12  1  0.93526301  0.14465600  0.50000002  1
  O  O13  1  0.35084300  0.78363398  0.50000002  1
  O  O14  1  0.36114101  0.34644899  0.78439102  1
  O  O15  1  0.86114101  0.65355098  0.71560902  1
