# generated using pymatgen
data_LaGe3Ru
_symmetry_space_group_name_H-M   'P 1'
_cell_length_a   4.27009201
_cell_length_b   4.27009201
_cell_length_c   5.77104616
_cell_angle_alpha   111.71304321
_cell_angle_beta   111.71304321
_cell_angle_gamma   90.00000000
_symmetry_Int_Tables_number   1
_chemical_formula_structural   LaGe3Ru
_chemical_formula_sum   'La1 Ge3 Ru1'
_cell_volume   89.67587151
_cell_formula_units_Z   1
loop_
 _symmetry_equiv_pos_site_id
 _symmetry_equiv_pos_as_xyz
  1  'x, y, z'
loop_
 _atom_site_type_symbol
 _atom_site_label
 _atom_site_symmetry_multiplicity
 _atom_site_fract_x
 _atom_site_fract_y
 _atom_site_fract_z
 _atom_site_occupancy
  La  La0  1  0.00000000  0.00000000  0.00000000  1
  Ge  Ge1  1  0.63005703  0.63005701  0.26011404  1
  Ge  Ge2  1  0.36994302  0.36994301  0.73988602  1
  Ru  Ru3  1  0.25000003  0.75000001  0.50000003  1
  Ge  Ge4  1  0.75000002  0.25000000  0.50000003  1
