# generated using pymatgen
data_Zr2SnRh3
_symmetry_space_group_name_H-M   'P 1'
_cell_length_a   2.95411611
_cell_length_b   4.64241695
_cell_length_c   7.54913902
_cell_angle_alpha   90.00000000
_cell_angle_beta   101.28323364
_cell_angle_gamma   90.00000000
_symmetry_Int_Tables_number   1
_chemical_formula_structural   Zr2SnRh3
_chemical_formula_sum   'Zr2 Sn1 Rh3'
_cell_volume   101.52964867
_cell_formula_units_Z   1
loop_
 _symmetry_equiv_pos_site_id
 _symmetry_equiv_pos_as_xyz
  1  'x, y, z'
loop_
 _atom_site_type_symbol
 _atom_site_label
 _atom_site_symmetry_multiplicity
 _atom_site_fract_x
 _atom_site_fract_y
 _atom_site_fract_z
 _atom_site_occupancy
  Zr  Zr0  1  0.43838099  0.25000000  0.87676201  1
  Zr  Zr1  1  0.56161899  0.75000001  0.12323801  1
  Sn  Sn2  1  0.11727100  0.25000000  0.23454200  1
  Rh  Rh3  1  0.77238898  0.25000000  0.54477801  1
  Rh  Rh4  1  0.22761099  0.75000001  0.45522200  1
  Rh  Rh5  1  0.88272898  0.75000001  0.76545802  1
