# generated using pymatgen
data_TaCo4Mo
_symmetry_space_group_name_H-M   'P 1'
_cell_length_a   4.72112417
_cell_length_b   4.72112370
_cell_length_c   7.70091105
_cell_angle_alpha   90.00000000
_cell_angle_beta   90.00000000
_cell_angle_gamma   120.00000000
_symmetry_Int_Tables_number   1
_chemical_formula_structural   TaCo4Mo
_chemical_formula_sum   'Ta2 Co8 Mo2'
_cell_volume   148.64953017
_cell_formula_units_Z   2
loop_
 _symmetry_equiv_pos_site_id
 _symmetry_equiv_pos_as_xyz
  1  'x, y, z'
loop_
 _atom_site_type_symbol
 _atom_site_label
 _atom_site_symmetry_multiplicity
 _atom_site_fract_x
 _atom_site_fract_y
 _atom_site_fract_z
 _atom_site_occupancy
  Ta  Ta0  1  0.33333329  0.66666666  0.07563900  1
  Ta  Ta1  1  0.66666663  0.33333333  0.92436099  1
  Co  Co2  1  0.00000000  0.00000000  0.50000000  1
  Co  Co3  1  0.00000000  0.00000000  0.00000000  1
  Co  Co4  1  0.16904998  0.33810000  0.74949700  1
  Co  Co5  1  0.16904996  0.83095099  0.74949700  1
  Co  Co6  1  0.66190094  0.83095099  0.74949700  1
  Co  Co7  1  0.83094994  0.66189999  0.25050300  1
  Co  Co8  1  0.83094996  0.16904900  0.25050300  1
  Co  Co9  1  0.33809898  0.16904900  0.25050300  1
  Mo  Mo10  1  0.66666663  0.33333333  0.55580300  1
  Mo  Mo11  1  0.33333329  0.66666666  0.44419700  1
