# generated using pymatgen
data_Cs3Cu2Sb3Ru4
_symmetry_space_group_name_H-M   'P 1'
_cell_length_a   6.35884619
_cell_length_b   6.35884619
_cell_length_c   8.73039627
_cell_angle_alpha   111.35704041
_cell_angle_beta   111.35704041
_cell_angle_gamma   90.00000000
_symmetry_Int_Tables_number   1
_chemical_formula_structural   Cs3Cu2Sb3Ru4
_chemical_formula_sum   'Cs3 Cu2 Sb3 Ru4'
_cell_volume   302.59362684
_cell_formula_units_Z   1
loop_
 _symmetry_equiv_pos_site_id
 _symmetry_equiv_pos_as_xyz
  1  'x, y, z'
loop_
 _atom_site_type_symbol
 _atom_site_label
 _atom_site_symmetry_multiplicity
 _atom_site_fract_x
 _atom_site_fract_y
 _atom_site_fract_z
 _atom_site_occupancy
  Cs  Cs0  1  0.12666202  0.62666199  0.25332402  1
  Cs  Cs1  1  0.37333802  0.87333799  0.74667602  1
  Cs  Cs2  1  0.00000000  0.00000000  0.00000000  1
  Cu  Cu3  1  0.77816902  0.98400699  0.55633704  1
  Sb  Sb4  1  0.01599301  0.22183100  0.44366200  1
  Sb  Sb5  1  0.69777400  0.39237700  0.78475401  1
  Ru  Ru6  1  0.60762300  0.30222600  0.21524702  1
  Ru  Ru7  1  0.60762302  0.91301999  0.21524605  1
  Cu  Cu8  1  0.08697901  0.39237600  0.78475299  1
  Sb  Sb9  1  0.77816901  0.57233099  0.55633803  1
  Ru  Ru10  1  0.42767000  0.22183200  0.44366301  1
  Ru  Ru11  1  0.50000001  0.49999999  0.00000003  1
