# generated using pymatgen
data_Tl4SiS4
_symmetry_space_group_name_H-M   'P 1'
_cell_length_a   7.80755758
_cell_length_b   8.75744247
_cell_length_c   8.75744247
_cell_angle_alpha   84.38294983
_cell_angle_beta   72.29888916
_cell_angle_gamma   72.29888916
_symmetry_Int_Tables_number   1
_chemical_formula_structural   Tl4SiS4
_chemical_formula_sum   'Tl8 Si2 S8'
_cell_volume   543.41777645
_cell_formula_units_Z   2
loop_
 _symmetry_equiv_pos_site_id
 _symmetry_equiv_pos_as_xyz
  1  'x, y, z'
loop_
 _atom_site_type_symbol
 _atom_site_label
 _atom_site_symmetry_multiplicity
 _atom_site_fract_x
 _atom_site_fract_y
 _atom_site_fract_z
 _atom_site_occupancy
  Tl  Tl0  1  0.92301899  0.21527100  0.19170699  1
  Tl  Tl1  1  0.42301899  0.19170700  0.21527100  1
  Tl  Tl2  1  0.96298699  0.03513600  0.57678299  1
  Tl  Tl3  1  0.46298698  0.57678301  0.03513602  1
  Tl  Tl4  1  0.92186197  0.73701901  0.01026802  1
  Tl  Tl5  1  0.42186200  0.01026800  0.73701900  1
  Tl  Tl6  1  0.99278397  0.63153501  0.41890201  1
  Tl  Tl7  1  0.49278398  0.41890201  0.63153502  1
  Si  Si8  1  0.97205098  0.38253001  0.79774201  1
  Si  Si9  1  0.47205097  0.79774201  0.38253003  1
  S  S10  1  0.30024796  0.90523201  0.22897104  1
  S  S11  1  0.29558397  0.76597401  0.61867604  1
  S  S12  1  0.79558397  0.61867601  0.76597402  1
  S  S13  1  0.15666299  0.28851600  0.56942902  1
  S  S14  1  0.64360196  0.94453601  0.39337403  1
  S  S15  1  0.14360198  0.39337401  0.94453602  1
  S  S16  1  0.65666297  0.56942901  0.28851602  1
  S  S17  1  0.80024799  0.22897100  0.90523200  1
