# generated using pymatgen
data_Ce2Al7Ga10
_symmetry_space_group_name_H-M   'P 1'
_cell_length_a   6.87275505
_cell_length_b   6.87275505
_cell_length_c   6.87275553
_cell_angle_alpha   82.68535614
_cell_angle_beta   82.68535614
_cell_angle_gamma   82.68536377
_symmetry_Int_Tables_number   1
_chemical_formula_structural   Ce2Al7Ga10
_chemical_formula_sum   'Ce2 Al7 Ga10'
_cell_volume   317.32735137
_cell_formula_units_Z   1
loop_
 _symmetry_equiv_pos_site_id
 _symmetry_equiv_pos_as_xyz
  1  'x, y, z'
loop_
 _atom_site_type_symbol
 _atom_site_label
 _atom_site_symmetry_multiplicity
 _atom_site_fract_x
 _atom_site_fract_y
 _atom_site_fract_z
 _atom_site_occupancy
  Ce  Ce0  1  0.33582500  0.33582501  0.33582503  1
  Ce  Ce1  1  0.66417500  0.66417502  0.66417506  1
  Al  Al2  1  0.65024300  0.65024302  0.16100006  1
  Al  Al3  1  0.65024301  0.16100000  0.65024303  1
  Al  Al4  1  0.90144801  0.90144802  0.90144808  1
  Ga  Ga5  1  0.09855200  0.09855200  0.09855201  1
  Ga  Ga6  1  0.00000000  0.00000000  0.50000000  1
  Ga  Ga7  1  0.50000001  0.00000000  0.00000002  1
  Ga  Ga8  1  -0.00000001  0.50000001  0.00000002  1
  Ga  Ga9  1  0.29262499  0.70737502  0.00000004  1
  Ga  Ga10  1  -0.00000001  0.29262501  0.70737501  1
  Al  Al11  1  0.70737502  0.00000000  0.29262503  1
  Ga  Ga12  1  0.70737501  0.29262501  0.00000004  1
  Ga  Ga13  1  -0.00000001  0.70737502  0.29262503  1
  Ga  Ga14  1  0.29262501  0.00000000  0.70737501  1
  Ga  Ga15  1  0.34975699  0.83900002  0.34975705  1
  Al  Al16  1  0.34975700  0.34975701  0.83900003  1
  Al  Al17  1  0.83900001  0.34975701  0.34975705  1
  Al  Al18  1  0.16099999  0.65024302  0.65024304  1
