# generated using pymatgen
data_NaAg(SO4)2
_symmetry_space_group_name_H-M   'P 1'
_cell_length_a   4.80046701
_cell_length_b   4.80046701
_cell_length_c   7.45669985
_cell_angle_alpha   87.84630585
_cell_angle_beta   87.84630585
_cell_angle_gamma   65.45927429
_symmetry_Int_Tables_number   1
_chemical_formula_structural   NaAg(SO4)2
_chemical_formula_sum   'Na1 Ag1 S2 O8'
_cell_volume   156.15717766
_cell_formula_units_Z   1
loop_
 _symmetry_equiv_pos_site_id
 _symmetry_equiv_pos_as_xyz
  1  'x, y, z'
loop_
 _atom_site_type_symbol
 _atom_site_label
 _atom_site_symmetry_multiplicity
 _atom_site_fract_x
 _atom_site_fract_y
 _atom_site_fract_z
 _atom_site_occupancy
  Na  Na0  1  0.00000000  0.00000000  0.00000000  1
  Ag  Ag1  1  0.00000000  0.00000000  0.50000000  1
  S  S2  1  0.63628103  0.63628099  0.21009000  1
  S  S3  1  0.36371902  0.36371900  0.78991000  1
  O  O4  1  0.70494304  0.70494299  0.38659700  1
  O  O5  1  0.29505701  0.29505700  0.61340300  1
  O  O6  1  0.76138502  0.29238800  0.19150300  1
  O  O7  1  0.23861503  0.70761199  0.80849701  1
  O  O8  1  0.70761202  0.23861500  0.80849701  1
  O  O9  1  0.29238803  0.76138499  0.19150300  1
  O  O10  1  0.75995804  0.75995799  0.05588500  1
  O  O11  1  0.24004201  0.24004200  0.94411501  1
