# generated using pymatgen
data_Er(BIr)2
_symmetry_space_group_name_H-M   'P 1'
_cell_length_a   5.47611046
_cell_length_b   5.47611046
_cell_length_c   6.20596600
_cell_angle_alpha   104.09877777
_cell_angle_beta   104.09877777
_cell_angle_gamma   116.60766602
_symmetry_Int_Tables_number   1
_chemical_formula_structural   Er(BIr)2
_chemical_formula_sum   'Er2 B4 Ir4'
_cell_volume   147.43032692
_cell_formula_units_Z   2
loop_
 _symmetry_equiv_pos_site_id
 _symmetry_equiv_pos_as_xyz
  1  'x, y, z'
loop_
 _atom_site_type_symbol
 _atom_site_label
 _atom_site_symmetry_multiplicity
 _atom_site_fract_x
 _atom_site_fract_y
 _atom_site_fract_z
 _atom_site_occupancy
  Er  Er0  1  0.49999994  0.49999996  -0.00000007  1
  Er  Er1  1  0.74999995  0.24999998  0.49999996  1
  B  B2  1  0.17997693  0.82002293  -0.00000008  1
  B  B3  1  0.07002292  0.92997692  0.49999994  1
  B  B4  1  0.82002295  0.17997698  -0.00000006  1
  B  B5  1  0.42997694  0.57002295  0.49999995  1
  Ir  Ir6  1  0.87338589  0.87338592  0.74677191  1
  Ir  Ir7  1  0.12661398  0.12661399  0.25322799  1
  Ir  Ir8  1  0.37661391  0.87661392  0.75322793  1
  Ir  Ir9  1  0.12338594  0.62338595  0.24677195  1
