# generated using pymatgen
data_Ce2Si4C
_symmetry_space_group_name_H-M   'P 1'
_cell_length_a   3.97383189
_cell_length_b   5.67495537
_cell_length_c   5.75007486
_cell_angle_alpha   75.66052246
_cell_angle_beta   69.78486633
_cell_angle_gamma   69.50534058
_symmetry_Int_Tables_number   1
_chemical_formula_structural   Ce2Si4C
_chemical_formula_sum   'Ce2 Si4 C1'
_cell_volume   112.79221523
_cell_formula_units_Z   1
loop_
 _symmetry_equiv_pos_site_id
 _symmetry_equiv_pos_as_xyz
  1  'x, y, z'
loop_
 _atom_site_type_symbol
 _atom_site_label
 _atom_site_symmetry_multiplicity
 _atom_site_fract_x
 _atom_site_fract_y
 _atom_site_fract_z
 _atom_site_occupancy
  Ce  Ce0  1  0.56312203  0.70167099  0.17208504  1
  Ce  Ce1  1  0.43687802  0.29832899  0.82791501  1
  Si  Si2  1  0.19728304  0.91704498  0.68838903  1
  Si  Si3  1  0.80271701  0.08295500  0.31161102  1
  Si  Si4  1  0.16343501  0.28017099  0.39295901  1
  Si  Si5  1  0.83656504  0.71982899  0.60704104  1
  C  C6  1  0.00000000  0.00000000  0.00000000  1
