# generated using pymatgen
data_Nd5As3O
_symmetry_space_group_name_H-M   'P 1'
_cell_length_a   6.62877607
_cell_length_b   9.05225182
_cell_length_c   9.05225277
_cell_angle_alpha   120.00000000
_cell_angle_beta   90.00000000
_cell_angle_gamma   90.00000000
_symmetry_Int_Tables_number   1
_chemical_formula_structural   Nd5As3O
_chemical_formula_sum   'Nd10 As6 O2'
_cell_volume   470.41079475
_cell_formula_units_Z   2
loop_
 _symmetry_equiv_pos_site_id
 _symmetry_equiv_pos_as_xyz
  1  'x, y, z'
loop_
 _atom_site_type_symbol
 _atom_site_label
 _atom_site_symmetry_multiplicity
 _atom_site_fract_x
 _atom_site_fract_y
 _atom_site_fract_z
 _atom_site_occupancy
  Nd  Nd0  1  0.25000000  0.77117704  0.77117703  1
  Nd  Nd1  1  0.74999999  0.22882301  0.22882301  1
  Nd  Nd2  1  0.25000000  1.00000005  0.22882305  1
  Nd  Nd3  1  0.74999999  1.00000005  0.77117705  1
  Nd  Nd4  1  0.25000000  0.22882301  1.00000000  1
  Nd  Nd5  1  0.74999999  0.77117704  1.00000003  1
  Nd  Nd6  1  0.49999999  0.66666670  0.33333337  1
  Nd  Nd7  1  0.49999999  0.33333335  0.66666668  1
  Nd  Nd8  1  0.99999999  0.33333335  0.66666668  1
  Nd  Nd9  1  0.99999999  0.66666670  0.33333337  1
  As  As10  1  0.25000000  0.39507702  0.39507702  1
  As  As11  1  0.74999999  0.60492303  0.60492303  1
  As  As12  1  0.25000000  0.00000000  0.60492300  1
  As  As13  1  0.74999999  0.00000000  0.39507700  1
  As  As14  1  0.25000000  0.60492303  1.00000002  1
  As  As15  1  0.74999999  0.39507702  1.00000001  1
  O  O16  1  0.49999999  0.00000000  -0.00000000  1
  O  O17  1  0.00000000  0.00000000  0.00000000  1
