# generated using pymatgen
data_YbIn4Pd
_symmetry_space_group_name_H-M   'P 1'
_cell_length_a   4.48987389
_cell_length_b   7.63680410
_cell_length_c   8.72488976
_cell_angle_alpha   90.00000000
_cell_angle_beta   104.91007233
_cell_angle_gamma   90.00000000
_symmetry_Int_Tables_number   1
_chemical_formula_structural   YbIn4Pd
_chemical_formula_sum   'Yb2 In8 Pd2'
_cell_volume   289.08901593
_cell_formula_units_Z   2
loop_
 _symmetry_equiv_pos_site_id
 _symmetry_equiv_pos_as_xyz
  1  'x, y, z'
loop_
 _atom_site_type_symbol
 _atom_site_label
 _atom_site_symmetry_multiplicity
 _atom_site_fract_x
 _atom_site_fract_y
 _atom_site_fract_z
 _atom_site_occupancy
  Yb  Yb0  1  0.12822700  0.74999999  0.25645399  1
  Yb  Yb1  1  0.87177303  0.25000000  0.74354599  1
  In  In2  1  0.68208603  0.45144599  0.36417200  1
  In  In3  1  0.31791401  0.95144599  0.63582798  1
  In  In4  1  0.06532100  0.25000000  0.13064200  1
  In  In5  1  0.31791401  0.54855399  0.63582798  1
  In  In6  1  0.68208603  0.04855400  0.36417200  1
  In  In7  1  0.93467903  0.74999999  0.86935799  1
  In  In8  1  0.50000002  0.49999999  0.00000001  1
  In  In9  1  0.50000002  0.00000000  0.00000001  1
  Pd  Pd10  1  0.22746001  0.25000000  0.45491999  1
  Pd  Pd11  1  0.77254003  0.74999999  0.54508000  1
