# generated using pymatgen
data_SrSnO3
_symmetry_space_group_name_H-M   'P 1'
_cell_length_a   5.79494095
_cell_length_b   5.80979872
_cell_length_c   8.37362862
_cell_angle_alpha   90.00000000
_cell_angle_beta   90.00000000
_cell_angle_gamma   89.85896301
_symmetry_Int_Tables_number   1
_chemical_formula_structural   SrSnO3
_chemical_formula_sum   'Sr4 Sn4 O12'
_cell_volume   281.91778902
_cell_formula_units_Z   4
loop_
 _symmetry_equiv_pos_site_id
 _symmetry_equiv_pos_as_xyz
  1  'x, y, z'
loop_
 _atom_site_type_symbol
 _atom_site_label
 _atom_site_symmetry_multiplicity
 _atom_site_fract_x
 _atom_site_fract_y
 _atom_site_fract_z
 _atom_site_occupancy
  Sr  Sr0  1  0.49957500  0.00395200  0.50000002  1
  Sr  Sr1  1  0.00107799  0.50604999  0.50000002  1
  Sr  Sr2  1  0.49642598  0.99572498  0.00000000  1
  Sr  Sr3  1  0.99730500  0.49175799  0.00000000  1
  Sn  Sn4  1  0.50023799  0.50032599  0.24817601  1
  Sn  Sn5  1  0.99985201  0.00049300  0.75195603  1
  Sn  Sn6  1  0.50023799  0.50032599  0.75182403  1
  Sn  Sn7  1  0.99985201  0.00049300  0.24804401  1
  O  O8  1  0.79641799  0.70313099  0.24545801  1
  O  O9  1  0.70800500  0.20777000  0.76575204  1
  O  O10  1  0.20308699  0.29598899  0.74286403  1
  O  O11  1  0.29287798  0.79223998  0.24618201  1
  O  O12  1  0.20308699  0.29598899  0.25713601  1
  O  O13  1  0.29287798  0.79223998  0.75381803  1
  O  O14  1  0.79641799  0.70313099  0.75454203  1
  O  O15  1  0.70800500  0.20777000  0.23424801  1
  O  O16  1  0.51198199  0.49984099  0.50000002  1
  O  O17  1  0.99097698  0.99718698  0.50000002  1
  O  O18  1  0.48731699  0.50136899  1.00000005  1
  O  O19  1  0.01438400  0.00422100  0.00000000  1
