# generated using pymatgen
data_Mg3In
_symmetry_space_group_name_H-M   'P 1'
_cell_length_a   5.25598383
_cell_length_b   6.41437197
_cell_length_c   6.41437292
_cell_angle_alpha   60.00000381
_cell_angle_beta   90.00000000
_cell_angle_gamma   90.00000000
_symmetry_Int_Tables_number   1
_chemical_formula_structural   Mg3In
_chemical_formula_sum   'Mg6 In2'
_cell_volume   187.28069622
_cell_formula_units_Z   2
loop_
 _symmetry_equiv_pos_site_id
 _symmetry_equiv_pos_as_xyz
  1  'x, y, z'
loop_
 _atom_site_type_symbol
 _atom_site_label
 _atom_site_symmetry_multiplicity
 _atom_site_fract_x
 _atom_site_fract_y
 _atom_site_fract_z
 _atom_site_occupancy
  Mg  Mg0  1  0.75000002  0.67010300  0.16494899  1
  Mg  Mg1  1  0.75000002  0.16494800  0.67010398  1
  Mg  Mg2  1  0.75000002  0.16494800  0.16494900  1
  Mg  Mg3  1  0.25000001  0.83505201  0.83505098  1
  Mg  Mg4  1  0.25000001  0.83505201  0.32989599  1
  Mg  Mg5  1  0.25000001  0.32989700  0.83505098  1
  In  In6  1  0.75000002  0.66666667  0.66666665  1
  In  In7  1  0.25000001  0.33333334  0.33333332  1
