# generated using pymatgen
data_BaSrLaTi3O9
_symmetry_space_group_name_H-M   'P 1'
_cell_length_a   5.62593412
_cell_length_b   5.62593412
_cell_length_c   6.83441591
_cell_angle_alpha   90.00000000
_cell_angle_beta   90.00000000
_cell_angle_gamma   120.00000000
_symmetry_Int_Tables_number   1
_chemical_formula_structural   BaSrLaTi3O9
_chemical_formula_sum   'Ba1 Sr1 La1 Ti3 O9'
_cell_volume   187.33603382
_cell_formula_units_Z   1
loop_
 _symmetry_equiv_pos_site_id
 _symmetry_equiv_pos_as_xyz
  1  'x, y, z'
loop_
 _atom_site_type_symbol
 _atom_site_label
 _atom_site_symmetry_multiplicity
 _atom_site_fract_x
 _atom_site_fract_y
 _atom_site_fract_z
 _atom_site_occupancy
  Ba  Ba0  1  0.00000000  0.00000000  0.00000000  1
  Sr  Sr1  1  0.33333334  0.66666668  0.66825001  1
  La  La2  1  0.66666666  0.33333334  0.33175000  1
  Ti  Ti3  1  0.00000000  0.00000000  0.50000001  1
  Ti  Ti4  1  0.33333334  0.66666668  0.16211800  1
  Ti  Ti5  1  0.66666666  0.33333334  0.83788201  1
  O  O6  1  0.17235800  0.34471601  0.34579300  1
  O  O7  1  0.49999999  0.00000000  -0.00000000  1
  O  O8  1  0.82764200  0.65528402  0.65420701  1
  O  O9  1  0.34471700  0.17235900  0.65420701  1
  O  O10  1  0.65528301  0.82764102  0.34579300  1
  O  O11  1  0.00000001  0.50000001  -0.00000000  1
  O  O12  1  0.17235802  0.82764102  0.34579300  1
  O  O13  1  0.50000000  0.50000001  -0.00000000  1
  O  O14  1  0.82764199  0.17235900  0.65420701  1
