# generated using pymatgen
data_Yb2GeAu3
_symmetry_space_group_name_H-M   'P 1'
_cell_length_a   4.51251221
_cell_length_b   5.75975847
_cell_length_c   5.75975847
_cell_angle_alpha   79.55913544
_cell_angle_beta   66.93796539
_cell_angle_gamma   66.93796539
_symmetry_Int_Tables_number   1
_chemical_formula_structural   Yb2GeAu3
_chemical_formula_sum   'Yb2 Ge1 Au3'
_cell_volume   126.66175850
_cell_formula_units_Z   1
loop_
 _symmetry_equiv_pos_site_id
 _symmetry_equiv_pos_as_xyz
  1  'x, y, z'
loop_
 _atom_site_type_symbol
 _atom_site_label
 _atom_site_symmetry_multiplicity
 _atom_site_fract_x
 _atom_site_fract_y
 _atom_site_fract_z
 _atom_site_occupancy
  Yb  Yb0  1  0.71904494  0.78095502  0.78095505  1
  Yb  Yb1  1  0.59284396  0.40715601  0.40715602  1
  Ge  Ge2  1  0.32346597  0.35202701  0.00104001  1
  Au  Au3  1  0.32346699  0.00103900  0.35202701  1
  Au  Au4  1  0.99951895  0.20305301  0.79790902  1
  Au  Au5  1  0.99951893  0.79790902  0.20305303  1
