# generated using pymatgen
data_Tl2SbTe2S7
_symmetry_space_group_name_H-M   'P 1'
_cell_length_a   6.08252716
_cell_length_b   6.42555380
_cell_length_c   6.68774843
_cell_angle_alpha   90.00000000
_cell_angle_beta   105.05959320
_cell_angle_gamma   90.00000000
_symmetry_Int_Tables_number   1
_chemical_formula_structural   Tl2SbTe2S7
_chemical_formula_sum   'Tl2 Sb1 Te2 S7'
_cell_volume   252.40446924
_cell_formula_units_Z   1
loop_
 _symmetry_equiv_pos_site_id
 _symmetry_equiv_pos_as_xyz
  1  'x, y, z'
loop_
 _atom_site_type_symbol
 _atom_site_label
 _atom_site_symmetry_multiplicity
 _atom_site_fract_x
 _atom_site_fract_y
 _atom_site_fract_z
 _atom_site_occupancy
  Tl  Tl0  1  0.20133599  0.14840600  0.91632899  1
  Tl  Tl1  1  0.29866399  0.64840602  0.58367098  1
  Sb  Sb2  1  0.79866397  0.85159403  0.08367096  1
  Te  Te3  1  0.70133597  0.35159401  0.41632896  1
  Te  Te4  1  0.18242199  0.13731600  0.42142699  1
  S  S5  1  0.31757799  0.63731602  0.07857298  1
  S  S6  1  0.81757797  0.86268403  0.57857295  1
  S  S7  1  0.68242197  0.36268401  0.92142696  1
  S  S8  1  0.45536798  0.90787103  0.32235597  1
  S  S9  1  0.04463200  0.40787101  0.17764400  1
  S  S10  1  0.54463198  0.09212900  0.67764397  1
  S  S11  1  0.95536796  0.59212902  0.82235594  1
