# generated using pymatgen
data_CeSi3Ir
_symmetry_space_group_name_H-M   'P 1'
_cell_length_a   4.25116158
_cell_length_b   4.25116158
_cell_length_c   5.90790367
_cell_angle_alpha   111.06910706
_cell_angle_beta   111.06910706
_cell_angle_gamma   90.04654694
_symmetry_Int_Tables_number   1
_chemical_formula_structural   CeSi3Ir
_chemical_formula_sum   'Ce1 Si3 Ir1'
_cell_volume   91.92864693
_cell_formula_units_Z   1
loop_
 _symmetry_equiv_pos_site_id
 _symmetry_equiv_pos_as_xyz
  1  'x, y, z'
loop_
 _atom_site_type_symbol
 _atom_site_label
 _atom_site_symmetry_multiplicity
 _atom_site_fract_x
 _atom_site_fract_y
 _atom_site_fract_z
 _atom_site_occupancy
  Ce  Ce0  1  0.00427500  0.00427500  0.00855000  1
  Si  Si1  1  0.75628804  0.25628901  0.51257700  1
  Si  Si2  1  0.25628805  0.75628903  0.51257701  1
  Si  Si3  1  0.59023105  0.59023002  0.18046102  1
  Ir  Ir4  1  0.36191803  0.36191801  0.72383599  1
