# generated using pymatgen
data_Li2MnV3O8
_symmetry_space_group_name_H-M   'P 1'
_cell_length_a   6.05866766
_cell_length_b   6.05941916
_cell_length_c   6.06937218
_cell_angle_alpha   60.44364548
_cell_angle_beta   60.14976120
_cell_angle_gamma   89.95465851
_symmetry_Int_Tables_number   1
_chemical_formula_structural   Li2MnV3O8
_chemical_formula_sum   'Li2 Mn1 V3 O8'
_cell_volume   159.01892371
_cell_formula_units_Z   1
loop_
 _symmetry_equiv_pos_site_id
 _symmetry_equiv_pos_as_xyz
  1  'x, y, z'
loop_
 _atom_site_type_symbol
 _atom_site_label
 _atom_site_symmetry_multiplicity
 _atom_site_fract_x
 _atom_site_fract_y
 _atom_site_fract_z
 _atom_site_occupancy
  Li  Li0  1  0.49922799  0.50018901  0.50088698  1
  Li  Li1  1  0.99953997  0.49965901  0.00046701  1
  Mn  Mn2  1  0.50016598  0.00051000  0.49947799  1
  V  V3  1  0.50098499  0.50023001  0.99904396  1
  V  V4  1  0.12199402  0.87333502  0.24985897  1
  V  V5  1  0.87926997  0.12015300  0.74966999  1
  O  O6  1  0.73902298  0.26041501  0.47709999  1
  O  O7  1  0.26296000  0.28125101  0.97123096  1
  O  O8  1  0.25903201  0.73654102  0.97963795  1
  O  O9  1  0.71653299  0.74015102  0.52917597  1
  O  O10  1  0.74381098  0.26436401  0.01831301  1
  O  O11  1  0.28419300  0.26558701  0.46898798  1
  O  O12  1  0.26016101  0.73955002  0.52420296  1
  O  O13  1  0.73310399  0.71806702  0.03194399  1
