# generated using pymatgen
data_LiN
_symmetry_space_group_name_H-M   'P 1'
_cell_length_a   4.12404013
_cell_length_b   5.99570417
_cell_length_c   7.10727596
_cell_angle_alpha   90.00000000
_cell_angle_beta   90.00000000
_cell_angle_gamma   90.00000000
_symmetry_Int_Tables_number   1
_chemical_formula_structural   LiN
_chemical_formula_sum   'Li8 N8'
_cell_volume   175.73823395
_cell_formula_units_Z   8
loop_
 _symmetry_equiv_pos_site_id
 _symmetry_equiv_pos_as_xyz
  1  'x, y, z'
loop_
 _atom_site_type_symbol
 _atom_site_label
 _atom_site_symmetry_multiplicity
 _atom_site_fract_x
 _atom_site_fract_y
 _atom_site_fract_z
 _atom_site_occupancy
  Li  Li0  1  0.93524997  0.58973398  0.37424300  1
  Li  Li1  1  0.43524999  0.41026599  0.62575700  1
  Li  Li2  1  0.43524999  0.91026597  0.87424300  1
  Li  Li3  1  0.93524997  0.08973400  0.12575700  1
  Li  Li4  1  0.93524897  0.57125398  0.87223300  1
  Li  Li5  1  0.43524899  0.42874599  0.12776700  1
  Li  Li6  1  0.43524899  0.92874597  0.37223300  1
  Li  Li7  1  0.93524897  0.07125400  0.62776700  1
  N  N8  1  0.43524999  0.58246398  0.38274500  1
  N  N9  1  0.93524997  0.41753599  0.61725500  1
  N  N10  1  0.93524997  0.91753597  0.88274500  1
  N  N11  1  0.43524999  0.08246400  0.11725500  1
  N  N12  1  0.43524999  0.57558298  0.86835200  1
  N  N13  1  0.93524997  0.42441699  0.13164800  1
  N  N14  1  0.93524997  0.92441697  0.36835200  1
  N  N15  1  0.43524999  0.07558300  0.63164800  1
