# generated using pymatgen
data_Y4Cu4Sb7
_symmetry_space_group_name_H-M   'P 1'
_cell_length_a   4.54063177
_cell_length_b   4.54063177
_cell_length_c   18.71378326
_cell_angle_alpha   90.00000000
_cell_angle_beta   90.00000000
_cell_angle_gamma   90.00000000
_symmetry_Int_Tables_number   1
_chemical_formula_structural   Y4Cu4Sb7
_chemical_formula_sum   'Y4 Cu4 Sb7'
_cell_volume   385.82837387
_cell_formula_units_Z   1
loop_
 _symmetry_equiv_pos_site_id
 _symmetry_equiv_pos_as_xyz
  1  'x, y, z'
loop_
 _atom_site_type_symbol
 _atom_site_label
 _atom_site_symmetry_multiplicity
 _atom_site_fract_x
 _atom_site_fract_y
 _atom_site_fract_z
 _atom_site_occupancy
  Y  Y0  1  0.50000003  0.00000000  0.38664299  1
  Y  Y1  1  0.50000003  0.00000000  0.88703699  1
  Y  Y2  1  0.00000000  0.50000003  0.11296300  1
  Y  Y3  1  0.00000000  0.50000003  0.61335699  1
  Cu  Cu4  1  0.50000003  0.50000003  0.49999999  1
  Cu  Cu5  1  0.00000000  0.00000000  0.00000000  1
  Cu  Cu6  1  0.00000000  0.00000000  0.49999999  1
  Cu  Cu7  1  0.50000003  0.00000000  0.06948600  1
  Sb  Sb8  1  0.50000003  0.00000000  0.57500099  1
  Sb  Sb9  1  0.00000000  0.50000003  0.42499899  1
  Sb  Sb10  1  0.00000000  0.50000003  0.93051399  1
  Sb  Sb11  1  0.50000003  0.50000003  0.24898100  1
  Sb  Sb12  1  0.50000003  0.50000003  0.75101899  1
  Sb  Sb13  1  0.00000000  0.00000000  0.24907700  1
  Sb  Sb14  1  0.00000000  0.00000000  0.75092299  1
