# generated using pymatgen
data_In4AgS5
_symmetry_space_group_name_H-M   'P 1'
_cell_length_a   4.09086752
_cell_length_b   5.79147482
_cell_length_c   10.79193020
_cell_angle_alpha   105.56457520
_cell_angle_beta   100.92556763
_cell_angle_gamma   90.00000000
_symmetry_Int_Tables_number   1
_chemical_formula_structural   In4AgS5
_chemical_formula_sum   'In4 Ag1 S5'
_cell_volume   241.49347301
_cell_formula_units_Z   1
loop_
 _symmetry_equiv_pos_site_id
 _symmetry_equiv_pos_as_xyz
  1  'x, y, z'
loop_
 _atom_site_type_symbol
 _atom_site_label
 _atom_site_symmetry_multiplicity
 _atom_site_fract_x
 _atom_site_fract_y
 _atom_site_fract_z
 _atom_site_occupancy
  In  In0  1  0.40129297  0.39501301  0.80258597  1
  In  In1  1  0.79858594  0.79886502  0.59717197  1
  In  In2  1  0.20141398  0.20169300  0.40282799  1
  In  In3  1  0.59870696  0.59242801  0.19741398  1
  Ag  Ag4  1  -0.00000000  0.01189200  -0.00000000  1
  S  S5  1  0.89543694  0.63382301  0.79087296  1
  S  S6  1  0.30103198  0.04751900  0.60206498  1
  S  S7  1  0.69896695  0.44545401  0.39793498  1
  S  S8  1  0.10456298  0.84295102  0.20912698  1
  S  S9  1  0.49999997  0.28036201  -0.00000001  1
