# generated using pymatgen
data_VNiO2
_symmetry_space_group_name_H-M   'P 1'
_cell_length_a   3.19312096
_cell_length_b   5.19139719
_cell_length_c   5.52885914
_cell_angle_alpha   89.96460724
_cell_angle_beta   90.00000000
_cell_angle_gamma   90.00000000
_symmetry_Int_Tables_number   1
_chemical_formula_structural   VNiO2
_chemical_formula_sum   'V2 Ni2 O4'
_cell_volume   91.65054889
_cell_formula_units_Z   2
loop_
 _symmetry_equiv_pos_site_id
 _symmetry_equiv_pos_as_xyz
  1  'x, y, z'
loop_
 _atom_site_type_symbol
 _atom_site_label
 _atom_site_symmetry_multiplicity
 _atom_site_fract_x
 _atom_site_fract_y
 _atom_site_fract_z
 _atom_site_occupancy
  V  V0  1  0.50000001  0.00032200  0.33267199  1
  V  V1  1  0.50000001  0.49942098  0.66488196  1
  Ni  Ni2  1  0.00000000  0.49924998  0.16861697  1
  Ni  Ni3  1  0.00000000  0.00029800  0.83372599  1
  O  O4  1  0.50000001  0.11937100  0.65884798  1
  O  O5  1  0.00000000  0.11674000  0.17460199  1
  O  O6  1  0.00000000  0.62032498  0.83388996  1
  O  O7  1  0.50000001  0.63187298  0.33276296  1
