# generated using pymatgen
data_CuPPt
_symmetry_space_group_name_H-M   'P 1'
_cell_length_a   6.14348221
_cell_length_b   6.15188217
_cell_length_c   6.24867249
_cell_angle_alpha   90.00000000
_cell_angle_beta   66.97179413
_cell_angle_gamma   90.00000000
_symmetry_Int_Tables_number   1
_chemical_formula_structural   CuPPt
_chemical_formula_sum   'Cu4 P4 Pt4'
_cell_volume   217.34299393
_cell_formula_units_Z   4
loop_
 _symmetry_equiv_pos_site_id
 _symmetry_equiv_pos_as_xyz
  1  'x, y, z'
loop_
 _atom_site_type_symbol
 _atom_site_label
 _atom_site_symmetry_multiplicity
 _atom_site_fract_x
 _atom_site_fract_y
 _atom_site_fract_z
 _atom_site_occupancy
  Cu  Cu0  1  0.15400500  0.87310098  0.12512900  1
  P  P1  1  0.84599499  0.37310099  0.37487098  1
  Cu  Cu2  1  0.84599499  0.12689900  0.87487099  1
  Cu  Cu3  1  0.15400500  0.62689898  0.62512901  1
  P  P4  1  0.33847899  0.37034699  0.81546901  1
  Cu  Cu5  1  0.66152099  0.87034698  0.68453099  1
  P  P6  1  0.66152099  0.62965298  0.18453098  1
  P  P7  1  0.33847899  0.12965300  0.31546900  1
  Pt  Pt8  1  0.27239200  0.49995899  0.20787500  1
  Pt  Pt9  1  0.72760799  0.99995897  0.29212498  1
  Pt  Pt10  1  0.72760799  0.50004099  0.79212499  1
  Pt  Pt11  1  0.27239200  0.00004100  0.70787501  1
