# generated using pymatgen
data_BaBiO3
_symmetry_space_group_name_H-M   'P 1'
_cell_length_a   6.24404478
_cell_length_b   6.28001022
_cell_length_c   8.80839348
_cell_angle_alpha   89.73893738
_cell_angle_beta   90.00000000
_cell_angle_gamma   90.00000000
_symmetry_Int_Tables_number   1
_chemical_formula_structural   BaBiO3
_chemical_formula_sum   'Ba4 Bi4 O12'
_cell_volume   345.39699778
_cell_formula_units_Z   4
loop_
 _symmetry_equiv_pos_site_id
 _symmetry_equiv_pos_as_xyz
  1  'x, y, z'
loop_
 _atom_site_type_symbol
 _atom_site_label
 _atom_site_symmetry_multiplicity
 _atom_site_fract_x
 _atom_site_fract_y
 _atom_site_fract_z
 _atom_site_occupancy
  Ba  Ba0  1  0.01335100  0.49366598  0.24900598  1
  Ba  Ba1  1  0.98664903  0.50633398  0.75099398  1
  Ba  Ba2  1  0.48664902  0.99366596  0.74900596  1
  Ba  Ba3  1  0.51335102  0.00633400  0.25099400  1
  Bi  Bi4  1  0.50000002  0.49999998  0.99999998  1
  Bi  Bi5  1  0.00000000  0.00000000  0.00000000  1
  Bi  Bi6  1  0.00000000  0.00000000  0.50000000  1
  Bi  Bi7  1  0.50000002  0.49999998  0.49999998  1
  O  O8  1  0.27248401  0.24349099  0.03835499  1
  O  O9  1  0.99180403  0.92999097  0.25858997  1
  O  O10  1  0.26005301  0.22408999  0.46150999  1
  O  O11  1  0.73994703  0.77590997  0.53848997  1
  O  O12  1  0.23994701  0.72408997  0.96150997  1
  O  O13  1  0.76005303  0.27590999  0.03848999  1
  O  O14  1  0.22751601  0.74349097  0.53835497  1
  O  O15  1  0.77248403  0.25650899  0.46164499  1
  O  O16  1  0.00819600  0.07000900  0.74140999  1
  O  O17  1  0.49180402  0.57000898  0.24140998  1
  O  O18  1  0.50819602  0.42999098  0.75858998  1
  O  O19  1  0.72751603  0.75650897  0.96164497  1
