# generated using pymatgen
data_Ca2N
_symmetry_space_group_name_H-M   'P 1'
_cell_length_a   3.54154253
_cell_length_b   3.54154253
_cell_length_c   6.31761837
_cell_angle_alpha   73.72243500
_cell_angle_beta   73.72243500
_cell_angle_gamma   59.99998856
_symmetry_Int_Tables_number   1
_chemical_formula_structural   Ca2N
_chemical_formula_sum   'Ca2 N1'
_cell_volume   64.92932818
_cell_formula_units_Z   1
loop_
 _symmetry_equiv_pos_site_id
 _symmetry_equiv_pos_as_xyz
  1  'x, y, z'
loop_
 _atom_site_type_symbol
 _atom_site_label
 _atom_site_symmetry_multiplicity
 _atom_site_fract_x
 _atom_site_fract_y
 _atom_site_fract_z
 _atom_site_occupancy
  Ca  Ca0  1  0.24051001  0.24051001  0.27846999  1
  Ca  Ca1  1  0.75949002  0.75949002  0.72152996  1
  N  N2  1  0.50000001  0.50000001  0.49999997  1
