# generated using pymatgen
data_BaCuCO5
_symmetry_space_group_name_H-M   'P 1'
_cell_length_a   5.13292599
_cell_length_b   5.13292551
_cell_length_c   10.56303215
_cell_angle_alpha   90.00000000
_cell_angle_beta   90.00000000
_cell_angle_gamma   120.00000000
_symmetry_Int_Tables_number   1
_chemical_formula_structural   BaCuCO5
_chemical_formula_sum   'Ba2 Cu2 C2 O10'
_cell_volume   241.01784402
_cell_formula_units_Z   2
loop_
 _symmetry_equiv_pos_site_id
 _symmetry_equiv_pos_as_xyz
  1  'x, y, z'
loop_
 _atom_site_type_symbol
 _atom_site_label
 _atom_site_symmetry_multiplicity
 _atom_site_fract_x
 _atom_site_fract_y
 _atom_site_fract_z
 _atom_site_occupancy
  Ba  Ba0  1  0.00000000  0.00000000  0.00000000  1
  Ba  Ba1  1  0.00000000  0.00000000  0.49999999  1
  Cu  Cu2  1  0.66666666  0.33333334  0.74999999  1
  Cu  Cu3  1  0.33333331  0.66666668  0.25000000  1
  C  C4  1  0.33333331  0.66666668  0.74999999  1
  C  C5  1  0.66666666  0.33333334  0.25000000  1
  O  O6  1  0.66666666  0.33333334  0.57698299  1
  O  O7  1  0.37528399  0.18764200  0.25000000  1
  O  O8  1  0.62471597  0.81235802  0.74999999  1
  O  O9  1  0.81235800  0.18764200  0.25000000  1
  O  O10  1  0.66666666  0.33333334  0.92301699  1
  O  O11  1  0.33333331  0.66666668  0.07698300  1
  O  O12  1  0.18764197  0.81235802  0.74999999  1
  O  O13  1  0.81235798  0.62471602  0.25000000  1
  O  O14  1  0.33333331  0.66666668  0.42301699  1
  O  O15  1  0.18764199  0.37528401  0.74999999  1
