# generated using pymatgen
data_Ba3ZrTiO7
_symmetry_space_group_name_H-M   'P 1'
_cell_length_a   4.13178778
_cell_length_b   4.13178778
_cell_length_c   10.91467094
_cell_angle_alpha   100.91058350
_cell_angle_beta   100.91058350
_cell_angle_gamma   90.00000000
_symmetry_Int_Tables_number   1
_chemical_formula_structural   Ba3ZrTiO7
_chemical_formula_sum   'Ba3 Zr1 Ti1 O7'
_cell_volume   179.53213521
_cell_formula_units_Z   1
loop_
 _symmetry_equiv_pos_site_id
 _symmetry_equiv_pos_as_xyz
  1  'x, y, z'
loop_
 _atom_site_type_symbol
 _atom_site_label
 _atom_site_symmetry_multiplicity
 _atom_site_fract_x
 _atom_site_fract_y
 _atom_site_fract_z
 _atom_site_occupancy
  Ba  Ba0  1  0.50000003  0.50000003  0.00000001  1
  Ba  Ba1  1  0.68651605  0.68651604  0.37303201  1
  Ba  Ba2  1  0.31348402  0.31348402  0.62696801  1
  Zr  Zr3  1  0.90057306  0.90057305  0.80114602  1
  Ti  Ti4  1  0.09942701  0.09942701  0.19885400  1
  O  O5  1  0.00000000  0.00000000  0.00000000  1
  O  O6  1  0.09767701  0.59767704  0.19535401  1
  O  O7  1  0.40232303  0.90232305  0.80464601  1
  O  O8  1  0.80176506  0.80176505  0.60353002  1
  O  O9  1  0.19823501  0.19823501  0.39647000  1
  O  O10  1  0.59767704  0.09767701  0.19535401  1
  O  O11  1  0.90232306  0.40232302  0.80464601  1
