# generated using pymatgen
data_CsSnI3
_symmetry_space_group_name_H-M   'P 1'
_cell_length_a   8.22479153
_cell_length_b   8.29601383
_cell_length_c   11.84331608
_cell_angle_alpha   90.00000000
_cell_angle_beta   90.00000000
_cell_angle_gamma   90.00000000
_symmetry_Int_Tables_number   1
_chemical_formula_structural   CsSnI3
_chemical_formula_sum   'Cs4 Sn4 I12'
_cell_volume   808.10479970
_cell_formula_units_Z   4
loop_
 _symmetry_equiv_pos_site_id
 _symmetry_equiv_pos_as_xyz
  1  'x, y, z'
loop_
 _atom_site_type_symbol
 _atom_site_label
 _atom_site_symmetry_multiplicity
 _atom_site_fract_x
 _atom_site_fract_y
 _atom_site_fract_z
 _atom_site_occupancy
  Cs  Cs0  1  0.50786803  0.46719801  0.25000000  1
  Cs  Cs1  1  0.00786800  0.03280200  0.75000000  1
  Cs  Cs2  1  0.99213206  0.96719802  0.25000000  1
  Cs  Cs3  1  0.49213203  0.53280201  0.75000000  1
  Sn  Sn4  1  0.50000003  0.00000000  0.50000000  1
  Sn  Sn5  1  0.00000000  0.50000001  0.00000000  1
  Sn  Sn6  1  0.00000000  0.50000001  0.50000000  1
  Sn  Sn7  1  0.50000003  0.00000000  0.00000000  1
  I  I8  1  0.54820203  0.99346802  0.75000000  1
  I  I9  1  0.04820200  0.50653201  0.25000000  1
  I  I10  1  0.79431505  0.20600800  0.02542500  1
  I  I11  1  0.20568501  0.79399202  0.97457499  1
  I  I12  1  0.29431502  0.29399201  0.97457499  1
  I  I13  1  0.70568504  0.70600801  0.02542500  1
  I  I14  1  0.29431502  0.29399201  0.52542500  1
  I  I15  1  0.70568504  0.70600801  0.47457500  1
  I  I16  1  0.20568501  0.79399202  0.52542500  1
  I  I17  1  0.79431505  0.20600800  0.47457500  1
  I  I18  1  0.95179805  0.49346801  0.75000000  1
  I  I19  1  0.45179803  0.00653200  0.25000000  1
