# generated using pymatgen
data_CaN
_symmetry_space_group_name_H-M   'P 1'
_cell_length_a   4.91889191
_cell_length_b   4.91889191
_cell_length_c   6.25717640
_cell_angle_alpha   113.14503479
_cell_angle_beta   113.14503479
_cell_angle_gamma   90.00000000
_symmetry_Int_Tables_number   1
_chemical_formula_structural   CaN
_chemical_formula_sum   'Ca4 N4'
_cell_volume   125.85034235
_cell_formula_units_Z   4
loop_
 _symmetry_equiv_pos_site_id
 _symmetry_equiv_pos_as_xyz
  1  'x, y, z'
loop_
 _atom_site_type_symbol
 _atom_site_label
 _atom_site_symmetry_multiplicity
 _atom_site_fract_x
 _atom_site_fract_y
 _atom_site_fract_z
 _atom_site_occupancy
  Ca  Ca0  1  0.27209199  0.27209200  0.54418399  1
  Ca  Ca1  1  0.02209197  0.52209199  0.04418397  1
  Ca  Ca2  1  0.72790796  0.72790799  0.45581594  1
  Ca  Ca3  1  0.47790795  0.97790799  0.95581595  1
  N  N4  1  0.49999997  0.49999999  -0.00000005  1
  N  N5  1  0.24999996  0.74999999  0.49999996  1
  N  N6  1  0.74999999  0.25000000  0.49999997  1
  N  N7  1  0.00000000  0.00000000  0.00000000  1
