# generated using pymatgen
data_NaFe(SiO3)2
_symmetry_space_group_name_H-M   'P 1'
_cell_length_a   5.44675350
_cell_length_b   6.84615564
_cell_length_c   6.84615564
_cell_angle_alpha   85.24893188
_cell_angle_beta   77.17608643
_cell_angle_gamma   77.17608643
_symmetry_Int_Tables_number   1
_chemical_formula_structural   NaFe(SiO3)2
_chemical_formula_sum   'Na2 Fe2 Si4 O12'
_cell_volume   242.56062944
_cell_formula_units_Z   2
loop_
 _symmetry_equiv_pos_site_id
 _symmetry_equiv_pos_as_xyz
  1  'x, y, z'
loop_
 _atom_site_type_symbol
 _atom_site_label
 _atom_site_symmetry_multiplicity
 _atom_site_fract_x
 _atom_site_fract_y
 _atom_site_fract_z
 _atom_site_occupancy
  Na  Na0  1  0.25000003  0.69783102  0.30216897  1
  Na  Na1  1  0.75000000  0.30216901  0.69783102  1
  Fe  Fe2  1  0.25000000  0.10644200  0.89355802  1
  Fe  Fe3  1  0.75000003  0.89355802  0.10644196  1
  Si  Si4  1  0.74836703  0.79456402  0.62274598  1
  Si  Si5  1  0.75163300  0.37725401  0.20543600  1
  Si  Si6  1  0.24836703  0.62274602  0.79456398  1
  Si  Si7  1  0.25163301  0.20543601  0.37725400  1
  O  O8  1  0.68019902  0.60141202  0.11429298  1
  O  O9  1  0.02008703  0.64183602  0.66292197  1
  O  O10  1  0.52008702  0.66292202  0.64183598  1
  O  O11  1  0.97991300  0.35816401  0.33707801  1
  O  O12  1  0.15299404  0.80037902  0.96057197  1
  O  O13  1  0.34700599  0.03942800  0.19962101  1
  O  O14  1  0.81980103  0.88570702  0.39858797  1
  O  O15  1  0.65299404  0.96057202  0.80037897  1
  O  O16  1  0.31980101  0.39858801  0.88570700  1
  O  O17  1  0.18019900  0.11429300  0.60141201  1
  O  O18  1  0.84700599  0.19962100  0.03942801  1
  O  O19  1  0.47991301  0.33707801  0.35816400  1
