# generated using pymatgen
data_Tb5NiBi3
_symmetry_space_group_name_H-M   'P 1'
_cell_length_a   6.33774996
_cell_length_b   9.21377182
_cell_length_c   9.21377182
_cell_angle_alpha   120.00000000
_cell_angle_beta   90.00000000
_cell_angle_gamma   90.00000000
_symmetry_Int_Tables_number   1
_chemical_formula_structural   Tb5NiBi3
_chemical_formula_sum   'Tb10 Ni2 Bi6'
_cell_volume   465.95141847
_cell_formula_units_Z   2
loop_
 _symmetry_equiv_pos_site_id
 _symmetry_equiv_pos_as_xyz
  1  'x, y, z'
loop_
 _atom_site_type_symbol
 _atom_site_label
 _atom_site_symmetry_multiplicity
 _atom_site_fract_x
 _atom_site_fract_y
 _atom_site_fract_z
 _atom_site_occupancy
  Tb  Tb0  1  0.75000000  0.25273500  -0.00000001  1
  Tb  Tb1  1  0.25000000  0.25273500  0.25273498  1
  Tb  Tb2  1  0.75000000  0.00000000  0.25273499  1
  Tb  Tb3  1  0.25000000  0.00000000  0.74726497  1
  Tb  Tb4  1  0.25000000  0.74726500  0.99999993  1
  Tb  Tb5  1  0.75000000  0.74726500  0.74726494  1
  Tb  Tb6  1  0.50000000  0.66666667  0.33333329  1
  Tb  Tb7  1  1.00000001  0.33333333  0.66666663  1
  Tb  Tb8  1  0.50000000  0.33333333  0.66666663  1
  Tb  Tb9  1  1.00000001  0.66666667  0.33333329  1
  Bi  Bi10  1  0.25000000  0.61423500  0.61423495  1
  Bi  Bi11  1  0.75000000  0.61423500  -0.00000002  1
  Bi  Bi12  1  0.75000000  0.00000000  0.61423498  1
  Bi  Bi13  1  0.25000000  0.00000000  0.38576499  1
  Bi  Bi14  1  0.25000000  0.38576500  -0.00000001  1
  Bi  Bi15  1  0.75000000  0.38576500  0.38576497  1
  Ni  Ni16  1  0.50000000  0.00000000  -0.00000000  1
  Ni  Ni17  1  0.00000000  0.00000000  0.00000000  1
