# generated using pymatgen
data_Yb3Co
_symmetry_space_group_name_H-M   'P 1'
_cell_length_a   6.32871294
_cell_length_b   6.95677280
_cell_length_c   9.44956112
_cell_angle_alpha   90.00000000
_cell_angle_beta   90.00000000
_cell_angle_gamma   90.00000000
_symmetry_Int_Tables_number   1
_chemical_formula_structural   Yb3Co
_chemical_formula_sum   'Yb12 Co4'
_cell_volume   416.03977795
_cell_formula_units_Z   4
loop_
 _symmetry_equiv_pos_site_id
 _symmetry_equiv_pos_as_xyz
  1  'x, y, z'
loop_
 _atom_site_type_symbol
 _atom_site_label
 _atom_site_symmetry_multiplicity
 _atom_site_fract_x
 _atom_site_fract_y
 _atom_site_fract_z
 _atom_site_occupancy
  Yb  Yb0  1  0.32574200  0.67762202  0.06540200  1
  Yb  Yb1  1  0.17425800  0.17762200  0.43459799  1
  Yb  Yb2  1  0.67425801  0.32237801  0.56540199  1
  Yb  Yb3  1  0.82574201  0.82237802  0.93459799  1
  Yb  Yb4  1  0.67425801  0.32237801  0.93459799  1
  Yb  Yb5  1  0.82574201  0.82237802  0.56540199  1
  Yb  Yb6  1  0.32574200  0.67762202  0.43459799  1
  Yb  Yb7  1  0.17425800  0.17762200  0.06540200  1
  Yb  Yb8  1  0.86939301  0.54451202  0.25000000  1
  Yb  Yb9  1  0.63060701  0.04451200  0.25000000  1
  Yb  Yb10  1  0.13060700  0.45548801  0.74999999  1
  Yb  Yb11  1  0.36939300  0.95548803  0.74999999  1
  Co  Co12  1  0.04960600  0.89376003  0.25000000  1
  Co  Co13  1  0.45039400  0.39376001  0.25000000  1
  Co  Co14  1  0.95039401  0.10624000  0.74999999  1
  Co  Co15  1  0.54960601  0.60624002  0.74999999  1
