# generated using pymatgen
data_Mn3(OF2)2
_symmetry_space_group_name_H-M   'P 1'
_cell_length_a   4.67312002
_cell_length_b   4.77722120
_cell_length_c   9.78709507
_cell_angle_alpha   90.00017548
_cell_angle_beta   89.99541473
_cell_angle_gamma   89.99974823
_symmetry_Int_Tables_number   1
_chemical_formula_structural   Mn3(OF2)2
_chemical_formula_sum   'Mn6 O4 F8'
_cell_volume   218.49227773
_cell_formula_units_Z   2
loop_
 _symmetry_equiv_pos_site_id
 _symmetry_equiv_pos_as_xyz
  1  'x, y, z'
loop_
 _atom_site_type_symbol
 _atom_site_label
 _atom_site_symmetry_multiplicity
 _atom_site_fract_x
 _atom_site_fract_y
 _atom_site_fract_z
 _atom_site_occupancy
  Mn  Mn0  1  0.99776704  0.96122296  0.00781005  1
  Mn  Mn1  1  0.99779404  0.96120696  0.65899005  1
  Mn  Mn2  1  0.03011300  0.00325200  0.33333333  1
  Mn  Mn3  1  0.49780002  0.53879598  0.15898803  1
  Mn  Mn4  1  0.53015202  0.49677198  0.83339602  1
  Mn  Mn5  1  0.49777102  0.53878298  0.50781602  1
  O  O6  1  0.19476304  0.81082797  0.50363303  1
  O  O7  1  0.19473704  0.81024497  0.16273503  1
  O  O8  1  0.69476303  0.68916697  0.00363204  1
  O  O9  1  0.69473903  0.68975397  0.66273603  1
  F  F10  1  0.19107004  0.77254397  0.83349602  1
  F  F11  1  0.69106503  0.72744797  0.33349603  1
  F  F12  1  0.28936201  0.27373199  0.99445901  1
  F  F13  1  0.28900901  0.27361299  0.67203801  1
  F  F14  1  0.31536102  0.34640999  0.33344102  1
  F  F15  1  0.81536300  0.15358199  0.83344002  1
  F  F16  1  0.78936201  0.22626399  0.49445902  1
  F  F17  1  0.78900901  0.22637999  0.17203802  1
