# generated using pymatgen
data_KPSe2
_symmetry_space_group_name_H-M   'P 1'
_cell_length_a   5.49649191
_cell_length_b   6.94504738
_cell_length_c   6.97611952
_cell_angle_alpha   116.08171082
_cell_angle_beta   113.20053864
_cell_angle_gamma   90.00000000
_symmetry_Int_Tables_number   1
_chemical_formula_structural   KPSe2
_chemical_formula_sum   'K2 P2 Se4'
_cell_volume   214.94869448
_cell_formula_units_Z   2
loop_
 _symmetry_equiv_pos_site_id
 _symmetry_equiv_pos_as_xyz
  1  'x, y, z'
loop_
 _atom_site_type_symbol
 _atom_site_label
 _atom_site_symmetry_multiplicity
 _atom_site_fract_x
 _atom_site_fract_y
 _atom_site_fract_z
 _atom_site_occupancy
  K  K0  1  0.81338500  0.36147698  0.62676996  1
  K  K1  1  0.18661498  0.63852296  0.37322994  1
  P  P2  1  0.24850701  0.00000000  0.00000000  1
  P  P3  1  0.75149302  0.00000000  0.00000001  1
  Se  Se4  1  0.53565900  0.29267398  0.07131798  1
  Se  Se5  1  0.46434098  0.70732596  0.92868192  1
  Se  Se6  1  0.16459300  0.08813199  0.32918599  1
  Se  Se7  1  0.83540698  0.91186794  0.67081391  1
