# generated using pymatgen
data_CeCoSi3
_symmetry_space_group_name_H-M   'P 1'
_cell_length_a   4.30983400
_cell_length_b   4.30983400
_cell_length_c   5.76770306
_cell_angle_alpha   111.93891907
_cell_angle_beta   111.93891907
_cell_angle_gamma   90.00000000
_symmetry_Int_Tables_number   1
_chemical_formula_structural   CeCoSi3
_chemical_formula_sum   'Ce1 Co1 Si3'
_cell_volume   90.95721871
_cell_formula_units_Z   1
loop_
 _symmetry_equiv_pos_site_id
 _symmetry_equiv_pos_as_xyz
  1  'x, y, z'
loop_
 _atom_site_type_symbol
 _atom_site_label
 _atom_site_symmetry_multiplicity
 _atom_site_fract_x
 _atom_site_fract_y
 _atom_site_fract_z
 _atom_site_occupancy
  Ce  Ce0  1  0.66621805  0.66621802  0.33243605  1
  Co  Co1  1  0.99508507  0.99508503  0.99017006  1
  Si  Si2  1  0.40410205  0.90410203  0.80820404  1
  Si  Si3  1  0.22839202  0.22839201  0.45678401  1
  Si  Si4  1  0.90410204  0.40410201  0.80820403  1
