# generated using pymatgen
data_Mg3In
_symmetry_space_group_name_H-M   'P 1'
_cell_length_a   4.88033390
_cell_length_b   6.45443010
_cell_length_c   6.45442963
_cell_angle_alpha   120.00000000
_cell_angle_beta   90.00000000
_cell_angle_gamma   90.00000000
_symmetry_Int_Tables_number   1
_chemical_formula_structural   Mg3In
_chemical_formula_sum   'Mg6 In2'
_cell_volume   176.07428770
_cell_formula_units_Z   2
loop_
 _symmetry_equiv_pos_site_id
 _symmetry_equiv_pos_as_xyz
  1  'x, y, z'
loop_
 _atom_site_type_symbol
 _atom_site_label
 _atom_site_symmetry_multiplicity
 _atom_site_fract_x
 _atom_site_fract_y
 _atom_site_fract_z
 _atom_site_occupancy
  Mg  Mg0  1  0.25000001  0.66666665  0.33333332  1
  Mg  Mg1  1  0.75000002  0.33333332  0.66666666  1
  Mg  Mg2  1  0.75000002  0.83091297  0.16908598  1
  Mg  Mg3  1  0.75000002  0.33817299  0.16908599  1
  Mg  Mg4  1  0.75000002  0.83091297  0.66182598  1
  Mg  Mg5  1  0.25000001  0.16908699  0.83091400  1
  In  In6  1  0.25000001  0.66182698  0.83091399  1
  In  In7  1  0.25000001  0.16908699  0.33817400  1
