# generated using pymatgen
data_Mg2FeB2Ir5
_symmetry_space_group_name_H-M   'P 1'
_cell_length_a   2.94113111
_cell_length_b   9.49382782
_cell_length_c   9.49382782
_cell_angle_alpha   90.00000000
_cell_angle_beta   90.00000000
_cell_angle_gamma   90.00000000
_symmetry_Int_Tables_number   1
_chemical_formula_structural   Mg2FeB2Ir5
_chemical_formula_sum   'Mg4 Fe2 B4 Ir10'
_cell_volume   265.09228454
_cell_formula_units_Z   2
loop_
 _symmetry_equiv_pos_site_id
 _symmetry_equiv_pos_as_xyz
  1  'x, y, z'
loop_
 _atom_site_type_symbol
 _atom_site_label
 _atom_site_symmetry_multiplicity
 _atom_site_fract_x
 _atom_site_fract_y
 _atom_site_fract_z
 _atom_site_occupancy
  Mg  Mg0  1  0.99999996  0.82487902  0.32487901  1
  Mg  Mg1  1  0.99999996  0.17512100  0.67512101  1
  Mg  Mg2  1  0.00000000  0.32487901  0.17512100  1
  Mg  Mg3  1  0.00000000  0.67512101  0.82487902  1
  Fe  Fe4  1  0.99999996  0.50000001  0.50000001  1
  Fe  Fe5  1  0.00000000  0.00000000  0.00000000  1
  B  B6  1  0.99999996  0.62685201  0.12685200  1
  B  B7  1  0.99999996  0.37314801  0.87314802  1
  B  B8  1  0.99999996  0.12685200  0.37314801  1
  B  B9  1  0.99999996  0.87314802  0.62685201  1
  Ir  Ir10  1  0.49999998  0.50000001  0.00000000  1
  Ir  Ir11  1  0.49999998  0.00000000  0.50000001  1
  Ir  Ir12  1  0.49999998  0.71484501  0.57193401  1
  Ir  Ir13  1  0.49999998  0.28515501  0.42806601  1
  Ir  Ir14  1  0.49999998  0.21484500  0.92806602  1
  Ir  Ir15  1  0.49999998  0.78515501  0.07193400  1
  Ir  Ir16  1  0.49999998  0.42806601  0.71484501  1
  Ir  Ir17  1  0.49999998  0.57193401  0.28515501  1
  Ir  Ir18  1  0.49999998  0.07193400  0.21484500  1
  Ir  Ir19  1  0.49999998  0.92806602  0.78515501  1
