# generated using pymatgen
data_CaNd2O4
_symmetry_space_group_name_H-M   'P 1'
_cell_length_a   5.54970503
_cell_length_b   5.54970503
_cell_length_c   5.54970455
_cell_angle_alpha   63.23129272
_cell_angle_beta   63.23129272
_cell_angle_gamma   63.23129272
_symmetry_Int_Tables_number   1
_chemical_formula_structural   CaNd2O4
_chemical_formula_sum   'Ca1 Nd2 O4'
_cell_volume   129.51802993
_cell_formula_units_Z   1
loop_
 _symmetry_equiv_pos_site_id
 _symmetry_equiv_pos_as_xyz
  1  'x, y, z'
loop_
 _atom_site_type_symbol
 _atom_site_label
 _atom_site_symmetry_multiplicity
 _atom_site_fract_x
 _atom_site_fract_y
 _atom_site_fract_z
 _atom_site_occupancy
  Nd  Nd0  1  0.00000000  0.00000000  0.50000001  1
  Nd  Nd1  1  -0.00000001  0.50000001  -0.00000000  1
  Ca  Ca2  1  0.50000001  0.00000000  -0.00000000  1
  O  O3  1  0.50000000  0.50000001  0.50000000  1
  O  O4  1  0.00000000  0.00000000  0.00000000  1
  O  O5  1  0.27169700  0.27169701  0.27169700  1
  O  O6  1  0.72830300  0.72830302  0.72830301  1
