# generated using pymatgen
data_La2C3
_symmetry_space_group_name_H-M   'P 1'
_cell_length_a   7.53443480
_cell_length_b   7.53443480
_cell_length_c   7.53443480
_cell_angle_alpha   109.47122192
_cell_angle_beta   109.47122192
_cell_angle_gamma   109.47122192
_symmetry_Int_Tables_number   1
_chemical_formula_structural   La2C3
_chemical_formula_sum   'La8 C12'
_cell_volume   329.25329115
_cell_formula_units_Z   4
loop_
 _symmetry_equiv_pos_site_id
 _symmetry_equiv_pos_as_xyz
  1  'x, y, z'
loop_
 _atom_site_type_symbol
 _atom_site_label
 _atom_site_symmetry_multiplicity
 _atom_site_fract_x
 _atom_site_fract_y
 _atom_site_fract_z
 _atom_site_occupancy
  La  La0  1  0.89651207  0.89651204  0.39651208  1
  La  La1  1  1.00000005  0.50000002  0.60348806  1
  La  La2  1  0.50000002  0.10348801  0.50000002  1
  La  La3  1  0.10348800  0.00000000  1.00000001  1
  La  La4  1  0.50000005  0.60348803  0.50000005  1
  La  La5  1  0.60348801  0.00000000  1.00000002  1
  La  La6  1  1.00000005  0.50000002  0.10348805  1
  La  La7  1  0.39651203  0.39651202  0.89651204  1
  C  C8  1  0.70132204  0.45132202  0.25000004  1
  C  C9  1  0.29867805  0.75000004  0.04867805  1
  C  C10  1  0.20132202  0.25000001  0.45132202  1
  C  C11  1  0.25000006  0.95132205  0.70132207  1
  C  C12  1  0.75000005  0.54867803  0.79867806  1
  C  C13  1  0.54867803  0.29867801  0.25000003  1
  C  C14  1  0.25000006  0.79867804  0.54867806  1
  C  C15  1  0.04867802  0.25000001  0.29867802  1
  C  C16  1  0.75000006  0.70132203  0.95132207  1
  C  C17  1  0.45132206  0.75000004  0.20132205  1
  C  C18  1  0.79867802  0.04867800  0.75000003  1
  C  C19  1  0.95132203  0.20132201  0.75000004  1
