# generated using pymatgen
data_DyAl3
_symmetry_space_group_name_H-M   'P 1'
_cell_length_a   6.15561390
_cell_length_b   6.15561295
_cell_length_c   9.52994442
_cell_angle_alpha   90.00000000
_cell_angle_beta   90.00000000
_cell_angle_gamma   120.00000763
_symmetry_Int_Tables_number   1
_chemical_formula_structural   DyAl3
_chemical_formula_sum   'Dy4 Al12'
_cell_volume   312.72574947
_cell_formula_units_Z   4
loop_
 _symmetry_equiv_pos_site_id
 _symmetry_equiv_pos_as_xyz
  1  'x, y, z'
loop_
 _atom_site_type_symbol
 _atom_site_label
 _atom_site_symmetry_multiplicity
 _atom_site_fract_x
 _atom_site_fract_y
 _atom_site_fract_z
 _atom_site_occupancy
  Dy  Dy0  1  0.00000000  0.00000000  0.49999998  1
  Dy  Dy1  1  0.00000000  0.00000000  0.00000000  1
  Dy  Dy2  1  0.66666669  0.33333335  0.74999997  1
  Dy  Dy3  1  0.33333337  0.66666669  0.24999999  1
  Al  Al4  1  0.50000001  0.00000000  0.49999998  1
  Al  Al5  1  0.50000003  0.50000002  0.49999998  1
  Al  Al6  1  0.00000003  0.50000002  0.49999998  1
  Al  Al7  1  0.50000001  0.00000000  -0.00000000  1
  Al  Al8  1  0.50000003  0.50000002  -0.00000000  1
  Al  Al9  1  0.00000003  0.50000002  0.99999996  1
  Al  Al10  1  0.18555904  0.81444103  0.74999997  1
  Al  Al11  1  0.62888205  0.81444103  0.74999997  1
  Al  Al12  1  0.18555902  0.37111802  0.74999997  1
  Al  Al13  1  0.81444102  0.18555901  0.24999999  1
  Al  Al14  1  0.37111802  0.18555901  0.24999999  1
  Al  Al15  1  0.81444105  0.62888203  0.24999999  1
