# generated using pymatgen
data_La2Mo2C3
_symmetry_space_group_name_H-M   'P 1'
_cell_length_a   3.35628200
_cell_length_b   5.78714561
_cell_length_c   6.30763340
_cell_angle_alpha   113.97520447
_cell_angle_beta   105.42930603
_cell_angle_gamma   90.00000000
_symmetry_Int_Tables_number   1
_chemical_formula_structural   La2Mo2C3
_chemical_formula_sum   'La2 Mo2 C3'
_cell_volume   107.09413957
_cell_formula_units_Z   1
loop_
 _symmetry_equiv_pos_site_id
 _symmetry_equiv_pos_as_xyz
  1  'x, y, z'
loop_
 _atom_site_type_symbol
 _atom_site_label
 _atom_site_symmetry_multiplicity
 _atom_site_fract_x
 _atom_site_fract_y
 _atom_site_fract_z
 _atom_site_occupancy
  La  La0  1  0.60415600  0.80662304  0.20831203  1
  La  La1  1  0.39584400  0.19337701  0.79168803  1
  Mo  Mo2  1  0.84106500  0.67538803  0.68213004  1
  Mo  Mo3  1  0.15893500  0.32461202  0.31787002  1
  C  C4  1  0.00000000  0.00000000  0.00000000  1
  C  C5  1  0.74849300  0.26141901  0.49698602  1
  C  C6  1  0.25150700  0.73858104  0.50301404  1
