# generated using pymatgen
data_La(NiSb)2
_symmetry_space_group_name_H-M   'P 1'
_cell_length_a   4.47557211
_cell_length_b   4.47557211
_cell_length_c   10.09500313
_cell_angle_alpha   90.00000000
_cell_angle_beta   90.00000000
_cell_angle_gamma   90.00000000
_symmetry_Int_Tables_number   1
_chemical_formula_structural   La(NiSb)2
_chemical_formula_sum   'La2 Ni4 Sb4'
_cell_volume   202.21044055
_cell_formula_units_Z   2
loop_
 _symmetry_equiv_pos_site_id
 _symmetry_equiv_pos_as_xyz
  1  'x, y, z'
loop_
 _atom_site_type_symbol
 _atom_site_label
 _atom_site_symmetry_multiplicity
 _atom_site_fract_x
 _atom_site_fract_y
 _atom_site_fract_z
 _atom_site_occupancy
  La  La0  1  0.00000000  0.49999999  0.23992300  1
  La  La1  1  0.49999999  0.00000000  0.76007699  1
  Ni  Ni2  1  0.00000000  0.00000000  0.00000000  1
  Ni  Ni3  1  0.49999999  0.49999999  0.00000000  1
  Ni  Ni4  1  0.00000000  0.49999999  0.62311599  1
  Ni  Ni5  1  0.49999999  0.00000000  0.37688400  1
  Sb  Sb6  1  0.00000000  0.00000000  0.49999999  1
  Sb  Sb7  1  0.49999999  0.49999999  0.49999999  1
  Sb  Sb8  1  0.00000000  0.49999999  0.87401699  1
  Sb  Sb9  1  0.49999999  0.00000000  0.12598300  1
