# generated using pymatgen
data_KHg3
_symmetry_space_group_name_H-M   'P 1'
_cell_length_a   5.26888800
_cell_length_b   7.79493618
_cell_length_c   7.79493618
_cell_angle_alpha   120.00000000
_cell_angle_beta   90.00000000
_cell_angle_gamma   90.00000000
_symmetry_Int_Tables_number   1
_chemical_formula_structural   KHg3
_chemical_formula_sum   'K2 Hg6'
_cell_volume   277.25202446
_cell_formula_units_Z   2
loop_
 _symmetry_equiv_pos_site_id
 _symmetry_equiv_pos_as_xyz
  1  'x, y, z'
loop_
 _atom_site_type_symbol
 _atom_site_label
 _atom_site_symmetry_multiplicity
 _atom_site_fract_x
 _atom_site_fract_y
 _atom_site_fract_z
 _atom_site_occupancy
  K  K0  1  0.25000000  0.66666666  0.33333336  1
  K  K1  1  0.75000000  0.33333333  0.66666669  1
  Hg  Hg2  1  0.75000000  0.85011799  0.14988103  1
  Hg  Hg3  1  0.75000000  0.29976300  0.14988101  1
  Hg  Hg4  1  0.75000000  0.85011799  0.70023604  1
  Hg  Hg5  1  0.25000000  0.14988200  0.85011902  1
  Hg  Hg6  1  0.25000000  0.70023699  0.85011904  1
  Hg  Hg7  1  0.25000000  0.14988200  0.29976401  1
