# generated using pymatgen
data_Y(Pd2Pb)3
_symmetry_space_group_name_H-M   'P 1'
_cell_length_a   3.79889989
_cell_length_b   7.65542316
_cell_length_c   7.65542316
_cell_angle_alpha   90.00000000
_cell_angle_beta   90.00000000
_cell_angle_gamma   90.00000000
_symmetry_Int_Tables_number   1
_chemical_formula_structural   Y(Pd2Pb)3
_chemical_formula_sum   'Y1 Pd6 Pb3'
_cell_volume   222.63644198
_cell_formula_units_Z   1
loop_
 _symmetry_equiv_pos_site_id
 _symmetry_equiv_pos_as_xyz
  1  'x, y, z'
loop_
 _atom_site_type_symbol
 _atom_site_label
 _atom_site_symmetry_multiplicity
 _atom_site_fract_x
 _atom_site_fract_y
 _atom_site_fract_z
 _atom_site_occupancy
  Y  Y0  1  0.50000001  0.67885899  0.17885900  1
  Pd  Pd1  1  0.50000001  0.32114099  0.82114098  1
  Pb  Pb2  1  0.50000001  0.17885900  0.32114099  1
  Pd  Pd3  1  0.50000001  0.82114098  0.67885899  1
  Pd  Pd4  1  0.00000000  0.00000000  0.00000000  1
  Pd  Pd5  1  0.00000000  0.49999999  0.49999999  1
  Pb  Pb6  1  0.00000000  0.11771500  0.61771499  1
  Pd  Pd7  1  0.00000000  0.88228498  0.38228499  1
  Pb  Pb8  1  0.00000000  0.61771499  0.88228498  1
  Pd  Pd9  1  0.00000000  0.38228499  0.11771500  1
