# generated using pymatgen
data_InPt
_symmetry_space_group_name_H-M   'P 1'
_cell_length_a   3.97928596
_cell_length_b   5.62996912
_cell_length_c   7.92495203
_cell_angle_alpha   90.00000000
_cell_angle_beta   90.00000000
_cell_angle_gamma   90.00000000
_symmetry_Int_Tables_number   1
_chemical_formula_structural   InPt
_chemical_formula_sum   'In4 Pt4'
_cell_volume   177.54473743
_cell_formula_units_Z   4
loop_
 _symmetry_equiv_pos_site_id
 _symmetry_equiv_pos_as_xyz
  1  'x, y, z'
loop_
 _atom_site_type_symbol
 _atom_site_label
 _atom_site_symmetry_multiplicity
 _atom_site_fract_x
 _atom_site_fract_y
 _atom_site_fract_z
 _atom_site_occupancy
  In  In0  1  0.50000001  0.49999999  0.25525000  1
  In  In1  1  0.00000000  0.00000000  0.50000000  1
  In  In2  1  0.50000001  0.49999999  0.74475000  1
  In  In3  1  0.00000000  0.00000000  0.00000000  1
  Pt  Pt4  1  -0.00000000  0.49999999  0.50000000  1
  Pt  Pt5  1  0.50000001  0.00000000  0.76314700  1
  Pt  Pt6  1  -0.00000000  0.49999999  0.00000000  1
  Pt  Pt7  1  0.50000001  0.00000000  0.23685300  1
