# generated using pymatgen
data_PrSi3Os
_symmetry_space_group_name_H-M   'P 1'
_cell_length_a   6.09398794
_cell_length_b   8.44349003
_cell_length_c   8.44349003
_cell_angle_alpha   75.07206726
_cell_angle_beta   68.84642792
_cell_angle_gamma   68.84642792
_symmetry_Int_Tables_number   1
_chemical_formula_structural   PrSi3Os
_chemical_formula_sum   'Pr4 Si12 Os4'
_cell_volume   373.80396364
_cell_formula_units_Z   4
loop_
 _symmetry_equiv_pos_site_id
 _symmetry_equiv_pos_as_xyz
  1  'x, y, z'
loop_
 _atom_site_type_symbol
 _atom_site_label
 _atom_site_symmetry_multiplicity
 _atom_site_fract_x
 _atom_site_fract_y
 _atom_site_fract_z
 _atom_site_occupancy
  Pr  Pr0  1  0.63335905  0.59423900  0.13904300  1
  Pr  Pr1  1  0.36664103  0.40576100  0.86095700  1
  Pr  Pr2  1  0.86664107  0.86095700  0.40576100  1
  Pr  Pr3  1  0.13335901  0.13904300  0.59423900  1
  Si  Si4  1  0.25000004  0.50000000  0.49999999  1
  Si  Si5  1  0.75000004  0.50000000  0.50000001  1
  Si  Si6  1  0.47388206  0.77611800  0.77611799  1
  Si  Si7  1  0.02611802  0.22388200  0.22388199  1
  Si  Si8  1  0.52611801  0.22388200  0.22388201  1
  Si  Si9  1  0.97388206  0.77611800  0.77611801  1
  Si  Si10  1  0.90077901  0.26037500  0.93806603  1
  Si  Si11  1  0.09922106  0.73962500  0.06193397  1
  Si  Si12  1  0.59922000  0.06193500  0.73962503  1
  Si  Si13  1  0.40078008  0.93806500  0.26037497  1
  Si  Si14  1  0.64172401  0.24818100  0.46837102  1
  Os  Os15  1  0.35827606  0.75181900  0.53162898  1
  Os  Os16  1  0.25000000  0.00000000  0.00000001  1
  Os  Os17  1  0.75000008  1.00000000  0.99999999  1
  Si  Si18  1  0.85827604  0.53162900  0.75181901  1
  Os  Os19  1  0.14172404  0.46837100  0.24818098  1
