# generated using pymatgen
data_Ni3N
_symmetry_space_group_name_H-M   'P 1'
_cell_length_a   4.32030296
_cell_length_b   4.66170979
_cell_length_c   4.66170979
_cell_angle_alpha   120.00000000
_cell_angle_beta   90.00000000
_cell_angle_gamma   90.00000000
_symmetry_Int_Tables_number   1
_chemical_formula_structural   Ni3N
_chemical_formula_sum   'Ni6 N2'
_cell_volume   81.30837861
_cell_formula_units_Z   2
loop_
 _symmetry_equiv_pos_site_id
 _symmetry_equiv_pos_as_xyz
  1  'x, y, z'
loop_
 _atom_site_type_symbol
 _atom_site_label
 _atom_site_symmetry_multiplicity
 _atom_site_fract_x
 _atom_site_fract_y
 _atom_site_fract_z
 _atom_site_occupancy
  Ni  Ni0  1  0.50000000  0.00000000  0.67889399  1
  Ni  Ni1  1  1.00000001  0.00000000  0.32110600  1
  Ni  Ni2  1  -0.00000000  0.32110601  -0.00000001  1
  Ni  Ni3  1  0.50000000  0.32110601  0.32110599  1
  Ni  Ni4  1  0.50000000  0.67889402  -0.00000002  1
  Ni  Ni5  1  -0.00000000  0.67889402  0.67889397  1
  N  N6  1  0.25000000  0.33333334  0.66666665  1
  N  N7  1  0.75000001  0.66666669  0.33333331  1
