# generated using pymatgen
data_Ga3Pd4
_symmetry_space_group_name_H-M   'P 1'
_cell_length_a   3.89053798
_cell_length_b   6.81632805
_cell_length_c   6.81632805
_cell_angle_alpha   109.57647705
_cell_angle_beta   90.00000000
_cell_angle_gamma   90.00000000
_symmetry_Int_Tables_number   1
_chemical_formula_structural   Ga3Pd4
_chemical_formula_sum   'Ga3 Pd4'
_cell_volume   170.31443752
_cell_formula_units_Z   1
loop_
 _symmetry_equiv_pos_site_id
 _symmetry_equiv_pos_as_xyz
  1  'x, y, z'
loop_
 _atom_site_type_symbol
 _atom_site_label
 _atom_site_symmetry_multiplicity
 _atom_site_fract_x
 _atom_site_fract_y
 _atom_site_fract_z
 _atom_site_occupancy
  Ga  Ga0  1  0.50000000  0.00000000  0.50000000  1
  Ga  Ga1  1  0.50000000  0.50000000  -0.00000001  1
  Ga  Ga2  1  0.00000000  0.00000000  0.00000000  1
  Pd  Pd3  1  0.50000000  0.76208499  0.76208499  1
  Pd  Pd4  1  0.50000000  0.23791500  0.23791500  1
  Pd  Pd5  1  1.00000001  0.24137000  0.75862999  1
  Pd  Pd6  1  1.00000001  0.75862999  0.24136999  1
