# generated using pymatgen
data_CaAu10
_symmetry_space_group_name_H-M   'P 1'
_cell_length_a   6.91512585
_cell_length_b   6.95908308
_cell_length_c   6.91512585
_cell_angle_alpha   119.79126740
_cell_angle_beta   90.00000000
_cell_angle_gamma   119.79126740
_symmetry_Int_Tables_number   1
_chemical_formula_structural   CaAu10
_chemical_formula_sum   'Ca1 Au10'
_cell_volume   236.78529464
_cell_formula_units_Z   1
loop_
 _symmetry_equiv_pos_site_id
 _symmetry_equiv_pos_as_xyz
  1  'x, y, z'
loop_
 _atom_site_type_symbol
 _atom_site_label
 _atom_site_symmetry_multiplicity
 _atom_site_fract_x
 _atom_site_fract_y
 _atom_site_fract_z
 _atom_site_occupancy
  Ca  Ca0  1  0.00000000  0.00000000  0.00000000  1
  Au  Au1  1  0.11700394  0.58638693  0.11700394  1
  Au  Au2  1  0.46938295  0.58638693  0.46938295  1
  Au  Au3  1  0.88299597  0.41361295  0.53061697  1
  Au  Au4  1  -0.00000000  0.00000000  0.50000001  1
  Au  Au5  1  0.53061697  0.41361295  0.88299597  1
  Au  Au6  1  0.50000001  0.00000000  0.00000000  1
  Au  Au7  1  0.75030100  0.15455098  0.75030100  1
  Au  Au8  1  0.59574992  0.84544890  0.24969891  1
  Au  Au9  1  0.40424999  0.15455098  0.40424999  1
  Au  Au10  1  0.24969891  0.84544890  0.59574992  1
