# generated using pymatgen
data_La2Mn5Sb13
_symmetry_space_group_name_H-M   'P 1'
_cell_length_a   4.41109705
_cell_length_b   7.70492077
_cell_length_c   11.87064648
_cell_angle_alpha   90.00000000
_cell_angle_beta   90.00000000
_cell_angle_gamma   90.00000000
_symmetry_Int_Tables_number   1
_chemical_formula_structural   La2Mn5Sb13
_chemical_formula_sum   'La2 Mn5 Sb13'
_cell_volume   403.44948123
_cell_formula_units_Z   1
loop_
 _symmetry_equiv_pos_site_id
 _symmetry_equiv_pos_as_xyz
  1  'x, y, z'
loop_
 _atom_site_type_symbol
 _atom_site_label
 _atom_site_symmetry_multiplicity
 _atom_site_fract_x
 _atom_site_fract_y
 _atom_site_fract_z
 _atom_site_occupancy
  La  La0  1  0.74999999  0.75000002  0.67599497  1
  La  La1  1  0.25000000  0.25000001  0.32400499  1
  Mn  Mn2  1  0.25000000  0.75000002  0.25141299  1
  Mn  Mn3  1  0.74999999  0.25000001  0.74858697  1
  Mn  Mn4  1  0.74999999  0.75000002  0.98788996  1
  Mn  Mn5  1  0.25000000  0.25000001  0.01211000  1
  Mn  Mn6  1  0.74999999  0.94994003  0.41568598  1
  Sb  Sb7  1  0.74999999  0.55006002  0.41568598  1
  Sb  Sb8  1  0.25000000  0.05006000  0.58431398  1
  Sb  Sb9  1  0.25000000  0.44994001  0.58431398  1
  Sb  Sb10  1  0.74999999  0.04957300  0.16403499  1
  Sb  Sb11  1  0.74999999  0.45042701  0.16403499  1
  Sb  Sb12  1  0.25000000  0.95042703  0.83596497  1
  Sb  Sb13  1  0.25000000  0.54957302  0.83596497  1
  Sb  Sb14  1  0.74999999  0.25000001  0.52961198  1
  Sb  Sb15  1  0.25000000  0.75000002  0.47038798  1
  Sb  Sb16  1  0.74999999  0.07442400  0.93474096  1
  Sb  Sb17  1  0.74999999  0.42557601  0.93474096  1
  Sb  Sb18  1  0.25000000  0.92557603  0.06525900  1
  Sb  Sb19  1  0.25000000  0.57442402  0.06525900  1
