# generated using pymatgen
data_Li6Mn2OF7
_symmetry_space_group_name_H-M   'P 1'
_cell_length_a   5.45537615
_cell_length_b   5.66185808
_cell_length_c   9.31623077
_cell_angle_alpha   101.70020294
_cell_angle_beta   107.02499390
_cell_angle_gamma   90.00000000
_symmetry_Int_Tables_number   1
_chemical_formula_structural   Li6Mn2OF7
_chemical_formula_sum   'Li6 Mn2 O1 F7'
_cell_volume   268.88618930
_cell_formula_units_Z   1
loop_
 _symmetry_equiv_pos_site_id
 _symmetry_equiv_pos_as_xyz
  1  'x, y, z'
loop_
 _atom_site_type_symbol
 _atom_site_label
 _atom_site_symmetry_multiplicity
 _atom_site_fract_x
 _atom_site_fract_y
 _atom_site_fract_z
 _atom_site_occupancy
  Li  Li0  1  0.63368799  0.71306702  0.68554902  1
  Li  Li1  1  0.31378800  0.74497802  0.00406900  1
  Li  Li2  1  0.05186100  0.21306701  0.68554901  1
  Li  Li3  1  0.69028099  0.24497801  0.00406902  1
  Li  Li4  1  0.96143599  0.78244103  0.32437702  1
  Li  Li5  1  0.36294100  0.28244101  0.32437701  1
  F  F6  1  0.52268800  0.86589203  0.87537101  1
  F  F7  1  0.83394899  0.44778301  0.77957503  1
  Mn  Mn8  1  0.05437400  0.05221700  0.22042500  1
  Mn  Mn9  1  0.35268300  0.36589201  0.87537101  1
  O  O10  1  0.65121599  0.62535002  0.13629401  1
  F  F11  1  0.94562599  0.94778303  0.77957502  1
  F  F12  1  0.16605100  0.55221702  0.22042500  1
  F  F13  1  0.48507799  0.12535000  0.13629401  1
  F  F14  1  0.00000000  0.50000002  0.50000000  1
  F  F15  1  0.49999999  0.00000000  0.50000002  1
