# generated using pymatgen
data_Li2FeF5
_symmetry_space_group_name_H-M   'P 1'
_cell_length_a   5.14388180
_cell_length_b   5.93994856
_cell_length_c   7.13783741
_cell_angle_alpha   108.93488312
_cell_angle_beta   90.00000000
_cell_angle_gamma   115.65749359
_symmetry_Int_Tables_number   1
_chemical_formula_structural   Li2FeF5
_chemical_formula_sum   'Li4 Fe2 F10'
_cell_volume   183.40813621
_cell_formula_units_Z   2
loop_
 _symmetry_equiv_pos_site_id
 _symmetry_equiv_pos_as_xyz
  1  'x, y, z'
loop_
 _atom_site_type_symbol
 _atom_site_label
 _atom_site_symmetry_multiplicity
 _atom_site_fract_x
 _atom_site_fract_y
 _atom_site_fract_z
 _atom_site_occupancy
  Li  Li0  1  0.41065502  0.04865700  0.98120202  1
  Li  Li1  1  0.63800203  0.04865700  0.48120201  1
  Li  Li2  1  0.20716004  0.39091403  0.87761804  1
  Li  Li3  1  0.18375404  0.39091403  0.37761803  1
  Fe  Fe4  1  0.81107808  0.60791705  0.62758305  1
  Fe  Fe5  1  0.79683908  0.60791705  0.12758304  1
  F  F6  1  0.01876403  0.38767003  0.63674803  1
  F  F7  1  0.36890604  0.38767003  0.13674803  1
  F  F8  1  0.62598307  0.57762205  0.86190105  1
  F  F9  1  0.95163908  0.57762205  0.36190104  1
  F  F10  1  0.84459511  0.99115109  0.26005907  1
  F  F11  1  0.44430404  0.24668602  0.46445502  1
  F  F12  1  0.80238205  0.24668602  0.96445503  1
  F  F13  1  0.20680306  0.75087407  0.04607305  1
  F  F14  1  0.54407108  0.75087407  0.54607305  1
  F  F15  1  0.14655608  0.99115109  0.76005907  1
