# generated using pymatgen
data_Nb5Ir11
_symmetry_space_group_name_H-M   'P 1'
_cell_length_a   5.49384022
_cell_length_b   7.43133020
_cell_length_c   7.43133020
_cell_angle_alpha   67.49343872
_cell_angle_beta   68.30655670
_cell_angle_gamma   68.30655670
_symmetry_Int_Tables_number   1
_chemical_formula_structural   Nb5Ir11
_chemical_formula_sum   'Nb5 Ir11'
_cell_volume   251.06933993
_cell_formula_units_Z   1
loop_
 _symmetry_equiv_pos_site_id
 _symmetry_equiv_pos_as_xyz
  1  'x, y, z'
loop_
 _atom_site_type_symbol
 _atom_site_label
 _atom_site_symmetry_multiplicity
 _atom_site_fract_x
 _atom_site_fract_y
 _atom_site_fract_z
 _atom_site_occupancy
  Nb  Nb0  1  0.85433097  0.35517000  0.35517000  1
  Nb  Nb1  1  0.56467098  0.14483000  0.14483000  1
  Nb  Nb2  1  0.14566899  0.64483000  0.64483000  1
  Nb  Nb3  1  0.43532897  0.85516999  0.85517000  1
  Ir  Ir4  1  0.99999995  0.74999999  0.25000000  1
  Ir  Ir5  1  0.99999996  0.25000000  0.74999999  1
  Nb  Nb6  1  0.89117196  0.89607599  0.89607600  1
  Ir  Ir7  1  0.68332397  0.60392300  0.60392400  1
  Ir  Ir8  1  0.10882799  0.10392400  0.10392400  1
  Ir  Ir9  1  0.31667598  0.39607700  0.39607600  1
  Ir  Ir10  1  0.24310098  0.50689900  0.00689900  1
  Ir  Ir11  1  0.75689896  0.99310099  0.49310100  1
  Ir  Ir12  1  0.75689897  0.49310100  0.99310099  1
  Ir  Ir13  1  0.24310099  0.00689900  0.50689899  1
  Ir  Ir14  1  0.49999998  0.25000000  0.74999999  1
  Ir  Ir15  1  0.49999997  0.74999999  0.25000000  1
