# generated using pymatgen
data_Y12InCo4Sn
_symmetry_space_group_name_H-M   'P 1'
_cell_length_a   8.54934406
_cell_length_b   8.54934406
_cell_length_c   8.54934406
_cell_angle_alpha   72.81369781
_cell_angle_beta   71.14402771
_cell_angle_gamma   112.41609192
_symmetry_Int_Tables_number   1
_chemical_formula_structural   Y12InCo4Sn
_chemical_formula_sum   'Y12 In1 Co4 Sn1'
_cell_volume   479.97978876
_cell_formula_units_Z   1
loop_
 _symmetry_equiv_pos_site_id
 _symmetry_equiv_pos_as_xyz
  1  'x, y, z'
loop_
 _atom_site_type_symbol
 _atom_site_label
 _atom_site_symmetry_multiplicity
 _atom_site_fract_x
 _atom_site_fract_y
 _atom_site_fract_z
 _atom_site_occupancy
  Y  Y0  1  0.81167605  0.49082302  0.32085297  1
  Y  Y1  1  0.97183405  0.78723403  0.81539999  1
  Y  Y2  1  0.29215601  0.26793201  0.43991201  1
  Y  Y3  1  0.18832400  0.50917702  0.67914703  1
  Y  Y4  1  0.18832399  0.86747103  0.32085302  1
  Y  Y5  1  0.39736602  0.21276601  0.81540002  1
  Y  Y6  1  0.70784403  0.73206803  0.56008800  1
  Y  Y7  1  0.02816600  0.21276601  0.18460001  1
  Y  Y8  1  0.70784405  0.26793201  0.02422396  1
  Y  Y9  1  0.60263402  0.78723403  0.18459998  1
  Y  Y10  1  0.29215600  0.73206803  0.97577605  1
  Y  Y11  1  0.81167606  0.13252900  0.67914698  1
  In  In12  1  0.50000004  0.00000000  0.49999999  1
  Co  Co13  1  0.50000002  0.50000002  -0.00000002  1
  Co  Co14  1  0.14630300  0.50000002  0.35369702  1
  Co  Co15  1  1.00000005  0.89003203  0.10996796  1
  Co  Co16  1  1.00000007  0.10996800  0.89003198  1
  Sn  Sn17  1  0.85369705  0.50000002  0.64630299  1
