# generated using pymatgen
data_ScGa7
_symmetry_space_group_name_H-M   'P 1'
_cell_length_a   4.74834919
_cell_length_b   5.82888317
_cell_length_c   10.16479397
_cell_angle_alpha   90.00000000
_cell_angle_beta   90.00000000
_cell_angle_gamma   90.00000000
_symmetry_Int_Tables_number   1
_chemical_formula_structural   ScGa7
_chemical_formula_sum   'Sc2 Ga14'
_cell_volume   281.33682386
_cell_formula_units_Z   2
loop_
 _symmetry_equiv_pos_site_id
 _symmetry_equiv_pos_as_xyz
  1  'x, y, z'
loop_
 _atom_site_type_symbol
 _atom_site_label
 _atom_site_symmetry_multiplicity
 _atom_site_fract_x
 _atom_site_fract_y
 _atom_site_fract_z
 _atom_site_occupancy
  Sc  Sc0  1  0.49999998  0.00000000  0.16523100  1
  Sc  Sc1  1  0.49999998  0.49999999  0.66477300  1
  Ga  Ga2  1  0.49999998  0.74049198  0.41166800  1
  Ga  Ga3  1  0.49999998  0.24992599  0.92714600  1
  Ga  Ga4  1  0.49999998  0.25950799  0.41166800  1
  Ga  Ga5  1  0.49999998  0.75007398  0.92714600  1
  Ga  Ga6  1  0.00000000  0.49999999  0.33232500  1
  Ga  Ga7  1  0.00000000  0.00000000  0.83414400  1
  Ga  Ga8  1  0.00000000  0.74970398  0.08153200  1
  Ga  Ga9  1  0.00000000  0.25618099  0.58112600  1
  Ga  Ga10  1  0.00000000  0.25029599  0.08153200  1
  Ga  Ga11  1  0.00000000  0.74381898  0.58112600  1
  Ga  Ga12  1  0.49999998  0.49999999  0.16776600  1
  Ga  Ga13  1  0.49999998  0.00000000  0.66646800  1
  Ga  Ga14  1  0.00000000  0.00000000  0.33453000  1
  Ga  Ga15  1  0.00000000  0.49999999  0.83177300  1
