# generated using pymatgen
data_Ba2I2O
_symmetry_space_group_name_H-M   'P 1'
_cell_length_a   4.31992817
_cell_length_b   7.57100868
_cell_length_c   10.92747498
_cell_angle_alpha   90.00000000
_cell_angle_beta   90.00000000
_cell_angle_gamma   106.57643127
_symmetry_Int_Tables_number   1
_chemical_formula_structural   Ba2I2O
_chemical_formula_sum   'Ba4 I4 O2'
_cell_volume   342.54294418
_cell_formula_units_Z   2
loop_
 _symmetry_equiv_pos_site_id
 _symmetry_equiv_pos_as_xyz
  1  'x, y, z'
loop_
 _atom_site_type_symbol
 _atom_site_label
 _atom_site_symmetry_multiplicity
 _atom_site_fract_x
 _atom_site_fract_y
 _atom_site_fract_z
 _atom_site_occupancy
  Ba  Ba0  1  0.00000000  0.00000000  0.00000000  1
  Ba  Ba1  1  0.00000000  0.00000000  0.50000000  1
  Ba  Ba2  1  0.74562503  0.49125002  0.75000000  1
  Ba  Ba3  1  0.25437505  0.50875002  0.25000000  1
  I  I4  1  0.36876207  0.73752404  0.94843700  1
  I  I5  1  0.63123800  0.26247601  0.05156300  1
  I  I6  1  0.63123800  0.26247601  0.44843700  1
  I  I7  1  0.36876207  0.73752404  0.55156300  1
  O  O8  1  0.07168901  0.14337801  0.75000000  1
  O  O9  1  0.92831106  0.85662204  0.25000000  1
