# generated using pymatgen
data_W2N3
_symmetry_space_group_name_H-M   'P 1'
_cell_length_a   5.01437569
_cell_length_b   5.01437569
_cell_length_c   5.38021088
_cell_angle_alpha   99.11580658
_cell_angle_beta   99.11580658
_cell_angle_gamma   119.71887207
_symmetry_Int_Tables_number   1
_chemical_formula_structural   W2N3
_chemical_formula_sum   'W4 N6'
_cell_volume   111.48486873
_cell_formula_units_Z   2
loop_
 _symmetry_equiv_pos_site_id
 _symmetry_equiv_pos_as_xyz
  1  'x, y, z'
loop_
 _atom_site_type_symbol
 _atom_site_label
 _atom_site_symmetry_multiplicity
 _atom_site_fract_x
 _atom_site_fract_y
 _atom_site_fract_z
 _atom_site_occupancy
  W  W0  1  0.66895103  0.00608000  0.00837402  1
  W  W1  1  0.32294801  0.32294801  0.98427902  1
  W  W2  1  0.00607999  0.66895103  0.00837402  1
  W  W3  1  0.50883502  0.50883502  0.52302304  1
  N  N4  1  0.90749304  0.90749304  0.74983706  1
  N  N5  1  0.58768703  0.25378201  0.74761103  1
  N  N6  1  0.25378201  0.58768703  0.74761103  1
  N  N7  1  0.73572003  0.41963002  0.25048104  1
  N  N8  1  0.09621100  0.09621100  0.25192901  1
  N  N9  1  0.41963001  0.73572003  0.25048104  1
