# generated using pymatgen
data_Y3Ni8
_symmetry_space_group_name_H-M   'P 1'
_cell_length_a   6.61332321
_cell_length_b   6.61332321
_cell_length_c   6.61332273
_cell_angle_alpha   61.35721207
_cell_angle_beta   61.35721207
_cell_angle_gamma   61.35721970
_symmetry_Int_Tables_number   1
_chemical_formula_structural   Y3Ni8
_chemical_formula_sum   'Y3 Ni8'
_cell_volume   210.76120279
_cell_formula_units_Z   1
loop_
 _symmetry_equiv_pos_site_id
 _symmetry_equiv_pos_as_xyz
  1  'x, y, z'
loop_
 _atom_site_type_symbol
 _atom_site_label
 _atom_site_symmetry_multiplicity
 _atom_site_fract_x
 _atom_site_fract_y
 _atom_site_fract_z
 _atom_site_occupancy
  Y  Y0  1  0.16221200  0.16221199  0.16221201  1
  Y  Y1  1  0.50000000  0.49999998  0.50000002  1
  Y  Y2  1  0.83778799  0.83778797  0.83778803  1
  Ni  Ni3  1  0.33281900  0.33281899  0.33281901  1
  Ni  Ni4  1  0.66718100  0.66718097  0.66718102  1
  Ni  Ni5  1  0.57741700  0.91715496  0.24852302  1
  Ni  Ni6  1  0.91715498  0.24852299  0.57741702  1
  Ni  Ni7  1  0.24852301  0.57741698  0.91715502  1
  Ni  Ni8  1  0.42258299  0.08284500  0.75147702  1
  Ni  Ni9  1  0.75147699  0.42258298  0.08284502  1
  Ni  Ni10  1  0.08284502  0.75147697  0.42258301  1
