# generated using pymatgen
data_Sr2Mn3SnS8
_symmetry_space_group_name_H-M   'P 1'
_cell_length_a   6.22520399
_cell_length_b   6.22520399
_cell_length_c   10.75129318
_cell_angle_alpha   90.00000000
_cell_angle_beta   90.00000000
_cell_angle_gamma   119.56297302
_symmetry_Int_Tables_number   1
_chemical_formula_structural   Sr2Mn3SnS8
_chemical_formula_sum   'Sr2 Mn3 Sn1 S8'
_cell_volume   362.40505775
_cell_formula_units_Z   1
loop_
 _symmetry_equiv_pos_site_id
 _symmetry_equiv_pos_as_xyz
  1  'x, y, z'
loop_
 _atom_site_type_symbol
 _atom_site_label
 _atom_site_symmetry_multiplicity
 _atom_site_fract_x
 _atom_site_fract_y
 _atom_site_fract_z
 _atom_site_occupancy
  Sr  Sr0  1  0.49999998  0.49999999  0.25000000  1
  Sr  Sr1  1  0.49999998  0.49999999  0.74999999  1
  Mn  Mn2  1  0.76003200  0.23621100  0.49999999  1
  Mn  Mn3  1  0.76378900  0.23996800  -0.00000000  1
  Mn  Mn4  1  0.23621096  0.76003199  -0.00000000  1
  Sn  Sn5  1  0.23996796  0.76378899  0.49999999  1
  S  S6  1  0.49999995  0.99999998  0.32792699  1
  S  S7  1  0.34910799  0.19018900  0.99999998  1
  S  S8  1  0.19018898  0.34910799  0.49999999  1
  S  S9  1  0.80981097  0.65089199  0.49999999  1
  S  S10  1  -0.00000003  0.49999999  0.17207300  1
  S  S11  1  -0.00000003  0.49999999  0.82792699  1
  S  S12  1  0.65089196  0.80981099  -0.00000000  1
  S  S13  1  0.49999995  0.99999998  0.67207299  1
