# generated using pymatgen
data_F2
_symmetry_space_group_name_H-M   'P 1'
_cell_length_a   5.22800112
_cell_length_b   5.26822805
_cell_length_c   5.28571606
_cell_angle_alpha   91.13212585
_cell_angle_beta   102.47712708
_cell_angle_gamma   100.82789612
_symmetry_Int_Tables_number   1
_chemical_formula_structural   F2
_chemical_formula_sum   F9
_cell_volume   139.33511599
_cell_formula_units_Z   4
loop_
 _symmetry_equiv_pos_site_id
 _symmetry_equiv_pos_as_xyz
  1  'x, y, z'
loop_
 _atom_site_type_symbol
 _atom_site_label
 _atom_site_symmetry_multiplicity
 _atom_site_fract_x
 _atom_site_fract_y
 _atom_site_fract_z
 _atom_site_occupancy
  F  F0  1  0.00000000  0.00000000  0.00000000  1
  F  F1  1  0.41020198  0.54039700  0.52916295  1
  F  F2  1  0.58979798  0.45960300  0.47083697  1
  F  F3  1  0.78654497  0.69414800  0.07798297  1
  F  F4  1  0.69389799  0.08531900  0.78594898  1
  F  F5  1  0.30610197  0.91468100  0.21405094  1
  F  F6  1  0.05831598  0.81823800  0.71462492  1
  F  F7  1  0.94168398  0.18176200  0.28537500  1
  F  F8  1  0.21345499  0.30585200  0.92201695  1
