# generated using pymatgen
data_NbAs
_symmetry_space_group_name_H-M   'P 1'
_cell_length_a   5.60695601
_cell_length_b   5.60695601
_cell_length_c   5.60695505
_cell_angle_alpha   83.85152435
_cell_angle_beta   83.85152435
_cell_angle_gamma   83.85152435
_symmetry_Int_Tables_number   1
_chemical_formula_structural   NbAs
_chemical_formula_sum   'Nb4 As4'
_cell_volume   173.43175792
_cell_formula_units_Z   4
loop_
 _symmetry_equiv_pos_site_id
 _symmetry_equiv_pos_as_xyz
  1  'x, y, z'
loop_
 _atom_site_type_symbol
 _atom_site_label
 _atom_site_symmetry_multiplicity
 _atom_site_fract_x
 _atom_site_fract_y
 _atom_site_fract_z
 _atom_site_occupancy
  Nb  Nb0  1  0.25728699  0.25728701  0.25728700  1
  Nb  Nb1  1  0.74271298  0.74271302  0.74271299  1
  Nb  Nb2  1  0.25336297  0.79919602  0.79919599  1
  Nb  Nb3  1  0.79919598  0.79919602  0.25336299  1
  As  As4  1  0.79919600  0.25336301  0.79919599  1
  As  As5  1  0.74663700  0.20080400  0.20080399  1
  As  As6  1  0.20080400  0.20080400  0.74663699  1
  As  As7  1  0.20080397  0.74663702  0.20080399  1
