# generated using pymatgen
data_MgZnAg4
_symmetry_space_group_name_H-M   'P 1'
_cell_length_a   4.71849537
_cell_length_b   4.71849537
_cell_length_c   5.70376682
_cell_angle_alpha   65.56694794
_cell_angle_beta   65.56694794
_cell_angle_gamma   60.00000763
_symmetry_Int_Tables_number   1
_chemical_formula_structural   MgZnAg4
_chemical_formula_sum   'Mg1 Zn1 Ag4'
_cell_volume   96.62167423
_cell_formula_units_Z   1
loop_
 _symmetry_equiv_pos_site_id
 _symmetry_equiv_pos_as_xyz
  1  'x, y, z'
loop_
 _atom_site_type_symbol
 _atom_site_label
 _atom_site_symmetry_multiplicity
 _atom_site_fract_x
 _atom_site_fract_y
 _atom_site_fract_z
 _atom_site_occupancy
  Mg  Mg0  1  0.50000002  0.50000001  0.50000000  1
  Zn  Zn1  1  0.67002002  0.00000000  0.00000001  1
  Ag  Ag2  1  0.83512703  0.83512702  0.49461902  1
  Ag  Ag3  1  0.32998002  0.67002001  0.00000002  1
  Ag  Ag4  1  0.00000000  0.32998001  0.00000001  1
  Ag  Ag5  1  0.16487301  0.16487300  0.50538099  1
