# generated using pymatgen
data_SrLaTi4O12
_symmetry_space_group_name_H-M   'P 1'
_cell_length_a   5.30810452
_cell_length_b   7.20205688
_cell_length_c   7.20205688
_cell_angle_alpha   76.46908569
_cell_angle_beta   70.68647766
_cell_angle_gamma   70.68647766
_symmetry_Int_Tables_number   1
_chemical_formula_structural   SrLaTi4O12
_chemical_formula_sum   'Sr1 La1 Ti4 O12'
_cell_volume   242.80094835
_cell_formula_units_Z   1
loop_
 _symmetry_equiv_pos_site_id
 _symmetry_equiv_pos_as_xyz
  1  'x, y, z'
loop_
 _atom_site_type_symbol
 _atom_site_label
 _atom_site_symmetry_multiplicity
 _atom_site_fract_x
 _atom_site_fract_y
 _atom_site_fract_z
 _atom_site_occupancy
  Sr  Sr0  1  0.50000001  0.19462801  0.80537201  1
  La  La1  1  -0.00000002  0.80466203  0.19533800  1
  Ti  Ti2  1  0.29951599  0.81605003  0.65317300  1
  Ti  Ti3  1  0.70048401  0.34682701  0.18394999  1
  Ti  Ti4  1  0.20097200  0.18242301  0.34699000  1
  Ti  Ti5  1  0.79902801  0.65301002  0.81757700  1
  O  O6  1  0.71888401  0.40278101  0.88756301  1
  O  O7  1  0.28111601  0.11243700  0.59721901  1
  O  O8  1  0.78061701  0.60281002  0.11073998  1
  O  O9  1  0.21938299  0.88926003  0.39719000  1
  O  O10  1  0.10376400  0.18439701  0.09858100  1
  O  O11  1  0.89623601  0.90141903  0.81560300  1
  O  O12  1  0.39788899  0.81483203  0.90238101  1
  O  O13  1  0.60211101  0.09761900  0.18516799  1
  O  O14  1  0.79412102  0.27703901  0.44006400  1
  O  O15  1  0.20587899  0.55993602  0.72296101  1
  O  O16  1  0.70991800  0.72147102  0.56160100  1
  O  O17  1  0.29008200  0.43839902  0.27852900  1
