# generated using pymatgen
data_TbB2Rh3
_symmetry_space_group_name_H-M   'P 1'
_cell_length_a   3.12248802
_cell_length_b   5.41094589
_cell_length_c   5.41094542
_cell_angle_alpha   120.00000000
_cell_angle_beta   90.00000000
_cell_angle_gamma   90.00000000
_symmetry_Int_Tables_number   1
_chemical_formula_structural   TbB2Rh3
_chemical_formula_sum   'Tb1 B2 Rh3'
_cell_volume   79.17311948
_cell_formula_units_Z   1
loop_
 _symmetry_equiv_pos_site_id
 _symmetry_equiv_pos_as_xyz
  1  'x, y, z'
loop_
 _atom_site_type_symbol
 _atom_site_label
 _atom_site_symmetry_multiplicity
 _atom_site_fract_x
 _atom_site_fract_y
 _atom_site_fract_z
 _atom_site_occupancy
  Tb  Tb0  1  0.50000000  0.00000000  -0.00000000  1
  B  B1  1  0.50000000  0.33333333  0.66666664  1
  B  B2  1  0.50000000  0.66666666  0.33333328  1
  Rh  Rh3  1  0.99999999  0.49999999  0.49999996  1
  Rh  Rh4  1  -0.00000000  0.49999999  -0.00000004  1
  Rh  Rh5  1  -0.00000000  0.99999998  0.49999992  1
