# generated using pymatgen
data_Li5Mn3(CoO5)2
_symmetry_space_group_name_H-M   'P 1'
_cell_length_a   5.02846479
_cell_length_b   5.82695055
_cell_length_c   6.63840151
_cell_angle_alpha   103.58834076
_cell_angle_beta   98.43287659
_cell_angle_gamma   106.92337799
_symmetry_Int_Tables_number   1
_chemical_formula_structural   Li5Mn3(CoO5)2
_chemical_formula_sum   'Li5 Mn3 Co2 O10'
_cell_volume   175.97453427
_cell_formula_units_Z   1
loop_
 _symmetry_equiv_pos_site_id
 _symmetry_equiv_pos_as_xyz
  1  'x, y, z'
loop_
 _atom_site_type_symbol
 _atom_site_label
 _atom_site_symmetry_multiplicity
 _atom_site_fract_x
 _atom_site_fract_y
 _atom_site_fract_z
 _atom_site_occupancy
  Li  Li0  1  0.20491797  0.89843800  0.40422498  1
  Li  Li1  1  0.01367298  0.50044100  0.98833298  1
  Li  Li2  1  0.39773099  0.29879800  0.79397698  1
  Li  Li3  1  0.59013498  0.70244100  0.20140198  1
  Li  Li4  1  0.79226399  0.09952500  0.61323098  1
  Mn  Mn5  1  0.40142697  0.79945900  0.79377597  1
  Mn  Mn6  1  0.99787400  0.00000600  0.99495598  1
  Mn  Mn7  1  0.79809598  0.60080800  0.60427597  1
  Co  Co8  1  0.59828399  0.19657500  0.19611599  1
  Co  Co9  1  0.19883599  0.40150700  0.40441299  1
  O  O10  1  0.30077897  0.87698000  0.10316298  1
  O  O11  1  0.08373399  0.45112600  0.67152498  1
  O  O12  1  0.49411699  0.27799700  0.50872198  1
  O  O13  1  0.73033398  0.66403000  0.88882397  1
  O  O14  1  0.90890199  0.05909000  0.27898699  1
  O  O15  1  0.07689697  0.93638000  0.71305597  1
  O  O16  1  0.89391498  0.53330700  0.32205598  1
  O  O17  1  0.29085599  0.33642200  0.11392999  1
  O  O18  1  0.50030098  0.72167700  0.49770398  1
  O  O19  1  0.72692999  0.14499200  0.90733098  1
