# generated using pymatgen
data_SrLaMn2O5
_symmetry_space_group_name_H-M   'P 1'
_cell_length_a   5.37563229
_cell_length_b   5.64861345
_cell_length_c   9.15986061
_cell_angle_alpha   72.06982422
_cell_angle_beta   73.21640778
_cell_angle_gamma   89.89009094
_symmetry_Int_Tables_number   1
_chemical_formula_structural   SrLaMn2O5
_chemical_formula_sum   'Sr2 La2 Mn4 O10'
_cell_volume   252.19921524
_cell_formula_units_Z   2
loop_
 _symmetry_equiv_pos_site_id
 _symmetry_equiv_pos_as_xyz
  1  'x, y, z'
loop_
 _atom_site_type_symbol
 _atom_site_label
 _atom_site_symmetry_multiplicity
 _atom_site_fract_x
 _atom_site_fract_y
 _atom_site_fract_z
 _atom_site_occupancy
  Sr  Sr0  1  0.43194502  0.37016298  0.22329198  1
  Sr  Sr1  1  0.93074705  0.90598296  0.22332197  1
  La  La2  1  0.14197501  0.08358400  0.79138698  1
  La  La3  1  0.64289004  0.62529097  0.79194797  1
  Mn  Mn4  1  0.25987203  0.68664697  0.49971599  1
  Mn  Mn5  1  0.76049403  0.31363499  0.49982896  1
  Mn  Mn6  1  0.53911505  0.99845696  0.00762499  1
  Mn  Mn7  1  0.04004702  0.49382798  0.00777901  1
  O  O8  1  0.78730504  0.74254497  0.00181698  1
  O  O9  1  0.40195602  0.37049198  0.51502998  1
  O  O10  1  0.24146103  0.73417197  0.69226199  1
  O  O11  1  0.41773204  0.90326596  0.29886399  1
  O  O12  1  0.80910303  0.26400299  0.97158695  1
  O  O13  1  0.28782103  0.75573897  0.00093800  1
  O  O14  1  0.90127004  0.61419197  0.51531296  1
  O  O15  1  0.74249502  0.07396900  0.69291396  1
  O  O16  1  0.92043103  0.29651599  0.29916096  1
  O  O17  1  0.31134302  0.26751899  0.96721497  1
