# generated using pymatgen
data_La3Si2
_symmetry_space_group_name_H-M   'P 1'
_cell_length_a   4.34159088
_cell_length_b   7.88243008
_cell_length_c   7.88243008
_cell_angle_alpha   90.00000000
_cell_angle_beta   90.00000000
_cell_angle_gamma   90.00000000
_symmetry_Int_Tables_number   1
_chemical_formula_structural   La3Si2
_chemical_formula_sum   'La6 Si4'
_cell_volume   269.75478074
_cell_formula_units_Z   2
loop_
 _symmetry_equiv_pos_site_id
 _symmetry_equiv_pos_as_xyz
  1  'x, y, z'
loop_
 _atom_site_type_symbol
 _atom_site_label
 _atom_site_symmetry_multiplicity
 _atom_site_fract_x
 _atom_site_fract_y
 _atom_site_fract_z
 _atom_site_occupancy
  La  La0  1  0.00000000  0.50000000  0.50000000  1
  La  La1  1  0.00000000  0.00000000  0.00000000  1
  La  La2  1  0.50000001  0.67751599  0.17751600  1
  La  La3  1  0.50000001  0.32248400  0.82248399  1
  La  La4  1  0.50000001  0.17751600  0.32248400  1
  La  La5  1  0.50000001  0.82248399  0.67751599  1
  Si  Si6  1  0.00000000  0.10940900  0.60940899  1
  Si  Si7  1  0.00000000  0.89059099  0.39059100  1
  Si  Si8  1  0.00000000  0.60940899  0.89059099  1
  Si  Si9  1  0.00000000  0.39059100  0.10940900  1
