# generated using pymatgen
data_FeSb
_symmetry_space_group_name_H-M   'P 1'
_cell_length_a   4.01480579
_cell_length_b   4.01480675
_cell_length_c   5.01975822
_cell_angle_alpha   90.00000000
_cell_angle_beta   90.00000000
_cell_angle_gamma   119.99999237
_symmetry_Int_Tables_number   1
_chemical_formula_structural   FeSb
_chemical_formula_sum   'Fe2 Sb2'
_cell_volume   70.07169978
_cell_formula_units_Z   2
loop_
 _symmetry_equiv_pos_site_id
 _symmetry_equiv_pos_as_xyz
  1  'x, y, z'
loop_
 _atom_site_type_symbol
 _atom_site_label
 _atom_site_symmetry_multiplicity
 _atom_site_fract_x
 _atom_site_fract_y
 _atom_site_fract_z
 _atom_site_occupancy
  Fe  Fe0  1  0.00000000  0.00000000  0.00000000  1
  Fe  Fe1  1  0.00000000  0.00000000  0.49999998  1
  Sb  Sb2  1  0.66666670  0.33333334  0.74999997  1
  Sb  Sb3  1  0.33333335  0.66666669  0.24999999  1
