# generated using pymatgen
data_Lu2Mn2Ni3
_symmetry_space_group_name_H-M   'P 1'
_cell_length_a   4.88489199
_cell_length_b   5.11215162
_cell_length_c   5.11215162
_cell_angle_alpha   76.80495453
_cell_angle_beta   61.45997238
_cell_angle_gamma   61.45997238
_symmetry_Int_Tables_number   1
_chemical_formula_structural   Lu2Mn2Ni3
_chemical_formula_sum   'Lu2 Mn2 Ni3'
_cell_volume   98.52119780
_cell_formula_units_Z   1
loop_
 _symmetry_equiv_pos_site_id
 _symmetry_equiv_pos_as_xyz
  1  'x, y, z'
loop_
 _atom_site_type_symbol
 _atom_site_label
 _atom_site_symmetry_multiplicity
 _atom_site_fract_x
 _atom_site_fract_y
 _atom_site_fract_z
 _atom_site_occupancy
  Lu  Lu0  1  0.00000000  0.00000000  0.00000000  1
  Lu  Lu1  1  0.25000001  0.50000001  0.49999999  1
  Mn  Mn2  1  0.30727700  0.00000000  0.38544601  1
  Mn  Mn3  1  0.69272300  0.00000000  0.61455401  1
  Ni  Ni4  1  0.69272201  0.61455502  -0.00000003  1
  Ni  Ni5  1  0.30727801  0.38544501  -0.00000002  1
  Ni  Ni6  1  0.75000001  0.50000001  0.49999999  1
