# generated using pymatgen
data_Tb3Sc2TeBr14
_symmetry_space_group_name_H-M   'P 1'
_cell_length_a   7.51504993
_cell_length_b   7.89739513
_cell_length_c   9.23829365
_cell_angle_alpha   90.93564606
_cell_angle_beta   104.74306488
_cell_angle_gamma   106.25440216
_symmetry_Int_Tables_number   1
_chemical_formula_structural   Tb3Sc2TeBr14
_chemical_formula_sum   'Tb3 Sc2 Te1 Br14'
_cell_volume   506.77178476
_cell_formula_units_Z   1
loop_
 _symmetry_equiv_pos_site_id
 _symmetry_equiv_pos_as_xyz
  1  'x, y, z'
loop_
 _atom_site_type_symbol
 _atom_site_label
 _atom_site_symmetry_multiplicity
 _atom_site_fract_x
 _atom_site_fract_y
 _atom_site_fract_z
 _atom_site_occupancy
  Sc  Sc0  1  0.50463900  0.23381199  0.01543100  1
  Sc  Sc1  1  0.84767599  0.56131598  0.34823601  1
  Tb  Tb2  1  0.16389296  0.88936697  0.67123398  1
  Tb  Tb3  1  0.49536097  0.76618797  0.98456902  1
  Tb  Tb4  1  0.83610701  0.11063300  0.32876603  1
  Te  Te5  1  0.15232398  0.43868398  0.65176401  1
  Br  Br6  1  0.83347597  0.83584397  0.83661001  1
  Br  Br7  1  0.16652399  0.16415599  0.16339000  1
  Br  Br8  1  0.43322096  0.97480796  0.20630096  1
  Br  Br9  1  0.75866200  0.31399899  0.53637403  1
  Br  Br10  1  0.09725197  0.64261498  0.87445701  1
  Br  Br11  1  0.56677901  0.02519200  0.79369905  1
  Br  Br12  1  0.90274800  0.35738499  0.12554301  1
  Br  Br13  1  0.24133797  0.68600097  0.46362599  1
  Br  Br14  1  0.54932798  0.50800098  0.80266302  1
  Br  Br15  1  0.88849897  0.83775497  0.14788498  1
  Br  Br16  1  0.22665599  0.18158399  0.47778502  1
  Br  Br17  1  0.45067198  0.49199898  0.19733699  1
  Br  Br18  1  0.77334397  0.81841597  0.52221500  1
  Br  Br19  1  0.11150099  0.16224499  0.85211504  1
