# generated using pymatgen
data_Sr3H7ClO7
_symmetry_space_group_name_H-M   'P 1'
_cell_length_a   6.46341801
_cell_length_b   6.74891186
_cell_length_c   6.72261572
_cell_angle_alpha   103.56909180
_cell_angle_beta   90.00000000
_cell_angle_gamma   118.61024475
_symmetry_Int_Tables_number   1
_chemical_formula_structural   Sr3H7ClO7
_chemical_formula_sum   'Sr3 H7 Cl1 O7'
_cell_volume   248.07736644
_cell_formula_units_Z   1
loop_
 _symmetry_equiv_pos_site_id
 _symmetry_equiv_pos_as_xyz
  1  'x, y, z'
loop_
 _atom_site_type_symbol
 _atom_site_label
 _atom_site_symmetry_multiplicity
 _atom_site_fract_x
 _atom_site_fract_y
 _atom_site_fract_z
 _atom_site_occupancy
  Sr  Sr0  1  0.74318600  0.00000000  0.74999999  1
  Sr  Sr1  1  0.25681400  0.00000000  0.25000000  1
  Sr  Sr2  1  0.42580098  0.24229700  0.88013197  1
  H  H3  1  0.18350395  0.75770299  0.61986794  1
  H  H4  1  0.57419895  0.75770299  0.11986795  1
  H  H5  1  0.81649598  0.24229700  0.38013198  1
  H  H6  1  0.64883597  0.38000700  0.04963198  1
  H  H7  1  0.26882896  0.61999299  0.45036796  1
  H  H8  1  0.35116396  0.61999299  0.95036795  1
  H  H9  1  0.73117097  0.38000700  0.54963197  1
  Cl  Cl10  1  0.05227898  0.29207000  0.15334398  1
  O  O11  1  0.76020895  0.70792999  0.34665595  1
  O  O12  1  0.94772095  0.70792999  0.84665594  1
  O  O13  1  0.23979098  0.29207000  0.65334397  1
  O  O14  1  0.52772898  0.21860300  0.97368897  1
  O  O15  1  0.30912595  0.78139699  0.52631094  1
  O  O16  1  0.47227095  0.78139699  0.02631095  1
  O  O17  1  0.69087398  0.21860300  0.47368898  1
