# generated using pymatgen
data_Sc7FeI12
_symmetry_space_group_name_H-M   'P 1'
_cell_length_a   9.39290714
_cell_length_b   9.39290714
_cell_length_c   9.39290619
_cell_angle_alpha   108.16148376
_cell_angle_beta   108.16148376
_cell_angle_gamma   108.16148376
_symmetry_Int_Tables_number   1
_chemical_formula_structural   Sc7FeI12
_chemical_formula_sum   'Sc7 Fe1 I12'
_cell_volume   667.07982699
_cell_formula_units_Z   1
loop_
 _symmetry_equiv_pos_site_id
 _symmetry_equiv_pos_as_xyz
  1  'x, y, z'
loop_
 _atom_site_type_symbol
 _atom_site_label
 _atom_site_symmetry_multiplicity
 _atom_site_fract_x
 _atom_site_fract_y
 _atom_site_fract_z
 _atom_site_occupancy
  Sc  Sc0  1  0.96185794  0.90359395  0.72733394  1
  Sc  Sc1  1  0.90359394  0.72733396  0.96185794  1
  Sc  Sc2  1  0.72733394  0.96185795  0.90359394  1
  Sc  Sc3  1  0.08534399  0.26710599  0.02542899  1
  Sc  Sc4  1  0.26710599  0.02542900  0.08534399  1
  Sc  Sc5  1  0.02542900  0.08534400  0.26710599  1
  Sc  Sc6  1  0.52506996  0.52506997  0.52506996  1
  Fe  Fe7  1  0.00016200  0.00016200  0.00016200  1
  I  I8  1  0.07537399  0.21878699  0.70148798  1
  I  I9  1  0.53976596  0.61638597  0.85217896  1
  I  I10  1  0.85217895  0.53976597  0.61638596  1
  I  I11  1  0.61638595  0.85217896  0.53976595  1
  I  I12  1  0.21878697  0.70148796  0.07537397  1
  I  I13  1  0.70148797  0.07537400  0.21878698  1
  I  I14  1  0.45358097  0.38219898  0.16146897  1
  I  I15  1  0.38219898  0.16146899  0.45358098  1
  I  I16  1  0.16146898  0.45358098  0.38219898  1
  I  I17  1  0.77639296  0.29556098  0.92537096  1
  I  I18  1  0.29556096  0.92537095  0.77639295  1
  I  I19  1  0.92537094  0.77639296  0.29556095  1
