# generated using pymatgen
data_Dy2FeC4
_symmetry_space_group_name_H-M   'P 1'
_cell_length_a   4.93263006
_cell_length_b   6.44630432
_cell_length_c   6.44630432
_cell_angle_alpha   70.37920380
_cell_angle_beta   67.50556946
_cell_angle_gamma   67.50556946
_symmetry_Int_Tables_number   1
_chemical_formula_structural   Dy2FeC4
_chemical_formula_sum   'Dy4 Fe2 C8'
_cell_volume   170.60891755
_cell_formula_units_Z   2
loop_
 _symmetry_equiv_pos_site_id
 _symmetry_equiv_pos_as_xyz
  1  'x, y, z'
loop_
 _atom_site_type_symbol
 _atom_site_label
 _atom_site_symmetry_multiplicity
 _atom_site_fract_x
 _atom_site_fract_y
 _atom_site_fract_z
 _atom_site_occupancy
  Dy  Dy0  1  0.14570400  0.20006300  0.50852800  1
  Dy  Dy1  1  0.85429599  0.79993698  0.49147202  1
  Dy  Dy2  1  0.64570399  0.50852799  0.20006302  1
  Dy  Dy3  1  0.35429600  0.49147199  0.79993701  1
  Fe  Fe4  1  0.74999999  0.00000000  0.00000001  1
  Fe  Fe5  1  0.25000000  0.00000000  0.00000000  1
  C  C6  1  0.36964500  0.78836298  0.47234702  1
  C  C7  1  0.63035499  0.21163700  0.52765301  1
  C  C8  1  0.86964499  0.47234699  0.78836301  1
  C  C9  1  0.13035500  0.52765299  0.21163701  1
  C  C10  1  0.42222400  0.90929498  0.24625802  1
  C  C11  1  0.57777599  0.09070500  0.75374200  1
  C  C12  1  0.92222398  0.24625799  0.90929501  1
  C  C13  1  0.07777600  0.75374198  0.09070502  1
