# generated using pymatgen
data_Hf4AlCo7
_symmetry_space_group_name_H-M   'P 1'
_cell_length_a   5.02174997
_cell_length_b   5.04616642
_cell_length_c   8.10322094
_cell_angle_alpha   90.00000000
_cell_angle_beta   90.00000000
_cell_angle_gamma   119.84007263
_symmetry_Int_Tables_number   1
_chemical_formula_structural   Hf4AlCo7
_chemical_formula_sum   'Hf4 Al1 Co7'
_cell_volume   178.11586089
_cell_formula_units_Z   1
loop_
 _symmetry_equiv_pos_site_id
 _symmetry_equiv_pos_as_xyz
  1  'x, y, z'
loop_
 _atom_site_type_symbol
 _atom_site_label
 _atom_site_symmetry_multiplicity
 _atom_site_fract_x
 _atom_site_fract_y
 _atom_site_fract_z
 _atom_site_occupancy
  Hf  Hf0  1  0.66649203  0.33298401  0.80953801  1
  Hf  Hf1  1  0.33307705  0.66615402  0.68601801  1
  Hf  Hf2  1  0.33307705  0.66615402  0.31398200  1
  Hf  Hf3  1  0.66649203  0.33298401  0.19046200  1
  Al  Al4  1  0.16698503  0.33397001  -0.00000000  1
  Co  Co5  1  0.82868202  0.16906201  0.50000000  1
  Co  Co6  1  0.34038001  0.16906201  0.50000000  1
  Co  Co7  1  0.82978105  0.65956202  0.50000000  1
  Co  Co8  1  0.00077400  0.00154800  0.74046001  1
  Co  Co9  1  0.00077400  0.00154800  0.25954000  1
  Co  Co10  1  0.16640706  0.83143503  -0.00000000  1
  Co  Co11  1  0.66502807  0.83143503  -0.00000000  1
