# generated using pymatgen
data_LiZnF3
_symmetry_space_group_name_H-M   'P 1'
_cell_length_a   5.35089016
_cell_length_b   5.35089016
_cell_length_c   5.65912199
_cell_angle_alpha   61.78595352
_cell_angle_beta   61.78595352
_cell_angle_gamma   60.00000000
_symmetry_Int_Tables_number   1
_chemical_formula_structural   LiZnF3
_chemical_formula_sum   'Li2 Zn2 F6'
_cell_volume   117.57008400
_cell_formula_units_Z   2
loop_
 _symmetry_equiv_pos_site_id
 _symmetry_equiv_pos_as_xyz
  1  'x, y, z'
loop_
 _atom_site_type_symbol
 _atom_site_label
 _atom_site_symmetry_multiplicity
 _atom_site_fract_x
 _atom_site_fract_y
 _atom_site_fract_z
 _atom_site_occupancy
  Li  Li0  1  0.71592805  0.71592799  0.85221593  1
  Li  Li1  1  0.21592801  0.21592800  0.35221597  1
  Zn  Zn2  1  0.99815606  0.99815599  0.00553194  1
  Zn  Zn3  1  0.49815603  0.49815599  0.50553195  1
  F  F4  1  0.10723105  0.78719199  0.71268294  1
  F  F5  1  0.39289401  0.10723100  0.71268296  1
  F  F6  1  0.78719203  0.39289400  0.71268294  1
  F  F7  1  0.89289402  0.28719200  0.21268296  1
  F  F8  1  0.28719204  0.60723099  0.21268296  1
  F  F9  1  0.60723106  0.89289399  0.21268295  1
