# generated using pymatgen
data_Li2MgSiF5
_symmetry_space_group_name_H-M   'P 1'
_cell_length_a   5.46957111
_cell_length_b   5.46957111
_cell_length_c   5.46957111
_cell_angle_alpha   71.81114197
_cell_angle_beta   71.45170593
_cell_angle_gamma   111.69995117
_symmetry_Int_Tables_number   1
_chemical_formula_structural   Li2MgSiF5
_chemical_formula_sum   'Li2 Mg1 Si1 F5'
_cell_volume   125.81677834
_cell_formula_units_Z   1
loop_
 _symmetry_equiv_pos_site_id
 _symmetry_equiv_pos_as_xyz
  1  'x, y, z'
loop_
 _atom_site_type_symbol
 _atom_site_label
 _atom_site_symmetry_multiplicity
 _atom_site_fract_x
 _atom_site_fract_y
 _atom_site_fract_z
 _atom_site_occupancy
  Li  Li0  1  0.79675800  0.26347500  0.46671698  1
  Li  Li1  1  0.26980801  0.73652499  0.46671699  1
  Mg  Mg2  1  0.00102900  0.00000000  0.99897098  1
  Si  Si3  1  0.25641800  0.00000000  0.74358198  1
  F  F4  1  0.97787899  0.29862800  0.72349297  1
  F  F5  1  0.97787900  0.70137299  0.32074898  1
  F  F6  1  0.65621601  0.71161799  0.05540199  1
  F  F7  1  0.23297900  0.28838100  0.05540299  1
  F  F8  1  0.67116299  0.00000000  0.32883698  1
