# generated using pymatgen
data_MnAlCo
_symmetry_space_group_name_H-M   'P 1'
_cell_length_a   4.17159224
_cell_length_b   4.17159224
_cell_length_c   4.17159224
_cell_angle_alpha   60.00000000
_cell_angle_beta   60.00000000
_cell_angle_gamma   60.00000000
_symmetry_Int_Tables_number   1
_chemical_formula_structural   MnAlCo
_chemical_formula_sum   'Mn1 Al1 Co1'
_cell_volume   51.33227988
_cell_formula_units_Z   1
loop_
 _symmetry_equiv_pos_site_id
 _symmetry_equiv_pos_as_xyz
  1  'x, y, z'
loop_
 _atom_site_type_symbol
 _atom_site_label
 _atom_site_symmetry_multiplicity
 _atom_site_fract_x
 _atom_site_fract_y
 _atom_site_fract_z
 _atom_site_occupancy
  Mn  Mn0  1  0.49999997  0.49999997  0.49999997  1
  Al  Al1  1  0.00000000  0.00000000  0.00000000  1
  Co  Co2  1  0.24999999  0.24999999  0.24999999  1
