# generated using pymatgen
data_Y3Mg3In2Au
_symmetry_space_group_name_H-M   'P 1'
_cell_length_a   4.68555403
_cell_length_b   7.51998377
_cell_length_c   7.51998377
_cell_angle_alpha   120.00000000
_cell_angle_beta   90.00000000
_cell_angle_gamma   90.00000000
_symmetry_Int_Tables_number   1
_chemical_formula_structural   Y3Mg3In2Au
_chemical_formula_sum   'Y3 Mg3 In2 Au1'
_cell_volume   229.46972122
_cell_formula_units_Z   1
loop_
 _symmetry_equiv_pos_site_id
 _symmetry_equiv_pos_as_xyz
  1  'x, y, z'
loop_
 _atom_site_type_symbol
 _atom_site_label
 _atom_site_symmetry_multiplicity
 _atom_site_fract_x
 _atom_site_fract_y
 _atom_site_fract_z
 _atom_site_occupancy
  Y  Y0  1  -0.00000000  0.42821801  0.42821800  1
  Y  Y1  1  0.99999999  0.00000000  0.57178201  1
  Y  Y2  1  -0.00000000  0.57178201  -0.00000001  1
  Mg  Mg3  1  0.50000000  0.75582702  0.75582700  1
  Mg  Mg4  1  0.50000000  1.00000002  0.24417299  1
  Mg  Mg5  1  0.50000000  0.24417301  1.00000001  1
  In  In6  1  0.50000000  0.66666668  0.33333333  1
  In  In7  1  0.50000000  0.33333334  0.66666667  1
  Au  Au8  1  0.00000000  0.00000000  0.00000000  1
