# generated using pymatgen
data_Pr2InAu2
_symmetry_space_group_name_H-M   'P 1'
_cell_length_a   3.89470792
_cell_length_b   8.24347591
_cell_length_c   8.24347591
_cell_angle_alpha   90.00000000
_cell_angle_beta   90.00000000
_cell_angle_gamma   90.00000000
_symmetry_Int_Tables_number   1
_chemical_formula_structural   Pr2InAu2
_chemical_formula_sum   'Pr4 In2 Au4'
_cell_volume   264.66446820
_cell_formula_units_Z   2
loop_
 _symmetry_equiv_pos_site_id
 _symmetry_equiv_pos_as_xyz
  1  'x, y, z'
loop_
 _atom_site_type_symbol
 _atom_site_label
 _atom_site_symmetry_multiplicity
 _atom_site_fract_x
 _atom_site_fract_y
 _atom_site_fract_z
 _atom_site_occupancy
  Pr  Pr0  1  0.50000001  0.67600301  0.17600300  1
  Pr  Pr1  1  0.50000001  0.32399700  0.82399701  1
  Pr  Pr2  1  0.50000001  0.17600300  0.32399700  1
  Pr  Pr3  1  0.50000001  0.82399701  0.67600301  1
  In  In4  1  0.00000000  0.00000000  0.00000000  1
  In  In5  1  -0.00000000  0.50000001  0.50000001  1
  Au  Au6  1  0.00000000  0.12477300  0.62477301  1
  Au  Au7  1  0.00000000  0.87522701  0.37522700  1
  Au  Au8  1  0.00000000  0.62477301  0.87522701  1
  Au  Au9  1  -0.00000000  0.37522700  0.12477300  1
