# generated using pymatgen
data_Zr2Ge5Mo
_symmetry_space_group_name_H-M   'P 1'
_cell_length_a   3.85661292
_cell_length_b   3.85661292
_cell_length_c   8.59753418
_cell_angle_alpha   90.00000000
_cell_angle_beta   90.00000000
_cell_angle_gamma   90.00000000
_symmetry_Int_Tables_number   1
_chemical_formula_structural   Zr2Ge5Mo
_chemical_formula_sum   'Zr2 Ge5 Mo1'
_cell_volume   127.87510841
_cell_formula_units_Z   1
loop_
 _symmetry_equiv_pos_site_id
 _symmetry_equiv_pos_as_xyz
  1  'x, y, z'
loop_
 _atom_site_type_symbol
 _atom_site_label
 _atom_site_symmetry_multiplicity
 _atom_site_fract_x
 _atom_site_fract_y
 _atom_site_fract_z
 _atom_site_occupancy
  Zr  Zr0  1  0.50000001  0.50000001  0.49999999  1
  Zr  Zr1  1  0.00000000  0.00000000  0.00000000  1
  Ge  Ge2  1  0.50000001  0.50000001  0.00000000  1
  Ge  Ge3  1  0.00000000  0.00000000  0.49999999  1
  Ge  Ge4  1  0.00000000  0.50000001  0.25045099  1
  Ge  Ge5  1  0.50000001  0.00000000  0.74954898  1
  Ge  Ge6  1  0.50000001  0.00000000  0.25045099  1
  Mo  Mo7  1  0.00000000  0.50000001  0.74954898  1
