# generated using pymatgen
data_HfTlSe2
_symmetry_space_group_name_H-M   'P 1'
_cell_length_a   4.12138414
_cell_length_b   4.12138462
_cell_length_c   7.96005297
_cell_angle_alpha   90.00000000
_cell_angle_beta   90.00000000
_cell_angle_gamma   119.99999237
_symmetry_Int_Tables_number   1
_chemical_formula_structural   HfTlSe2
_chemical_formula_sum   'Hf1 Tl1 Se2'
_cell_volume   117.09352081
_cell_formula_units_Z   1
loop_
 _symmetry_equiv_pos_site_id
 _symmetry_equiv_pos_as_xyz
  1  'x, y, z'
loop_
 _atom_site_type_symbol
 _atom_site_label
 _atom_site_symmetry_multiplicity
 _atom_site_fract_x
 _atom_site_fract_y
 _atom_site_fract_z
 _atom_site_occupancy
  Tl  Tl0  1  0.00000000  0.00000000  0.00000000  1
  Hf  Hf1  1  0.00000000  0.00000000  0.50000000  1
  Se  Se2  1  0.33333329  0.66666666  0.32013800  1
  Se  Se3  1  0.66666663  0.33333333  0.67986200  1
