# generated using pymatgen
data_Sr3Th3FeCN4
_symmetry_space_group_name_H-M   'P 1'
_cell_length_a   3.70076799
_cell_length_b   3.70076799
_cell_length_c   20.51449966
_cell_angle_alpha   90.00000000
_cell_angle_beta   90.00000000
_cell_angle_gamma   120.00000000
_symmetry_Int_Tables_number   1
_chemical_formula_structural   Sr3Th3FeCN4
_chemical_formula_sum   'Sr3 Th3 Fe1 C1 N4'
_cell_volume   243.31858369
_cell_formula_units_Z   1
loop_
 _symmetry_equiv_pos_site_id
 _symmetry_equiv_pos_as_xyz
  1  'x, y, z'
loop_
 _atom_site_type_symbol
 _atom_site_label
 _atom_site_symmetry_multiplicity
 _atom_site_fract_x
 _atom_site_fract_y
 _atom_site_fract_z
 _atom_site_occupancy
  Sr  Sr0  1  0.33333332  0.66666665  0.89717797  1
  Sr  Sr1  1  0.66666666  0.33333332  0.55937798  1
  Th  Th2  1  0.00000000  0.00000000  0.22244099  1
  Sr  Sr3  1  0.00000000  0.00000000  0.77755897  1
  Th  Th4  1  0.33333332  0.66666665  0.44062199  1
  Th  Th5  1  0.66666666  0.33333332  0.10282200  1
  C  C6  1  0.33333332  0.66666665  0.66809198  1
  Fe  Fe7  1  0.66666666  0.33333332  0.33190799  1
  N  N8  1  0.66666666  0.33333332  0.83732097  1
  N  N9  1  0.00000000  0.00000000  0.49999998  1
  N  N10  1  0.33333332  0.66666665  0.16267899  1
  N  N11  1  0.00000000  0.00000000  0.00000000  1
