# generated using pymatgen
data_Li3CeBi2
_symmetry_space_group_name_H-M   'P 1'
_cell_length_a   4.69534206
_cell_length_b   4.69534159
_cell_length_c   7.36652994
_cell_angle_alpha   90.00000000
_cell_angle_beta   90.00000000
_cell_angle_gamma   120.00000000
_symmetry_Int_Tables_number   1
_chemical_formula_structural   Li3CeBi2
_chemical_formula_sum   'Li3 Ce1 Bi2'
_cell_volume   140.64620547
_cell_formula_units_Z   1
loop_
 _symmetry_equiv_pos_site_id
 _symmetry_equiv_pos_as_xyz
  1  'x, y, z'
loop_
 _atom_site_type_symbol
 _atom_site_label
 _atom_site_symmetry_multiplicity
 _atom_site_fract_x
 _atom_site_fract_y
 _atom_site_fract_z
 _atom_site_occupancy
  Li  Li0  1  0.00000000  0.00000000  0.50000000  1
  Li  Li1  1  0.33333329  0.66666665  0.35005700  1
  Li  Li2  1  0.66666664  0.33333333  0.64994301  1
  Ce  Ce3  1  0.00000000  0.00000000  0.00000000  1
  Bi  Bi4  1  0.33333329  0.66666665  0.75215501  1
  Bi  Bi5  1  0.66666664  0.33333333  0.24784500  1
