# generated using pymatgen
data_Li5CoSiO8
_symmetry_space_group_name_H-M   'P 1'
_cell_length_a   5.03299522
_cell_length_b   5.31562281
_cell_length_c   6.72296047
_cell_angle_alpha   91.27383423
_cell_angle_beta   90.81765747
_cell_angle_gamma   90.22412109
_symmetry_Int_Tables_number   1
_chemical_formula_structural   Li5CoSiO8
_chemical_formula_sum   'Li5 Co1 Si1 O8'
_cell_volume   179.79838190
_cell_formula_units_Z   1
loop_
 _symmetry_equiv_pos_site_id
 _symmetry_equiv_pos_as_xyz
  1  'x, y, z'
loop_
 _atom_site_type_symbol
 _atom_site_label
 _atom_site_symmetry_multiplicity
 _atom_site_fract_x
 _atom_site_fract_y
 _atom_site_fract_z
 _atom_site_occupancy
  Li  Li0  1  0.49093097  0.16002400  0.50869400  1
  Li  Li1  1  0.49388195  0.64945298  0.28949000  1
  Li  Li2  1  0.99449292  0.84359398  0.50926500  1
  Li  Li3  1  0.49629097  0.18387200  0.98871601  1
  Li  Li4  1  0.01347697  0.79753798  0.00206400  1
  Co  Co5  1  0.00479599  0.32086899  0.25912101  1
  Si  Si6  1  0.48396595  0.68113198  0.73736201  1
  O  O7  1  0.11120799  0.17535900  0.44871001  1
  O  O8  1  0.12468099  0.17978200  0.05107800  1
  O  O9  1  0.67128096  0.30822199  0.22862400  1
  O  O10  1  0.55808596  0.38006999  0.76542601  1
  O  O11  1  0.09618397  0.62028398  0.25270000  1
  O  O12  1  0.16600996  0.72955098  0.74454401  1
  O  O13  1  0.60205494  0.83333098  0.95002801  1
  O  O14  1  0.60903694  0.79781998  0.53889000  1
