# generated using pymatgen
data_Ho2InCu2
_symmetry_space_group_name_H-M   'P 1'
_cell_length_a   3.58166599
_cell_length_b   7.64221191
_cell_length_c   7.64221191
_cell_angle_alpha   90.00000000
_cell_angle_beta   90.00000000
_cell_angle_gamma   90.00000000
_symmetry_Int_Tables_number   1
_chemical_formula_structural   Ho2InCu2
_chemical_formula_sum   'Ho4 In2 Cu4'
_cell_volume   209.18148217
_cell_formula_units_Z   2
loop_
 _symmetry_equiv_pos_site_id
 _symmetry_equiv_pos_as_xyz
  1  'x, y, z'
loop_
 _atom_site_type_symbol
 _atom_site_label
 _atom_site_symmetry_multiplicity
 _atom_site_fract_x
 _atom_site_fract_y
 _atom_site_fract_z
 _atom_site_occupancy
  Ho  Ho0  1  0.50000000  0.17460700  0.67460701  1
  Ho  Ho1  1  0.50000000  0.82539301  0.32539300  1
  Ho  Ho2  1  0.50000000  0.32539300  0.17460700  1
  Ho  Ho3  1  0.50000000  0.67460701  0.82539301  1
  In  In4  1  0.00000000  0.00000000  0.00000000  1
  In  In5  1  0.00000000  0.50000001  0.50000001  1
  Cu  Cu6  1  0.00000000  0.61915301  0.11915300  1
  Cu  Cu7  1  0.00000000  0.38084700  0.88084701  1
  Cu  Cu8  1  0.00000000  0.88084701  0.61915301  1
  Cu  Cu9  1  0.00000000  0.11915300  0.38084700  1
