# generated using pymatgen
data_Fe12SiGe5
_symmetry_space_group_name_H-M   'P 1'
_cell_length_a   5.88108015
_cell_length_b   7.16224003
_cell_length_c   8.23731136
_cell_angle_alpha   106.68546295
_cell_angle_beta   90.00000000
_cell_angle_gamma   114.24011230
_symmetry_Int_Tables_number   1
_chemical_formula_structural   Fe12SiGe5
_chemical_formula_sum   'Fe12 Si1 Ge5'
_cell_volume   300.28467760
_cell_formula_units_Z   1
loop_
 _symmetry_equiv_pos_site_id
 _symmetry_equiv_pos_as_xyz
  1  'x, y, z'
loop_
 _atom_site_type_symbol
 _atom_site_label
 _atom_site_symmetry_multiplicity
 _atom_site_fract_x
 _atom_site_fract_y
 _atom_site_fract_z
 _atom_site_occupancy
  Fe  Fe0  1  0.57145897  0.65655397  0.90383099  1
  Fe  Fe1  1  0.91490497  0.34344599  0.59616900  1
  Fe  Fe2  1  0.58280197  0.65671297  0.42461498  1
  Fe  Fe3  1  0.08509499  0.65655397  0.40383098  1
  Fe  Fe4  1  0.26640599  0.00000000  0.25000001  1
  Fe  Fe5  1  0.92608897  0.34328699  0.07538499  1
  Fe  Fe6  1  0.42854098  0.34344599  0.09616899  1
  Fe  Fe7  1  0.07391099  0.65671297  0.92461499  1
  Fe  Fe8  1  0.73359398  0.00000000  0.75000002  1
  Fe  Fe9  1  0.41719798  0.34328699  0.57538500  1
  Fe  Fe10  1  0.23328299  0.00000000  0.75000002  1
  Fe  Fe11  1  0.76671698  0.00000000  0.25000001  1
  Ge  Ge12  1  0.00000000  0.00000000  0.00000000  1
  Ge  Ge13  1  0.00000000  0.00000000  0.50000001  1
  Ge  Ge14  1  0.37551398  0.69225097  0.17352497  1
  Ge  Ge15  1  0.62448598  0.30774899  0.82647500  1
  Si  Si16  1  0.31673698  0.69225097  0.67352498  1
  Ge  Ge17  1  0.68326298  0.30774899  0.32647499  1
