# generated using pymatgen
data_Lu2Ge2O7F
_symmetry_space_group_name_H-M   'P 1'
_cell_length_a   4.29940081
_cell_length_b   6.52822161
_cell_length_c   6.92674685
_cell_angle_alpha   90.00000000
_cell_angle_beta   90.00000000
_cell_angle_gamma   95.28597260
_symmetry_Int_Tables_number   1
_chemical_formula_structural   Lu2Ge2O7F
_chemical_formula_sum   'Lu2 Ge2 O7 F1'
_cell_volume   193.58926358
_cell_formula_units_Z   1
loop_
 _symmetry_equiv_pos_site_id
 _symmetry_equiv_pos_as_xyz
  1  'x, y, z'
loop_
 _atom_site_type_symbol
 _atom_site_label
 _atom_site_symmetry_multiplicity
 _atom_site_fract_x
 _atom_site_fract_y
 _atom_site_fract_z
 _atom_site_occupancy
  Lu  Lu0  1  0.46348304  0.36940700  0.75000002  1
  Lu  Lu1  1  0.53651706  0.63059301  0.25000001  1
  Ge  Ge2  1  0.32141102  0.14799200  0.25000001  1
  Ge  Ge3  1  0.67858907  0.85200801  0.75000002  1
  O  O4  1  0.41248502  0.02781500  0.75000002  1
  O  O5  1  0.58751508  0.97218501  0.25000001  1
  O  O6  1  0.45366604  0.32400400  0.42832701  1
  O  O7  1  0.54633406  0.67599601  0.92832702  1
  O  O8  1  0.54633406  0.67599601  0.57167301  1
  O  O9  1  0.45366604  0.32400400  0.07167300  1
  F  F10  1  0.96315006  0.35868600  0.75000002  1
  O  O11  1  0.03685003  0.64131401  0.25000001  1
