# generated using pymatgen
data_LaFe4(CuO4)3
_symmetry_space_group_name_H-M   'P 1'
_cell_length_a   6.43475056
_cell_length_b   6.43475056
_cell_length_c   6.43475056
_cell_angle_alpha   109.47122192
_cell_angle_beta   109.47122192
_cell_angle_gamma   109.47122192
_symmetry_Int_Tables_number   1
_chemical_formula_structural   LaFe4(CuO4)3
_chemical_formula_sum   'La1 Fe4 Cu3 O12'
_cell_volume   205.10357815
_cell_formula_units_Z   1
loop_
 _symmetry_equiv_pos_site_id
 _symmetry_equiv_pos_as_xyz
  1  'x, y, z'
loop_
 _atom_site_type_symbol
 _atom_site_label
 _atom_site_symmetry_multiplicity
 _atom_site_fract_x
 _atom_site_fract_y
 _atom_site_fract_z
 _atom_site_occupancy
  La  La0  1  0.00000000  0.00000000  0.00000000  1
  Fe  Fe1  1  0.50000007  1.00000005  1.00000008  1
  Fe  Fe2  1  0.00000000  0.00000000  0.50000000  1
  Fe  Fe3  1  0.00000003  0.50000002  0.00000003  1
  Fe  Fe4  1  0.50000004  0.50000002  0.50000004  1
  Cu  Cu5  1  0.00000003  0.50000002  0.50000003  1
  Cu  Cu6  1  0.50000004  0.50000002  1.00000005  1
  Cu  Cu7  1  0.50000007  1.00000005  0.50000007  1
  O  O8  1  0.48725902  0.17757201  0.30968702  1
  O  O9  1  0.51274106  0.82242804  0.69031306  1
  O  O10  1  0.13211405  0.82242704  0.30968605  1
  O  O11  1  0.86788603  0.17757301  0.69031404  1
  O  O12  1  0.17757205  0.69031303  0.86788505  1
  O  O13  1  0.82242803  0.30968702  0.13211504  1
  O  O14  1  0.82242806  0.69031403  0.51274106  1
  O  O15  1  0.17757202  0.30968602  0.48725903  1
  O  O16  1  0.30968701  0.13211501  0.82242802  1
  O  O17  1  0.69031307  0.86788504  0.17757207  1
  O  O18  1  0.69031304  0.51274103  0.82242705  1
  O  O19  1  0.30968704  0.48725902  0.17757304  1
