# generated using pymatgen
data_LuTlCu4Ge3S11
_symmetry_space_group_name_H-M   'P 1'
_cell_length_a   6.41859388
_cell_length_b   6.58497477
_cell_length_c   9.60353374
_cell_angle_alpha   103.20063019
_cell_angle_beta   90.00000000
_cell_angle_gamma   90.00000000
_symmetry_Int_Tables_number   1
_chemical_formula_structural   LuTlCu4Ge3S11
_chemical_formula_sum   'Lu1 Tl1 Cu4 Ge3 S11'
_cell_volume   395.18014260
_cell_formula_units_Z   1
loop_
 _symmetry_equiv_pos_site_id
 _symmetry_equiv_pos_as_xyz
  1  'x, y, z'
loop_
 _atom_site_type_symbol
 _atom_site_label
 _atom_site_symmetry_multiplicity
 _atom_site_fract_x
 _atom_site_fract_y
 _atom_site_fract_z
 _atom_site_occupancy
  Tl  Tl0  1  0.97685602  0.32355701  0.86333003  1
  Lu  Lu1  1  0.47685601  0.67644303  0.13667001  1
  Cu  Cu2  1  0.82600801  0.02025200  0.48534301  1
  Cu  Cu3  1  0.61701701  0.70636203  0.55704302  1
  Cu  Cu4  1  0.32600801  0.97974804  0.51465703  1
  Ge  Ge5  1  0.11701700  0.29363801  0.44295701  1
  Ge  Ge6  1  0.46646101  0.36312801  0.60924602  1
  Ge  Ge7  1  0.96646102  0.63687203  0.39075402  1
  Cu  Cu8  1  0.09397000  0.07604400  0.12450600  1
  S  S9  1  0.59397001  0.92395604  0.87549403  1
  S  S10  1  0.61472101  0.20077901  0.25337801  1
  S  S11  1  0.11472100  0.79922103  0.74662203  1
  S  S12  1  0.59497701  0.06255500  0.65995002  1
  S  S13  1  0.41453901  0.16035901  0.04979000  1
  S  S14  1  0.09497700  0.93744504  0.34005002  1
  S  S15  1  0.88520602  0.38507102  0.19256201  1
  S  S16  1  0.91453902  0.83964103  0.95021003  1
  S  S17  1  0.41814601  0.46624702  0.39822802  1
  S  S18  1  0.38520601  0.61492902  0.80743803  1
  S  S19  1  0.91814602  0.53375302  0.60177202  1
