# generated using pymatgen
data_YInAu
_symmetry_space_group_name_H-M   'P 1'
_cell_length_a   4.66476822
_cell_length_b   7.45611382
_cell_length_c   7.45611382
_cell_angle_alpha   120.00000000
_cell_angle_beta   90.00000000
_cell_angle_gamma   90.00000000
_symmetry_Int_Tables_number   1
_chemical_formula_structural   YInAu
_chemical_formula_sum   'Y3 In3 Au3'
_cell_volume   224.58759205
_cell_formula_units_Z   3
loop_
 _symmetry_equiv_pos_site_id
 _symmetry_equiv_pos_as_xyz
  1  'x, y, z'
loop_
 _atom_site_type_symbol
 _atom_site_label
 _atom_site_symmetry_multiplicity
 _atom_site_fract_x
 _atom_site_fract_y
 _atom_site_fract_z
 _atom_site_occupancy
  Y  Y0  1  -0.00000000  1.00000002  0.56389799  1
  Y  Y1  1  -0.00000000  0.56389801  -0.00000001  1
  Y  Y2  1  0.99999995  0.43610201  0.43610200  1
  In  In3  1  0.49999998  0.24145600  1.00000001  1
  In  In4  1  0.49999998  0.75854401  0.75854400  1
  In  In5  1  0.49999998  1.00000002  0.24145599  1
  Au  Au6  1  0.49999998  0.33333334  0.66666667  1
  Au  Au7  1  0.00000000  0.00000000  0.00000000  1
  Au  Au8  1  0.49999998  0.66666668  0.33333333  1
