# generated using pymatgen
data_In2TePSe
_symmetry_space_group_name_H-M   'P 1'
_cell_length_a   3.65629768
_cell_length_b   3.65629768
_cell_length_c   10.15733337
_cell_angle_alpha   79.63121796
_cell_angle_beta   79.63121796
_cell_angle_gamma   60.00000763
_symmetry_Int_Tables_number   1
_chemical_formula_structural   In2TePSe
_chemical_formula_sum   'In2 Te1 P1 Se1'
_cell_volume   115.02861152
_cell_formula_units_Z   1
loop_
 _symmetry_equiv_pos_site_id
 _symmetry_equiv_pos_as_xyz
  1  'x, y, z'
loop_
 _atom_site_type_symbol
 _atom_site_label
 _atom_site_symmetry_multiplicity
 _atom_site_fract_x
 _atom_site_fract_y
 _atom_site_fract_z
 _atom_site_occupancy
  In  In0  1  0.37773899  0.37773899  0.86678304  1
  In  In1  1  0.62226098  0.62226098  0.13321701  1
  Te  Te2  1  0.77196997  0.77196998  0.68409004  1
  Se  Se3  1  0.22802999  0.22802999  0.31591001  1
  P  P4  1  0.00000000  0.00000000  0.00000000  1
