# generated using pymatgen
data_Na6UF12
_symmetry_space_group_name_H-M   'P 1'
_cell_length_a   4.12601614
_cell_length_b   5.83756256
_cell_length_c   12.46637440
_cell_angle_alpha   87.91177368
_cell_angle_beta   87.68856049
_cell_angle_gamma   87.74904633
_symmetry_Int_Tables_number   1
_chemical_formula_structural   Na6UF12
_chemical_formula_sum   'Na6 U1 F12'
_cell_volume   299.60503049
_cell_formula_units_Z   1
loop_
 _symmetry_equiv_pos_site_id
 _symmetry_equiv_pos_as_xyz
  1  'x, y, z'
loop_
 _atom_site_type_symbol
 _atom_site_label
 _atom_site_symmetry_multiplicity
 _atom_site_fract_x
 _atom_site_fract_y
 _atom_site_fract_z
 _atom_site_occupancy
  Na  Na0  1  0.73986199  0.19888099  0.91819601  1
  Na  Na1  1  0.70654499  0.21978399  0.24276700  1
  Na  Na2  1  0.77102799  0.23112599  0.59514601  1
  Na  Na3  1  0.27043405  0.81440997  0.44278300  1
  Na  Na4  1  0.25462204  0.76645698  0.07170700  1
  Na  Na5  1  0.26343805  0.78426897  0.75686300  1
  U  U6  1  0.28370099  0.01584500  0.59758601  1
  F  F7  1  0.24970899  0.00388700  0.91935801  1
  F  F8  1  0.72590004  0.96843197  0.07161000  1
  F  F9  1  0.76572604  0.98940697  0.76185600  1
  F  F10  1  0.80521398  0.05705000  0.42704200  1
  F  F11  1  0.21772606  0.93638097  0.25078000  1
  F  F12  1  0.60401402  0.55244498  0.31571200  1
  F  F13  1  0.34504202  0.51999298  0.60710400  1
  F  F14  1  0.18060502  0.37434599  0.20459400  1
  F  F15  1  0.25256903  0.52224498  0.92591901  1
  F  F16  1  0.70122301  0.47060098  0.08340700  1
  F  F17  1  0.86756501  0.58361798  0.49295100  1
  F  F18  1  0.82442501  0.49082198  0.75773801  1
