# generated using pymatgen
data_Ce(SiRh)2
_symmetry_space_group_name_H-M   'P 1'
_cell_length_a   4.13286018
_cell_length_b   4.13286018
_cell_length_c   5.78158426
_cell_angle_alpha   110.94158173
_cell_angle_beta   110.94158173
_cell_angle_gamma   90.00000000
_symmetry_Int_Tables_number   1
_chemical_formula_structural   Ce(SiRh)2
_chemical_formula_sum   'Ce1 Si2 Rh2'
_cell_volume   85.20849605
_cell_formula_units_Z   1
loop_
 _symmetry_equiv_pos_site_id
 _symmetry_equiv_pos_as_xyz
  1  'x, y, z'
loop_
 _atom_site_type_symbol
 _atom_site_label
 _atom_site_symmetry_multiplicity
 _atom_site_fract_x
 _atom_site_fract_y
 _atom_site_fract_z
 _atom_site_occupancy
  Ce  Ce0  1  0.00000000  0.00000000  0.00000000  1
  Si  Si1  1  0.61554898  0.61554898  0.23109801  1
  Si  Si2  1  0.38445099  0.38445099  0.76890199  1
  Rh  Rh3  1  0.25000000  0.74999997  0.50000000  1
  Rh  Rh4  1  0.74999997  0.24999999  0.50000000  1
