# generated using pymatgen
data_Ba2TlF7
_symmetry_space_group_name_H-M   'P 1'
_cell_length_a   6.38215923
_cell_length_b   6.38215923
_cell_length_c   6.38215971
_cell_angle_alpha   60.09700394
_cell_angle_beta   60.09700394
_cell_angle_gamma   60.09699631
_symmetry_Int_Tables_number   1
_chemical_formula_structural   Ba2TlF7
_chemical_formula_sum   'Ba2 Tl1 F7'
_cell_volume   184.22197596
_cell_formula_units_Z   1
loop_
 _symmetry_equiv_pos_site_id
 _symmetry_equiv_pos_as_xyz
  1  'x, y, z'
loop_
 _atom_site_type_symbol
 _atom_site_label
 _atom_site_symmetry_multiplicity
 _atom_site_fract_x
 _atom_site_fract_y
 _atom_site_fract_z
 _atom_site_occupancy
  Ba  Ba0  1  0.00664200  0.00664200  0.00664200  1
  Ba  Ba1  1  0.50664198  0.50664201  0.50664204  1
  Tl  Tl2  1  0.26934399  0.26934400  0.26934402  1
  F  F3  1  0.76934397  0.76934401  0.76934407  1
  F  F4  1  0.24115997  0.69761101  0.81374205  1
  F  F5  1  0.81374199  0.24116000  0.69761105  1
  F  F6  1  0.69761097  0.81374201  0.24116005  1
  F  F7  1  0.19761097  0.74116001  0.31374204  1
  F  F8  1  0.74115999  0.31374200  0.19761103  1
  F  F9  1  0.31374199  0.19761100  0.74116003  1
