# generated using pymatgen
data_Li3Fe5O8
_symmetry_space_group_name_H-M   'P 1'
_cell_length_a   6.00493002
_cell_length_b   6.00493002
_cell_length_c   6.08521175
_cell_angle_alpha   92.38110352
_cell_angle_beta   118.53939056
_cell_angle_gamma   118.27787018
_symmetry_Int_Tables_number   1
_chemical_formula_structural   Li3Fe5O8
_chemical_formula_sum   'Li3 Fe5 O8'
_cell_volume   159.25866072
_cell_formula_units_Z   1
loop_
 _symmetry_equiv_pos_site_id
 _symmetry_equiv_pos_as_xyz
  1  'x, y, z'
loop_
 _atom_site_type_symbol
 _atom_site_label
 _atom_site_symmetry_multiplicity
 _atom_site_fract_x
 _atom_site_fract_y
 _atom_site_fract_z
 _atom_site_occupancy
  Li  Li0  1  0.49999997  0.00000000  0.99999995  1
  Li  Li1  1  -0.00000006  0.49999996  -0.00000006  1
  Li  Li2  1  0.49999997  0.00000000  0.49999995  1
  Fe  Fe3  1  0.00000000  0.00000000  0.00000000  1
  Fe  Fe4  1  0.49999991  0.49999996  0.49999990  1
  Fe  Fe5  1  0.99999994  0.00000000  0.49999992  1
  Fe  Fe6  1  0.99999988  0.49999996  0.49999986  1
  Fe  Fe7  1  0.49999991  0.49999996  0.99999989  1
  O  O8  1  0.49547194  0.25978598  0.75525792  1
  O  O9  1  0.96511285  0.72892194  0.22845784  1
  O  O10  1  0.49953594  0.26334498  0.22845793  1
  O  O11  1  0.50452788  0.74021394  0.24474187  1
  O  O12  1  0.98083885  0.74994193  0.73078083  1
  O  O13  1  0.03488696  0.27107798  0.77154195  1
  O  O14  1  0.50046388  0.73665494  0.77154186  1
  O  O15  1  0.01916097  0.25005798  0.26921897  1
