# generated using pymatgen
data_Y2Ga5Co3
_symmetry_space_group_name_H-M   'P 1'
_cell_length_a   5.88396311
_cell_length_b   8.34738541
_cell_length_c   8.34738541
_cell_angle_alpha   93.60918427
_cell_angle_beta   108.95637512
_cell_angle_gamma   108.95637512
_symmetry_Int_Tables_number   1
_chemical_formula_structural   Y2Ga5Co3
_chemical_formula_sum   'Y4 Ga10 Co6'
_cell_volume   360.15940984
_cell_formula_units_Z   2
loop_
 _symmetry_equiv_pos_site_id
 _symmetry_equiv_pos_as_xyz
  1  'x, y, z'
loop_
 _atom_site_type_symbol
 _atom_site_label
 _atom_site_symmetry_multiplicity
 _atom_site_fract_x
 _atom_site_fract_y
 _atom_site_fract_z
 _atom_site_occupancy
  Y  Y0  1  0.73385006  0.59089202  0.86853707  1
  Y  Y1  1  0.76615001  0.13146300  0.40910803  1
  Y  Y2  1  0.26615004  0.40910802  0.13146303  1
  Y  Y3  1  0.23385008  0.86853703  0.59089207  1
  Ga  Ga4  1  0.16799201  0.07444700  0.26431001  1
  Ga  Ga5  1  0.75000007  0.79168603  0.20831407  1
  Ga  Ga6  1  0.25000002  0.20831401  0.79168603  1
  Ga  Ga7  1  0.75000005  0.48940202  0.51059806  1
  Ga  Ga8  1  0.25000005  0.51059802  0.48940204  1
  Ga  Ga9  1  0.75000002  0.22113501  0.77886504  1
  Ga  Ga10  1  0.25000007  0.77886503  0.22113506  1
  Ga  Ga11  1  0.66799202  0.26431001  0.07444703  1
  Ga  Ga12  1  0.83200809  0.92555304  0.73569009  1
  Ga  Ga13  1  0.33200807  0.73569003  0.92555307  1
  Co  Co14  1  0.75000009  0.99887404  0.00112608  1
  Co  Co15  1  0.25000000  0.00112600  0.99887402  1
  Co  Co16  1  0.87854505  0.54364402  0.25769606  1
  Co  Co17  1  0.62145507  0.74230403  0.45635607  1
  Co  Co18  1  0.12145504  0.45635602  0.74230404  1
  Co  Co19  1  0.37854502  0.25769601  0.54364403  1
