# generated using pymatgen
data_Ce2Ni2Sn
_symmetry_space_group_name_H-M   'P 1'
_cell_length_a   3.60998893
_cell_length_b   3.93727708
_cell_length_c   7.36275101
_cell_angle_alpha   74.49169159
_cell_angle_beta   90.00000000
_cell_angle_gamma   90.00000000
_symmetry_Int_Tables_number   1
_chemical_formula_structural   Ce2Ni2Sn
_chemical_formula_sum   'Ce2 Ni2 Sn1'
_cell_volume   100.84050425
_cell_formula_units_Z   1
loop_
 _symmetry_equiv_pos_site_id
 _symmetry_equiv_pos_as_xyz
  1  'x, y, z'
loop_
 _atom_site_type_symbol
 _atom_site_label
 _atom_site_symmetry_multiplicity
 _atom_site_fract_x
 _atom_site_fract_y
 _atom_site_fract_z
 _atom_site_occupancy
  Ce  Ce0  1  0.50000001  0.36078700  0.27842599  1
  Ce  Ce1  1  0.50000001  0.63921300  0.72157399  1
  Sn  Sn2  1  0.00000000  0.00000000  0.00000000  1
  Ni  Ni3  1  1.00000002  0.19904300  0.60191401  1
  Ni  Ni4  1  0.00000000  0.80095700  0.39808598  1
