# generated using pymatgen
data_InRh3Se7S4
_symmetry_space_group_name_H-M   'P 1'
_cell_length_a   6.65147018
_cell_length_b   6.65147018
_cell_length_c   6.65147018
_cell_angle_alpha   88.94173431
_cell_angle_beta   88.94173431
_cell_angle_gamma   88.94173431
_symmetry_Int_Tables_number   1
_chemical_formula_structural   InRh3Se7S4
_chemical_formula_sum   'In1 Rh3 Se7 S4'
_cell_volume   294.12595996
_cell_formula_units_Z   1
loop_
 _symmetry_equiv_pos_site_id
 _symmetry_equiv_pos_as_xyz
  1  'x, y, z'
loop_
 _atom_site_type_symbol
 _atom_site_label
 _atom_site_symmetry_multiplicity
 _atom_site_fract_x
 _atom_site_fract_y
 _atom_site_fract_z
 _atom_site_occupancy
  In  In0  1  0.00000000  0.00000000  0.00000000  1
  Rh  Rh1  1  0.40909100  0.22700799  0.56225602  1
  Rh  Rh2  1  0.22700802  0.56225599  0.40909103  1
  Rh  Rh3  1  0.56225601  0.40909099  0.22700804  1
  Se  Se4  1  0.59090903  0.77299198  0.43774405  1
  Se  Se5  1  0.77299200  0.43774399  0.59090904  1
  Se  Se6  1  0.43774402  0.59090899  0.77299203  1
  Se  Se7  1  0.24503001  0.24502999  0.24503002  1
  Se  Se8  1  0.75497002  0.75496998  0.75497005  1
  Se  Se9  1  0.39921003  0.73204898  0.12510104  1
  Se  Se10  1  0.73204899  0.12510100  0.39921003  1
  S  S11  1  0.12510102  0.39920999  0.73204901  1
  S  S12  1  0.60079000  0.26795099  0.87489903  1
  S  S13  1  0.26795104  0.87489898  0.60079004  1
  S  S14  1  0.87489901  0.60078999  0.26795106  1
