# generated using pymatgen
data_LiCoSnO4
_symmetry_space_group_name_H-M   'P 1'
_cell_length_a   3.73674202
_cell_length_b   4.78830051
_cell_length_c   5.26442337
_cell_angle_alpha   82.63428497
_cell_angle_beta   88.31563568
_cell_angle_gamma   80.91188049
_symmetry_Int_Tables_number   1
_chemical_formula_structural   LiCoSnO4
_chemical_formula_sum   'Li1 Co1 Sn1 O4'
_cell_volume   92.24043862
_cell_formula_units_Z   1
loop_
 _symmetry_equiv_pos_site_id
 _symmetry_equiv_pos_as_xyz
  1  'x, y, z'
loop_
 _atom_site_type_symbol
 _atom_site_label
 _atom_site_symmetry_multiplicity
 _atom_site_fract_x
 _atom_site_fract_y
 _atom_site_fract_z
 _atom_site_occupancy
  Co  Co0  1  -0.00000000  0.50000001  0.49999997  1
  Li  Li1  1  0.50000000  0.00000000  0.50000002  1
  Sn  Sn2  1  0.00000000  0.00000000  0.00000000  1
  O  O3  1  0.30259700  0.24390800  0.72775699  1
  O  O4  1  0.83244599  0.77056301  0.71899100  1
  O  O5  1  0.69740299  0.75609201  0.27224300  1
  O  O6  1  0.16755400  0.22943700  0.28100899  1
