# generated using pymatgen
data_BaCu3SbPd2
_symmetry_space_group_name_H-M   'P 1'
_cell_length_a   4.31290054
_cell_length_b   4.31290054
_cell_length_c   9.37157917
_cell_angle_alpha   76.69672394
_cell_angle_beta   76.69672394
_cell_angle_gamma   59.99999237
_symmetry_Int_Tables_number   1
_chemical_formula_structural   BaCu3SbPd2
_chemical_formula_sum   'Ba1 Cu3 Sb1 Pd2'
_cell_volume   145.54056956
_cell_formula_units_Z   1
loop_
 _symmetry_equiv_pos_site_id
 _symmetry_equiv_pos_as_xyz
  1  'x, y, z'
loop_
 _atom_site_type_symbol
 _atom_site_label
 _atom_site_symmetry_multiplicity
 _atom_site_fract_x
 _atom_site_fract_y
 _atom_site_fract_z
 _atom_site_occupancy
  Ba  Ba0  1  0.00000000  0.00000000  0.00000000  1
  Sb  Sb1  1  0.85721598  0.85721599  0.42835203  1
  Cu  Cu2  1  0.14278400  0.14278400  0.57164799  1
  Cu  Cu3  1  0.54832999  0.54832999  0.35501002  1
  Cu  Cu4  1  0.45166999  0.45166999  0.64499000  1
  Pd  Pd5  1  0.75731799  0.75731799  0.72804602  1
  Pd  Pd6  1  0.24268200  0.24268200  0.27195400  1
