# generated using pymatgen
data_ZrTiCr2(CuS4)2
_symmetry_space_group_name_H-M   'P 1'
_cell_length_a   6.95869398
_cell_length_b   7.05786085
_cell_length_c   7.05786085
_cell_angle_alpha   60.62178421
_cell_angle_beta   60.46371078
_cell_angle_gamma   60.46371078
_symmetry_Int_Tables_number   1
_chemical_formula_structural   ZrTiCr2(CuS4)2
_chemical_formula_sum   'Zr1 Ti1 Cr2 Cu2 S8'
_cell_volume   247.96783819
_cell_formula_units_Z   1
loop_
 _symmetry_equiv_pos_site_id
 _symmetry_equiv_pos_as_xyz
  1  'x, y, z'
loop_
 _atom_site_type_symbol
 _atom_site_label
 _atom_site_symmetry_multiplicity
 _atom_site_fract_x
 _atom_site_fract_y
 _atom_site_fract_z
 _atom_site_occupancy
  Ti  Ti0  1  0.75000000  0.26279399  0.73720600  1
  Zr  Zr1  1  0.25000000  0.23720599  0.76279399  1
  Cr  Cr2  1  0.75560800  0.24999999  0.25000002  1
  Cr  Cr3  1  0.74439201  0.74999997  0.75000000  1
  Cu  Cu4  1  0.12468101  0.62531897  0.12531900  1
  Cu  Cu5  1  0.37531901  0.87468096  0.37468100  1
  S  S6  1  0.50577400  0.48378398  0.49955100  1
  S  S7  1  0.97804299  0.00261600  0.51093101  1
  S  S8  1  0.51089101  0.99955096  0.98378399  1
  S  S9  1  0.50840999  0.01093200  0.50261600  1
  S  S10  1  0.98910899  0.01621600  0.00044903  1
  S  S11  1  0.99158900  0.49738398  0.98906900  1
  S  S12  1  0.99422600  0.50044898  0.51621602  1
  S  S13  1  0.52195800  0.48906798  0.99738399  1
