# generated using pymatgen
data_Li6CuF7
_symmetry_space_group_name_H-M   'P 1'
_cell_length_a   5.29879332
_cell_length_b   5.59004021
_cell_length_c   6.10967779
_cell_angle_alpha   90.00000000
_cell_angle_beta   90.00000000
_cell_angle_gamma   115.97014618
_symmetry_Int_Tables_number   1
_chemical_formula_structural   Li6CuF7
_chemical_formula_sum   'Li6 Cu1 F7'
_cell_volume   162.69743298
_cell_formula_units_Z   1
loop_
 _symmetry_equiv_pos_site_id
 _symmetry_equiv_pos_as_xyz
  1  'x, y, z'
loop_
 _atom_site_type_symbol
 _atom_site_label
 _atom_site_symmetry_multiplicity
 _atom_site_fract_x
 _atom_site_fract_y
 _atom_site_fract_z
 _atom_site_occupancy
  Li  Li0  1  0.49999999  0.00000000  0.50000002  1
  Li  Li1  1  0.00000000  0.00000000  0.00000000  1
  Li  Li2  1  0.74917796  0.46233898  0.11748700  1
  Li  Li3  1  0.75082196  0.53766098  0.61748702  1
  Li  Li4  1  0.24917797  0.46233898  0.38251301  1
  Li  Li5  1  0.25082197  0.53766098  0.88251303  1
  F  F6  1  0.53126497  0.32151699  0.37390701  1
  Cu  Cu7  1  0.96873495  0.67848298  0.87390703  1
  F  F8  1  0.03126498  0.32151699  0.12609300  1
  F  F9  1  0.46873496  0.67848298  0.62609302  1
  F  F10  1  0.87997997  0.22325099  0.61332302  1
  F  F11  1  0.37997998  0.22325099  0.88667703  1
  F  F12  1  0.62001995  0.77674897  0.11332300  1
  F  F13  1  0.12001996  0.77674897  0.38667701  1
