# generated using pymatgen
data_In4(SbAu)7
_symmetry_space_group_name_H-M   'P 1'
_cell_length_a   5.78620625
_cell_length_b   5.78620625
_cell_length_c   13.85229588
_cell_angle_alpha   96.09115601
_cell_angle_beta   96.09115601
_cell_angle_gamma   119.46804047
_symmetry_Int_Tables_number   1
_chemical_formula_structural   In4(SbAu)7
_chemical_formula_sum   'In4 Sb7 Au7'
_cell_volume   394.72883597
_cell_formula_units_Z   1
loop_
 _symmetry_equiv_pos_site_id
 _symmetry_equiv_pos_as_xyz
  1  'x, y, z'
loop_
 _atom_site_type_symbol
 _atom_site_label
 _atom_site_symmetry_multiplicity
 _atom_site_fract_x
 _atom_site_fract_y
 _atom_site_fract_z
 _atom_site_occupancy
  In  In0  1  0.91603297  0.91603297  0.83206599  1
  In  In1  1  0.08396700  0.08396700  0.16793400  1
  In  In2  1  0.74999997  0.24999999  0.50000000  1
  In  In3  1  0.91823697  0.41823699  0.83647400  1
  Sb  Sb4  1  0.08176300  0.58176298  0.16352599  1
  Sb  Sb5  1  0.41823700  0.91823697  0.83647400  1
  Sb  Sb6  1  0.58176298  0.08176300  0.16352599  1
  Sb  Sb7  1  0.25000000  0.74999997  0.50000000  1
  Au  Au8  1  0.16405700  0.83594297  -0.00000001  1
  Sb  Sb9  1  0.33317300  0.99922497  0.33239799  1
  Sb  Sb10  1  0.41200499  0.41200499  0.82401001  1
  Sb  Sb11  1  0.83594297  0.16405699  -0.00000001  1
  Au  Au12  1  0.58799498  0.58799498  0.17598999  1
  Au  Au13  1  0.00077501  0.66682698  0.66760201  1
  Au  Au14  1  0.99922496  0.33317299  0.33239799  1
  Au  Au15  1  0.66682697  0.00077500  0.66760200  1
  Au  Au16  1  0.28665599  0.28665599  0.57331200  1
  Au  Au17  1  0.71334398  0.71334398  0.42668799  1
