# generated using pymatgen
data_Ho4Ni5Ge3
_symmetry_space_group_name_H-M   'P 1'
_cell_length_a   4.24108505
_cell_length_b   6.75292683
_cell_length_c   7.34605885
_cell_angle_alpha   90.00000000
_cell_angle_beta   90.00000000
_cell_angle_gamma   90.00000000
_symmetry_Int_Tables_number   1
_chemical_formula_structural   Ho4Ni5Ge3
_chemical_formula_sum   'Ho4 Ni5 Ge3'
_cell_volume   210.38919350
_cell_formula_units_Z   1
loop_
 _symmetry_equiv_pos_site_id
 _symmetry_equiv_pos_as_xyz
  1  'x, y, z'
loop_
 _atom_site_type_symbol
 _atom_site_label
 _atom_site_symmetry_multiplicity
 _atom_site_fract_x
 _atom_site_fract_y
 _atom_site_fract_z
 _atom_site_occupancy
  Ho  Ho0  1  0.25000000  0.98373703  0.30532101  1
  Ho  Ho1  1  0.25000000  0.48373701  0.19467900  1
  Ho  Ho2  1  0.74999999  0.01626300  0.69467901  1
  Ho  Ho3  1  0.74999999  0.51626301  0.80532102  1
  Ni  Ni4  1  0.25000000  0.32447001  0.57266701  1
  Ni  Ni5  1  0.25000000  0.82447002  0.92733302  1
  Ni  Ni6  1  0.74999999  0.67553002  0.42733301  1
  Ni  Ni7  1  0.74999999  0.17553000  0.07266700  1
  Ge  Ge8  1  0.25000000  0.21205101  0.89821002  1
  Ni  Ni9  1  0.25000000  0.71205102  0.60179001  1
  Ge  Ge10  1  0.74999999  0.78794902  0.10179000  1
  Ge  Ge11  1  0.74999999  0.28794901  0.39821001  1
