# generated using pymatgen
data_ZrTi3MnSn
_symmetry_space_group_name_H-M   'P 1'
_cell_length_a   5.27101135
_cell_length_b   5.27101135
_cell_length_c   5.27101135
_cell_angle_alpha   106.75675201
_cell_angle_beta   106.75675201
_cell_angle_gamma   115.04827881
_symmetry_Int_Tables_number   1
_chemical_formula_structural   ZrTi3MnSn
_chemical_formula_sum   'Zr1 Ti3 Mn1 Sn1'
_cell_volume   111.92637440
_cell_formula_units_Z   1
loop_
 _symmetry_equiv_pos_site_id
 _symmetry_equiv_pos_as_xyz
  1  'x, y, z'
loop_
 _atom_site_type_symbol
 _atom_site_label
 _atom_site_symmetry_multiplicity
 _atom_site_fract_x
 _atom_site_fract_y
 _atom_site_fract_z
 _atom_site_occupancy
  Ti  Ti0  1  0.07235997  0.92763899  0.50000002  1
  Zr  Zr1  1  0.42763998  0.57236099  0.50000002  1
  Ti  Ti2  1  0.92763999  0.42763999  0.85528004  1
  Ti  Ti3  1  0.57236000  0.07236000  0.14472002  1
  Sn  Sn4  1  0.49999999  0.49999999  0.00000003  1
  Mn  Mn5  1  0.00000000  0.00000000  0.00000000  1
