# generated using pymatgen
data_Li2Cd5CuSnF9
_symmetry_space_group_name_H-M   'P 1'
_cell_length_a   5.58912039
_cell_length_b   5.63278437
_cell_length_c   8.43240833
_cell_angle_alpha   70.93887329
_cell_angle_beta   83.01158905
_cell_angle_gamma   68.41674805
_symmetry_Int_Tables_number   1
_chemical_formula_structural   Li2Cd5CuSnF9
_chemical_formula_sum   'Li2 Cd5 Cu1 Sn1 F9'
_cell_volume   233.32249163
_cell_formula_units_Z   1
loop_
 _symmetry_equiv_pos_site_id
 _symmetry_equiv_pos_as_xyz
  1  'x, y, z'
loop_
 _atom_site_type_symbol
 _atom_site_label
 _atom_site_symmetry_multiplicity
 _atom_site_fract_x
 _atom_site_fract_y
 _atom_site_fract_z
 _atom_site_occupancy
  Li  Li0  1  0.27647799  0.16755300  0.21775901  1
  Li  Li1  1  0.72352298  0.83244701  0.78224105  1
  Cd  Cd2  1  0.24786100  0.75611501  0.99892403  1
  Cd  Cd3  1  0.75213898  0.24388500  0.00107604  1
  Cd  Cd4  1  0.26380700  0.93991701  0.57333404  1
  Cd  Cd5  1  0.73619298  0.06008300  0.42666602  1
  Cd  Cd6  1  0.74023998  0.49065101  0.58022304  1
  Sn  Sn7  1  0.25976000  0.50934901  0.41977702  1
  Cu  Cu8  1  0.27065599  0.38265800  0.78371202  1
  F  F9  1  0.72934398  0.61734201  0.21628805  1
  F  F10  1  0.00373001  0.70069501  0.60218402  1
  F  F11  1  0.99626997  0.29930500  0.39781604  1
  F  F12  1  0.15357800  0.15894200  0.99963100  1
  F  F13  1  0.84642198  0.84105801  0.00036906  1
  F  F14  1  0.50430399  0.59031701  0.80401603  1
  F  F15  1  0.49569599  0.40968300  0.19598403  1
  F  F16  1  0.50997999  0.81367701  0.38462605  1
  F  F17  1  0.49001998  0.18632300  0.61537402  1
