# generated using pymatgen
data_Zr6Fe2CN
_symmetry_space_group_name_H-M   'P 1'
_cell_length_a   3.36112809
_cell_length_b   6.01894331
_cell_length_c   8.96402645
_cell_angle_alpha   90.00000000
_cell_angle_beta   90.00000000
_cell_angle_gamma   106.21321106
_symmetry_Int_Tables_number   1
_chemical_formula_structural   Zr6Fe2CN
_chemical_formula_sum   'Zr6 Fe2 C1 N1'
_cell_volume   174.13393487
_cell_formula_units_Z   1
loop_
 _symmetry_equiv_pos_site_id
 _symmetry_equiv_pos_as_xyz
  1  'x, y, z'
loop_
 _atom_site_type_symbol
 _atom_site_label
 _atom_site_symmetry_multiplicity
 _atom_site_fract_x
 _atom_site_fract_y
 _atom_site_fract_z
 _atom_site_occupancy
  Zr  Zr0  1  0.37391807  0.74783601  0.04761200  1
  Zr  Zr1  1  0.62608201  0.25216400  0.54761197  1
  Zr  Zr2  1  0.62608201  0.25216400  0.95238795  1
  Zr  Zr3  1  0.37391807  0.74783601  0.45238798  1
  Zr  Zr4  1  0.04704901  0.09409800  0.24999999  1
  Zr  Zr5  1  0.95295107  0.90590201  0.74999996  1
  Fe  Fe6  1  0.74427703  0.48855401  0.24999999  1
  Fe  Fe7  1  0.25572305  0.51144601  0.74999996  1
  C  C8  1  0.00000000  0.00000000  0.00000000  1
  N  N9  1  0.00000000  0.00000000  0.49999997  1
