# generated using pymatgen
data_Sm3Lu
_symmetry_space_group_name_H-M   'P 1'
_cell_length_a   5.56793404
_cell_length_b   7.11810780
_cell_length_c   7.11810875
_cell_angle_alpha   60.00000381
_cell_angle_beta   90.00000000
_cell_angle_gamma   90.00000000
_symmetry_Int_Tables_number   1
_chemical_formula_structural   Sm3Lu
_chemical_formula_sum   'Sm6 Lu2'
_cell_volume   244.31712508
_cell_formula_units_Z   2
loop_
 _symmetry_equiv_pos_site_id
 _symmetry_equiv_pos_as_xyz
  1  'x, y, z'
loop_
 _atom_site_type_symbol
 _atom_site_label
 _atom_site_symmetry_multiplicity
 _atom_site_fract_x
 _atom_site_fract_y
 _atom_site_fract_z
 _atom_site_occupancy
  Sm  Sm0  1  0.25000000  0.33333334  0.33333333  1
  Sm  Sm1  1  0.75000000  0.66666668  0.66666667  1
  Sm  Sm2  1  0.75000000  0.66727001  0.16636501  1
  Sm  Sm3  1  0.75000000  0.16636500  0.16636500  1
  Sm  Sm4  1  0.75000000  0.16636500  0.66726999  1
  Sm  Sm5  1  0.25000000  0.33273001  0.83363499  1
  Lu  Lu6  1  0.25000000  0.83363501  0.83363500  1
  Lu  Lu7  1  0.25000000  0.83363501  0.33273001  1
