# generated using pymatgen
data_TbCrO3
_symmetry_space_group_name_H-M   'P 1'
_cell_length_a   5.28377390
_cell_length_b   5.59309006
_cell_length_c   7.63411188
_cell_angle_alpha   90.00000000
_cell_angle_beta   90.00000000
_cell_angle_gamma   90.00000000
_symmetry_Int_Tables_number   1
_chemical_formula_structural   TbCrO3
_chemical_formula_sum   'Tb4 Cr4 O12'
_cell_volume   225.60803235
_cell_formula_units_Z   4
loop_
 _symmetry_equiv_pos_site_id
 _symmetry_equiv_pos_as_xyz
  1  'x, y, z'
loop_
 _atom_site_type_symbol
 _atom_site_label
 _atom_site_symmetry_multiplicity
 _atom_site_fract_x
 _atom_site_fract_y
 _atom_site_fract_z
 _atom_site_occupancy
  Tb  Tb0  1  0.52046801  0.06896200  0.75000001  1
  Tb  Tb1  1  0.97953202  0.56896199  0.75000001  1
  Tb  Tb2  1  0.02046800  0.43103800  0.25000000  1
  Tb  Tb3  1  0.47953201  0.93103799  0.25000000  1
  Cr  Cr4  1  0.50000001  0.49999999  0.50000001  1
  Cr  Cr5  1  0.00000000  0.00000000  0.50000001  1
  Cr  Cr6  1  0.00000000  0.00000000  0.00000000  1
  Cr  Cr7  1  0.50000001  0.49999999  -0.00000000  1
  O  O8  1  0.61483201  0.54148599  0.25000000  1
  O  O9  1  0.69383401  0.80393199  0.55883401  1
  O  O10  1  0.69383401  0.80393199  0.94116601  1
  O  O11  1  0.80616602  0.30393200  0.94116601  1
  O  O12  1  0.80616602  0.30393200  0.55883401  1
  O  O13  1  0.88516802  0.04148600  0.25000000  1
  O  O14  1  0.11483200  0.95851399  0.75000001  1
  O  O15  1  0.19383400  0.69606799  0.05883400  1
  O  O16  1  0.19383400  0.69606799  0.44116601  1
  O  O17  1  0.30616601  0.19606800  0.44116601  1
  O  O18  1  0.30616601  0.19606800  0.05883400  1
  O  O19  1  0.38516801  0.45851400  0.75000001  1
