# generated using pymatgen
data_TiBiCl8
_symmetry_space_group_name_H-M   'P 1'
_cell_length_a   7.07324600
_cell_length_b   8.34293461
_cell_length_c   11.56065273
_cell_angle_alpha   69.10266876
_cell_angle_beta   73.75288391
_cell_angle_gamma   72.89582062
_symmetry_Int_Tables_number   1
_chemical_formula_structural   TiBiCl8
_chemical_formula_sum   'Ti2 Bi2 Cl16'
_cell_volume   597.35262256
_cell_formula_units_Z   2
loop_
 _symmetry_equiv_pos_site_id
 _symmetry_equiv_pos_as_xyz
  1  'x, y, z'
loop_
 _atom_site_type_symbol
 _atom_site_label
 _atom_site_symmetry_multiplicity
 _atom_site_fract_x
 _atom_site_fract_y
 _atom_site_fract_z
 _atom_site_occupancy
  Ti  Ti0  1  0.83235498  0.77095805  0.53955499  1
  Ti  Ti1  1  0.16764500  0.22904202  0.46044499  1
  Bi  Bi2  1  0.71807499  0.38694203  0.87103099  1
  Bi  Bi3  1  0.28192499  0.61305804  0.12896898  1
  Cl  Cl4  1  0.28199799  0.12192901  0.12134800  1
  Cl  Cl5  1  0.71800198  0.87807106  0.87865197  1
  Cl  Cl6  1  0.56425999  0.29228902  0.13242801  1
  Cl  Cl7  1  0.43573999  0.70771105  0.86757197  1
  Cl  Cl8  1  0.44421999  0.20740301  0.85896499  1
  Cl  Cl9  1  0.55577999  0.79259705  0.14103499  1
  Cl  Cl10  1  0.00000000  0.00000000  0.00000000  1
  Cl  Cl11  1  -0.00000000  0.50000003  -0.00000002  1
  Cl  Cl12  1  0.05099400  0.65138804  0.66058396  1
  Cl  Cl13  1  0.94900598  0.34861202  0.33941601  1
  Cl  Cl14  1  0.94529298  0.84477206  0.33816499  1
  Cl  Cl15  1  0.05470700  0.15522801  0.66183498  1
  Cl  Cl16  1  0.64941299  0.57964004  0.58811899  1
  Cl  Cl17  1  0.35058699  0.42036003  0.41188099  1
  Cl  Cl18  1  0.33691899  0.99491107  0.40514296  1
  Cl  Cl19  1  0.66308099  0.00508900  0.59485701  1
