# generated using pymatgen
data_Cu2BrCl4
_symmetry_space_group_name_H-M   'P 1'
_cell_length_a   5.45562315
_cell_length_b   5.45562315
_cell_length_c   5.69899082
_cell_angle_alpha   90.00000000
_cell_angle_beta   90.00000000
_cell_angle_gamma   90.00000000
_symmetry_Int_Tables_number   1
_chemical_formula_structural   Cu2BrCl4
_chemical_formula_sum   'Cu2 Br1 Cl4'
_cell_volume   169.62375953
_cell_formula_units_Z   1
loop_
 _symmetry_equiv_pos_site_id
 _symmetry_equiv_pos_as_xyz
  1  'x, y, z'
loop_
 _atom_site_type_symbol
 _atom_site_label
 _atom_site_symmetry_multiplicity
 _atom_site_fract_x
 _atom_site_fract_y
 _atom_site_fract_z
 _atom_site_occupancy
  Cu  Cu0  1  0.00000000  0.49999999  -0.00000000  1
  Cu  Cu1  1  0.49999999  0.00000000  -0.00000000  1
  Br  Br2  1  0.00000000  0.00000000  0.00000000  1
  Cl  Cl3  1  0.23735299  0.76264698  0.22836601  1
  Cl  Cl4  1  0.76264698  0.76264698  0.77163402  1
  Cl  Cl5  1  0.23735299  0.23735299  0.77163402  1
  Cl  Cl6  1  0.76264698  0.23735299  0.22836601  1
