# generated using pymatgen
data_CuF3
_symmetry_space_group_name_H-M   'P 1'
_cell_length_a   3.63785434
_cell_length_b   5.28163528
_cell_length_c   5.90074873
_cell_angle_alpha   64.47298431
_cell_angle_beta   89.38883972
_cell_angle_gamma   88.63882446
_symmetry_Int_Tables_number   1
_chemical_formula_structural   CuF3
_chemical_formula_sum   'Cu2 F6'
_cell_volume   102.27953252
_cell_formula_units_Z   2
loop_
 _symmetry_equiv_pos_site_id
 _symmetry_equiv_pos_as_xyz
  1  'x, y, z'
loop_
 _atom_site_type_symbol
 _atom_site_label
 _atom_site_symmetry_multiplicity
 _atom_site_fract_x
 _atom_site_fract_y
 _atom_site_fract_z
 _atom_site_occupancy
  Cu  Cu0  1  0.30589803  0.55511601  0.51993001  1
  Cu  Cu1  1  0.30551604  0.83041401  0.98328603  1
  F  F2  1  0.30575301  0.19322100  0.75250202  1
  F  F3  1  0.30582703  0.69402601  0.75076702  1
  F  F4  1  0.80547905  0.83598801  0.97648801  1
  F  F5  1  0.80597104  0.54885301  0.52669299  1
  F  F6  1  0.29366604  0.91172701  0.25707101  1
  F  F7  1  0.31761903  0.47351800  0.24612700  1
