# generated using pymatgen
data_LiMnCuO4
_symmetry_space_group_name_H-M   'P 1'
_cell_length_a   5.93013000
_cell_length_b   6.01367521
_cell_length_c   5.97702599
_cell_angle_alpha   119.79860687
_cell_angle_beta   90.00000000
_cell_angle_gamma   119.54149628
_symmetry_Int_Tables_number   1
_chemical_formula_structural   LiMnCuO4
_chemical_formula_sum   'Li2 Mn2 Cu2 O8'
_cell_volume   152.21136737
_cell_formula_units_Z   2
loop_
 _symmetry_equiv_pos_site_id
 _symmetry_equiv_pos_as_xyz
  1  'x, y, z'
loop_
 _atom_site_type_symbol
 _atom_site_label
 _atom_site_symmetry_multiplicity
 _atom_site_fract_x
 _atom_site_fract_y
 _atom_site_fract_z
 _atom_site_occupancy
  Li  Li0  1  0.50000000  0.00000000  0.50000000  1
  Li  Li1  1  0.50000000  0.00000000  0.00000000  1
  Mn  Mn2  1  0.00000003  0.50000001  0.50000002  1
  Mn  Mn3  1  0.50000003  0.50000001  0.50000002  1
  Cu  Cu4  1  0.86725305  0.73450602  0.11725302  1
  Cu  Cu5  1  0.13274702  0.26549401  0.88274701  1
  O  O6  1  0.26404503  0.52809001  0.75441102  1
  O  O7  1  0.26404403  0.52808901  0.27367902  1
  O  O8  1  0.73213400  0.00232500  0.75116300  1
  O  O9  1  0.27019000  0.00232400  0.75116200  1
  O  O10  1  0.73595503  0.47191001  0.24558902  1
  O  O11  1  0.73595603  0.47191101  0.72632102  1
  O  O12  1  0.26786607  0.99767503  0.24883703  1
  O  O13  1  0.72981007  0.99767603  0.24883803  1
