# generated using pymatgen
data_LuNiO3
_symmetry_space_group_name_H-M   'P 1'
_cell_length_a   5.11999607
_cell_length_b   5.36178684
_cell_length_c   7.36043978
_cell_angle_alpha   90.00000000
_cell_angle_beta   90.00000000
_cell_angle_gamma   90.00000000
_symmetry_Int_Tables_number   1
_chemical_formula_structural   LuNiO3
_chemical_formula_sum   'Lu4 Ni4 O12'
_cell_volume   202.06120380
_cell_formula_units_Z   4
loop_
 _symmetry_equiv_pos_site_id
 _symmetry_equiv_pos_as_xyz
  1  'x, y, z'
loop_
 _atom_site_type_symbol
 _atom_site_label
 _atom_site_symmetry_multiplicity
 _atom_site_fract_x
 _atom_site_fract_y
 _atom_site_fract_z
 _atom_site_occupancy
  Lu  Lu0  1  0.01712400  0.93642403  0.75000002  1
  Lu  Lu1  1  0.48287599  0.43642401  0.75000002  1
  Lu  Lu2  1  0.51712399  0.56357602  0.25000001  1
  Lu  Lu3  1  0.98287599  0.06357600  0.25000001  1
  Ni  Ni4  1  -0.00000000  0.50000001  0.00000000  1
  Ni  Ni5  1  -0.00000000  0.50000001  0.50000002  1
  Ni  Ni6  1  0.49999999  0.00000000  0.00000000  1
  Ni  Ni7  1  0.49999999  0.00000000  0.50000002  1
  O  O8  1  0.10210200  0.46717001  0.25000001  1
  O  O9  1  0.19877500  0.20036401  0.55291902  1
  O  O10  1  0.19877500  0.20036401  0.94708103  1
  O  O11  1  0.30122500  0.70036402  0.94708103  1
  O  O12  1  0.30122500  0.70036402  0.55291902  1
  O  O13  1  0.39789799  0.96717003  0.25000001  1
  O  O14  1  0.60210199  0.03283000  0.75000002  1
  O  O15  1  0.69877499  0.29963601  0.05291900  1
  O  O16  1  0.69877499  0.29963601  0.44708101  1
  O  O17  1  0.80122499  0.79963602  0.05291900  1
  O  O18  1  0.80122499  0.79963602  0.44708101  1
  O  O19  1  0.89789799  0.53283002  0.75000002  1
