# generated using pymatgen
data_Al3Cu2As2P
_symmetry_space_group_name_H-M   'P 1'
_cell_length_a   5.69192123
_cell_length_b   5.69394112
_cell_length_c   6.95314980
_cell_angle_alpha   114.00851440
_cell_angle_beta   114.09595490
_cell_angle_gamma   90.13182831
_symmetry_Int_Tables_number   1
_chemical_formula_structural   Al3Cu2As2P
_chemical_formula_sum   'Al3 Cu2 As2 P1'
_cell_volume   184.04230656
_cell_formula_units_Z   1
loop_
 _symmetry_equiv_pos_site_id
 _symmetry_equiv_pos_as_xyz
  1  'x, y, z'
loop_
 _atom_site_type_symbol
 _atom_site_label
 _atom_site_symmetry_multiplicity
 _atom_site_fract_x
 _atom_site_fract_y
 _atom_site_fract_z
 _atom_site_occupancy
  Al  Al0  1  0.25532992  0.73556197  0.49294394  1
  Al  Al1  1  0.01552000  0.01551100  0.01037900  1
  Cu  Cu2  1  0.73391993  0.25533699  0.49025795  1
  Al  Al3  1  0.49530793  0.49448498  0.00483195  1
  Cu  Cu4  1  0.88926087  0.89757096  0.26178490  1
  As  As5  1  0.10005694  0.63026897  0.74062595  1
  As  As6  1  0.63979295  0.10961400  0.74013196  1
  P  P7  1  0.37081195  0.36165098  0.25904496  1
