# generated using pymatgen
data_Ho2CuNi3
_symmetry_space_group_name_H-M   'P 1'
_cell_length_a   4.99951744
_cell_length_b   4.99951744
_cell_length_c   5.16272640
_cell_angle_alpha   61.04036331
_cell_angle_beta   61.04036331
_cell_angle_gamma   60.00000381
_symmetry_Int_Tables_number   1
_chemical_formula_structural   Ho2CuNi3
_chemical_formula_sum   'Ho2 Cu1 Ni3'
_cell_volume   92.65600192
_cell_formula_units_Z   1
loop_
 _symmetry_equiv_pos_site_id
 _symmetry_equiv_pos_as_xyz
  1  'x, y, z'
loop_
 _atom_site_type_symbol
 _atom_site_label
 _atom_site_symmetry_multiplicity
 _atom_site_fract_x
 _atom_site_fract_y
 _atom_site_fract_z
 _atom_site_occupancy
  Ho  Ho0  1  0.12175100  0.12175101  0.63474701  1
  Ho  Ho1  1  0.87824903  0.87824904  0.36525298  1
  Cu  Cu2  1  -0.00000001  0.50000002  -0.00000001  1
  Ni  Ni3  1  0.50000002  0.00000000  -0.00000001  1
  Ni  Ni4  1  0.50000001  0.50000002  -0.00000002  1
  Ni  Ni5  1  0.50000001  0.50000002  0.49999999  1
