# generated using pymatgen
data_Sr(MgAs)2
_symmetry_space_group_name_H-M   'P 1'
_cell_length_a   4.15266609
_cell_length_b   4.15266562
_cell_length_c   18.03850937
_cell_angle_alpha   90.00000000
_cell_angle_beta   90.00000000
_cell_angle_gamma   120.00000000
_symmetry_Int_Tables_number   1
_chemical_formula_structural   Sr(MgAs)2
_chemical_formula_sum   'Sr2 Mg4 As4'
_cell_volume   269.39234551
_cell_formula_units_Z   2
loop_
 _symmetry_equiv_pos_site_id
 _symmetry_equiv_pos_as_xyz
  1  'x, y, z'
loop_
 _atom_site_type_symbol
 _atom_site_label
 _atom_site_symmetry_multiplicity
 _atom_site_fract_x
 _atom_site_fract_y
 _atom_site_fract_z
 _atom_site_occupancy
  Sr  Sr0  1  0.00000000  0.00000000  0.00000000  1
  Sr  Sr1  1  0.00000000  0.00000000  0.49999999  1
  Mg  Mg2  1  0.33333330  0.66666668  0.82811198  1
  Mg  Mg3  1  0.66666664  0.33333334  0.17188800  1
  Mg  Mg4  1  0.66666664  0.33333334  0.32811199  1
  Mg  Mg5  1  0.33333330  0.66666668  0.67188799  1
  As  As6  1  0.66666664  0.33333334  0.89157498  1
  As  As7  1  0.33333330  0.66666668  0.10842500  1
  As  As8  1  0.33333330  0.66666668  0.39157499  1
  As  As9  1  0.66666664  0.33333334  0.60842499  1
