# generated using pymatgen
data_Mg5Zn3
_symmetry_space_group_name_H-M   'P 1'
_cell_length_a   4.77017212
_cell_length_b   5.87625790
_cell_length_c   5.87625837
_cell_angle_alpha   60.00000000
_cell_angle_beta   90.00000000
_cell_angle_gamma   90.00000000
_symmetry_Int_Tables_number   1
_chemical_formula_structural   Mg5Zn3
_chemical_formula_sum   'Mg5 Zn3'
_cell_volume   142.64823821
_cell_formula_units_Z   1
loop_
 _symmetry_equiv_pos_site_id
 _symmetry_equiv_pos_as_xyz
  1  'x, y, z'
loop_
 _atom_site_type_symbol
 _atom_site_label
 _atom_site_symmetry_multiplicity
 _atom_site_fract_x
 _atom_site_fract_y
 _atom_site_fract_z
 _atom_site_occupancy
  Mg  Mg0  1  0.74999998  0.65852802  0.17073598  1
  Mg  Mg1  1  0.74999998  0.17073601  0.17073599  1
  Mg  Mg2  1  0.74999998  0.17073601  0.65852798  1
  Mg  Mg3  1  0.24999999  0.34147201  0.82926397  1
  Zn  Zn4  1  0.24999999  0.82926403  0.82926396  1
  Mg  Mg5  1  0.24999999  0.82926403  0.34147197  1
  Zn  Zn6  1  0.24999999  0.33333334  0.33333332  1
  Zn  Zn7  1  0.74999998  0.66666669  0.66666663  1
