# generated using pymatgen
data_BaYFeS2O3
_symmetry_space_group_name_H-M   'P 1'
_cell_length_a   6.40087414
_cell_length_b   6.63466883
_cell_length_c   7.72548294
_cell_angle_alpha   90.00000000
_cell_angle_beta   114.47336578
_cell_angle_gamma   90.00000000
_symmetry_Int_Tables_number   1
_chemical_formula_structural   BaYFeS2O3
_chemical_formula_sum   'Ba2 Y2 Fe2 S4 O6'
_cell_volume   298.60634446
_cell_formula_units_Z   2
loop_
 _symmetry_equiv_pos_site_id
 _symmetry_equiv_pos_as_xyz
  1  'x, y, z'
loop_
 _atom_site_type_symbol
 _atom_site_label
 _atom_site_symmetry_multiplicity
 _atom_site_fract_x
 _atom_site_fract_y
 _atom_site_fract_z
 _atom_site_occupancy
  Ba  Ba0  1  0.24815200  0.25000001  0.49630402  1
  Ba  Ba1  1  0.75184800  0.75000002  0.50369604  1
  Y  Y2  1  0.42782600  0.75000002  0.85565203  1
  Y  Y3  1  0.57217400  0.25000001  0.14434803  1
  Fe  Fe4  1  0.90682900  0.25000001  0.81365805  1
  Fe  Fe5  1  0.09317100  0.75000002  0.18634201  1
  S  S6  1  0.11395800  0.46871501  0.76047101  1
  S  S7  1  0.35348700  0.53128501  0.23952902  1
  S  S8  1  0.88604200  0.96871503  0.23952904  1
  O  O9  1  0.64651300  0.03128500  0.76047104  1
  S  S10  1  0.88604200  0.53128501  0.23952904  1
  O  O11  1  0.64651300  0.46871501  0.76047104  1
  O  O12  1  0.23453400  0.75000002  0.46906801  1
  O  O13  1  0.76546600  0.25000001  0.53093204  1
  O  O14  1  0.35348700  0.96871503  0.23952902  1
  O  O15  1  0.11395800  0.03128500  0.76047101  1
