# generated using pymatgen
data_Nd(VFe5)2
_symmetry_space_group_name_H-M   'P 1'
_cell_length_a   4.69327116
_cell_length_b   6.48583555
_cell_length_c   6.48583603
_cell_angle_alpha   81.46640778
_cell_angle_beta   68.78864288
_cell_angle_gamma   68.78865051
_symmetry_Int_Tables_number   1
_chemical_formula_structural   Nd(VFe5)2
_chemical_formula_sum   'Nd1 V2 Fe10'
_cell_volume   171.54829928
_cell_formula_units_Z   1
loop_
 _symmetry_equiv_pos_site_id
 _symmetry_equiv_pos_as_xyz
  1  'x, y, z'
loop_
 _atom_site_type_symbol
 _atom_site_label
 _atom_site_symmetry_multiplicity
 _atom_site_fract_x
 _atom_site_fract_y
 _atom_site_fract_z
 _atom_site_occupancy
  Nd  Nd0  1  0.00000000  0.00000000  0.00000000  1
  V  V1  1  0.49999990  0.77930204  0.22069804  1
  V  V2  1  0.49999997  0.22069801  0.77930201  1
  Fe  Fe3  1  0.72910790  0.77089204  0.77089204  1
  Fe  Fe4  1  0.27089197  0.22910801  0.22910801  1
  Fe  Fe5  1  0.00000000  0.00000000  0.50000001  1
  Fe  Fe6  1  0.49999999  0.00000000  0.49999999  1
  Fe  Fe7  1  0.49999993  0.50000002  1.00000003  1
  Fe  Fe8  1  -0.00000006  0.50000002  1.00000005  1
  Fe  Fe9  1  -0.00000004  0.35871502  0.64128503  1
  Fe  Fe10  1  -0.00000007  0.64128503  0.35871505  1
  Fe  Fe11  1  0.64284395  0.35715602  0.35715601  1
  Fe  Fe12  1  0.35715592  0.64284403  0.64284404  1
