# generated using pymatgen
data_TlCrS2
_symmetry_space_group_name_H-M   'P 1'
_cell_length_a   3.65310597
_cell_length_b   3.65310550
_cell_length_c   13.83596706
_cell_angle_alpha   90.00000000
_cell_angle_beta   90.00000000
_cell_angle_gamma   120.00000763
_symmetry_Int_Tables_number   1
_chemical_formula_structural   TlCrS2
_chemical_formula_sum   'Tl2 Cr2 S4'
_cell_volume   159.90594236
_cell_formula_units_Z   2
loop_
 _symmetry_equiv_pos_site_id
 _symmetry_equiv_pos_as_xyz
  1  'x, y, z'
loop_
 _atom_site_type_symbol
 _atom_site_label
 _atom_site_symmetry_multiplicity
 _atom_site_fract_x
 _atom_site_fract_y
 _atom_site_fract_z
 _atom_site_occupancy
  Tl  Tl0  1  0.66666669  0.33333334  0.25000000  1
  Tl  Tl1  1  0.33333337  0.66666668  0.75000000  1
  Cr  Cr2  1  0.00000000  0.00000000  0.50000000  1
  Cr  Cr3  1  0.00000000  0.00000000  0.00000000  1
  S  S4  1  0.66666669  0.33333334  0.91592000  1
  S  S5  1  0.33333337  0.66666668  0.41592100  1
  S  S6  1  0.66666669  0.33333334  0.58407900  1
  S  S7  1  0.33333337  0.66666668  0.08407900  1
