# generated using pymatgen
data_Gd2SO2
_symmetry_space_group_name_H-M   'P 1'
_cell_length_a   3.92453003
_cell_length_b   3.92453146
_cell_length_c   6.80135584
_cell_angle_alpha   90.00957489
_cell_angle_beta   90.00957489
_cell_angle_gamma   60.00378418
_symmetry_Int_Tables_number   1
_chemical_formula_structural   Gd2SO2
_chemical_formula_sum   'Gd2 S1 O2'
_cell_volume   90.72315635
_cell_formula_units_Z   1
loop_
 _symmetry_equiv_pos_site_id
 _symmetry_equiv_pos_as_xyz
  1  'x, y, z'
loop_
 _atom_site_type_symbol
 _atom_site_label
 _atom_site_symmetry_multiplicity
 _atom_site_fract_x
 _atom_site_fract_y
 _atom_site_fract_z
 _atom_site_occupancy
  Gd  Gd0  1  0.33333334  0.33328866  0.71881704  1
  Gd  Gd1  1  0.66666668  0.66666666  0.28118305  1
  S  S2  1  0.00000000  0.00000000  0.00000000  1
  O  O3  1  0.33333334  0.33333333  0.36687303  1
  O  O4  1  0.66666668  0.66666666  0.63312706  1
