# generated using pymatgen
data_LiBiO4
_symmetry_space_group_name_H-M   'P 1'
_cell_length_a   4.99185324
_cell_length_b   5.11823845
_cell_length_c   5.17095900
_cell_angle_alpha   101.80063629
_cell_angle_beta   89.99997711
_cell_angle_gamma   89.99995422
_symmetry_Int_Tables_number   1
_chemical_formula_structural   LiBiO4
_chemical_formula_sum   'Li2 Bi2 O8'
_cell_volume   129.32314863
_cell_formula_units_Z   2
loop_
 _symmetry_equiv_pos_site_id
 _symmetry_equiv_pos_as_xyz
  1  'x, y, z'
loop_
 _atom_site_type_symbol
 _atom_site_label
 _atom_site_symmetry_multiplicity
 _atom_site_fract_x
 _atom_site_fract_y
 _atom_site_fract_z
 _atom_site_occupancy
  Li  Li0  1  0.96771194  0.20432800  0.30537199  1
  Li  Li1  1  0.53228694  0.70432898  0.30537398  1
  Bi  Bi2  1  0.46770996  0.29565999  0.69466099  1
  Bi  Bi3  1  0.03229295  0.79565898  0.69465998  1
  O  O4  1  0.74584696  0.00912200  0.54335300  1
  O  O5  1  0.75415394  0.50912099  0.54335198  1
  O  O6  1  0.24584496  0.49089099  0.45662999  1
  O  O7  1  0.25415493  0.99089098  0.45662997  1
  O  O8  1  0.18825798  0.14568400  0.94604700  1
  O  O9  1  0.31173995  0.64568099  0.94604399  1
  O  O10  1  0.68824395  0.35431799  0.05393998  1
  O  O11  1  0.81175391  0.85431598  0.05393897  1
