# generated using pymatgen
data_YSiRu2C
_symmetry_space_group_name_H-M   'P 1'
_cell_length_a   3.88755012
_cell_length_b   5.89663124
_cell_length_c   7.21526909
_cell_angle_alpha   90.00000000
_cell_angle_beta   90.00000000
_cell_angle_gamma   109.24702454
_symmetry_Int_Tables_number   1
_chemical_formula_structural   YSiRu2C
_chemical_formula_sum   'Y2 Si2 Ru4 C2'
_cell_volume   156.15407587
_cell_formula_units_Z   2
loop_
 _symmetry_equiv_pos_site_id
 _symmetry_equiv_pos_as_xyz
  1  'x, y, z'
loop_
 _atom_site_type_symbol
 _atom_site_label
 _atom_site_symmetry_multiplicity
 _atom_site_fract_x
 _atom_site_fract_y
 _atom_site_fract_z
 _atom_site_occupancy
  Y  Y0  1  0.45250502  0.90501004  0.74999999  1
  Y  Y1  1  0.54749499  0.09499000  0.25000000  1
  Si  Si2  1  0.73103800  0.46207602  0.74999999  1
  Si  Si3  1  0.26896201  0.53792402  0.25000000  1
  Ru  Ru4  1  0.16461101  0.32922201  0.94165599  1
  Ru  Ru5  1  0.83538900  0.67077803  0.05834400  1
  Ru  Ru6  1  0.83538900  0.67077803  0.44165599  1
  Ru  Ru7  1  0.16461101  0.32922201  0.55834399  1
  C  C8  1  0.00000000  0.00000000  0.00000000  1
  C  C9  1  0.00000000  0.00000000  0.49999999  1
