# generated using pymatgen
data_CeGa2Cu3
_symmetry_space_group_name_H-M   'P 1'
_cell_length_a   4.04884291
_cell_length_b   5.12387896
_cell_length_c   5.12387896
_cell_angle_alpha   117.37618256
_cell_angle_beta   90.00000000
_cell_angle_gamma   90.00000000
_symmetry_Int_Tables_number   1
_chemical_formula_structural   CeGa2Cu3
_chemical_formula_sum   'Ce1 Ga2 Cu3'
_cell_volume   94.39409967
_cell_formula_units_Z   1
loop_
 _symmetry_equiv_pos_site_id
 _symmetry_equiv_pos_as_xyz
  1  'x, y, z'
loop_
 _atom_site_type_symbol
 _atom_site_label
 _atom_site_symmetry_multiplicity
 _atom_site_fract_x
 _atom_site_fract_y
 _atom_site_fract_z
 _atom_site_occupancy
  Ce  Ce0  1  -0.00000000  0.50000000  0.50000001  1
  Ga  Ga1  1  -0.00000000  0.84327399  0.15672605  1
  Cu  Cu2  1  -0.00000000  0.15672600  0.84327398  1
  Ga  Ga3  1  0.50000001  0.00000000  -0.00000000  1
  Cu  Cu4  1  0.50000001  0.50000000  0.00000003  1
  Cu  Cu5  1  0.50000001  0.00000000  0.49999998  1
