# generated using pymatgen
data_Ca2LaTaO6
_symmetry_space_group_name_H-M   'P 1'
_cell_length_a   5.65928507
_cell_length_b   5.93604708
_cell_length_c   8.20816422
_cell_angle_alpha   90.00000000
_cell_angle_beta   90.21614075
_cell_angle_gamma   90.00000000
_symmetry_Int_Tables_number   1
_chemical_formula_structural   Ca2LaTaO6
_chemical_formula_sum   'Ca4 La2 Ta2 O12'
_cell_volume   275.74132209
_cell_formula_units_Z   2
loop_
 _symmetry_equiv_pos_site_id
 _symmetry_equiv_pos_as_xyz
  1  'x, y, z'
loop_
 _atom_site_type_symbol
 _atom_site_label
 _atom_site_symmetry_multiplicity
 _atom_site_fract_x
 _atom_site_fract_y
 _atom_site_fract_z
 _atom_site_occupancy
  Ca  Ca0  1  0.99931099  0.99704699  0.49953700  1
  Ca  Ca1  1  0.49931099  0.50295299  0.99953702  1
  Ca  Ca2  1  0.51402199  0.94539599  0.24481100  1
  Ca  Ca3  1  0.01402200  0.55460399  0.74481101  1
  La  La4  1  0.48497499  0.05664600  0.75550801  1
  La  La5  1  0.98497499  0.44335399  0.25550800  1
  Ta  Ta6  1  0.49981299  0.50102199  0.50136001  1
  Ta  Ta7  1  0.99981299  0.99897799  0.00135999  1
  O  O8  1  0.37962800  0.55683399  0.27074700  1
  O  O9  1  0.87962799  0.94316599  0.77074701  1
  O  O10  1  0.61586099  0.44245999  0.72931101  1
  O  O11  1  0.11586100  0.05754000  0.22931100  1
  O  O12  1  0.83203799  0.71405399  0.07212899  1
  O  O13  1  0.33203800  0.78594599  0.57212901  1
  O  O14  1  0.17214100  0.28111100  0.92858602  1
  O  O15  1  0.67214099  0.21888900  0.42858600  1
  O  O16  1  0.79209299  0.67501099  0.44616100  1
  O  O17  1  0.29209300  0.82498899  0.94616102  1
  O  O18  1  0.21011800  0.32215100  0.55184901  1
  O  O19  1  0.71011799  0.17784900  0.05184900  1
