# generated using pymatgen
data_In3AgS3
_symmetry_space_group_name_H-M   'P 1'
_cell_length_a   6.12549782
_cell_length_b   7.49487114
_cell_length_c   9.71175575
_cell_angle_alpha   97.47346497
_cell_angle_beta   90.00000000
_cell_angle_gamma   114.11980438
_symmetry_Int_Tables_number   1
_chemical_formula_structural   In3AgS3
_chemical_formula_sum   'In6 Ag2 S6'
_cell_volume   402.78437913
_cell_formula_units_Z   2
loop_
 _symmetry_equiv_pos_site_id
 _symmetry_equiv_pos_as_xyz
  1  'x, y, z'
loop_
 _atom_site_type_symbol
 _atom_site_label
 _atom_site_symmetry_multiplicity
 _atom_site_fract_x
 _atom_site_fract_y
 _atom_site_fract_z
 _atom_site_occupancy
  In  In0  1  0.26768101  0.00000000  0.50000001  1
  In  In1  1  0.11475097  0.70906197  0.07304001  1
  In  In2  1  0.40568900  0.29093799  0.92696003  1
  In  In3  1  0.55161999  0.57177798  0.35815202  1
  In  In4  1  0.97984201  0.42822198  0.64184802  1
  In  In5  1  0.85108202  0.14812999  0.22370301  1
  Ag  Ag6  1  0.70295198  0.85186997  0.77629703  1
  Ag  Ag7  1  0.48135501  0.00000000  0.00000000  1
  S  S8  1  0.64564600  0.29737199  0.44570202  1
  S  S9  1  0.34827397  0.70262797  0.55429803  1
  S  S10  1  0.95292198  0.83348797  0.29263902  1
  S  S11  1  0.11943399  0.16651199  0.70736102  1
  S  S12  1  0.26195798  0.45116598  0.13823701  1
  S  S13  1  0.81079200  0.54883398  0.86176303  1
