# generated using pymatgen
data_LaCoSi3
_symmetry_space_group_name_H-M   'P 1'
_cell_length_a   4.13392210
_cell_length_b   4.13392210
_cell_length_c   5.65043402
_cell_angle_alpha   111.45717621
_cell_angle_beta   111.45717621
_cell_angle_gamma   90.00000000
_symmetry_Int_Tables_number   1
_chemical_formula_structural   LaCoSi3
_chemical_formula_sum   'La1 Co1 Si3'
_cell_volume   82.63658411
_cell_formula_units_Z   1
loop_
 _symmetry_equiv_pos_site_id
 _symmetry_equiv_pos_as_xyz
  1  'x, y, z'
loop_
 _atom_site_type_symbol
 _atom_site_label
 _atom_site_symmetry_multiplicity
 _atom_site_fract_x
 _atom_site_fract_y
 _atom_site_fract_z
 _atom_site_occupancy
  La  La0  1  0.00330200  0.00330200  0.00660400  1
  Co  Co1  1  0.66262098  0.66262098  0.32524199  1
  Si  Si2  1  0.42768099  0.42768099  0.85536197  1
  Si  Si3  1  0.26069799  0.76069798  0.52139598  1
  Si  Si4  1  0.76069798  0.26069799  0.52139598  1
