# generated using pymatgen
data_AgTe
_symmetry_space_group_name_H-M   'P 1'
_cell_length_a   3.00852609
_cell_length_b   3.00852609
_cell_length_c   3.89761209
_cell_angle_alpha   90.00000000
_cell_angle_beta   90.00000000
_cell_angle_gamma   90.00000000
_symmetry_Int_Tables_number   1
_chemical_formula_structural   AgTe
_chemical_formula_sum   'Ag1 Te1'
_cell_volume   35.27818046
_cell_formula_units_Z   1
loop_
 _symmetry_equiv_pos_site_id
 _symmetry_equiv_pos_as_xyz
  1  'x, y, z'
loop_
 _atom_site_type_symbol
 _atom_site_label
 _atom_site_symmetry_multiplicity
 _atom_site_fract_x
 _atom_site_fract_y
 _atom_site_fract_z
 _atom_site_occupancy
  Ag  Ag0  1  0.00000000  0.00000000  0.00000000  1
  Te  Te1  1  0.49999999  0.49999999  0.49999999  1
