# generated using pymatgen
data_Zr2Ga3Co
_symmetry_space_group_name_H-M   'P 1'
_cell_length_a   6.38642406
_cell_length_b   7.76735210
_cell_length_c   7.77404642
_cell_angle_alpha   63.46689224
_cell_angle_beta   66.64220428
_cell_angle_gamma   66.65842438
_symmetry_Int_Tables_number   1
_chemical_formula_structural   Zr2Ga3Co
_chemical_formula_sum   'Zr6 Ga9 Co3'
_cell_volume   305.26665343
_cell_formula_units_Z   3
loop_
 _symmetry_equiv_pos_site_id
 _symmetry_equiv_pos_as_xyz
  1  'x, y, z'
loop_
 _atom_site_type_symbol
 _atom_site_label
 _atom_site_symmetry_multiplicity
 _atom_site_fract_x
 _atom_site_fract_y
 _atom_site_fract_z
 _atom_site_occupancy
  Zr  Zr0  1  0.49024201  0.47015000  0.98396803  1
  Zr  Zr1  1  0.94159002  0.52403700  0.03269400  1
  Zr  Zr2  1  0.91760201  0.04662300  0.52915800  1
  Zr  Zr3  1  0.49067002  0.96935099  0.45730403  1
  Zr  Zr4  1  0.05841400  0.25761200  0.74821803  1
  Zr  Zr5  1  0.04739901  0.75125099  0.25449802  1
  Ga  Ga6  1  0.53597301  0.26194900  0.74396502  1
  Ga  Ga7  1  0.54344802  0.71957699  0.24543601  1
  Ga  Ga8  1  0.16316501  0.34344700  0.34576401  1
  Ga  Ga9  1  0.82475102  0.66342399  0.66163102  1
  Ga  Ga10  1  0.14577301  0.84617599  0.83987104  1
  Ga  Ga11  1  0.82107301  0.16462600  0.16449099  1
  Ga  Ga12  1  0.27533300  0.11671500  0.12783900  1
  Ga  Ga13  1  0.52229102  0.88407799  0.86738203  1
  Ga  Ga14  1  0.27876801  0.62159799  0.60759303  1
  Co  Co15  1  0.51540001  0.36284700  0.38749501  1
  Co  Co16  1  0.75600602  0.50041100  0.49839701  1
  Co  Co17  1  0.73210402  0.99612899  0.00429401  1
