# generated using pymatgen
data_K2PuBO7
_symmetry_space_group_name_H-M   'P 1'
_cell_length_a   5.40703630
_cell_length_b   5.40703630
_cell_length_c   6.44115257
_cell_angle_alpha   65.18271637
_cell_angle_beta   65.18271637
_cell_angle_gamma   60.00000000
_symmetry_Int_Tables_number   1
_chemical_formula_structural   K2PuBO7
_chemical_formula_sum   'K2 Pu1 B1 O7'
_cell_volume   142.65068001
_cell_formula_units_Z   1
loop_
 _symmetry_equiv_pos_site_id
 _symmetry_equiv_pos_as_xyz
  1  'x, y, z'
loop_
 _atom_site_type_symbol
 _atom_site_label
 _atom_site_symmetry_multiplicity
 _atom_site_fract_x
 _atom_site_fract_y
 _atom_site_fract_z
 _atom_site_occupancy
  K  K0  1  0.77601203  0.77601197  0.67196396  1
  K  K1  1  0.22398801  0.22398799  0.32803599  1
  Pu  Pu2  1  0.00000000  0.00000000  0.00000000  1
  B  B3  1  0.40962901  0.40962898  0.77111299  1
  O  O4  1  0.59037102  0.59037098  0.22888697  1
  O  O5  1  0.29256103  0.74028497  0.22686897  1
  O  O6  1  0.74028503  0.74028497  0.22686896  1
  O  O7  1  0.74028500  0.29256099  0.22686897  1
  O  O8  1  0.25971503  0.70743897  0.77313098  1
  O  O9  1  0.25971501  0.25971499  0.77313100  1
  O  O10  1  0.70743900  0.25971499  0.77313098  1
