# generated using pymatgen
data_Ti4CN3
_symmetry_space_group_name_H-M   'P 1'
_cell_length_a   2.92569518
_cell_length_b   2.92569518
_cell_length_c   9.63052082
_cell_angle_alpha   81.26313019
_cell_angle_beta   81.26313019
_cell_angle_gamma   60.00001907
_symmetry_Int_Tables_number   1
_chemical_formula_structural   Ti4CN3
_chemical_formula_sum   'Ti4 C1 N3'
_cell_volume   70.28352094
_cell_formula_units_Z   1
loop_
 _symmetry_equiv_pos_site_id
 _symmetry_equiv_pos_as_xyz
  1  'x, y, z'
loop_
 _atom_site_type_symbol
 _atom_site_label
 _atom_site_symmetry_multiplicity
 _atom_site_fract_x
 _atom_site_fract_y
 _atom_site_fract_z
 _atom_site_occupancy
  Ti  Ti0  1  0.87691002  0.87691000  0.36927005  1
  Ti  Ti1  1  0.12309000  0.12309000  0.63073003  1
  Ti  Ti2  1  0.37646001  0.37646000  0.87062005  1
  Ti  Ti3  1  0.62354001  0.62354000  0.12938003  1
  N  N4  1  0.00000000  0.00000000  0.00000000  1
  N  N5  1  0.25263501  0.25263500  0.24209502  1
  C  C6  1  0.50000001  0.50000000  0.50000004  1
  N  N7  1  0.74736502  0.74736500  0.75790506  1
