# generated using pymatgen
data_DyMg3
_symmetry_space_group_name_H-M   'P 1'
_cell_length_a   5.05256319
_cell_length_b   6.75872993
_cell_length_c   6.75873089
_cell_angle_alpha   119.99999237
_cell_angle_beta   90.00000000
_cell_angle_gamma   90.00000000
_symmetry_Int_Tables_number   1
_chemical_formula_structural   DyMg3
_chemical_formula_sum   'Dy2 Mg6'
_cell_volume   199.88153071
_cell_formula_units_Z   2
loop_
 _symmetry_equiv_pos_site_id
 _symmetry_equiv_pos_as_xyz
  1  'x, y, z'
loop_
 _atom_site_type_symbol
 _atom_site_label
 _atom_site_symmetry_multiplicity
 _atom_site_fract_x
 _atom_site_fract_y
 _atom_site_fract_z
 _atom_site_occupancy
  Dy  Dy0  1  0.74999997  0.33333333  0.66666666  1
  Dy  Dy1  1  0.24999999  0.66666665  0.33333330  1
  Mg  Mg2  1  0.24999999  0.16129100  0.32258199  1
  Mg  Mg3  1  0.24999999  0.67741799  0.83870897  1
  Mg  Mg4  1  0.24999999  0.16129100  0.83870900  1
  Mg  Mg5  1  0.74999997  0.83870898  0.67741796  1
  Mg  Mg6  1  0.74999997  0.32258199  0.16129098  1
  Mg  Mg7  1  0.74999997  0.83870898  0.16129095  1
