# generated using pymatgen
data_TeMoPb
_symmetry_space_group_name_H-M   'P 1'
_cell_length_a   3.48751211
_cell_length_b   3.48751116
_cell_length_c   6.73855019
_cell_angle_alpha   90.00000000
_cell_angle_beta   90.00000000
_cell_angle_gamma   120.00000763
_symmetry_Int_Tables_number   1
_chemical_formula_structural   TeMoPb
_chemical_formula_sum   'Te1 Mo1 Pb1'
_cell_volume   70.97875801
_cell_formula_units_Z   1
loop_
 _symmetry_equiv_pos_site_id
 _symmetry_equiv_pos_as_xyz
  1  'x, y, z'
loop_
 _atom_site_type_symbol
 _atom_site_label
 _atom_site_symmetry_multiplicity
 _atom_site_fract_x
 _atom_site_fract_y
 _atom_site_fract_z
 _atom_site_occupancy
  Mo  Mo0  1  0.00000000  0.00000000  0.00000000  1
  Te  Te1  1  0.33333332  0.66666666  0.24954099  1
  Pb  Pb2  1  0.66666664  0.33333333  0.75045898  1
