# generated using pymatgen
data_ZrN
_symmetry_space_group_name_H-M   'P 1'
_cell_length_a   3.54765224
_cell_length_b   3.54765224
_cell_length_c   11.83368587
_cell_angle_alpha   81.37908173
_cell_angle_beta   81.37908173
_cell_angle_gamma   60.00000000
_symmetry_Int_Tables_number   1
_chemical_formula_structural   ZrN
_chemical_formula_sum   'Zr4 N4'
_cell_volume   127.03631865
_cell_formula_units_Z   4
loop_
 _symmetry_equiv_pos_site_id
 _symmetry_equiv_pos_as_xyz
  1  'x, y, z'
loop_
 _atom_site_type_symbol
 _atom_site_label
 _atom_site_symmetry_multiplicity
 _atom_site_fract_x
 _atom_site_fract_y
 _atom_site_fract_z
 _atom_site_occupancy
  Zr  Zr0  1  0.75357201  0.75357101  0.73928500  1
  Zr  Zr1  1  0.50018800  0.50018801  0.49943600  1
  Zr  Zr2  1  0.24654900  0.24654800  0.26035400  1
  Zr  Zr3  1  0.00116900  0.00116800  0.99649399  1
  N  N4  1  0.06778200  0.06778200  0.79665399  1
  N  N5  1  0.81400401  0.81400301  0.55798900  1
  N  N6  1  0.56043801  0.56043801  0.31868600  1
  N  N7  1  0.30629900  0.30630000  0.08110200  1
