# generated using pymatgen
data_Ba3UO6
_symmetry_space_group_name_H-M   'P 1'
_cell_length_a   6.56088781
_cell_length_b   6.64660311
_cell_length_c   6.56088781
_cell_angle_alpha   119.57431030
_cell_angle_beta   90.00000000
_cell_angle_gamma   119.57431030
_symmetry_Int_Tables_number   1
_chemical_formula_structural   Ba3UO6
_chemical_formula_sum   'Ba3 U1 O6'
_cell_volume   204.88230423
_cell_formula_units_Z   1
loop_
 _symmetry_equiv_pos_site_id
 _symmetry_equiv_pos_as_xyz
  1  'x, y, z'
loop_
 _atom_site_type_symbol
 _atom_site_label
 _atom_site_symmetry_multiplicity
 _atom_site_fract_x
 _atom_site_fract_y
 _atom_site_fract_z
 _atom_site_occupancy
  Ba  Ba0  1  0.25000000  0.49999999  0.75000002  1
  Ba  Ba1  1  0.75000002  0.49999999  0.25000000  1
  Ba  Ba2  1  0.50000001  0.00000000  0.50000001  1
  U  U3  1  0.00000000  0.00000000  0.00000000  1
  O  O4  1  1.00000003  0.00000000  0.29557201  1
  O  O5  1  1.00000003  0.00000000  0.70442802  1
  O  O6  1  0.70442802  0.00000000  0.00000000  1
  O  O7  1  0.29557200  0.99999997  1.00000002  1
  O  O8  1  0.78607702  0.57215399  0.78607702  1
  O  O9  1  0.21392300  0.42784599  0.21392300  1
