# generated using pymatgen
data_NaCu(SO4)2
_symmetry_space_group_name_H-M   'P 1'
_cell_length_a   4.71083641
_cell_length_b   4.71083641
_cell_length_c   7.30876637
_cell_angle_alpha   87.46046448
_cell_angle_beta   87.46046448
_cell_angle_gamma   65.05648804
_symmetry_Int_Tables_number   1
_chemical_formula_structural   NaCu(SO4)2
_chemical_formula_sum   'Na1 Cu1 S2 O8'
_cell_volume   146.86377640
_cell_formula_units_Z   1
loop_
 _symmetry_equiv_pos_site_id
 _symmetry_equiv_pos_as_xyz
  1  'x, y, z'
loop_
 _atom_site_type_symbol
 _atom_site_label
 _atom_site_symmetry_multiplicity
 _atom_site_fract_x
 _atom_site_fract_y
 _atom_site_fract_z
 _atom_site_occupancy
  Na  Na0  1  0.00000000  0.00000000  0.50000000  1
  Cu  Cu1  1  0.00000000  0.00000000  0.00000000  1
  S  S2  1  0.63732399  0.63732404  0.21129599  1
  S  S3  1  0.36267599  0.36267602  0.78870399  1
  O  O4  1  0.70115999  0.70116005  0.39318399  1
  O  O5  1  0.29883999  0.29884002  0.60681599  1
  O  O6  1  0.76921902  0.28876102  0.18791799  1
  O  O7  1  0.23078097  0.71123905  0.81208199  1
  O  O8  1  0.71123902  0.23078102  0.81208199  1
  O  O9  1  0.28876097  0.76921905  0.18791799  1
  O  O10  1  0.76976899  0.76976905  0.06034299  1
  O  O11  1  0.23023100  0.23023102  0.93965699  1
