# generated using pymatgen
data_Li2Al4O3F7
_symmetry_space_group_name_H-M   'P 1'
_cell_length_a   4.84811687
_cell_length_b   4.84811687
_cell_length_c   8.84417152
_cell_angle_alpha   90.00000000
_cell_angle_beta   90.00000000
_cell_angle_gamma   90.00000000
_symmetry_Int_Tables_number   1
_chemical_formula_structural   Li2Al4O3F7
_chemical_formula_sum   'Li2 Al4 O3 F7'
_cell_volume   207.87550561
_cell_formula_units_Z   1
loop_
 _symmetry_equiv_pos_site_id
 _symmetry_equiv_pos_as_xyz
  1  'x, y, z'
loop_
 _atom_site_type_symbol
 _atom_site_label
 _atom_site_symmetry_multiplicity
 _atom_site_fract_x
 _atom_site_fract_y
 _atom_site_fract_z
 _atom_site_occupancy
  Li  Li0  1  0.00000000  0.00000000  0.34795802  1
  Li  Li1  1  0.50000001  0.50000001  0.84795805  1
  Al  Al2  1  0.00000000  0.00000000  0.99630905  1
  Al  Al3  1  0.50000001  0.50000001  0.49630903  1
  Al  Al4  1  0.17706900  0.82293102  0.14891101  1
  Al  Al5  1  0.19669901  0.80330102  0.85854305  1
  O  O6  1  0.23476601  0.76523402  0.48797703  1
  O  O7  1  0.26523401  0.26523401  0.98797705  1
  O  O8  1  0.30330101  0.30330101  0.35854302  1
  F  F9  1  0.32293101  0.32293101  0.64891103  1
  F  F10  1  0.69669902  0.69669902  0.35854302  1
  F  F11  1  0.67706902  0.67706902  0.64891103  1
  F  F12  1  0.73476602  0.73476602  0.98797705  1
  F  F13  1  0.76523402  0.23476601  0.48797703  1
  F  F14  1  0.82293102  0.17706900  0.14891101  1
  F  F15  1  0.80330102  0.19669901  0.85854305  1
