# generated using pymatgen
data_LiFeS2
_symmetry_space_group_name_H-M   'P 1'
_cell_length_a   3.34701896
_cell_length_b   5.89985561
_cell_length_c   5.89985561
_cell_angle_alpha   109.64910889
_cell_angle_beta   90.00000000
_cell_angle_gamma   90.00000000
_symmetry_Int_Tables_number   1
_chemical_formula_structural   LiFeS2
_chemical_formula_sum   'Li2 Fe2 S4'
_cell_volume   109.71994986
_cell_formula_units_Z   2
loop_
 _symmetry_equiv_pos_site_id
 _symmetry_equiv_pos_as_xyz
  1  'x, y, z'
loop_
 _atom_site_type_symbol
 _atom_site_label
 _atom_site_symmetry_multiplicity
 _atom_site_fract_x
 _atom_site_fract_y
 _atom_site_fract_z
 _atom_site_occupancy
  Li  Li0  1  1.00000001  0.50000000  -0.00000001  1
  Li  Li1  1  1.00000001  0.00000000  0.50000000  1
  Fe  Fe2  1  0.50000001  0.50000000  0.49999999  1
  Fe  Fe3  1  0.50000001  0.00000000  -0.00000000  1
  S  S4  1  0.50000001  0.22281000  0.77719000  1
  S  S5  1  -0.00000000  0.70881900  0.70881899  1
  S  S6  1  1.00000001  0.29118100  0.29118099  1
  S  S7  1  0.50000001  0.77719000  0.22280998  1
