# generated using pymatgen
data_Ce3Ir2
_symmetry_space_group_name_H-M   'P 1'
_cell_length_a   7.76998568
_cell_length_b   7.76998568
_cell_length_c   7.76998520
_cell_angle_alpha   72.06275177
_cell_angle_beta   72.06275177
_cell_angle_gamma   72.06275940
_symmetry_Int_Tables_number   1
_chemical_formula_structural   Ce3Ir2
_chemical_formula_sum   'Ce9 Ir6'
_cell_volume   412.66374852
_cell_formula_units_Z   3
loop_
 _symmetry_equiv_pos_site_id
 _symmetry_equiv_pos_as_xyz
  1  'x, y, z'
loop_
 _atom_site_type_symbol
 _atom_site_label
 _atom_site_symmetry_multiplicity
 _atom_site_fract_x
 _atom_site_fract_y
 _atom_site_fract_z
 _atom_site_occupancy
  Ce  Ce0  1  0.00000000  0.00000000  0.00000000  1
  Ce  Ce1  1  0.20234400  0.20234400  0.20234398  1
  Ce  Ce2  1  0.79765598  0.79765599  0.79765592  1
  Ce  Ce3  1  0.39155399  0.66558399  0.16621495  1
  Ce  Ce4  1  0.66558399  0.16621500  0.39155396  1
  Ce  Ce5  1  0.16621500  0.39155400  0.66558397  1
  Ce  Ce6  1  0.60844599  0.33441600  0.83378495  1
  Ce  Ce7  1  0.33441599  0.83378499  0.60844594  1
  Ce  Ce8  1  0.83378499  0.60844599  0.33441593  1
  Ir  Ir9  1  0.04138999  0.84073299  0.40962796  1
  Ir  Ir10  1  0.84073299  0.40962800  0.04138995  1
  Ir  Ir11  1  0.40962799  0.04139000  0.84073297  1
  Ir  Ir12  1  0.95860999  0.15926700  0.59037194  1
  Ir  Ir13  1  0.15926699  0.59037199  0.95860995  1
  Ir  Ir14  1  0.59037199  0.95860999  0.15926693  1
