# generated using pymatgen
data_CeNdSi2
_symmetry_space_group_name_H-M   'P 1'
_cell_length_a   3.92249393
_cell_length_b   5.86219692
_cell_length_c   8.20340347
_cell_angle_alpha   90.00000000
_cell_angle_beta   90.00000000
_cell_angle_gamma   90.00000000
_symmetry_Int_Tables_number   1
_chemical_formula_structural   CeNdSi2
_chemical_formula_sum   'Ce2 Nd2 Si4'
_cell_volume   188.63260227
_cell_formula_units_Z   2
loop_
 _symmetry_equiv_pos_site_id
 _symmetry_equiv_pos_as_xyz
  1  'x, y, z'
loop_
 _atom_site_type_symbol
 _atom_site_label
 _atom_site_symmetry_multiplicity
 _atom_site_fract_x
 _atom_site_fract_y
 _atom_site_fract_z
 _atom_site_occupancy
  Ce  Ce0  1  0.00000000  0.13617900  0.68028396  1
  Ce  Ce1  1  0.00000000  0.86382101  0.18028399  1
  Nd  Nd2  1  0.50000001  0.36304600  0.32000498  1
  Nd  Nd3  1  0.50000001  0.63695401  0.82000495  1
  Si  Si4  1  0.00000000  0.62771401  0.53488897  1
  Si  Si5  1  0.00000000  0.37228600  0.03488900  1
  Si  Si6  1  0.50000001  0.87427101  0.46482197  1
  Si  Si7  1  0.50000001  0.12572900  0.96482194  1
