# generated using pymatgen
data_Sr2Ti2O5
_symmetry_space_group_name_H-M   'P 1'
_cell_length_a   3.93587399
_cell_length_b   3.93587399
_cell_length_c   7.58410311
_cell_angle_alpha   90.00000000
_cell_angle_beta   90.00000000
_cell_angle_gamma   90.00000000
_symmetry_Int_Tables_number   1
_chemical_formula_structural   Sr2Ti2O5
_chemical_formula_sum   'Sr2 Ti2 O5'
_cell_volume   117.48613020
_cell_formula_units_Z   1
loop_
 _symmetry_equiv_pos_site_id
 _symmetry_equiv_pos_as_xyz
  1  'x, y, z'
loop_
 _atom_site_type_symbol
 _atom_site_label
 _atom_site_symmetry_multiplicity
 _atom_site_fract_x
 _atom_site_fract_y
 _atom_site_fract_z
 _atom_site_occupancy
  Sr  Sr0  1  0.00000000  0.00000000  0.00000000  1
  Sr  Sr1  1  0.00000000  0.00000000  0.49999999  1
  Ti  Ti2  1  0.50000000  0.50000000  0.24954900  1
  Ti  Ti3  1  0.50000000  0.50000000  0.75045099  1
  O  O4  1  0.50000000  0.00000000  0.21429800  1
  O  O5  1  0.50000000  0.00000000  0.78570199  1
  O  O6  1  0.50000000  0.50000000  0.49999999  1
  O  O7  1  0.00000000  0.50000000  0.21429800  1
  O  O8  1  0.00000000  0.50000000  0.78570199  1
