# generated using pymatgen
data_ZrC
_symmetry_space_group_name_H-M   'P 1'
_cell_length_a   3.32682395
_cell_length_b   3.32682395
_cell_length_c   11.01884365
_cell_angle_alpha   81.31739807
_cell_angle_beta   81.31739807
_cell_angle_gamma   60.00000000
_symmetry_Int_Tables_number   1
_chemical_formula_structural   ZrC
_chemical_formula_sum   'Zr4 C4'
_cell_volume   103.99820505
_cell_formula_units_Z   4
loop_
 _symmetry_equiv_pos_site_id
 _symmetry_equiv_pos_as_xyz
  1  'x, y, z'
loop_
 _atom_site_type_symbol
 _atom_site_label
 _atom_site_symmetry_multiplicity
 _atom_site_fract_x
 _atom_site_fract_y
 _atom_site_fract_z
 _atom_site_occupancy
  Zr  Zr0  1  0.87450100  0.87450101  0.37649699  1
  Zr  Zr1  1  0.12549900  0.12549900  0.62350299  1
  Zr  Zr2  1  0.37606900  0.37606900  0.87179298  1
  Zr  Zr3  1  0.62393100  0.62393101  0.12820699  1
  C  C4  1  0.25155500  0.25155500  0.24533499  1
  C  C5  1  0.50000000  0.50000001  0.49999999  1
  C  C6  1  0.74844500  0.74844501  0.75466498  1
  C  C7  1  0.00000000  0.00000000  0.00000000  1
