# generated using pymatgen
data_Li2CrCuO4
_symmetry_space_group_name_H-M   'P 1'
_cell_length_a   4.05497837
_cell_length_b   4.05497360
_cell_length_c   5.16366768
_cell_angle_alpha   66.88109589
_cell_angle_beta   66.88031769
_cell_angle_gamma   89.99961853
_symmetry_Int_Tables_number   1
_chemical_formula_structural   Li2CrCuO4
_chemical_formula_sum   'Li2 Cr1 Cu1 O4'
_cell_volume   70.61238358
_cell_formula_units_Z   1
loop_
 _symmetry_equiv_pos_site_id
 _symmetry_equiv_pos_as_xyz
  1  'x, y, z'
loop_
 _atom_site_type_symbol
 _atom_site_label
 _atom_site_symmetry_multiplicity
 _atom_site_fract_x
 _atom_site_fract_y
 _atom_site_fract_z
 _atom_site_occupancy
  Li  Li0  1  0.75000005  0.25000000  0.50000099  1
  Li  Li1  1  0.50000105  0.50000100  -0.00000001  1
  Cr  Cr2  1  0.24999704  0.74999700  0.50000101  1
  Cu  Cu3  1  0.00000100  0.00000100  0.99999903  1
  O  O4  1  0.48223807  0.98223800  0.03552500  1
  O  O5  1  0.76892807  0.76892900  0.46214099  1
  O  O6  1  0.01776402  0.51776500  0.96447203  1
  O  O7  1  0.23107202  0.23107000  0.53785901  1
