# generated using pymatgen
data_CsPrZnTe3
_symmetry_space_group_name_H-M   'P 1'
_cell_length_a   4.59923792
_cell_length_b   8.88004589
_cell_length_c   12.26588058
_cell_angle_alpha   90.00000000
_cell_angle_beta   90.00000000
_cell_angle_gamma   105.00864410
_symmetry_Int_Tables_number   1
_chemical_formula_structural   CsPrZnTe3
_chemical_formula_sum   'Cs2 Pr2 Zn2 Te6'
_cell_volume   483.86703468
_cell_formula_units_Z   2
loop_
 _symmetry_equiv_pos_site_id
 _symmetry_equiv_pos_as_xyz
  1  'x, y, z'
loop_
 _atom_site_type_symbol
 _atom_site_label
 _atom_site_symmetry_multiplicity
 _atom_site_fract_x
 _atom_site_fract_y
 _atom_site_fract_z
 _atom_site_occupancy
  Cs  Cs0  1  0.74322102  0.48644201  0.25000001  1
  Cs  Cs1  1  0.25677901  0.51355801  0.75000003  1
  Pr  Pr2  1  0.00000000  0.00000000  0.00000000  1
  Pr  Pr3  1  0.00000000  0.00000000  0.50000002  1
  Zn  Zn4  1  0.54013801  0.08027600  0.75000003  1
  Zn  Zn5  1  0.45986202  0.91972402  0.25000001  1
  Te  Te6  1  0.94330903  0.88661802  0.75000003  1
  Te  Te7  1  0.37629802  0.75259602  0.43309101  1
  Te  Te8  1  0.37629802  0.75259602  0.06690900  1
  Te  Te9  1  0.05669100  0.11338200  0.25000001  1
  Te  Te10  1  0.62370202  0.24740401  0.93309103  1
  Te  Te11  1  0.62370202  0.24740401  0.56690902  1
