# generated using pymatgen
data_LaBiBrClO2
_symmetry_space_group_name_H-M   'P 1'
_cell_length_a   3.94743299
_cell_length_b   3.94743299
_cell_length_c   7.84878206
_cell_angle_alpha   90.00000000
_cell_angle_beta   90.00000000
_cell_angle_gamma   90.00000000
_symmetry_Int_Tables_number   1
_chemical_formula_structural   LaBiBrClO2
_chemical_formula_sum   'La1 Bi1 Br1 Cl1 O2'
_cell_volume   122.30150572
_cell_formula_units_Z   1
loop_
 _symmetry_equiv_pos_site_id
 _symmetry_equiv_pos_as_xyz
  1  'x, y, z'
loop_
 _atom_site_type_symbol
 _atom_site_label
 _atom_site_symmetry_multiplicity
 _atom_site_fract_x
 _atom_site_fract_y
 _atom_site_fract_z
 _atom_site_occupancy
  La  La0  1  0.50000000  0.50000000  0.84251299  1
  Bi  Bi1  1  0.00000000  0.00000000  0.16698800  1
  Br  Br2  1  0.00000000  0.00000000  0.64218999  1
  Cl  Cl3  1  0.50000000  0.50000000  0.33964300  1
  O  O4  1  0.00000000  0.50000000  0.00433300  1
  O  O5  1  0.50000000  0.00000000  0.00433300  1
