# generated using pymatgen
data_KCaI3
_symmetry_space_group_name_H-M   'P 1'
_cell_length_a   4.64844179
_cell_length_b   7.94777489
_cell_length_c   11.92035294
_cell_angle_alpha   90.00000000
_cell_angle_beta   90.00000000
_cell_angle_gamma   107.00389099
_symmetry_Int_Tables_number   1
_chemical_formula_structural   KCaI3
_chemical_formula_sum   'K2 Ca2 I6'
_cell_volume   421.14278654
_cell_formula_units_Z   2
loop_
 _symmetry_equiv_pos_site_id
 _symmetry_equiv_pos_as_xyz
  1  'x, y, z'
loop_
 _atom_site_type_symbol
 _atom_site_label
 _atom_site_symmetry_multiplicity
 _atom_site_fract_x
 _atom_site_fract_y
 _atom_site_fract_z
 _atom_site_occupancy
  K  K0  1  0.75400099  0.50800199  0.75000000  1
  K  K1  1  0.24599897  0.49199799  0.25000000  1
  Ca  Ca2  1  0.00000000  0.00000000  0.00000000  1
  Ca  Ca3  1  0.00000000  0.00000000  0.50000000  1
  I  I4  1  0.36041596  0.72083199  0.94397101  1
  I  I5  1  0.63958400  0.27916800  0.05602900  1
  I  I6  1  0.63958400  0.27916800  0.44397100  1
  I  I7  1  0.36041596  0.72083199  0.55602900  1
  I  I8  1  0.07891699  0.15783400  0.75000000  1
  I  I9  1  0.92108297  0.84216599  0.25000000  1
