# generated using pymatgen
data_Al9ReC6
_symmetry_space_group_name_H-M   'P 1'
_cell_length_a   6.90046692
_cell_length_b   6.90046692
_cell_length_c   6.90046692
_cell_angle_alpha   60.00000000
_cell_angle_beta   60.00000000
_cell_angle_gamma   60.00000000
_symmetry_Int_Tables_number   1
_chemical_formula_structural   Al9ReC6
_chemical_formula_sum   'Al9 Re1 C6'
_cell_volume   232.33810175
_cell_formula_units_Z   1
loop_
 _symmetry_equiv_pos_site_id
 _symmetry_equiv_pos_as_xyz
  1  'x, y, z'
loop_
 _atom_site_type_symbol
 _atom_site_label
 _atom_site_symmetry_multiplicity
 _atom_site_fract_x
 _atom_site_fract_y
 _atom_site_fract_z
 _atom_site_occupancy
  Al  Al0  1  0.50000001  0.50000001  0.50000001  1
  Al  Al1  1  0.00000000  0.00000000  0.00000000  1
  Al  Al2  1  0.50000001  0.00000000  0.50000001  1
  Al  Al3  1  0.50000001  0.50000001  -0.00000000  1
  Al  Al4  1  -0.00000000  0.50000001  0.50000001  1
  Al  Al5  1  -0.00000000  0.50000001  -0.00000000  1
  Al  Al6  1  0.50000001  0.00000000  -0.00000000  1
  Al  Al7  1  -0.00000000  0.00000000  0.50000001  1
  C  C8  1  0.57495101  0.14168300  0.14168300  1
  Al  Al9  1  0.85831701  0.85831701  0.42504900  1
  C  C10  1  0.85831701  0.42504900  0.85831701  1
  Re  Re11  1  0.85831701  0.85831701  0.85831701  1
  C  C12  1  0.14168300  0.57495101  0.14168300  1
  C  C13  1  0.14168300  0.14168300  0.14168300  1
  C  C14  1  0.42504900  0.85831701  0.85831701  1
  C  C15  1  0.14168300  0.14168300  0.57495101  1
