# generated using pymatgen
data_Lu4Ge5Pd3
_symmetry_space_group_name_H-M   'P 1'
_cell_length_a   4.10294485
_cell_length_b   6.96928787
_cell_length_c   7.91659498
_cell_angle_alpha   90.00000000
_cell_angle_beta   90.00000000
_cell_angle_gamma   90.00000000
_symmetry_Int_Tables_number   1
_chemical_formula_structural   Lu4Ge5Pd3
_chemical_formula_sum   'Lu4 Ge5 Pd3'
_cell_volume   226.37189688
_cell_formula_units_Z   1
loop_
 _symmetry_equiv_pos_site_id
 _symmetry_equiv_pos_as_xyz
  1  'x, y, z'
loop_
 _atom_site_type_symbol
 _atom_site_label
 _atom_site_symmetry_multiplicity
 _atom_site_fract_x
 _atom_site_fract_y
 _atom_site_fract_z
 _atom_site_occupancy
  Lu  Lu0  1  0.25000001  0.53121301  0.30933500  1
  Lu  Lu1  1  0.25000001  0.03121300  0.19066500  1
  Lu  Lu2  1  0.75000003  0.46878701  0.69066500  1
  Lu  Lu3  1  0.75000003  0.96878702  0.80933500  1
  Ge  Ge4  1  0.25000001  0.24738800  0.87919700  1
  Ge  Ge5  1  0.25000001  0.74738801  0.62080300  1
  Ge  Ge6  1  0.75000003  0.75261201  0.12080300  1
  Ge  Ge7  1  0.75000003  0.25261200  0.37919700  1
  Pd  Pd8  1  0.25000001  0.64395301  0.93721800  1
  Pd  Pd9  1  0.25000001  0.14395300  0.56278200  1
  Ge  Ge10  1  0.75000003  0.35604701  0.06278200  1
  Pd  Pd11  1  0.75000003  0.85604702  0.43721800  1
