# generated using pymatgen
data_Mg(PtN2)2
_symmetry_space_group_name_H-M   'P 1'
_cell_length_a   5.45572996
_cell_length_b   6.15748453
_cell_length_c   5.45572996
_cell_angle_alpha   63.70351791
_cell_angle_beta   90.00000000
_cell_angle_gamma   116.29647827
_symmetry_Int_Tables_number   1
_chemical_formula_structural   Mg(PtN2)2
_chemical_formula_sum   'Mg2 Pt4 N8'
_cell_volume   142.84752147
_cell_formula_units_Z   2
loop_
 _symmetry_equiv_pos_site_id
 _symmetry_equiv_pos_as_xyz
  1  'x, y, z'
loop_
 _atom_site_type_symbol
 _atom_site_label
 _atom_site_symmetry_multiplicity
 _atom_site_fract_x
 _atom_site_fract_y
 _atom_site_fract_z
 _atom_site_occupancy
  Mg  Mg0  1  0.24999996  0.49999997  0.25000001  1
  Mg  Mg1  1  0.50000000  0.00000000  0.50000000  1
  Pt  Pt2  1  0.87499994  0.74999995  0.87500002  1
  Pt  Pt3  1  0.87499998  0.24999998  0.87500001  1
  Pt  Pt4  1  0.37499998  0.24999998  0.87500001  1
  Pt  Pt5  1  0.87499994  0.74999995  0.37500002  1
  N  N6  1  0.65564093  0.90483594  0.21727402  1
  N  N7  1  0.50080495  0.59516396  0.87211002  1
  N  N8  1  0.87210997  0.40483597  0.09435901  1
  N  N9  1  0.21727399  0.09516399  0.24919500  1
  N  N10  1  0.53272597  0.40483597  0.50080501  1
  N  N11  1  0.87789000  0.09516399  0.65564101  1
  N  N12  1  0.24919492  0.90483594  0.87789002  1
  N  N13  1  0.09435895  0.59516396  0.53272602  1
