# generated using pymatgen
data_Te2Mo2SeS
_symmetry_space_group_name_H-M   'P 1'
_cell_length_a   3.32287598
_cell_length_b   3.32287693
_cell_length_c   23.61932182
_cell_angle_alpha   90.00000000
_cell_angle_beta   90.00000000
_cell_angle_gamma   119.99999237
_symmetry_Int_Tables_number   1
_chemical_formula_structural   Te2Mo2SeS
_chemical_formula_sum   'Te2 Mo2 Se1 S1'
_cell_volume   225.85331908
_cell_formula_units_Z   1
loop_
 _symmetry_equiv_pos_site_id
 _symmetry_equiv_pos_as_xyz
  1  'x, y, z'
loop_
 _atom_site_type_symbol
 _atom_site_label
 _atom_site_symmetry_multiplicity
 _atom_site_fract_x
 _atom_site_fract_y
 _atom_site_fract_z
 _atom_site_occupancy
  Te  Te0  1  0.33333335  0.66666665  0.54858100  1
  Te  Te1  1  0.66666668  0.33333333  0.84955601  1
  Mo  Mo2  1  0.66666668  0.33333333  0.47762000  1
  Mo  Mo3  1  0.33333335  0.66666665  0.92085101  1
  Se  Se4  1  0.33333335  0.66666665  0.77823901  1
  S  S5  1  0.66666668  0.33333333  0.61954800  1
