# generated using pymatgen
data_Sc3CoP2
_symmetry_space_group_name_H-M   'P 1'
_cell_length_a   3.94610310
_cell_length_b   8.56340218
_cell_length_c   13.03201771
_cell_angle_alpha   98.55492401
_cell_angle_beta   90.00000000
_cell_angle_gamma   90.00000000
_symmetry_Int_Tables_number   1
_chemical_formula_structural   Sc3CoP2
_chemical_formula_sum   'Sc9 Co3 P6'
_cell_volume   435.47904752
_cell_formula_units_Z   3
loop_
 _symmetry_equiv_pos_site_id
 _symmetry_equiv_pos_as_xyz
  1  'x, y, z'
loop_
 _atom_site_type_symbol
 _atom_site_label
 _atom_site_symmetry_multiplicity
 _atom_site_fract_x
 _atom_site_fract_y
 _atom_site_fract_z
 _atom_site_occupancy
  Sc  Sc0  1  0.49999999  0.32590099  0.80864302  1
  Sc  Sc1  1  0.49999999  0.99239696  0.14290300  1
  Sc  Sc2  1  0.49999999  0.66062597  0.47842301  1
  Sc  Sc3  1  0.49999999  0.67519597  0.19070800  1
  Sc  Sc4  1  0.49999999  0.34216199  0.52347601  1
  P  P5  1  0.49999999  0.00788900  0.85728002  1
  Sc  Sc6  1  -0.00000000  0.31418999  0.05441800  1
  Sc  Sc7  1  -0.00000000  0.97845996  0.38609801  1
  Co  Co8  1  -0.00000000  0.64657297  0.72094602  1
  Sc  Sc9  1  0.00000000  0.68605197  0.94654202  1
  Sc  Sc10  1  0.00000000  0.35336999  0.27867401  1
  Co  Co11  1  0.00000000  0.01821600  0.61221002  1
  Co  Co12  1  0.49999999  0.83341197  0.66873302  1
  P  P13  1  0.49999999  0.49918798  0.99965303  1
  P  P14  1  0.49999999  0.16758899  0.33443101  1
  P  P15  1  0.00000000  0.33202399  0.66469102  1
  P  P16  1  -0.00000000  0.00103700  0.99805203  1
  P  P17  1  0.00000000  0.66571597  0.33412001  1
