# generated using pymatgen
data_K2La2C(O3F2)2
_symmetry_space_group_name_H-M   'P 1'
_cell_length_a   4.22699451
_cell_length_b   5.90115213
_cell_length_c   9.24351883
_cell_angle_alpha   71.38515472
_cell_angle_beta   89.57815552
_cell_angle_gamma   88.67833710
_symmetry_Int_Tables_number   1
_chemical_formula_structural   K2La2C(O3F2)2
_chemical_formula_sum   'K2 La2 C1 O6 F4'
_cell_volume   218.45129041
_cell_formula_units_Z   1
loop_
 _symmetry_equiv_pos_site_id
 _symmetry_equiv_pos_as_xyz
  1  'x, y, z'
loop_
 _atom_site_type_symbol
 _atom_site_label
 _atom_site_symmetry_multiplicity
 _atom_site_fract_x
 _atom_site_fract_y
 _atom_site_fract_z
 _atom_site_occupancy
  K  K0  1  0.97529700  0.31055399  0.33126502  1
  K  K1  1  0.97529699  0.64181899  0.66873502  1
  La  La2  1  0.95303798  0.97352298  1.00000001  1
  La  La3  1  0.41656000  0.09482800  0.68186901  1
  C  C4  1  0.42469599  0.42120199  1.00000000  1
  O  O5  1  0.41655998  0.77669699  0.31813100  1
  O  O6  1  0.01713498  0.84716999  0.83692799  1
  O  O7  1  0.02519000  0.16205700  0.15633100  1
  O  O8  1  0.01797299  0.51475099  0.48896399  1
  O  O9  1  0.01797300  0.00371500  0.51103600  1
  F  F10  1  0.02518999  0.31838799  0.84366900  1
  F  F11  1  0.01713498  0.68409799  0.16307199  1
  F  F12  1  0.49291099  0.67910099  0.67948500  1
  F  F13  1  0.52179500  0.00317300  0.00000001  1
  O  O14  1  0.49291100  0.35858599  0.32051501  1
