# generated using pymatgen
data_BaLaI4
_symmetry_space_group_name_H-M   'P 1'
_cell_length_a   6.36053181
_cell_length_b   8.30069637
_cell_length_c   12.20986748
_cell_angle_alpha   90.00000000
_cell_angle_beta   105.09776306
_cell_angle_gamma   90.00000000
_symmetry_Int_Tables_number   1
_chemical_formula_structural   BaLaI4
_chemical_formula_sum   'Ba2 La2 I8'
_cell_volume   622.39120768
_cell_formula_units_Z   2
loop_
 _symmetry_equiv_pos_site_id
 _symmetry_equiv_pos_as_xyz
  1  'x, y, z'
loop_
 _atom_site_type_symbol
 _atom_site_label
 _atom_site_symmetry_multiplicity
 _atom_site_fract_x
 _atom_site_fract_y
 _atom_site_fract_z
 _atom_site_occupancy
  Ba  Ba0  1  0.81223001  0.10335200  0.62445998  1
  Ba  Ba1  1  0.18777000  0.60335197  0.37554000  1
  La  La2  1  0.58453701  0.00535000  0.16907398  1
  La  La3  1  0.41546301  0.50534998  0.83092600  1
  I  I4  1  0.90102901  0.44999098  0.80205798  1
  I  I5  1  0.54499701  0.62451697  0.08999398  1
  I  I6  1  0.67797801  0.31084299  0.35595598  1
  I  I7  1  0.70961001  0.79623896  0.41921998  1
  I  I8  1  0.09897100  0.94999096  0.19794200  1
  I  I9  1  0.29039000  0.29623899  0.58078000  1
  I  I10  1  0.45500301  0.12451699  0.91000600  1
  I  I11  1  0.32202200  0.81084296  0.64404400  1
