# generated using pymatgen
data_Zr2N
_symmetry_space_group_name_H-M   'P 1'
_cell_length_a   4.96606493
_cell_length_b   5.31849813
_cell_length_c   5.31849861
_cell_angle_alpha   60.00000381
_cell_angle_beta   90.00000000
_cell_angle_gamma   90.00000000
_symmetry_Int_Tables_number   1
_chemical_formula_structural   Zr2N
_chemical_formula_sum   'Zr6 N3'
_cell_volume   121.65251824
_cell_formula_units_Z   3
loop_
 _symmetry_equiv_pos_site_id
 _symmetry_equiv_pos_as_xyz
  1  'x, y, z'
loop_
 _atom_site_type_symbol
 _atom_site_label
 _atom_site_symmetry_multiplicity
 _atom_site_fract_x
 _atom_site_fract_y
 _atom_site_fract_z
 _atom_site_occupancy
  Zr  Zr0  1  0.24659200  0.33333332  0.00000000  1
  Zr  Zr1  1  0.24659200  0.66666665  0.33333334  1
  Zr  Zr2  1  0.24659200  0.00000000  0.66666666  1
  Zr  Zr3  1  0.75340801  0.66666665  0.00000001  1
  Zr  Zr4  1  0.75340801  0.33333332  0.66666666  1
  Zr  Zr5  1  0.75340801  0.00000000  0.33333333  1
  N  N6  1  0.50000001  0.66666665  0.66666666  1
  N  N7  1  0.50000001  0.33333332  0.33333333  1
  N  N8  1  0.00000000  0.00000000  0.00000000  1
