# generated using pymatgen
data_Ba2TlBrO3
_symmetry_space_group_name_H-M   'P 1'
_cell_length_a   4.28799486
_cell_length_b   4.28799486
_cell_length_c   15.27099228
_cell_angle_alpha   90.00000000
_cell_angle_beta   90.00000000
_cell_angle_gamma   90.00000000
_symmetry_Int_Tables_number   1
_chemical_formula_structural   Ba2TlBrO3
_chemical_formula_sum   'Ba4 Tl2 Br2 O6'
_cell_volume   280.78620691
_cell_formula_units_Z   2
loop_
 _symmetry_equiv_pos_site_id
 _symmetry_equiv_pos_as_xyz
  1  'x, y, z'
loop_
 _atom_site_type_symbol
 _atom_site_label
 _atom_site_symmetry_multiplicity
 _atom_site_fract_x
 _atom_site_fract_y
 _atom_site_fract_z
 _atom_site_occupancy
  Ba  Ba0  1  0.50000002  0.00000000  0.09479500  1
  Ba  Ba1  1  0.50000002  0.00000000  0.35245299  1
  Ba  Ba2  1  0.00000000  0.50000002  0.64754699  1
  Ba  Ba3  1  0.00000000  0.50000002  0.90520498  1
  Tl  Tl4  1  0.50000002  0.00000000  0.78664499  1
  Tl  Tl5  1  0.00000000  0.50000002  0.21335500  1
  Br  Br6  1  0.50000002  0.00000000  0.57435799  1
  Br  Br7  1  0.00000000  0.50000002  0.42564199  1
  O  O8  1  0.00000000  0.50000002  0.07471500  1
  O  O9  1  0.00000000  0.00000000  0.23811600  1
  O  O10  1  0.50000002  0.50000002  0.76188399  1
  O  O11  1  0.50000002  0.00000000  0.92528498  1
  O  O12  1  0.00000000  0.00000000  0.76188399  1
  O  O13  1  0.50000002  0.50000002  0.23811600  1
