# generated using pymatgen
data_NdSiAu2
_symmetry_space_group_name_H-M   'P 1'
_cell_length_a   4.34616804
_cell_length_b   4.42680407
_cell_length_c   9.52901745
_cell_angle_alpha   90.00000000
_cell_angle_beta   103.18224335
_cell_angle_gamma   90.00000000
_symmetry_Int_Tables_number   1
_chemical_formula_structural   NdSiAu2
_chemical_formula_sum   'Nd2 Si2 Au4'
_cell_volume   178.50387040
_cell_formula_units_Z   2
loop_
 _symmetry_equiv_pos_site_id
 _symmetry_equiv_pos_as_xyz
  1  'x, y, z'
loop_
 _atom_site_type_symbol
 _atom_site_label
 _atom_site_symmetry_multiplicity
 _atom_site_fract_x
 _atom_site_fract_y
 _atom_site_fract_z
 _atom_site_occupancy
  Nd  Nd0  1  0.88426999  0.25000000  0.76853998  1
  Nd  Nd1  1  0.11573000  0.74999999  0.23145999  1
  Si  Si2  1  0.32168200  0.74999999  0.64336398  1
  Si  Si3  1  0.67831800  0.25000000  0.35663599  1
  Au  Au4  1  0.25116900  0.25000000  0.50233799  1
  Au  Au5  1  0.74883100  0.74999999  0.49766199  1
  Au  Au6  1  0.45208200  0.74999999  0.90416397  1
  Au  Au7  1  0.54791800  0.25000000  0.09583600  1
