# generated using pymatgen
data_LiNiF3
_symmetry_space_group_name_H-M   'P 1'
_cell_length_a   5.23302364
_cell_length_b   5.23302364
_cell_length_c   5.63842773
_cell_angle_alpha   62.35124969
_cell_angle_beta   62.35124969
_cell_angle_gamma   60.00000763
_symmetry_Int_Tables_number   1
_chemical_formula_structural   LiNiF3
_chemical_formula_sum   'Li2 Ni2 F6'
_cell_volume   112.90192568
_cell_formula_units_Z   2
loop_
 _symmetry_equiv_pos_site_id
 _symmetry_equiv_pos_as_xyz
  1  'x, y, z'
loop_
 _atom_site_type_symbol
 _atom_site_label
 _atom_site_symmetry_multiplicity
 _atom_site_fract_x
 _atom_site_fract_y
 _atom_site_fract_z
 _atom_site_occupancy
  Li  Li0  1  0.35041199  0.35041199  0.94876398  1
  Li  Li1  1  0.14928100  0.14928099  0.55215699  1
  Ni  Ni2  1  0.65065398  0.65065397  0.04803802  1
  Ni  Ni3  1  0.85079598  0.85079596  0.44761202  1
  F  F4  1  0.43430799  0.75293997  0.75661000  1
  F  F5  1  0.05614200  0.43430798  0.75660999  1
  F  F6  1  0.75293997  0.05614200  0.75660999  1
  F  F7  1  0.94819597  0.54021698  0.24453402  1
  F  F8  1  0.26705300  0.94819596  0.24453401  1
  F  F9  1  0.54021698  0.26705299  0.24453401  1
