# generated using pymatgen
data_Mn3(O2F)2
_symmetry_space_group_name_H-M   'P 1'
_cell_length_a   5.57891941
_cell_length_b   5.57891941
_cell_length_c   7.45347023
_cell_angle_alpha   71.03423309
_cell_angle_beta   71.03423309
_cell_angle_gamma   70.22405243
_symmetry_Int_Tables_number   1
_chemical_formula_structural   Mn3(O2F)2
_chemical_formula_sum   'Mn6 O8 F4'
_cell_volume   200.33380846
_cell_formula_units_Z   2
loop_
 _symmetry_equiv_pos_site_id
 _symmetry_equiv_pos_as_xyz
  1  'x, y, z'
loop_
 _atom_site_type_symbol
 _atom_site_label
 _atom_site_symmetry_multiplicity
 _atom_site_fract_x
 _atom_site_fract_y
 _atom_site_fract_z
 _atom_site_occupancy
  Mn  Mn0  1  0.66735601  0.66735601  0.82940600  1
  Mn  Mn1  1  0.00000000  0.00000000  0.00000000  1
  Mn  Mn2  1  0.68205201  0.68205201  0.33900601  1
  Mn  Mn3  1  0.00000000  0.00000000  0.50000000  1
  Mn  Mn4  1  0.33264400  0.33264401  0.17059400  1
  Mn  Mn5  1  0.31794800  0.31794801  0.66099400  1
  O  O6  1  0.29530200  0.70469801  1.00000000  1
  O  O7  1  0.97128201  0.36321701  0.33519301  1
  O  O8  1  0.09438400  0.09438400  0.70491400  1
  O  O9  1  0.90561601  0.90561602  0.29508601  1
  O  O10  1  0.02871800  0.63678301  0.66480700  1
  O  O11  1  0.70469801  0.29530200  1.00000000  1
  O  O12  1  0.36321700  0.97128202  0.33519301  1
  O  O13  1  0.63678301  0.02871800  0.66480700  1
  F  F14  1  0.76948201  0.76948201  0.03473401  1
  F  F15  1  0.44136201  0.44136201  0.36437200  1
  F  F16  1  0.23051800  0.23051800  0.96526600  1
  F  F17  1  0.55863801  0.55863801  0.63562800  1
