# generated using pymatgen
data_PrGaPt
_symmetry_space_group_name_H-M   'P 1'
_cell_length_a   4.57451200
_cell_length_b   7.20177889
_cell_length_c   7.88180590
_cell_angle_alpha   90.00000000
_cell_angle_beta   90.00000000
_cell_angle_gamma   90.00000000
_symmetry_Int_Tables_number   1
_chemical_formula_structural   PrGaPt
_chemical_formula_sum   'Pr4 Ga4 Pt4'
_cell_volume   259.66313157
_cell_formula_units_Z   4
loop_
 _symmetry_equiv_pos_site_id
 _symmetry_equiv_pos_as_xyz
  1  'x, y, z'
loop_
 _atom_site_type_symbol
 _atom_site_label
 _atom_site_symmetry_multiplicity
 _atom_site_fract_x
 _atom_site_fract_y
 _atom_site_fract_z
 _atom_site_occupancy
  Pr  Pr0  1  0.25000000  0.50807501  0.20227600  1
  Pr  Pr1  1  0.75000000  0.49192501  0.79772401  1
  Pr  Pr2  1  0.25000000  0.00807500  0.29772400  1
  Pr  Pr3  1  0.75000000  0.99192502  0.70227601  1
  Ga  Ga4  1  0.25000000  0.19546200  0.90843601  1
  Ga  Ga5  1  0.75000000  0.30453800  0.40843601  1
  Ga  Ga6  1  0.25000000  0.69546201  0.59156401  1
  Ga  Ga7  1  0.75000000  0.80453801  0.09156400  1
  Pt  Pt8  1  0.75000000  0.19441900  0.08192500  1
  Pt  Pt9  1  0.25000000  0.30558100  0.58192501  1
  Pt  Pt10  1  0.75000000  0.69441901  0.41807501  1
  Pt  Pt11  1  0.25000000  0.80558101  0.91807501  1
