# generated using pymatgen
data_CaGdTi2O6
_symmetry_space_group_name_H-M   'P 1'
_cell_length_a   5.44771814
_cell_length_b   5.57790899
_cell_length_c   7.66150188
_cell_angle_alpha   90.00000000
_cell_angle_beta   90.00000000
_cell_angle_gamma   90.00000000
_symmetry_Int_Tables_number   1
_chemical_formula_structural   CaGdTi2O6
_chemical_formula_sum   'Ca2 Gd2 Ti4 O12'
_cell_volume   232.80910791
_cell_formula_units_Z   2
loop_
 _symmetry_equiv_pos_site_id
 _symmetry_equiv_pos_as_xyz
  1  'x, y, z'
loop_
 _atom_site_type_symbol
 _atom_site_label
 _atom_site_symmetry_multiplicity
 _atom_site_fract_x
 _atom_site_fract_y
 _atom_site_fract_z
 _atom_site_occupancy
  Ca  Ca0  1  0.50355799  0.27767000  0.50000001  1
  Ca  Ca1  1  0.00355800  0.72233000  0.00000000  1
  Gd  Gd2  1  0.98316397  0.81157800  0.50000001  1
  Gd  Gd3  1  0.48316399  0.18842200  0.00000000  1
  Ti  Ti4  1  0.99959597  0.25633400  0.75093101  1
  Ti  Ti5  1  0.49959599  0.74366600  0.25093100  1
  Ti  Ti6  1  0.99959597  0.25633400  0.24906900  1
  Ti  Ti7  1  0.49959599  0.74366600  0.74906901  1
  O  O8  1  0.22588599  0.97788100  0.78628301  1
  O  O9  1  0.30347999  0.44936500  0.20064400  1
  O  O10  1  0.80347998  0.55063500  0.29935600  1
  O  O11  1  0.72588598  0.02211900  0.71371701  1
  O  O12  1  0.80347998  0.55063500  0.70064401  1
  O  O13  1  0.72588598  0.02211900  0.28628300  1
  O  O14  1  0.22588599  0.97788100  0.21371700  1
  O  O15  1  0.30347999  0.44936500  0.79935601  1
  O  O16  1  0.05735800  0.21793200  0.50000001  1
  O  O17  1  0.39799599  0.73638900  0.50000001  1
  O  O18  1  0.89799598  0.26361100  0.00000000  1
  O  O19  1  0.55735799  0.78206800  0.00000000  1
