# generated using pymatgen
data_SmAl12
_symmetry_space_group_name_H-M   'P 1'
_cell_length_a   5.12135983
_cell_length_b   6.77003002
_cell_length_c   6.77003002
_cell_angle_alpha   81.77483368
_cell_angle_beta   67.77544403
_cell_angle_gamma   67.77544403
_symmetry_Int_Tables_number   1
_chemical_formula_structural   SmAl12
_chemical_formula_sum   'Sm1 Al12'
_cell_volume   201.14768670
_cell_formula_units_Z   1
loop_
 _symmetry_equiv_pos_site_id
 _symmetry_equiv_pos_as_xyz
  1  'x, y, z'
loop_
 _atom_site_type_symbol
 _atom_site_label
 _atom_site_symmetry_multiplicity
 _atom_site_fract_x
 _atom_site_fract_y
 _atom_site_fract_z
 _atom_site_occupancy
  Sm  Sm0  1  0.00000000  0.00000000  0.00000000  1
  Al  Al1  1  0.00000002  0.34869799  0.65130201  1
  Al  Al2  1  0.34869805  0.65130199  0.65130202  1
  Al  Al3  1  0.65130203  0.34869799  0.34869803  1
  Al  Al4  1  0.00000004  0.65130199  0.34869801  1
  Al  Al5  1  0.50000006  0.78001399  0.21998603  1
  Al  Al6  1  0.28001402  0.21998600  0.21998602  1
  Al  Al7  1  0.71998606  0.78001399  0.78001404  1
  Al  Al8  1  0.50000002  0.21998600  0.78001403  1
  Al  Al9  1  0.50000001  0.00000000  0.50000002  1
  Al  Al10  1  0.50000004  0.49999999  0.00000003  1
  Al  Al11  1  0.00000003  0.49999999  0.00000000  1
  Al  Al12  1  0.00000000  0.00000000  0.50000000  1
