# generated using pymatgen
data_MnH3CN4
_symmetry_space_group_name_H-M   'P 1'
_cell_length_a   3.30329394
_cell_length_b   5.10039377
_cell_length_c   5.67270517
_cell_angle_alpha   105.16763306
_cell_angle_beta   106.92723083
_cell_angle_gamma   90.00000000
_symmetry_Int_Tables_number   1
_chemical_formula_structural   MnH3CN4
_chemical_formula_sum   'Mn1 H3 C1 N4'
_cell_volume   87.94757978
_cell_formula_units_Z   1
loop_
 _symmetry_equiv_pos_site_id
 _symmetry_equiv_pos_as_xyz
  1  'x, y, z'
loop_
 _atom_site_type_symbol
 _atom_site_label
 _atom_site_symmetry_multiplicity
 _atom_site_fract_x
 _atom_site_fract_y
 _atom_site_fract_z
 _atom_site_occupancy
  Mn  Mn0  1  0.00000000  0.00000000  0.00000000  1
  C  C1  1  0.39084102  0.56650898  0.78168199  1
  H  H2  1  0.60915902  0.43349099  0.21831800  1
  H  H3  1  0.29797302  0.77736998  0.59594598  1
  H  H4  1  0.70202702  0.22262999  0.40405401  1
  N  N5  1  0.39178502  0.76790298  0.78356998  1
  N  N6  1  0.60821502  0.23209699  0.21643001  1
  N  N7  1  0.12029901  0.75255998  0.24059798  1
  N  N8  1  0.87970103  0.24743999  0.75940201  1
