# generated using pymatgen
data_Li4Fe3F10
_symmetry_space_group_name_H-M   'P 1'
_cell_length_a   4.92522812
_cell_length_b   5.20085382
_cell_length_c   8.42188263
_cell_angle_alpha   90.00000000
_cell_angle_beta   90.00000000
_cell_angle_gamma   92.58121490
_symmetry_Int_Tables_number   1
_chemical_formula_structural   Li4Fe3F10
_chemical_formula_sum   'Li4 Fe3 F10'
_cell_volume   215.51093884
_cell_formula_units_Z   1
loop_
 _symmetry_equiv_pos_site_id
 _symmetry_equiv_pos_as_xyz
  1  'x, y, z'
loop_
 _atom_site_type_symbol
 _atom_site_label
 _atom_site_symmetry_multiplicity
 _atom_site_fract_x
 _atom_site_fract_y
 _atom_site_fract_z
 _atom_site_occupancy
  Li  Li0  1  0.49999997  0.50000000  0.19296901  1
  Li  Li1  1  -0.00000000  0.00000000  0.09727000  1
  Li  Li2  1  0.49999999  0.00000000  0.41264102  1
  Li  Li3  1  0.49999997  0.50000000  0.60252003  1
  Fe  Fe4  1  -0.00000001  0.50000000  0.91828704  1
  Fe  Fe5  1  0.74239296  0.88113500  0.25089901  1
  F  F6  1  0.71329996  0.82453800  0.57972903  1
  Fe  Fe7  1  0.80164596  0.80942600  0.94071304  1
  F  F8  1  0.29446697  0.66851700  0.42607202  1
  F  F9  1  0.21244997  0.69307600  0.08018300  1
  F  F10  1  0.25301197  0.63901500  0.75538603  1
  F  F11  1  0.74698797  0.36098500  0.75538603  1
  F  F12  1  0.78754997  0.30692400  0.08018300  1
  F  F13  1  0.70553297  0.33148300  0.42607202  1
  F  F14  1  0.19835399  0.19057400  0.94071304  1
  F  F15  1  0.28669999  0.17546200  0.57972903  1
  F  F16  1  0.25760699  0.11886500  0.25089901  1
