# generated using pymatgen
data_ScP
_symmetry_space_group_name_H-M   'P 1'
_cell_length_a   3.90889001
_cell_length_b   9.35323906
_cell_length_c   9.89305210
_cell_angle_alpha   102.41360474
_cell_angle_beta   101.39415741
_cell_angle_gamma   90.00000000
_symmetry_Int_Tables_number   1
_chemical_formula_structural   ScP
_chemical_formula_sum   'Sc7 P7'
_cell_volume   345.93890375
_cell_formula_units_Z   7
loop_
 _symmetry_equiv_pos_site_id
 _symmetry_equiv_pos_as_xyz
  1  'x, y, z'
loop_
 _atom_site_type_symbol
 _atom_site_label
 _atom_site_symmetry_multiplicity
 _atom_site_fract_x
 _atom_site_fract_y
 _atom_site_fract_z
 _atom_site_occupancy
  Sc  Sc0  1  0.53012700  0.48009898  0.06025398  1
  Sc  Sc1  1  0.28886300  0.66262597  0.57772596  1
  Sc  Sc2  1  0.71365100  0.33627798  0.42730198  1
  Sc  Sc3  1  0.64566600  0.91068295  0.29133196  1
  Sc  Sc4  1  0.35476800  0.08998500  0.70953598  1
  Sc  Sc5  1  0.99934900  0.99939295  0.99869794  1
  P  P6  1  0.76271000  0.84761996  0.52541996  1
  Sc  Sc7  1  0.23708900  0.15231899  0.47417798  1
  P  P8  1  0.41520300  0.87438995  0.83040594  1
  P  P9  1  0.58465600  0.12649599  0.16931200  1
  P  P10  1  0.83268700  0.52173097  0.66537397  1
  P  P11  1  0.16494500  0.47784498  0.32988997  1
  P  P12  1  0.07073100  0.78586396  0.14146196  1
  P  P13  1  0.92953600  0.21456299  0.85907198  1
