# generated using pymatgen
data_Sr4TaRuO8
_symmetry_space_group_name_H-M   'P 1'
_cell_length_a   5.64112377
_cell_length_b   5.64382601
_cell_length_c   6.98165989
_cell_angle_alpha   113.84033966
_cell_angle_beta   90.00000000
_cell_angle_gamma   90.00000000
_symmetry_Int_Tables_number   1
_chemical_formula_structural   Sr4TaRuO8
_chemical_formula_sum   'Sr4 Ta1 Ru1 O8'
_cell_volume   203.31288128
_cell_formula_units_Z   1
loop_
 _symmetry_equiv_pos_site_id
 _symmetry_equiv_pos_as_xyz
  1  'x, y, z'
loop_
 _atom_site_type_symbol
 _atom_site_label
 _atom_site_symmetry_multiplicity
 _atom_site_fract_x
 _atom_site_fract_y
 _atom_site_fract_z
 _atom_site_occupancy
  Sr  Sr0  1  1.00000004  0.35198700  0.70397400  1
  Sr  Sr1  1  0.50000002  0.85415799  0.70831599  1
  Sr  Sr2  1  0.50000002  0.14584200  0.29168400  1
  Sr  Sr3  1  1.00000004  0.64801299  0.29602599  1
  Ta  Ta4  1  0.50000002  0.49999999  -0.00000001  1
  Ru  Ru5  1  0.00000000  0.00000000  0.00000000  1
  O  O6  1  0.25313701  0.25213700  -0.00000001  1
  O  O7  1  0.74686303  0.74786299  -0.00000002  1
  O  O8  1  0.25313701  0.74786299  -0.00000002  1
  O  O9  1  0.74686303  0.25213700  -0.00000001  1
  O  O10  1  1.00000004  0.16195200  0.32390400  1
  O  O11  1  0.50000002  0.66013599  0.32027199  1
  O  O12  1  0.50000002  0.33986400  0.67972800  1
  O  O13  1  -0.00000000  0.83804799  0.67609599  1
