# generated using pymatgen
data_Al3Si2
_symmetry_space_group_name_H-M   'P 1'
_cell_length_a   3.80701995
_cell_length_b   6.23336506
_cell_length_c   10.08237457
_cell_angle_alpha   90.00000000
_cell_angle_beta   100.88251495
_cell_angle_gamma   90.00000000
_symmetry_Int_Tables_number   1
_chemical_formula_structural   Al3Si2
_chemical_formula_sum   'Al6 Si4'
_cell_volume   234.95747793
_cell_formula_units_Z   2
loop_
 _symmetry_equiv_pos_site_id
 _symmetry_equiv_pos_as_xyz
  1  'x, y, z'
loop_
 _atom_site_type_symbol
 _atom_site_label
 _atom_site_symmetry_multiplicity
 _atom_site_fract_x
 _atom_site_fract_y
 _atom_site_fract_z
 _atom_site_occupancy
  Al  Al0  1  0.66746500  0.49794400  0.33493000  1
  Al  Al1  1  0.33253500  0.99794399  0.66507001  1
  Al  Al2  1  0.11553500  0.94254799  0.23107000  1
  Al  Al3  1  0.88446501  0.44254800  0.76893000  1
  Al  Al4  1  0.10482200  0.30343800  0.20964400  1
  Al  Al5  1  0.89517801  0.80343799  0.79035600  1
  Si  Si6  1  0.43332300  0.29174600  0.86664601  1
  Si  Si7  1  0.56667700  0.79174599  0.13335399  1
  Si  Si8  1  0.21931100  0.75842399  0.43862200  1
  Si  Si9  1  0.78068901  0.25842400  0.56137800  1
