# generated using pymatgen
data_BaGa2Ag
_symmetry_space_group_name_H-M   'P 1'
_cell_length_a   4.39361811
_cell_length_b   4.39361811
_cell_length_c   8.01144981
_cell_angle_alpha   105.91486359
_cell_angle_beta   105.91486359
_cell_angle_gamma   90.00000000
_symmetry_Int_Tables_number   1
_chemical_formula_structural   BaGa2Ag
_chemical_formula_sum   'Ba1 Ga2 Ag1'
_cell_volume   142.55021602
_cell_formula_units_Z   1
loop_
 _symmetry_equiv_pos_site_id
 _symmetry_equiv_pos_as_xyz
  1  'x, y, z'
loop_
 _atom_site_type_symbol
 _atom_site_label
 _atom_site_symmetry_multiplicity
 _atom_site_fract_x
 _atom_site_fract_y
 _atom_site_fract_z
 _atom_site_occupancy
  Ba  Ba0  1  0.00000000  0.00000000  0.00000000  1
  Ga  Ga1  1  0.74999999  0.25000000  0.50000001  1
  Ga  Ga2  1  0.34999500  0.34999500  0.69999000  1
  Ag  Ag3  1  0.65000500  0.65000499  0.30001002  1
