# generated using pymatgen
data_LaVSb3
_symmetry_space_group_name_H-M   'P 1'
_cell_length_a   6.19999218
_cell_length_b   6.31517076
_cell_length_c   12.95584869
_cell_angle_alpha   90.00000000
_cell_angle_beta   90.00000000
_cell_angle_gamma   90.00000000
_symmetry_Int_Tables_number   1
_chemical_formula_structural   LaVSb3
_chemical_formula_sum   'La4 V4 Sb12'
_cell_volume   507.27342099
_cell_formula_units_Z   4
loop_
 _symmetry_equiv_pos_site_id
 _symmetry_equiv_pos_as_xyz
  1  'x, y, z'
loop_
 _atom_site_type_symbol
 _atom_site_label
 _atom_site_symmetry_multiplicity
 _atom_site_fract_x
 _atom_site_fract_y
 _atom_site_fract_z
 _atom_site_occupancy
  La  La0  1  0.24999999  0.50356902  0.30767101  1
  La  La1  1  0.74999998  0.49643102  0.69232902  1
  La  La2  1  0.24999999  0.00356900  0.69232902  1
  La  La3  1  0.74999998  0.99643104  0.30767101  1
  V  V4  1  0.00000000  0.75000003  0.90671302  1
  V  V5  1  0.00000000  0.25000001  0.09328700  1
  V  V6  1  0.49999999  0.25000001  0.09328700  1
  V  V7  1  0.49999999  0.75000003  0.90671302  1
  Sb  Sb8  1  0.00000000  0.75000003  0.50144501  1
  Sb  Sb9  1  0.00000000  0.25000001  0.49855501  1
  Sb  Sb10  1  0.49999999  0.25000001  0.49855501  1
  Sb  Sb11  1  0.49999999  0.75000003  0.50144501  1
  Sb  Sb12  1  0.24999999  0.59521102  0.06123500  1
  Sb  Sb13  1  0.74999998  0.40478902  0.93876502  1
  Sb  Sb14  1  0.24999999  0.09521100  0.93876502  1
  Sb  Sb15  1  0.74999998  0.90478903  0.06123500  1
  Sb  Sb16  1  0.24999999  0.00452100  0.23038901  1
  Sb  Sb17  1  0.74999998  0.99547904  0.76961102  1
  Sb  Sb18  1  0.24999999  0.50452102  0.76961102  1
  Sb  Sb19  1  0.74999998  0.49547902  0.23038901  1
