# generated using pymatgen
data_SmAl12
_symmetry_space_group_name_H-M   'P 1'
_cell_length_a   5.08426809
_cell_length_b   6.71183777
_cell_length_c   6.71183777
_cell_angle_alpha   81.75221252
_cell_angle_beta   67.74349213
_cell_angle_gamma   67.74349213
_symmetry_Int_Tables_number   1
_chemical_formula_structural   SmAl12
_chemical_formula_sum   'Sm1 Al12'
_cell_volume   196.18320911
_cell_formula_units_Z   1
loop_
 _symmetry_equiv_pos_site_id
 _symmetry_equiv_pos_as_xyz
  1  'x, y, z'
loop_
 _atom_site_type_symbol
 _atom_site_label
 _atom_site_symmetry_multiplicity
 _atom_site_fract_x
 _atom_site_fract_y
 _atom_site_fract_z
 _atom_site_occupancy
  Sm  Sm0  1  0.00000000  0.00000000  0.00000000  1
  Al  Al1  1  0.65944500  0.34055499  0.34055503  1
  Al  Al2  1  0.34055504  0.65944498  0.65944502  1
  Al  Al3  1  0.00000003  0.34055499  0.65944500  1
  Al  Al4  1  0.00000005  0.65944498  0.34055501  1
  Al  Al5  1  0.72379403  0.77620598  0.77620604  1
  Al  Al6  1  0.27620601  0.22379399  0.22379401  1
  Al  Al7  1  0.50000004  0.77620598  0.22379403  1
  Al  Al8  1  0.50000000  0.22379399  0.77620602  1
  Al  Al9  1  0.00000004  0.49999999  0.00000001  1
  Al  Al10  1  0.50000002  0.49999999  0.00000003  1
  Al  Al11  1  0.50000005  0.99999997  0.50000003  1
  Al  Al12  1  0.00000000  0.00000000  0.50000000  1
