# generated using pymatgen
data_Dy4Ga2Ni3
_symmetry_space_group_name_H-M   'P 1'
_cell_length_a   3.89102602
_cell_length_b   7.49206018
_cell_length_c   7.49205971
_cell_angle_alpha   120.00000000
_cell_angle_beta   90.00000000
_cell_angle_gamma   90.00000000
_symmetry_Int_Tables_number   1
_chemical_formula_structural   Dy4Ga2Ni3
_chemical_formula_sum   'Dy4 Ga2 Ni3'
_cell_volume   189.14604032
_cell_formula_units_Z   1
loop_
 _symmetry_equiv_pos_site_id
 _symmetry_equiv_pos_as_xyz
  1  'x, y, z'
loop_
 _atom_site_type_symbol
 _atom_site_label
 _atom_site_symmetry_multiplicity
 _atom_site_fract_x
 _atom_site_fract_y
 _atom_site_fract_z
 _atom_site_occupancy
  Dy  Dy0  1  0.50000000  0.99999996  0.40448998  1
  Dy  Dy1  1  0.50000000  0.40448999  1.00000000  1
  Dy  Dy2  1  0.50000000  0.59550998  0.59550999  1
  Dy  Dy3  1  -0.00000000  0.74033597  0.99999999  1
  Ga  Ga4  1  -0.00000000  0.99999996  0.74033598  1
  Ga  Ga5  1  -0.00000000  0.25966399  0.25966400  1
  Ni  Ni6  1  0.99999999  0.66666664  0.33333332  1
  Ni  Ni7  1  0.50000000  0.00000000  -0.00000000  1
  Ni  Ni8  1  0.99999999  0.33333332  0.66666666  1
