# generated using pymatgen
data_LaYO3
_symmetry_space_group_name_H-M   'P 1'
_cell_length_a   5.91593313
_cell_length_b   6.12355709
_cell_length_c   8.61089706
_cell_angle_alpha   90.00000000
_cell_angle_beta   90.00000000
_cell_angle_gamma   90.00000000
_symmetry_Int_Tables_number   1
_chemical_formula_structural   LaYO3
_chemical_formula_sum   'La4 Y4 O12'
_cell_volume   311.94312990
_cell_formula_units_Z   4
loop_
 _symmetry_equiv_pos_site_id
 _symmetry_equiv_pos_as_xyz
  1  'x, y, z'
loop_
 _atom_site_type_symbol
 _atom_site_label
 _atom_site_symmetry_multiplicity
 _atom_site_fract_x
 _atom_site_fract_y
 _atom_site_fract_z
 _atom_site_occupancy
  La  La0  1  0.98414798  0.45232999  0.25000000  1
  La  La1  1  0.48414799  0.04767000  0.74999999  1
  La  La2  1  0.51585199  0.95232999  0.25000000  1
  La  La3  1  0.01585200  0.54766999  0.74999999  1
  Y  Y4  1  0.00000000  0.00000000  0.00000000  1
  Y  Y5  1  0.49999999  0.49999999  -0.00000000  1
  Y  Y6  1  0.49999999  0.49999999  0.50000000  1
  Y  Y7  1  0.00000000  0.00000000  0.50000000  1
  O  O8  1  0.69107598  0.19297500  0.07092400  1
  O  O9  1  0.19107600  0.30702500  0.92907599  1
  O  O10  1  0.80892398  0.69297499  0.42907600  1
  O  O11  1  0.30892399  0.80702499  0.57092400  1
  O  O12  1  0.30892399  0.80702499  0.92907599  1
  O  O13  1  0.80892398  0.69297499  0.07092400  1
  O  O14  1  0.19107600  0.30702500  0.57092400  1
  O  O15  1  0.69107598  0.19297500  0.42907600  1
  O  O16  1  0.13274600  0.06272800  0.25000000  1
  O  O17  1  0.63274599  0.43727199  0.74999999  1
  O  O18  1  0.36725399  0.56272799  0.25000000  1
  O  O19  1  0.86725398  0.93727199  0.74999999  1
