# generated using pymatgen
data_CeIn2Rh
_symmetry_space_group_name_H-M   'P 1'
_cell_length_a   4.38921785
_cell_length_b   5.53306007
_cell_length_c   8.03055573
_cell_angle_alpha   90.00000000
_cell_angle_beta   90.00000000
_cell_angle_gamma   113.36802673
_symmetry_Int_Tables_number   1
_chemical_formula_structural   CeIn2Rh
_chemical_formula_sum   'Ce2 In4 Rh2'
_cell_volume   179.03152048
_cell_formula_units_Z   2
loop_
 _symmetry_equiv_pos_site_id
 _symmetry_equiv_pos_as_xyz
  1  'x, y, z'
loop_
 _atom_site_type_symbol
 _atom_site_label
 _atom_site_symmetry_multiplicity
 _atom_site_fract_x
 _atom_site_fract_y
 _atom_site_fract_z
 _atom_site_occupancy
  Ce  Ce0  1  0.93269805  0.86539601  0.75000003  1
  Ce  Ce1  1  0.06730201  0.13460400  0.25000001  1
  In  In2  1  0.35523103  0.71046201  0.44935302  1
  In  In3  1  0.64476903  0.28953800  0.55064702  1
  In  In4  1  0.35523103  0.71046201  0.05064700  1
  In  In5  1  0.64476903  0.28953800  0.94935303  1
  Rh  Rh6  1  0.78363004  0.56726001  0.25000001  1
  Rh  Rh7  1  0.21637002  0.43274000  0.75000003  1
