# generated using pymatgen
data_YMgIn
_symmetry_space_group_name_H-M   'P 1'
_cell_length_a   4.22161198
_cell_length_b   7.84130001
_cell_length_c   7.84130001
_cell_angle_alpha   120.00000000
_cell_angle_beta   90.00000000
_cell_angle_gamma   90.00000000
_symmetry_Int_Tables_number   1
_chemical_formula_structural   YMgIn
_chemical_formula_sum   'Y3 Mg3 In3'
_cell_volume   224.79419180
_cell_formula_units_Z   3
loop_
 _symmetry_equiv_pos_site_id
 _symmetry_equiv_pos_as_xyz
  1  'x, y, z'
loop_
 _atom_site_type_symbol
 _atom_site_label
 _atom_site_symmetry_multiplicity
 _atom_site_fract_x
 _atom_site_fract_y
 _atom_site_fract_z
 _atom_site_occupancy
  Y  Y0  1  0.50000000  0.00000000  0.58727700  1
  Y  Y1  1  0.50000000  0.41272300  0.41272300  1
  Y  Y2  1  0.50000000  0.58727700  0.00000000  1
  Mg  Mg3  1  0.00000000  0.00000000  0.25134200  1
  Mg  Mg4  1  -0.00000000  0.74865800  0.74865800  1
  Mg  Mg5  1  -0.00000000  0.25134200  1.00000000  1
  In  In6  1  0.50000000  0.00000000  -0.00000000  1
  In  In7  1  -0.00000000  0.33333333  0.66666667  1
  In  In8  1  -0.00000000  0.66666667  0.33333333  1
