# generated using pymatgen
data_LiIn
_symmetry_space_group_name_H-M   'P 1'
_cell_length_a   4.84477758
_cell_length_b   4.84477758
_cell_length_c   4.84477758
_cell_angle_alpha   60.00000000
_cell_angle_beta   60.00000000
_cell_angle_gamma   60.00000000
_symmetry_Int_Tables_number   1
_chemical_formula_structural   LiIn
_chemical_formula_sum   'Li2 In2'
_cell_volume   80.40934685
_cell_formula_units_Z   2
loop_
 _symmetry_equiv_pos_site_id
 _symmetry_equiv_pos_as_xyz
  1  'x, y, z'
loop_
 _atom_site_type_symbol
 _atom_site_label
 _atom_site_symmetry_multiplicity
 _atom_site_fract_x
 _atom_site_fract_y
 _atom_site_fract_z
 _atom_site_occupancy
  Li  Li0  1  0.49999999  0.49999999  0.49999999  1
  Li  Li1  1  0.24999999  0.24999999  0.24999999  1
  In  In2  1  0.74999998  0.74999998  0.74999998  1
  In  In3  1  0.00000000  0.00000000  0.00000000  1
