# generated using pymatgen
data_Li2MnCoO4
_symmetry_space_group_name_H-M   'P 1'
_cell_length_a   5.04718590
_cell_length_b   5.76842928
_cell_length_c   5.76842928
_cell_angle_alpha   60.19175339
_cell_angle_beta   74.37757874
_cell_angle_gamma   74.37757874
_symmetry_Int_Tables_number   1
_chemical_formula_structural   Li2MnCoO4
_chemical_formula_sum   'Li4 Mn2 Co2 O8'
_cell_volume   138.48518849
_cell_formula_units_Z   2
loop_
 _symmetry_equiv_pos_site_id
 _symmetry_equiv_pos_as_xyz
  1  'x, y, z'
loop_
 _atom_site_type_symbol
 _atom_site_label
 _atom_site_symmetry_multiplicity
 _atom_site_fract_x
 _atom_site_fract_y
 _atom_site_fract_z
 _atom_site_occupancy
  Li  Li0  1  0.49812401  0.25010600  0.25010600  1
  Li  Li1  1  0.50000001  0.25517400  0.74482600  1
  Li  Li2  1  0.50000001  0.74482599  0.25517402  1
  Li  Li3  1  0.50187601  0.74989399  0.74989402  1
  Mn  Mn4  1  -0.00000000  0.49999999  0.50000002  1
  Mn  Mn5  1  0.00000000  0.00000000  0.00000000  1
  Co  Co6  1  0.00000000  0.00000000  0.50000000  1
  Co  Co7  1  -0.00000000  0.49999999  0.00000002  1
  O  O8  1  0.78000202  0.35927100  0.35927101  1
  O  O9  1  0.78212402  0.36149700  0.88832001  1
  O  O10  1  0.78212401  0.88831999  0.36149702  1
  O  O11  1  0.75452901  0.88507599  0.88507602  1
  O  O12  1  0.24547101  0.11492400  0.11492400  1
  O  O13  1  0.21787600  0.11168000  0.63850300  1
  O  O14  1  0.21787600  0.63850299  0.11168002  1
  O  O15  1  0.21999800  0.64072899  0.64072902  1
