# generated using pymatgen
data_DyMgSi
_symmetry_space_group_name_H-M   'P 1'
_cell_length_a   4.07319212
_cell_length_b   5.61818171
_cell_length_c   5.78627300
_cell_angle_alpha   90.00000000
_cell_angle_beta   90.00000000
_cell_angle_gamma   111.25386810
_symmetry_Int_Tables_number   1
_chemical_formula_structural   DyMgSi
_chemical_formula_sum   'Dy2 Mg2 Si2'
_cell_volume   123.40642540
_cell_formula_units_Z   2
loop_
 _symmetry_equiv_pos_site_id
 _symmetry_equiv_pos_as_xyz
  1  'x, y, z'
loop_
 _atom_site_type_symbol
 _atom_site_label
 _atom_site_symmetry_multiplicity
 _atom_site_fract_x
 _atom_site_fract_y
 _atom_site_fract_z
 _atom_site_occupancy
  Dy  Dy0  1  0.68974400  0.37948799  0.75000000  1
  Dy  Dy1  1  0.31025602  0.62051199  0.25000000  1
  Mg  Mg2  1  0.00000000  0.00000000  0.50000000  1
  Mg  Mg3  1  0.00000000  0.00000000  0.00000000  1
  Si  Si4  1  0.60559899  0.21119800  0.25000000  1
  Si  Si5  1  0.39440103  0.78880199  0.75000000  1
