# generated using pymatgen
data_TlCoNiSe2
_symmetry_space_group_name_H-M   'P 1'
_cell_length_a   3.98042607
_cell_length_b   3.98042607
_cell_length_c   7.23757696
_cell_angle_alpha   105.96102142
_cell_angle_beta   105.96102142
_cell_angle_gamma   90.00000000
_symmetry_Int_Tables_number   1
_chemical_formula_structural   TlCoNiSe2
_chemical_formula_sum   'Tl1 Co1 Ni1 Se2'
_cell_volume   105.64450224
_cell_formula_units_Z   1
loop_
 _symmetry_equiv_pos_site_id
 _symmetry_equiv_pos_as_xyz
  1  'x, y, z'
loop_
 _atom_site_type_symbol
 _atom_site_label
 _atom_site_symmetry_multiplicity
 _atom_site_fract_x
 _atom_site_fract_y
 _atom_site_fract_z
 _atom_site_occupancy
  Tl  Tl0  1  0.00000000  0.00000000  0.00000000  1
  Co  Co1  1  0.74999999  0.25000000  0.50000000  1
  Ni  Ni2  1  0.25000000  0.74999999  0.50000000  1
  Se  Se3  1  0.64814299  0.64814299  0.29628601  1
  Se  Se4  1  0.35185700  0.35185699  0.70371400  1
