# generated using pymatgen
data_Nb8SnPt3
_symmetry_space_group_name_H-M   'P 1'
_cell_length_a   5.47925615
_cell_length_b   5.66435289
_cell_length_c   9.47525501
_cell_angle_alpha   81.96121216
_cell_angle_beta   73.19382477
_cell_angle_gamma   61.07520294
_symmetry_Int_Tables_number   1
_chemical_formula_structural   Nb8SnPt3
_chemical_formula_sum   'Nb8 Sn1 Pt3'
_cell_volume   246.39978522
_cell_formula_units_Z   1
loop_
 _symmetry_equiv_pos_site_id
 _symmetry_equiv_pos_as_xyz
  1  'x, y, z'
loop_
 _atom_site_type_symbol
 _atom_site_label
 _atom_site_symmetry_multiplicity
 _atom_site_fract_x
 _atom_site_fract_y
 _atom_site_fract_z
 _atom_site_occupancy
  Nb  Nb0  1  0.09295401  0.81409203  0.49999997  1
  Nb  Nb1  1  0.40704599  0.18590801  0.50000000  1
  Nb  Nb2  1  0.91450696  0.00000000  0.17098602  1
  Nb  Nb3  1  0.34295399  0.31409201  -0.00000000  1
  Nb  Nb4  1  0.08549300  0.00000000  0.82901400  1
  Nb  Nb5  1  0.66450698  0.50000002  0.67098600  1
  Nb  Nb6  1  0.65704599  0.68590803  -0.00000001  1
  Nb  Nb7  1  0.83549297  0.50000002  0.32901400  1
  Pt  Pt8  1  0.12016000  0.50000002  0.75967998  1
  Sn  Sn9  1  0.37015998  0.00000000  0.25968001  1
  Pt  Pt10  1  0.37983999  0.50000002  0.24031999  1
  Pt  Pt11  1  0.62983997  0.00000000  0.74032002  1
