# generated using pymatgen
data_Ce2NiGe7
_symmetry_space_group_name_H-M   'P 1'
_cell_length_a   4.20218706
_cell_length_b   4.20218706
_cell_length_c   9.86390495
_cell_angle_alpha   90.00000000
_cell_angle_beta   90.00000000
_cell_angle_gamma   90.00000000
_symmetry_Int_Tables_number   1
_chemical_formula_structural   Ce2NiGe7
_chemical_formula_sum   'Ce2 Ni1 Ge7'
_cell_volume   174.18054346
_cell_formula_units_Z   1
loop_
 _symmetry_equiv_pos_site_id
 _symmetry_equiv_pos_as_xyz
  1  'x, y, z'
loop_
 _atom_site_type_symbol
 _atom_site_label
 _atom_site_symmetry_multiplicity
 _atom_site_fract_x
 _atom_site_fract_y
 _atom_site_fract_z
 _atom_site_occupancy
  Ce  Ce0  1  0.00000000  0.49999999  0.25473600  1
  Ce  Ce1  1  0.49999999  0.00000000  0.74526400  1
  Ni  Ni2  1  0.49999999  0.00000000  0.13495200  1
  Ge  Ge3  1  0.00000000  0.00000000  0.50000000  1
  Ge  Ge4  1  0.49999999  0.49999999  0.50000000  1
  Ge  Ge5  1  0.00000000  0.49999999  0.86504800  1
  Ge  Ge6  1  0.00000000  0.00000000  0.00000000  1
  Ge  Ge7  1  0.49999999  0.49999999  0.00000000  1
  Ge  Ge8  1  0.49999999  0.00000000  0.37647800  1
  Ge  Ge9  1  0.00000000  0.49999999  0.62352200  1
