# generated using pymatgen
data_Mg2Sn
_symmetry_space_group_name_H-M   'P 1'
_cell_length_a   3.68645597
_cell_length_b   6.23100901
_cell_length_c   7.02470827
_cell_angle_alpha   106.80124664
_cell_angle_beta   90.00000000
_cell_angle_gamma   107.20643616
_symmetry_Int_Tables_number   1
_chemical_formula_structural   Mg2Sn
_chemical_formula_sum   'Mg4 Sn2'
_cell_volume   146.91216430
_cell_formula_units_Z   2
loop_
 _symmetry_equiv_pos_site_id
 _symmetry_equiv_pos_as_xyz
  1  'x, y, z'
loop_
 _atom_site_type_symbol
 _atom_site_label
 _atom_site_symmetry_multiplicity
 _atom_site_fract_x
 _atom_site_fract_y
 _atom_site_fract_z
 _atom_site_occupancy
  Mg  Mg0  1  0.50000000  0.00000000  0.49999999  1
  Mg  Mg1  1  0.82755903  0.65511800  0.67702201  1
  Mg  Mg2  1  0.17131902  0.34263800  0.84368400  1
  Mg  Mg3  1  0.50000000  0.00000000  0.00000000  1
  Sn  Sn4  1  0.82868103  0.65736200  0.15631602  1
  Sn  Sn5  1  0.17244102  0.34488200  0.32297801  1
