# generated using pymatgen
data_Sr4Mn5AlN6
_symmetry_space_group_name_H-M   'P 1'
_cell_length_a   6.50931311
_cell_length_b   6.50931311
_cell_length_c   6.55091190
_cell_angle_alpha   91.10048676
_cell_angle_beta   91.10048676
_cell_angle_gamma   119.69714355
_symmetry_Int_Tables_number   1
_chemical_formula_structural   Sr4Mn5AlN6
_chemical_formula_sum   'Sr4 Mn5 Al1 N6'
_cell_volume   240.93633422
_cell_formula_units_Z   1
loop_
 _symmetry_equiv_pos_site_id
 _symmetry_equiv_pos_as_xyz
  1  'x, y, z'
loop_
 _atom_site_type_symbol
 _atom_site_label
 _atom_site_symmetry_multiplicity
 _atom_site_fract_x
 _atom_site_fract_y
 _atom_site_fract_z
 _atom_site_occupancy
  Sr  Sr0  1  0.17729101  0.31804101  0.90068497  1
  Sr  Sr1  1  0.68195903  0.82270901  0.59931498  1
  Sr  Sr2  1  0.82270902  0.68195901  0.09931500  1
  Sr  Sr3  1  0.31804101  0.17729100  0.40068499  1
  Mn  Mn4  1  0.19277602  0.80722401  0.74999998  1
  Mn  Mn5  1  0.80722401  0.19277600  0.24999999  1
  Mn  Mn6  1  0.42865903  0.83560601  0.10311200  1
  Mn  Mn7  1  0.57134101  0.16439400  0.89688797  1
  Al  Al8  1  0.16439402  0.57134101  0.39688799  1
  Mn  Mn9  1  0.83560601  0.42865901  0.60311198  1
  N  N10  1  0.58961101  0.41038901  0.74999998  1
  N  N11  1  0.41038902  0.58961101  0.24999999  1
  N  N12  1  0.00015601  0.28091800  0.51590298  1
  N  N13  1  0.28091800  0.00015600  0.01590300  1
  N  N14  1  0.99984402  0.71908201  0.48409699  1
  N  N15  1  0.71908203  0.99984402  0.98409697  1
