# generated using pymatgen
data_CaTiO3
_symmetry_space_group_name_H-M   'P 1'
_cell_length_a   5.44464302
_cell_length_b   5.51541090
_cell_length_c   7.71616507
_cell_angle_alpha   90.00000000
_cell_angle_beta   90.00000000
_cell_angle_gamma   90.86506653
_symmetry_Int_Tables_number   1
_chemical_formula_structural   CaTiO3
_chemical_formula_sum   'Ca4 Ti4 O12'
_cell_volume   231.68573284
_cell_formula_units_Z   4
loop_
 _symmetry_equiv_pos_site_id
 _symmetry_equiv_pos_as_xyz
  1  'x, y, z'
loop_
 _atom_site_type_symbol
 _atom_site_label
 _atom_site_symmetry_multiplicity
 _atom_site_fract_x
 _atom_site_fract_y
 _atom_site_fract_z
 _atom_site_occupancy
  Ca  Ca0  1  0.85163700  0.83220403  0.50000000  1
  Ca  Ca1  1  0.29668601  0.12919000  0.50000000  1
  Ca  Ca2  1  0.26695100  0.21280301  -0.00000000  1
  Ca  Ca3  1  0.75313600  0.72754602  -0.00000000  1
  Ti  Ti4  1  0.26702099  0.73069802  0.73828099  1
  Ti  Ti5  1  0.26702099  0.73069802  0.26171900  1
  Ti  Ti6  1  0.77133102  0.24540001  0.73132099  1
  Ti  Ti7  1  0.77133102  0.24540001  0.26867900  1
  O  O8  1  0.96798302  0.54375102  0.72537399  1
  O  O9  1  0.96798302  0.54375102  0.27462600  1
  O  O10  1  0.48189800  0.48540802  0.80442099  1
  O  O11  1  0.48189800  0.48540802  0.19557900  1
  O  O12  1  0.03326700  0.03840900  0.70360499  1
  O  O13  1  0.03326700  0.03840900  0.29639500  1
  O  O14  1  0.52279899  0.98570103  0.79866099  1
  O  O15  1  0.52279899  0.98570103  0.20133900  1
  O  O16  1  0.17914298  0.77700103  -0.00000000  1
  O  O17  1  0.33373699  0.75513903  0.50000000  1
  O  O18  1  0.83233202  0.24938401  -0.00000000  1
  O  O19  1  0.65607702  0.22799701  0.50000000  1
