# generated using pymatgen
data_Sm2AlCo16
_symmetry_space_group_name_H-M   'P 1'
_cell_length_a   6.34600592
_cell_length_b   6.34600592
_cell_length_c   6.34600544
_cell_angle_alpha   82.63032532
_cell_angle_beta   82.63032532
_cell_angle_gamma   82.63032532
_symmetry_Int_Tables_number   1
_chemical_formula_structural   Sm2AlCo16
_chemical_formula_sum   'Sm2 Al1 Co16'
_cell_volume   249.73040894
_cell_formula_units_Z   1
loop_
 _symmetry_equiv_pos_site_id
 _symmetry_equiv_pos_as_xyz
  1  'x, y, z'
loop_
 _atom_site_type_symbol
 _atom_site_label
 _atom_site_symmetry_multiplicity
 _atom_site_fract_x
 _atom_site_fract_y
 _atom_site_fract_z
 _atom_site_occupancy
  Sm  Sm0  1  0.34304699  0.34304700  0.34304701  1
  Sm  Sm1  1  0.65681998  0.65681999  0.65682002  1
  Al  Al2  1  0.00251000  0.00251000  0.49576600  1
  Co  Co3  1  0.00250999  0.49576600  0.00251001  1
  Co  Co4  1  0.49576599  0.00251000  0.00251001  1
  Co  Co5  1  0.90623898  0.90623899  0.90623903  1
  Co  Co6  1  0.71285299  0.28694600  0.99982202  1
  Co  Co7  1  0.28694598  0.99982199  0.71285302  1
  Co  Co8  1  0.99982198  0.71285299  0.28694602  1
  Co  Co9  1  0.71285298  0.99982199  0.28694602  1
  Co  Co10  1  0.99982199  0.28694600  0.71285302  1
  Co  Co11  1  0.28694599  0.71285299  0.99982202  1
  Co  Co12  1  0.65679998  0.65679999  0.15263302  1
  Co  Co13  1  0.65679999  0.15263300  0.65680002  1
  Co  Co14  1  0.15263299  0.65679999  0.65680002  1
  Co  Co15  1  0.34414099  0.34414100  0.84228502  1
  Co  Co16  1  0.34414099  0.84228499  0.34414102  1
  Co  Co17  1  0.84228499  0.34414100  0.34414102  1
  Co  Co18  1  0.09706600  0.09706600  0.09706600  1
