# generated using pymatgen
data_Cu3SiS4
_symmetry_space_group_name_H-M   'P 1'
_cell_length_a   5.33871222
_cell_length_b   5.33871222
_cell_length_c   6.45308495
_cell_angle_alpha   114.43469238
_cell_angle_beta   114.43469238
_cell_angle_gamma   90.00000000
_symmetry_Int_Tables_number   1
_chemical_formula_structural   Cu3SiS4
_chemical_formula_sum   'Si1 Cu3 S4'
_cell_volume   149.16949253
_cell_formula_units_Z   1
loop_
 _symmetry_equiv_pos_site_id
 _symmetry_equiv_pos_as_xyz
  1  'x, y, z'
loop_
 _atom_site_type_symbol
 _atom_site_label
 _atom_site_symmetry_multiplicity
 _atom_site_fract_x
 _atom_site_fract_y
 _atom_site_fract_z
 _atom_site_occupancy
  Si  Si0  1  0.00000000  0.00000000  0.00000000  1
  Cu  Cu1  1  0.74999996  0.24999999  0.50000000  1
  Cu  Cu2  1  0.24999998  0.74999996  0.50000000  1
  Cu  Cu3  1  0.49999997  0.49999998  -0.00000002  1
  S  S4  1  0.37573798  0.37573798  0.25196000  1
  S  S5  1  0.87622194  0.87622196  0.25195998  1
  S  S6  1  0.62426197  0.12377899  0.74804102  1
  S  S7  1  0.12377798  0.62426097  0.74803901  1
