# generated using pymatgen
data_Ta2Ni3Sb
_symmetry_space_group_name_H-M   'P 1'
_cell_length_a   4.76879597
_cell_length_b   4.76879549
_cell_length_c   7.40045977
_cell_angle_alpha   90.00000000
_cell_angle_beta   90.00000000
_cell_angle_gamma   120.00000000
_symmetry_Int_Tables_number   1
_chemical_formula_structural   Ta2Ni3Sb
_chemical_formula_sum   'Ta4 Ni6 Sb2'
_cell_volume   145.74939921
_cell_formula_units_Z   2
loop_
 _symmetry_equiv_pos_site_id
 _symmetry_equiv_pos_as_xyz
  1  'x, y, z'
loop_
 _atom_site_type_symbol
 _atom_site_label
 _atom_site_symmetry_multiplicity
 _atom_site_fract_x
 _atom_site_fract_y
 _atom_site_fract_z
 _atom_site_occupancy
  Ta  Ta0  1  0.17128598  0.34257200  0.75000002  1
  Ta  Ta1  1  0.17128595  0.82871399  0.75000002  1
  Ta  Ta2  1  0.65742796  0.82871399  0.75000002  1
  Ta  Ta3  1  0.82871397  0.65742799  0.25000001  1
  Ni  Ni4  1  0.82871400  0.17128600  0.25000001  1
  Ni  Ni5  1  0.34257199  0.17128600  0.25000001  1
  Ni  Ni6  1  0.00000000  0.00000000  0.50000002  1
  Ni  Ni7  1  0.00000000  0.00000000  0.00000000  1
  Ni  Ni8  1  0.66666665  0.33333333  0.56734402  1
  Ni  Ni9  1  0.33333330  0.66666666  0.43265601  1
  Sb  Sb10  1  0.33333330  0.66666666  0.06734400  1
  Sb  Sb11  1  0.66666665  0.33333333  0.93265603  1
