# generated using pymatgen
data_Mn7O2F11
_symmetry_space_group_name_H-M   'P 1'
_cell_length_a   4.83532810
_cell_length_b   4.83678818
_cell_length_c   8.87834358
_cell_angle_alpha   90.00000000
_cell_angle_beta   89.83688354
_cell_angle_gamma   90.00000000
_symmetry_Int_Tables_number   1
_chemical_formula_structural   Mn7O2F11
_chemical_formula_sum   'Mn7 O2 F11'
_cell_volume   207.64104439
_cell_formula_units_Z   1
loop_
 _symmetry_equiv_pos_site_id
 _symmetry_equiv_pos_as_xyz
  1  'x, y, z'
loop_
 _atom_site_type_symbol
 _atom_site_label
 _atom_site_symmetry_multiplicity
 _atom_site_fract_x
 _atom_site_fract_y
 _atom_site_fract_z
 _atom_site_occupancy
  Mn  Mn0  1  0.99947298  0.74130997  0.34930602  1
  Mn  Mn1  1  0.00045600  0.25298999  0.75157203  1
  Mn  Mn2  1  0.49803499  0.24675099  0.15057601  1
  Mn  Mn3  1  0.50045599  0.74700997  0.25157201  1
  Mn  Mn4  1  0.49947299  0.25868999  0.84930604  1
  Mn  Mn5  1  0.99803498  0.75324897  0.65057604  1
  O  O6  1  0.00041000  0.75186197  0.00011800  1
  Mn  Mn7  1  0.50040999  0.24813799  0.50011803  1
  F  F8  1  0.20234900  0.56788098  0.16141601  1
  F  F9  1  0.18372800  0.55183298  0.83774404  1
  O  O10  1  0.21719900  0.53416098  0.49997402  1
  F  F11  1  0.28385599  0.03696300  0.99959605  1
  F  F12  1  0.31800899  0.04664400  0.33870002  1
  F  F13  1  0.29761099  0.06939500  0.66244703  1
  F  F14  1  0.68372799  0.44816698  0.33774402  1
  F  F15  1  0.70234899  0.43211898  0.66141603  1
  F  F16  1  0.71719898  0.46583898  0.99997405  1
  F  F17  1  0.78385598  0.96303696  0.49959603  1
  F  F18  1  0.79761098  0.93060497  0.16244701  1
  F  F19  1  0.81800898  0.95335597  0.83870004  1
