# generated using pymatgen
data_Y12Co5Sn
_symmetry_space_group_name_H-M   'P 1'
_cell_length_a   8.41830826
_cell_length_b   8.41830826
_cell_length_c   8.41830826
_cell_angle_alpha   72.89585114
_cell_angle_beta   70.43855286
_cell_angle_gamma   111.78179932
_symmetry_Int_Tables_number   1
_chemical_formula_structural   Y12Co5Sn
_chemical_formula_sum   'Y12 Co5 Sn1'
_cell_volume   458.48873067
_cell_formula_units_Z   1
loop_
 _symmetry_equiv_pos_site_id
 _symmetry_equiv_pos_as_xyz
  1  'x, y, z'
loop_
 _atom_site_type_symbol
 _atom_site_label
 _atom_site_symmetry_multiplicity
 _atom_site_fract_x
 _atom_site_fract_y
 _atom_site_fract_z
 _atom_site_occupancy
  Y  Y0  1  0.79213700  0.23369200  0.97417098  1
  Y  Y1  1  0.20786301  0.76630800  0.02582900  1
  Y  Y2  1  0.20786300  0.23369200  0.55844499  1
  Y  Y3  1  0.79213701  0.76630800  0.44155498  1
  Y  Y4  1  0.52843401  0.71338100  0.18494699  1
  Y  Y5  1  0.47156600  0.28661900  0.81505299  1
  Y  Y6  1  0.10167200  0.28661900  0.18494700  1
  Y  Y7  1  0.89832801  0.71338100  0.81505298  1
  Y  Y8  1  0.69157600  0.01065300  0.68092298  1
  Y  Y9  1  0.30842402  0.98934700  0.31907699  1
  Y  Y10  1  0.30842401  0.62750100  0.68092199  1
  Y  Y11  1  0.69157600  0.37249900  0.31907799  1
  Co  Co12  1  0.00000001  0.50000000  0.50000000  1
  Co  Co13  1  0.00000000  0.00000000  0.00000000  1
  Co  Co14  1  0.63547600  0.00000000  0.36452399  1
  Co  Co15  1  0.36452402  1.00000000  0.63547599  1
  Co  Co16  1  0.50000001  0.61204300  0.88795698  1
  Sn  Sn17  1  0.50000001  0.38795700  0.11204299  1
