# generated using pymatgen
data_LaReC3
_symmetry_space_group_name_H-M   'P 1'
_cell_length_a   4.17686081
_cell_length_b   4.17686081
_cell_length_c   4.27498817
_cell_angle_alpha   90.00000000
_cell_angle_beta   90.00000000
_cell_angle_gamma   90.00000000
_symmetry_Int_Tables_number   1
_chemical_formula_structural   LaReC3
_chemical_formula_sum   'La1 Re1 C3'
_cell_volume   74.58215428
_cell_formula_units_Z   1
loop_
 _symmetry_equiv_pos_site_id
 _symmetry_equiv_pos_as_xyz
  1  'x, y, z'
loop_
 _atom_site_type_symbol
 _atom_site_label
 _atom_site_symmetry_multiplicity
 _atom_site_fract_x
 _atom_site_fract_y
 _atom_site_fract_z
 _atom_site_occupancy
  La  La0  1  0.50000002  0.50000002  0.55898398  1
  Re  Re1  1  0.00000000  0.00000000  0.00459900  1
  C  C2  1  0.00000000  0.00000000  0.47900198  1
  C  C3  1  0.50000002  0.00000000  0.95070796  1
  C  C4  1  0.00000000  0.50000002  0.95070796  1
