# generated using pymatgen
data_ZrAlFe
_symmetry_space_group_name_H-M   'P 1'
_cell_length_a   5.12282658
_cell_length_b   5.12293959
_cell_length_c   8.36926174
_cell_angle_alpha   90.00000000
_cell_angle_beta   90.00000000
_cell_angle_gamma   118.90087891
_symmetry_Int_Tables_number   1
_chemical_formula_structural   ZrAlFe
_chemical_formula_sum   'Zr4 Al4 Fe4'
_cell_volume   192.28743863
_cell_formula_units_Z   4
loop_
 _symmetry_equiv_pos_site_id
 _symmetry_equiv_pos_as_xyz
  1  'x, y, z'
loop_
 _atom_site_type_symbol
 _atom_site_label
 _atom_site_symmetry_multiplicity
 _atom_site_fract_x
 _atom_site_fract_y
 _atom_site_fract_z
 _atom_site_occupancy
  Zr  Zr0  1  0.33297195  0.66699899  0.55177302  1
  Zr  Zr1  1  0.67005795  0.32996199  0.42432301  1
  Zr  Zr2  1  0.67005795  0.32996199  0.07567700  1
  Zr  Zr3  1  0.33297195  0.66699899  0.94822703  1
  Al  Al4  1  0.99258896  0.00739300  0.48574101  1
  Al  Al5  1  0.99258896  0.00739300  0.01425900  1
  Al  Al6  1  0.34225898  0.16521500  0.75000002  1
  Al  Al7  1  0.83477393  0.65774899  0.75000002  1
  Fe  Fe8  1  0.83343595  0.16656700  0.75000002  1
  Fe  Fe9  1  0.64308693  0.81852498  0.25000001  1
  Fe  Fe10  1  0.18149797  0.35692299  0.25000001  1
  Fe  Fe11  1  0.17370795  0.82631498  0.25000001  1
