# generated using pymatgen
data_Ce2Zn17
_symmetry_space_group_name_H-M   'P 1'
_cell_length_a   6.83310843
_cell_length_b   6.83310843
_cell_length_c   6.83310890
_cell_angle_alpha   83.49176025
_cell_angle_beta   83.49176025
_cell_angle_gamma   83.49176025
_symmetry_Int_Tables_number   1
_chemical_formula_structural   Ce2Zn17
_chemical_formula_sum   'Ce2 Zn17'
_cell_volume   313.31190487
_cell_formula_units_Z   1
loop_
 _symmetry_equiv_pos_site_id
 _symmetry_equiv_pos_as_xyz
  1  'x, y, z'
loop_
 _atom_site_type_symbol
 _atom_site_label
 _atom_site_symmetry_multiplicity
 _atom_site_fract_x
 _atom_site_fract_y
 _atom_site_fract_z
 _atom_site_occupancy
  Ce  Ce0  1  0.34286600  0.34286600  0.34286597  1
  Ce  Ce1  1  0.65713400  0.65713399  0.65713395  1
  Zn  Zn2  1  0.00000000  0.00000000  0.50000001  1
  Zn  Zn3  1  0.50000000  0.00000000  -0.00000002  1
  Zn  Zn4  1  0.00000000  0.50000000  -0.00000002  1
  Zn  Zn5  1  0.09757900  0.09757900  0.09757899  1
  Zn  Zn6  1  0.90242099  0.90242099  0.90242093  1
  Zn  Zn7  1  0.28242400  0.71757599  -0.00000005  1
  Zn  Zn8  1  0.00000000  0.28242400  0.71757600  1
  Zn  Zn9  1  0.71757599  0.00000000  0.28242397  1
  Zn  Zn10  1  0.00000000  0.71757599  0.28242397  1
  Zn  Zn11  1  0.28242400  0.00000000  0.71757600  1
  Zn  Zn12  1  0.71757599  0.28242400  -0.00000005  1
  Zn  Zn13  1  0.66418500  0.66418499  0.12096294  1
  Zn  Zn14  1  0.12096300  0.66418499  0.66418497  1
  Zn  Zn15  1  0.66418499  0.12096300  0.66418497  1
  Zn  Zn16  1  0.33581500  0.33581500  0.87903698  1
  Zn  Zn17  1  0.87903699  0.33581500  0.33581495  1
  Zn  Zn18  1  0.33581500  0.87903699  0.33581495  1
