# generated using pymatgen
data_Rb2HfMn3F12
_symmetry_space_group_name_H-M   'P 1'
_cell_length_a   7.30136824
_cell_length_b   7.49328852
_cell_length_c   7.45381021
_cell_angle_alpha   119.82587433
_cell_angle_beta   90.00000000
_cell_angle_gamma   119.15630341
_symmetry_Int_Tables_number   1
_chemical_formula_structural   Rb2HfMn3F12
_chemical_formula_sum   'Rb2 Hf1 Mn3 F12'
_cell_volume   292.73338334
_cell_formula_units_Z   1
loop_
 _symmetry_equiv_pos_site_id
 _symmetry_equiv_pos_as_xyz
  1  'x, y, z'
loop_
 _atom_site_type_symbol
 _atom_site_label
 _atom_site_symmetry_multiplicity
 _atom_site_fract_x
 _atom_site_fract_y
 _atom_site_fract_z
 _atom_site_occupancy
  Rb  Rb0  1  0.62379397  0.24758800  0.37379400  1
  Rb  Rb1  1  0.37620595  0.75241201  0.62620602  1
  Hf  Hf2  1  -0.00000002  0.50000001  1.00000000  1
  Mn  Mn3  1  0.49999996  0.50000001  0.00000003  1
  Mn  Mn4  1  0.00000000  0.00000000  0.00000000  1
  Mn  Mn5  1  0.00000000  0.00000000  0.49999999  1
  F  F6  1  0.71021296  0.42042601  0.96021299  1
  F  F7  1  0.28978696  0.57957401  0.03978703  1
  F  F8  1  0.33408298  0.25049700  0.06324301  1
  F  F9  1  0.92921593  0.85843201  0.67921603  1
  F  F10  1  0.91641396  0.25049700  0.06324301  1
  F  F11  1  0.33408298  0.25049700  0.68725399  1
  F  F12  1  0.08358596  0.74950301  0.31274603  1
  F  F13  1  0.91641396  0.25049700  0.68725399  1
  F  F14  1  0.66591694  0.74950301  0.31274603  1
  F  F15  1  0.08358596  0.74950301  0.93675701  1
  F  F16  1  0.07078399  0.14156800  0.32078400  1
  F  F17  1  0.66591694  0.74950301  0.93675701  1
