# generated using pymatgen
data_Ti4NO3
_symmetry_space_group_name_H-M   'P 1'
_cell_length_a   4.10984564
_cell_length_b   4.46821785
_cell_length_c   5.44988680
_cell_angle_alpha   89.99996185
_cell_angle_beta   91.54429626
_cell_angle_gamma   90.00008392
_symmetry_Int_Tables_number   1
_chemical_formula_structural   Ti4NO3
_chemical_formula_sum   'Ti4 N1 O3'
_cell_volume   100.04365773
_cell_formula_units_Z   1
loop_
 _symmetry_equiv_pos_site_id
 _symmetry_equiv_pos_as_xyz
  1  'x, y, z'
loop_
 _atom_site_type_symbol
 _atom_site_label
 _atom_site_symmetry_multiplicity
 _atom_site_fract_x
 _atom_site_fract_y
 _atom_site_fract_z
 _atom_site_occupancy
  Ti  Ti0  1  0.59996101  0.49997301  0.09994300  1
  Ti  Ti1  1  0.59995699  0.00002500  0.59994001  1
  Ti  Ti2  1  0.09995303  0.99997903  0.09994901  1
  Ti  Ti3  1  0.09995201  0.50002501  0.59994003  1
  N  N4  1  0.34999502  0.75727002  0.85005803  1
  O  O5  1  0.84999200  0.25726801  0.85005602  1
  O  O6  1  0.34999502  0.74272802  0.35005602  1
  O  O7  1  0.84999100  0.24273201  0.35005900  1
