# generated using pymatgen
data_Ti3(MoP2)2
_symmetry_space_group_name_H-M   'P 1'
_cell_length_a   3.75080609
_cell_length_b   6.24696398
_cell_length_c   6.24696350
_cell_angle_alpha   120.00000000
_cell_angle_beta   90.00000000
_cell_angle_gamma   90.00000000
_symmetry_Int_Tables_number   1
_chemical_formula_structural   Ti3(MoP2)2
_chemical_formula_sum   'Ti3 Mo2 P4'
_cell_volume   126.76320606
_cell_formula_units_Z   1
loop_
 _symmetry_equiv_pos_site_id
 _symmetry_equiv_pos_as_xyz
  1  'x, y, z'
loop_
 _atom_site_type_symbol
 _atom_site_label
 _atom_site_symmetry_multiplicity
 _atom_site_fract_x
 _atom_site_fract_y
 _atom_site_fract_z
 _atom_site_occupancy
  Ti  Ti0  1  -0.00000000  0.99999998  0.74545396  1
  Ti  Ti1  1  -0.00000000  0.74545398  -0.00000004  1
  Ti  Ti2  1  -0.00000000  0.25454599  0.25454599  1
  P  P3  1  -0.00000000  0.66666665  0.33333330  1
  P  P4  1  -0.00000000  0.33333333  0.66666666  1
  Mo  Mo5  1  0.49999999  0.00000000  -0.00000000  1
  P  P6  1  0.49999999  0.00000000  0.40465100  1
  P  P7  1  0.49999999  0.40465099  -0.00000002  1
  Mo  Mo8  1  0.49999999  0.59534899  0.59534898  1
