# generated using pymatgen
data_NbFe
_symmetry_space_group_name_H-M   'P 1'
_cell_length_a   3.49338102
_cell_length_b   6.43418312
_cell_length_c   8.62226105
_cell_angle_alpha   90.00000000
_cell_angle_beta   90.00000000
_cell_angle_gamma   90.00000000
_symmetry_Int_Tables_number   1
_chemical_formula_structural   NbFe
_chemical_formula_sum   'Nb6 Fe6'
_cell_volume   193.80302040
_cell_formula_units_Z   6
loop_
 _symmetry_equiv_pos_site_id
 _symmetry_equiv_pos_as_xyz
  1  'x, y, z'
loop_
 _atom_site_type_symbol
 _atom_site_label
 _atom_site_symmetry_multiplicity
 _atom_site_fract_x
 _atom_site_fract_y
 _atom_site_fract_z
 _atom_site_occupancy
  Nb  Nb0  1  0.25000000  0.86556498  0.95953699  1
  Nb  Nb1  1  0.25000000  0.36556499  0.54046300  1
  Nb  Nb2  1  0.74999999  0.13443500  0.04046300  1
  Nb  Nb3  1  0.74999999  0.63443499  0.45953700  1
  Nb  Nb4  1  0.25000000  0.93773498  0.36800400  1
  Fe  Fe5  1  0.25000000  0.43773499  0.13199600  1
  Nb  Nb6  1  0.74999999  0.06226500  0.63199600  1
  Fe  Fe7  1  0.74999999  0.56226499  0.86800400  1
  Fe  Fe8  1  0.25000000  0.25064100  0.82886400  1
  Fe  Fe9  1  0.25000000  0.75064099  0.67113600  1
  Fe  Fe10  1  0.74999999  0.74935899  0.17113600  1
  Fe  Fe11  1  0.74999999  0.24935900  0.32886400  1
