# generated using pymatgen
data_Na2IrO3
_symmetry_space_group_name_H-M   'P 1'
_cell_length_a   5.49165201
_cell_length_b   5.49185038
_cell_length_c   5.66968346
_cell_angle_alpha   80.59112549
_cell_angle_beta   70.91507721
_cell_angle_gamma   60.00119400
_symmetry_Int_Tables_number   1
_chemical_formula_structural   Na2IrO3
_chemical_formula_sum   'Na4 Ir2 O6'
_cell_volume   139.94721559
_cell_formula_units_Z   2
loop_
 _symmetry_equiv_pos_site_id
 _symmetry_equiv_pos_as_xyz
  1  'x, y, z'
loop_
 _atom_site_type_symbol
 _atom_site_label
 _atom_site_symmetry_multiplicity
 _atom_site_fract_x
 _atom_site_fract_y
 _atom_site_fract_z
 _atom_site_occupancy
  Na  Na0  1  0.66036901  0.67926198  0.49999995  1
  Na  Na1  1  0.33963101  0.32073799  0.49999997  1
  Na  Na2  1  0.00000000  0.00000000  0.49999998  1
  Na  Na3  1  0.50000000  0.00000000  0.00000001  1
  Ir  Ir4  1  0.16683101  0.66633798  0.99999993  1
  Ir  Ir5  1  0.83316900  0.33366199  -0.00000001  1
  O  O6  1  0.93848801  0.63045498  0.79638594  1
  O  O7  1  0.56894301  0.36954499  0.79638595  1
  O  O8  1  0.20099600  0.00000000  0.79309397  1
  O  O9  1  0.06151201  0.36954499  0.20361397  1
  O  O10  1  0.79900400  0.00000000  0.20690600  1
  O  O11  1  0.43105701  0.63045498  0.20361396  1
