# generated using pymatgen
data_Li3Mn(OF4)2
_symmetry_space_group_name_H-M   'P 1'
_cell_length_a   5.48502159
_cell_length_b   5.48502159
_cell_length_c   7.02771235
_cell_angle_alpha   104.88676453
_cell_angle_beta   104.88676453
_cell_angle_gamma   101.95458221
_symmetry_Int_Tables_number   1
_chemical_formula_structural   Li3Mn(OF4)2
_chemical_formula_sum   'Li3 Mn1 O2 F8'
_cell_volume   188.84396721
_cell_formula_units_Z   1
loop_
 _symmetry_equiv_pos_site_id
 _symmetry_equiv_pos_as_xyz
  1  'x, y, z'
loop_
 _atom_site_type_symbol
 _atom_site_label
 _atom_site_symmetry_multiplicity
 _atom_site_fract_x
 _atom_site_fract_y
 _atom_site_fract_z
 _atom_site_occupancy
  Li  Li0  1  -0.00000001  0.50000000  0.50000003  1
  Li  Li1  1  -0.00000001  0.50000000  0.00000002  1
  Li  Li2  1  0.67131899  0.82868100  0.75000008  1
  Mn  Mn3  1  0.32868100  0.17131900  0.25000003  1
  O  O4  1  0.68223100  0.62400000  0.89146507  1
  O  O5  1  0.87599999  0.81776900  0.60853508  1
  F  F6  1  0.31776900  0.37600000  0.10853503  1
  F  F7  1  0.12400000  0.18223100  0.39146502  1
  F  F8  1  0.36622699  0.75807900  0.58189406  1
  F  F9  1  0.74192101  0.13377300  0.91810605  1
  F  F10  1  0.63377300  0.24192100  0.41810605  1
  F  F11  1  0.25807899  0.86622700  0.08189405  1
  F  F12  1  0.06617099  0.43382900  0.75000003  1
  F  F13  1  0.93382900  0.56617100  0.25000007  1
