# generated using pymatgen
data_Rb5NaTe2NO
_symmetry_space_group_name_H-M   'P 1'
_cell_length_a   7.42975044
_cell_length_b   7.42975044
_cell_length_c   7.42975044
_cell_angle_alpha   60.00000000
_cell_angle_beta   60.00000000
_cell_angle_gamma   60.00000000
_symmetry_Int_Tables_number   1
_chemical_formula_structural   Rb5NaTe2NO
_chemical_formula_sum   'Rb5 Na1 Te2 N1 O1'
_cell_volume   290.00646643
_cell_formula_units_Z   1
loop_
 _symmetry_equiv_pos_site_id
 _symmetry_equiv_pos_as_xyz
  1  'x, y, z'
loop_
 _atom_site_type_symbol
 _atom_site_label
 _atom_site_symmetry_multiplicity
 _atom_site_fract_x
 _atom_site_fract_y
 _atom_site_fract_z
 _atom_site_occupancy
  Rb  Rb0  1  0.75846201  0.24153800  0.75846201  1
  Rb  Rb1  1  0.24153800  0.75846201  0.75846201  1
  Rb  Rb2  1  0.75846201  0.24153800  0.24153800  1
  Rb  Rb3  1  0.75846201  0.75846201  0.24153800  1
  Rb  Rb4  1  0.24153800  0.24153800  0.75846201  1
  Na  Na5  1  0.24153800  0.75846201  0.24153800  1
  Te  Te6  1  0.75000001  0.75000001  0.75000001  1
  Te  Te7  1  0.25000000  0.25000000  0.25000000  1
  N  N8  1  0.00000000  0.00000000  0.00000000  1
  O  O9  1  0.50000001  0.50000001  0.50000001  1
