# generated using pymatgen
data_YPd
_symmetry_space_group_name_H-M   'P 1'
_cell_length_a   4.28034306
_cell_length_b   5.70344210
_cell_length_c   14.11868477
_cell_angle_alpha   90.00000000
_cell_angle_beta   90.00000000
_cell_angle_gamma   90.00000000
_symmetry_Int_Tables_number   1
_chemical_formula_structural   YPd
_chemical_formula_sum   'Y8 Pd8'
_cell_volume   344.67505713
_cell_formula_units_Z   8
loop_
 _symmetry_equiv_pos_site_id
 _symmetry_equiv_pos_as_xyz
  1  'x, y, z'
loop_
 _atom_site_type_symbol
 _atom_site_label
 _atom_site_symmetry_multiplicity
 _atom_site_fract_x
 _atom_site_fract_y
 _atom_site_fract_z
 _atom_site_occupancy
  Y  Y0  1  0.25000000  0.53674199  0.28472200  1
  Y  Y1  1  0.74999999  0.46325799  0.71527801  1
  Y  Y2  1  0.25000000  0.96325798  0.78472201  1
  Y  Y3  1  0.25000000  0.75214999  0.53456101  1
  Y  Y4  1  0.25000000  0.74784999  0.03456100  1
  Y  Y5  1  0.74999999  0.25215000  0.96543902  1
  Y  Y6  1  0.74999999  0.03674200  0.21527800  1
  Y  Y7  1  0.74999999  0.24785000  0.46543901  1
  Pd  Pd8  1  0.25000000  0.03105200  0.35442801  1
  Pd  Pd9  1  0.74999999  0.53105199  0.14557200  1
  Pd  Pd10  1  0.74999999  0.75607099  0.39509001  1
  Pd  Pd11  1  0.25000000  0.46894799  0.85442801  1
  Pd  Pd12  1  0.74999999  0.96894798  0.64557201  1
  Pd  Pd13  1  0.74999999  0.74392899  0.89509001  1
  Pd  Pd14  1  0.25000000  0.25607100  0.10491000  1
  Pd  Pd15  1  0.25000000  0.24392900  0.60491001  1
