# generated using pymatgen
data_Mn3Co13
_symmetry_space_group_name_H-M   'P 1'
_cell_length_a   5.69150114
_cell_length_b   5.69150114
_cell_length_c   5.69150114
_cell_angle_alpha   90.00000000
_cell_angle_beta   90.00000000
_cell_angle_gamma   90.00000000
_symmetry_Int_Tables_number   1
_chemical_formula_structural   Mn3Co13
_chemical_formula_sum   'Mn3 Co13'
_cell_volume   184.36585070
_cell_formula_units_Z   1
loop_
 _symmetry_equiv_pos_site_id
 _symmetry_equiv_pos_as_xyz
  1  'x, y, z'
loop_
 _atom_site_type_symbol
 _atom_site_label
 _atom_site_symmetry_multiplicity
 _atom_site_fract_x
 _atom_site_fract_y
 _atom_site_fract_z
 _atom_site_occupancy
  Mn  Mn0  1  0.49999999  0.49999999  0.49999999  1
  Mn  Mn1  1  0.49999999  0.00000000  0.49999999  1
  Mn  Mn2  1  0.49999999  0.49999999  0.00000000  1
  Co  Co3  1  0.00000000  0.49999999  0.49999999  1
  Co  Co4  1  0.49999999  0.00000000  0.00000000  1
  Co  Co5  1  0.00000000  0.00000000  0.49999999  1
  Co  Co6  1  0.00000000  0.49999999  0.00000000  1
  Co  Co7  1  0.24947699  0.24947699  0.24947699  1
  Co  Co8  1  0.24947699  0.75052298  0.24947699  1
  Co  Co9  1  0.24947699  0.24947699  0.75052298  1
  Co  Co10  1  0.75052298  0.24947699  0.24947699  1
  Co  Co11  1  0.75052298  0.75052298  0.24947699  1
  Co  Co12  1  0.24947699  0.75052298  0.75052298  1
  Co  Co13  1  0.75052298  0.24947699  0.75052298  1
  Co  Co14  1  0.75052298  0.75052298  0.75052298  1
  Co  Co15  1  0.00000000  0.00000000  0.00000000  1
