# generated using pymatgen
data_SrTaNO2
_symmetry_space_group_name_H-M   'P 1'
_cell_length_a   5.80719280
_cell_length_b   7.05208349
_cell_length_c   7.05208349
_cell_angle_alpha   70.06317139
_cell_angle_beta   89.96231079
_cell_angle_gamma   89.96231079
_symmetry_Int_Tables_number   1
_chemical_formula_structural   SrTaNO2
_chemical_formula_sum   'Sr4 Ta4 N4 O8'
_cell_volume   271.49434848
_cell_formula_units_Z   4
loop_
 _symmetry_equiv_pos_site_id
 _symmetry_equiv_pos_as_xyz
  1  'x, y, z'
loop_
 _atom_site_type_symbol
 _atom_site_label
 _atom_site_symmetry_multiplicity
 _atom_site_fract_x
 _atom_site_fract_y
 _atom_site_fract_z
 _atom_site_occupancy
  Sr  Sr0  1  -0.00000001  0.74743702  0.25256300  1
  Sr  Sr1  1  1.00000001  0.25256301  0.74743700  1
  Sr  Sr2  1  0.50000000  0.50000001  -0.00000001  1
  Sr  Sr3  1  0.50000001  0.00000000  0.50000000  1
  Ta  Ta4  1  0.97315001  0.24842901  0.24842899  1
  Ta  Ta5  1  0.02684999  0.75157102  0.75157101  1
  Ta  Ta6  1  0.50000001  0.00000000  -0.00000001  1
  Ta  Ta7  1  0.50000000  0.50000001  0.50000000  1
  N  N8  1  0.73454300  0.36726101  0.36726099  1
  N  N9  1  0.77319801  0.11290700  0.11290699  1
  N  N10  1  0.22680199  0.88709303  0.88709301  1
  N  N11  1  0.26545699  0.63273902  0.63273900  1
  O  O12  1  0.71906000  0.86318003  0.86318000  1
  O  O13  1  0.76184500  0.61568002  0.61568000  1
  O  O14  1  0.00000000  0.00000000  0.50000001  1
  O  O15  1  1.00000000  0.50000001  -0.00000002  1
  O  O16  1  0.23815500  0.38432001  0.38432000  1
  O  O17  1  0.28094000  0.13682000  0.13682000  1
  O  O18  1  0.50000000  0.24983801  0.75016201  1
  O  O19  1  0.49999999  0.75016202  0.24983799  1
