# generated using pymatgen
data_Ac3In
_symmetry_space_group_name_H-M   'P 1'
_cell_length_a   6.02527094
_cell_length_b   7.36582184
_cell_length_c   7.36582184
_cell_angle_alpha   60.00000000
_cell_angle_beta   90.00000000
_cell_angle_gamma   90.00000000
_symmetry_Int_Tables_number   1
_chemical_formula_structural   Ac3In
_chemical_formula_sum   'Ac6 In2'
_cell_volume   283.10636431
_cell_formula_units_Z   2
loop_
 _symmetry_equiv_pos_site_id
 _symmetry_equiv_pos_as_xyz
  1  'x, y, z'
loop_
 _atom_site_type_symbol
 _atom_site_label
 _atom_site_symmetry_multiplicity
 _atom_site_fract_x
 _atom_site_fract_y
 _atom_site_fract_z
 _atom_site_occupancy
  Ac  Ac0  1  0.75000001  0.66389601  0.16805200  1
  Ac  Ac1  1  0.75000001  0.16805200  0.16805200  1
  Ac  Ac2  1  0.75000001  0.16805200  0.66389602  1
  Ac  Ac3  1  0.25000000  0.33610401  0.83194802  1
  Ac  Ac4  1  0.25000000  0.83194802  0.83194802  1
  Ac  Ac5  1  0.25000000  0.83194802  0.33610401  1
  In  In6  1  0.25000000  0.33333334  0.33333334  1
  In  In7  1  0.75000001  0.66666668  0.66666668  1
