# generated using pymatgen
data_Ba2SrTl2O7
_symmetry_space_group_name_H-M   'P 1'
_cell_length_a   4.37189388
_cell_length_b   4.37189388
_cell_length_c   11.57884216
_cell_angle_alpha   100.88206482
_cell_angle_beta   100.88206482
_cell_angle_gamma   90.00000000
_symmetry_Int_Tables_number   1
_chemical_formula_structural   Ba2SrTl2O7
_chemical_formula_sum   'Ba2 Sr1 Tl2 O7'
_cell_volume   213.27812912
_cell_formula_units_Z   1
loop_
 _symmetry_equiv_pos_site_id
 _symmetry_equiv_pos_as_xyz
  1  'x, y, z'
loop_
 _atom_site_type_symbol
 _atom_site_label
 _atom_site_symmetry_multiplicity
 _atom_site_fract_x
 _atom_site_fract_y
 _atom_site_fract_z
 _atom_site_occupancy
  Ba  Ba0  1  0.68613902  0.68613902  0.37227801  1
  Ba  Ba1  1  0.50503102  0.50503101  0.01006200  1
  Sr  Sr2  1  0.31113901  0.31113901  0.62227801  1
  Tl  Tl3  1  0.90279403  0.90279403  0.80558801  1
  Tl  Tl4  1  0.10332900  0.10332900  0.20665800  1
  O  O5  1  0.80785203  0.80785202  0.61570401  1
  O  O6  1  0.19713101  0.19713101  0.39426200  1
  O  O7  1  0.90354903  0.40354901  0.80709801  1
  O  O8  1  0.40354901  0.90354903  0.80709801  1
  O  O9  1  0.08980300  0.58980302  0.17960600  1
  O  O10  1  0.58980302  0.08980300  0.17960600  1
  O  O11  1  0.99988103  0.99988103  0.99976201  1
