# generated using pymatgen
data_Tl2InAgSe4
_symmetry_space_group_name_H-M   'P 1'
_cell_length_a   4.19117785
_cell_length_b   4.19117832
_cell_length_c   11.16315079
_cell_angle_alpha   90.00000000
_cell_angle_beta   90.00000000
_cell_angle_gamma   120.00000000
_symmetry_Int_Tables_number   1
_chemical_formula_structural   Tl2InAgSe4
_chemical_formula_sum   'Tl2 In1 Ag1 Se4'
_cell_volume   169.82031871
_cell_formula_units_Z   1
loop_
 _symmetry_equiv_pos_site_id
 _symmetry_equiv_pos_as_xyz
  1  'x, y, z'
loop_
 _atom_site_type_symbol
 _atom_site_label
 _atom_site_symmetry_multiplicity
 _atom_site_fract_x
 _atom_site_fract_y
 _atom_site_fract_z
 _atom_site_occupancy
  Tl  Tl0  1  0.00000000  0.00000000  0.81871502  1
  Tl  Tl1  1  0.00000000  0.00000000  0.18128500  1
  In  In2  1  0.33333338  0.66666669  0.58509701  1
  Ag  Ag3  1  0.66666671  0.33333334  0.41490301  1
  Se  Se4  1  0.33333338  0.66666669  0.35542101  1
  Se  Se5  1  0.66666671  0.33333334  0.00563300  1
  Se  Se6  1  0.33333338  0.66666669  0.99436702  1
  Se  Se7  1  0.66666671  0.33333334  0.64457901  1
