# generated using pymatgen
data_YInPd
_symmetry_space_group_name_H-M   'P 1'
_cell_length_a   3.98219705
_cell_length_b   7.48901796
_cell_length_c   7.48901749
_cell_angle_alpha   120.00000000
_cell_angle_beta   90.00000000
_cell_angle_gamma   90.00000000
_symmetry_Int_Tables_number   1
_chemical_formula_structural   YInPd
_chemical_formula_sum   'Y3 In3 Pd3'
_cell_volume   193.42076407
_cell_formula_units_Z   3
loop_
 _symmetry_equiv_pos_site_id
 _symmetry_equiv_pos_as_xyz
  1  'x, y, z'
loop_
 _atom_site_type_symbol
 _atom_site_label
 _atom_site_symmetry_multiplicity
 _atom_site_fract_x
 _atom_site_fract_y
 _atom_site_fract_z
 _atom_site_occupancy
  Y  Y0  1  0.99999999  0.40742199  0.40742196  1
  Y  Y1  1  -0.00000000  0.99999997  0.59257792  1
  Y  Y2  1  0.99999999  0.59257798  -0.00000004  1
  In  In3  1  0.49999999  0.74275298  0.74275293  1
  In  In4  1  0.49999999  0.00000000  0.25724699  1
  In  In5  1  0.49999999  0.25724699  0.99999995  1
  Pd  Pd6  1  0.49999999  0.66666665  0.33333328  1
  Pd  Pd7  1  0.49999999  0.33333332  0.66666663  1
  Pd  Pd8  1  0.00000000  0.00000000  0.00000000  1
