# generated using pymatgen
data_TiBiF6
_symmetry_space_group_name_H-M   'P 1'
_cell_length_a   5.12161016
_cell_length_b   5.12161016
_cell_length_c   9.62907982
_cell_angle_alpha   90.00000000
_cell_angle_beta   90.00000000
_cell_angle_gamma   90.00000000
_symmetry_Int_Tables_number   1
_chemical_formula_structural   TiBiF6
_chemical_formula_sum   'Ti2 Bi2 F12'
_cell_volume   252.57934006
_cell_formula_units_Z   2
loop_
 _symmetry_equiv_pos_site_id
 _symmetry_equiv_pos_as_xyz
  1  'x, y, z'
loop_
 _atom_site_type_symbol
 _atom_site_label
 _atom_site_symmetry_multiplicity
 _atom_site_fract_x
 _atom_site_fract_y
 _atom_site_fract_z
 _atom_site_occupancy
  Ti  Ti0  1  0.00000000  0.00000000  0.50000001  1
  Ti  Ti1  1  0.00000000  0.00000000  0.00000000  1
  Bi  Bi2  1  0.49999998  0.49999998  0.25000000  1
  Bi  Bi3  1  0.49999998  0.49999998  0.75000001  1
  F  F4  1  0.19264299  0.80735697  0.35916001  1
  F  F5  1  0.80735697  0.19264299  0.35916001  1
  F  F6  1  0.80735697  0.80735697  0.14084000  1
  F  F7  1  0.19264299  0.19264299  0.14084000  1
  F  F8  1  0.26809099  0.73190898  0.00000000  1
  F  F9  1  0.73190898  0.73190898  0.50000001  1
  F  F10  1  0.26809099  0.26809099  0.50000001  1
  F  F11  1  0.73190898  0.26809099  0.00000000  1
  F  F12  1  0.19264299  0.19264299  0.85916002  1
  F  F13  1  0.19264299  0.80735697  0.64084001  1
  F  F14  1  0.80735697  0.19264299  0.64084001  1
  F  F15  1  0.80735697  0.80735697  0.85916002  1
