# generated using pymatgen
data_YSn3
_symmetry_space_group_name_H-M   'P 1'
_cell_length_a   4.85820818
_cell_length_b   6.47373819
_cell_length_c   6.47373819
_cell_angle_alpha   112.42633057
_cell_angle_beta   90.00000000
_cell_angle_gamma   90.00000000
_symmetry_Int_Tables_number   1
_chemical_formula_structural   YSn3
_chemical_formula_sum   'Y2 Sn6'
_cell_volume   188.20562925
_cell_formula_units_Z   2
loop_
 _symmetry_equiv_pos_site_id
 _symmetry_equiv_pos_as_xyz
  1  'x, y, z'
loop_
 _atom_site_type_symbol
 _atom_site_label
 _atom_site_symmetry_multiplicity
 _atom_site_fract_x
 _atom_site_fract_y
 _atom_site_fract_z
 _atom_site_occupancy
  Y  Y0  1  0.74999997  0.36858700  0.63141300  1
  Y  Y1  1  0.24999999  0.63141299  0.36858702  1
  Sn  Sn2  1  0.74999997  0.82249599  0.17750404  1
  Sn  Sn3  1  0.24999999  0.17750400  0.82249599  1
  Sn  Sn4  1  0.74999997  0.31178500  0.11923601  1
  Sn  Sn5  1  0.24999999  0.68821499  0.88076401  1
  Sn  Sn6  1  0.24999999  0.11923600  0.31178500  1
  Sn  Sn7  1  0.74999997  0.88076399  0.68821503  1
