# generated using pymatgen
data_Sm2Al4Fe13
_symmetry_space_group_name_H-M   'P 1'
_cell_length_a   6.49796820
_cell_length_b   6.49796820
_cell_length_c   6.49796867
_cell_angle_alpha   82.27957916
_cell_angle_beta   82.27957916
_cell_angle_gamma   82.27958679
_symmetry_Int_Tables_number   1
_chemical_formula_structural   Sm2Al4Fe13
_chemical_formula_sum   'Sm2 Al4 Fe13'
_cell_volume   267.52001495
_cell_formula_units_Z   1
loop_
 _symmetry_equiv_pos_site_id
 _symmetry_equiv_pos_as_xyz
  1  'x, y, z'
loop_
 _atom_site_type_symbol
 _atom_site_label
 _atom_site_symmetry_multiplicity
 _atom_site_fract_x
 _atom_site_fract_y
 _atom_site_fract_z
 _atom_site_occupancy
  Sm  Sm0  1  0.34616301  0.34616299  0.34616297  1
  Sm  Sm1  1  0.65537503  0.65537498  0.65537493  1
  Al  Al2  1  0.90943204  0.90943197  0.90943191  1
  Al  Al3  1  0.00417400  0.00417400  0.48829901  1
  Al  Al4  1  0.00417403  0.48829899  0.00417397  1
  Al  Al5  1  0.48829899  0.00417400  0.00417397  1
  Fe  Fe6  1  0.70814400  0.28852599  0.99809396  1
  Fe  Fe7  1  0.28852606  0.99809397  0.70814393  1
  Fe  Fe8  1  0.99809402  0.70814398  0.28852591  1
  Fe  Fe9  1  0.70814405  0.99809397  0.28852590  1
  Fe  Fe10  1  0.99809400  0.28852599  0.70814394  1
  Fe  Fe11  1  0.28852604  0.70814398  0.99809396  1
  Fe  Fe12  1  0.66208503  0.66208498  0.15978693  1
  Fe  Fe13  1  0.66208500  0.15978700  0.66208496  1
  Fe  Fe14  1  0.15978704  0.66208498  0.66208496  1
  Fe  Fe15  1  0.34288301  0.34288299  0.83437197  1
  Fe  Fe16  1  0.34288305  0.83437198  0.34288294  1
  Fe  Fe17  1  0.83437200  0.34288299  0.34288294  1
  Fe  Fe18  1  0.09875900  0.09875900  0.09875899  1
