# generated using pymatgen
data_Hf5ZrNiSb2
_symmetry_space_group_name_H-M   'P 1'
_cell_length_a   3.35812092
_cell_length_b   7.88573599
_cell_length_c   7.88573694
_cell_angle_alpha   119.99999237
_cell_angle_beta   90.00000000
_cell_angle_gamma   90.00000000
_symmetry_Int_Tables_number   1
_chemical_formula_structural   Hf5ZrNiSb2
_chemical_formula_sum   'Hf5 Zr1 Ni1 Sb2'
_cell_volume   180.84708527
_cell_formula_units_Z   1
loop_
 _symmetry_equiv_pos_site_id
 _symmetry_equiv_pos_as_xyz
  1  'x, y, z'
loop_
 _atom_site_type_symbol
 _atom_site_label
 _atom_site_symmetry_multiplicity
 _atom_site_fract_x
 _atom_site_fract_y
 _atom_site_fract_z
 _atom_site_occupancy
  Zr  Zr0  1  0.50000001  0.75140198  0.75140197  1
  Hf  Hf1  1  0.50000001  0.99999997  0.24859795  1
  Hf  Hf2  1  0.50000001  0.24859799  -0.00000001  1
  Hf  Hf3  1  1.00000002  0.40335799  0.40335799  1
  Hf  Hf4  1  -0.00000000  0.99999997  0.59664195  1
  Hf  Hf5  1  1.00000002  0.59664198  -0.00000004  1
  Sb  Sb6  1  0.50000001  0.66666665  0.33333330  1
  Sb  Sb7  1  0.50000001  0.33333332  0.66666666  1
  Ni  Ni8  1  0.00000000  0.00000000  0.00000000  1
