# generated using pymatgen
data_Lu4ScFeS8
_symmetry_space_group_name_H-M   'P 1'
_cell_length_a   7.13692856
_cell_length_b   7.13692856
_cell_length_c   7.69386768
_cell_angle_alpha   62.36699295
_cell_angle_beta   62.36699295
_cell_angle_gamma   59.99999237
_symmetry_Int_Tables_number   1
_chemical_formula_structural   Lu4ScFeS8
_chemical_formula_sum   'Lu4 Sc1 Fe1 S8'
_cell_volume   286.61373877
_cell_formula_units_Z   1
loop_
 _symmetry_equiv_pos_site_id
 _symmetry_equiv_pos_as_xyz
  1  'x, y, z'
loop_
 _atom_site_type_symbol
 _atom_site_label
 _atom_site_symmetry_multiplicity
 _atom_site_fract_x
 _atom_site_fract_y
 _atom_site_fract_z
 _atom_site_occupancy
  Lu  Lu0  1  0.09196700  0.36615101  0.85496898  1
  Lu  Lu1  1  0.31308700  0.90803303  0.14503097  1
  Lu  Lu2  1  0.36615100  0.68691302  0.85496896  1
  Sc  Sc3  1  0.63384902  0.31308701  0.14503098  1
  Lu  Lu4  1  0.68691302  0.09196700  0.85496897  1
  Fe  Fe5  1  0.90803302  0.63384902  0.14503097  1
  S  S6  1  0.18154000  0.18154001  0.45537998  1
  S  S7  1  0.81846002  0.81846003  0.54461996  1
  S  S8  1  0.03594699  0.76899303  0.76155497  1
  S  S9  1  0.23100700  0.56649502  0.23844498  1
  S  S10  1  0.43350501  0.03594700  0.76155498  1
  S  S11  1  0.56649501  0.96405303  0.23844497  1
  S  S12  1  0.76899302  0.43350501  0.76155496  1
  S  S13  1  0.96405303  0.23100701  0.23844497  1
