# generated using pymatgen
data_MgCrCoS4
_symmetry_space_group_name_H-M   'P 1'
_cell_length_a   6.99222231
_cell_length_b   6.99222231
_cell_length_c   7.10662985
_cell_angle_alpha   60.53112411
_cell_angle_beta   60.53112411
_cell_angle_gamma   59.99999619
_symmetry_Int_Tables_number   1
_chemical_formula_structural   MgCrCoS4
_chemical_formula_sum   'Mg2 Cr2 Co2 S8'
_cell_volume   247.63919007
_cell_formula_units_Z   2
loop_
 _symmetry_equiv_pos_site_id
 _symmetry_equiv_pos_as_xyz
  1  'x, y, z'
loop_
 _atom_site_type_symbol
 _atom_site_label
 _atom_site_symmetry_multiplicity
 _atom_site_fract_x
 _atom_site_fract_y
 _atom_site_fract_z
 _atom_site_occupancy
  Mg  Mg0  1  0.50000001  0.00000000  -0.00000001  1
  Mg  Mg1  1  0.50000002  0.50000001  -0.00000002  1
  Cr  Cr2  1  0.00000001  0.50000001  -0.00000001  1
  Cr  Cr3  1  0.12426401  0.12426400  0.62720801  1
  Co  Co4  1  0.87573604  0.87573602  0.37279198  1
  Co  Co5  1  0.50000002  0.50000001  0.49999999  1
  S  S6  1  0.74622403  0.74622401  0.76132799  1
  S  S7  1  0.74001802  0.27129001  0.24867399  1
  S  S8  1  0.74001803  0.74001801  0.24867398  1
  S  S9  1  0.27129002  0.74001801  0.24867399  1
  S  S10  1  0.25377601  0.25377600  0.23867200  1
  S  S11  1  0.25998202  0.72871001  0.75132600  1
  S  S12  1  0.25998201  0.25998200  0.75132601  1
  S  S13  1  0.72871002  0.25998200  0.75132600  1
