# generated using pymatgen
data_Pr3Sn5
_symmetry_space_group_name_H-M   'P 1'
_cell_length_a   6.72850895
_cell_length_b   6.72850895
_cell_length_c   10.61972809
_cell_angle_alpha   90.00000000
_cell_angle_beta   90.00000000
_cell_angle_gamma   102.81595612
_symmetry_Int_Tables_number   1
_chemical_formula_structural   Pr3Sn5
_chemical_formula_sum   'Pr6 Sn10'
_cell_volume   468.80766905
_cell_formula_units_Z   2
loop_
 _symmetry_equiv_pos_site_id
 _symmetry_equiv_pos_as_xyz
  1  'x, y, z'
loop_
 _atom_site_type_symbol
 _atom_site_label
 _atom_site_symmetry_multiplicity
 _atom_site_fract_x
 _atom_site_fract_y
 _atom_site_fract_z
 _atom_site_occupancy
  Pr  Pr0  1  0.62858196  0.62858198  0.74999999  1
  Pr  Pr1  1  0.37141797  0.37141799  0.25000000  1
  Pr  Pr2  1  0.20136295  0.79863698  0.50000000  1
  Pr  Pr3  1  0.20136295  0.79863698  -0.00000000  1
  Pr  Pr4  1  0.79863698  0.20136299  0.50000000  1
  Pr  Pr5  1  0.79863698  0.20136299  -0.00000000  1
  Sn  Sn6  1  0.00370500  0.00370500  0.74999999  1
  Sn  Sn7  1  0.99629493  0.99629497  0.25000000  1
  Sn  Sn8  1  0.30674198  0.30674199  0.94868799  1
  Sn  Sn9  1  0.69325795  0.69325798  0.05131200  1
  Sn  Sn10  1  0.30674198  0.30674199  0.55131200  1
  Sn  Sn11  1  0.69325795  0.69325798  0.44868800  1
  Sn  Sn12  1  0.51001199  0.06017700  0.74999999  1
  Sn  Sn13  1  0.93982296  0.48998799  0.25000000  1
  Sn  Sn14  1  0.48998794  0.93982298  0.25000000  1
  Sn  Sn15  1  0.06017697  0.51001199  0.74999999  1
