# generated using pymatgen
data_Li2Ce2Ge3
_symmetry_space_group_name_H-M   'P 1'
_cell_length_a   4.43648386
_cell_length_b   6.94750690
_cell_length_c   9.62797260
_cell_angle_alpha   90.00000000
_cell_angle_beta   103.32035828
_cell_angle_gamma   90.00000000
_symmetry_Int_Tables_number   1
_chemical_formula_structural   Li2Ce2Ge3
_chemical_formula_sum   'Li4 Ce4 Ge6'
_cell_volume   288.77454203
_cell_formula_units_Z   2
loop_
 _symmetry_equiv_pos_site_id
 _symmetry_equiv_pos_as_xyz
  1  'x, y, z'
loop_
 _atom_site_type_symbol
 _atom_site_label
 _atom_site_symmetry_multiplicity
 _atom_site_fract_x
 _atom_site_fract_y
 _atom_site_fract_z
 _atom_site_occupancy
  Li  Li0  1  0.80935502  0.43887901  0.61871000  1
  Li  Li1  1  0.19064500  0.56112101  0.38129000  1
  Li  Li2  1  0.80935502  0.06112100  0.61871000  1
  Li  Li3  1  0.19064500  0.93887901  0.38129000  1
  Ce  Ce4  1  0.55217001  0.75000001  0.10433999  1
  Ce  Ce5  1  0.44783001  0.25000000  0.89566001  1
  Ce  Ce6  1  0.34233301  0.75000001  0.68466600  1
  Ce  Ce7  1  0.65766702  0.25000000  0.31533399  1
  Ge  Ge8  1  0.93792102  0.93250801  0.87584200  1
  Ge  Ge9  1  0.06207900  0.06749200  0.12415800  1
  Ge  Ge10  1  0.93792102  0.56749201  0.87584200  1
  Ge  Ge11  1  0.06207900  0.43250801  0.12415800  1
  Ge  Ge12  1  0.71988702  0.75000001  0.43977400  1
  Ge  Ge13  1  0.28011301  0.25000000  0.56022600  1
