# generated using pymatgen
data_Ce3Sn5
_symmetry_space_group_name_H-M   'P 1'
_cell_length_a   8.25080490
_cell_length_b   8.25080490
_cell_length_c   8.25080490
_cell_angle_alpha   91.12757874
_cell_angle_beta   119.35114288
_cell_angle_gamma   119.35114288
_symmetry_Int_Tables_number   1
_chemical_formula_structural   Ce3Sn5
_chemical_formula_sum   'Ce6 Sn10'
_cell_volume   400.97888384
_cell_formula_units_Z   2
loop_
 _symmetry_equiv_pos_site_id
 _symmetry_equiv_pos_as_xyz
  1  'x, y, z'
loop_
 _atom_site_type_symbol
 _atom_site_label
 _atom_site_symmetry_multiplicity
 _atom_site_fract_x
 _atom_site_fract_y
 _atom_site_fract_z
 _atom_site_occupancy
  Ce  Ce0  1  0.17352903  0.33676401  0.83676400  1
  Ce  Ce1  1  0.82647106  0.66323602  0.16323604  1
  Ce  Ce2  1  0.50000007  0.83676502  0.66323502  1
  Ce  Ce3  1  0.50000002  0.16323500  0.33676502  1
  Ce  Ce4  1  0.00000005  0.75000002  0.74999999  1
  Ce  Ce5  1  0.00000002  0.25000001  0.25000000  1
  Sn  Sn6  1  0.21142501  0.03743500  0.53743501  1
  Sn  Sn7  1  0.78857508  0.96256502  0.46256503  1
  Sn  Sn8  1  0.78857504  0.32601001  0.82601003  1
  Sn  Sn9  1  0.50000005  0.53743501  0.32601002  1
  Sn  Sn10  1  0.50000002  0.17399000  0.96256502  1
  Sn  Sn11  1  0.21142505  0.67399002  0.17399001  1
  Sn  Sn12  1  0.50000004  0.46256501  0.67399002  1
  Sn  Sn13  1  0.50000007  0.82601002  0.03743502  1
  Sn  Sn14  1  0.00000003  0.50000001  0.49999999  1
  Sn  Sn15  1  0.00000000  0.00000000  0.00000000  1
