# generated using pymatgen
data_Yb2(GaAu)3
_symmetry_space_group_name_H-M   'P 1'
_cell_length_a   4.53197479
_cell_length_b   6.71981907
_cell_length_c   10.34833717
_cell_angle_alpha   90.00000000
_cell_angle_beta   90.00000000
_cell_angle_gamma   90.00000000
_symmetry_Int_Tables_number   1
_chemical_formula_structural   Yb2(GaAu)3
_chemical_formula_sum   'Yb4 Ga6 Au6'
_cell_volume   315.14878422
_cell_formula_units_Z   2
loop_
 _symmetry_equiv_pos_site_id
 _symmetry_equiv_pos_as_xyz
  1  'x, y, z'
loop_
 _atom_site_type_symbol
 _atom_site_label
 _atom_site_symmetry_multiplicity
 _atom_site_fract_x
 _atom_site_fract_y
 _atom_site_fract_z
 _atom_site_occupancy
  Yb  Yb0  1  0.25000001  0.27840700  0.66047599  1
  Yb  Yb1  1  0.25000001  0.77840699  0.83952399  1
  Yb  Yb2  1  0.75000003  0.72159299  0.33952399  1
  Yb  Yb3  1  0.75000003  0.22159300  0.16047600  1
  Ga  Ga4  1  0.25000001  0.53571199  0.10426400  1
  Ga  Ga5  1  0.25000001  0.03571200  0.39573599  1
  Ga  Ga6  1  0.75000003  0.46428800  0.89573598  1
  Ga  Ga7  1  0.75000003  0.96428799  0.60426399  1
  Ga  Ga8  1  0.25000001  0.91590999  0.14744200  1
  Au  Au9  1  0.25000001  0.41591000  0.35255799  1
  Au  Au10  1  0.75000003  0.08409000  0.85255799  1
  Ga  Ga11  1  0.75000003  0.58408999  0.64744199  1
  Au  Au12  1  0.25000001  0.21642300  0.95703398  1
  Au  Au13  1  0.25000001  0.71642299  0.54296599  1
  Au  Au14  1  0.75000003  0.78357699  0.04296600  1
  Au  Au15  1  0.75000003  0.28357700  0.45703399  1
