# generated using pymatgen
data_MgFeF4
_symmetry_space_group_name_H-M   'P 1'
_cell_length_a   5.59403849
_cell_length_b   5.59400463
_cell_length_c   5.59468508
_cell_angle_alpha   118.67912292
_cell_angle_beta   103.60139465
_cell_angle_gamma   106.55116272
_symmetry_Int_Tables_number   1
_chemical_formula_structural   MgFeF4
_chemical_formula_sum   'Mg2 Fe2 F8'
_cell_volume   132.05548851
_cell_formula_units_Z   2
loop_
 _symmetry_equiv_pos_site_id
 _symmetry_equiv_pos_as_xyz
  1  'x, y, z'
loop_
 _atom_site_type_symbol
 _atom_site_label
 _atom_site_symmetry_multiplicity
 _atom_site_fract_x
 _atom_site_fract_y
 _atom_site_fract_z
 _atom_site_occupancy
  Mg  Mg0  1  0.49992406  0.75005004  0.24998201  1
  Mg  Mg1  1  0.49981902  0.25005501  0.74987199  1
  Fe  Fe2  1  0.00000107  0.97342406  0.97336797  1
  Fe  Fe3  1  0.99991505  0.52614003  0.52607201  1
  F  F4  1  0.81077103  0.24977901  0.06059102  1
  F  F5  1  0.77947706  0.75031104  0.52985001  1
  F  F6  1  0.18937502  0.24979901  0.43914399  1
  F  F7  1  0.22055905  0.75031904  0.97083298  1
  F  F8  1  0.28703202  0.28004602  0.99303097  1
  F  F9  1  0.28753506  0.79457605  0.50707399  1
  F  F10  1  0.71307206  0.70600204  0.99306399  1
  F  F11  1  0.71252003  0.21949901  0.50712000  1
