# generated using pymatgen
data_CeNi5
_symmetry_space_group_name_H-M   'P 1'
_cell_length_a   4.10260916
_cell_length_b   5.01496220
_cell_length_c   5.01496172
_cell_angle_alpha   120.00000000
_cell_angle_beta   90.00000000
_cell_angle_gamma   90.00000000
_symmetry_Int_Tables_number   1
_chemical_formula_structural   CeNi5
_chemical_formula_sum   'Ce1 Ni5'
_cell_volume   89.35648212
_cell_formula_units_Z   1
loop_
 _symmetry_equiv_pos_site_id
 _symmetry_equiv_pos_as_xyz
  1  'x, y, z'
loop_
 _atom_site_type_symbol
 _atom_site_label
 _atom_site_symmetry_multiplicity
 _atom_site_fract_x
 _atom_site_fract_y
 _atom_site_fract_z
 _atom_site_occupancy
  Ce  Ce0  1  0.00000000  0.00000000  0.00000000  1
  Ni  Ni1  1  0.49999998  0.49999997  -0.00000003  1
  Ni  Ni2  1  0.49999998  0.49999997  0.49999996  1
  Ni  Ni3  1  0.49999998  0.00000000  0.49999999  1
  Ni  Ni4  1  -0.00000000  0.33333331  0.66666663  1
  Ni  Ni5  1  -0.00000000  0.66666662  0.33333329  1
