# generated using pymatgen
data_Mn(CrS2)2
_symmetry_space_group_name_H-M   'P 1'
_cell_length_a   3.24475002
_cell_length_b   5.94336653
_cell_length_c   6.58242416
_cell_angle_alpha   114.20113373
_cell_angle_beta   104.26876831
_cell_angle_gamma   90.00000000
_symmetry_Int_Tables_number   1
_chemical_formula_structural   Mn(CrS2)2
_chemical_formula_sum   'Mn1 Cr2 S4'
_cell_volume   111.47648464
_cell_formula_units_Z   1
loop_
 _symmetry_equiv_pos_site_id
 _symmetry_equiv_pos_as_xyz
  1  'x, y, z'
loop_
 _atom_site_type_symbol
 _atom_site_label
 _atom_site_symmetry_multiplicity
 _atom_site_fract_x
 _atom_site_fract_y
 _atom_site_fract_z
 _atom_site_occupancy
  Mn  Mn0  1  0.99917202  0.99522402  0.99834404  1
  Cr  Cr1  1  0.25742001  0.31974501  0.51484001  1
  Cr  Cr2  1  0.74193002  0.68683901  0.48386002  1
  S  S3  1  0.10627601  0.43905801  0.21255201  1
  S  S4  1  0.89178901  0.54773201  0.78357803  1
  S  S5  1  0.63975702  0.98216502  0.27951402  1
  S  S6  1  0.36365600  0.02923800  0.72731202  1
