# generated using pymatgen
data_Li2FeF6
_symmetry_space_group_name_H-M   'P 1'
_cell_length_a   2.98667002
_cell_length_b   6.31262875
_cell_length_c   10.40303707
_cell_angle_alpha   107.66100311
_cell_angle_beta   90.00000000
_cell_angle_gamma   90.00000000
_symmetry_Int_Tables_number   1
_chemical_formula_structural   Li2FeF6
_chemical_formula_sum   'Li4 Fe2 F12'
_cell_volume   186.89189480
_cell_formula_units_Z   2
loop_
 _symmetry_equiv_pos_site_id
 _symmetry_equiv_pos_as_xyz
  1  'x, y, z'
loop_
 _atom_site_type_symbol
 _atom_site_label
 _atom_site_symmetry_multiplicity
 _atom_site_fract_x
 _atom_site_fract_y
 _atom_site_fract_z
 _atom_site_occupancy
  Li  Li0  1  0.99999999  0.01145900  0.02290900  1
  Li  Li1  1  0.50000000  0.17104500  0.34199600  1
  Li  Li2  1  0.50000000  0.49569799  0.99139000  1
  Li  Li3  1  -0.00000000  0.33326166  0.66666667  1
  Fe  Fe4  1  0.99999999  0.65528198  0.31044800  1
  Fe  Fe5  1  0.50000000  0.83328965  0.66666666  1
  F  F6  1  0.50000000  0.07093500  0.14196000  1
  F  F7  1  -0.00000000  0.69536798  0.99692000  1
  F  F8  1  -0.00000000  0.97136098  0.33641700  1
  F  F9  1  -0.00000000  0.30159499  0.99696500  1
  F  F10  1  0.99999999  0.63779665  0.66666666  1
  F  F11  1  0.50000000  0.26982099  0.53952700  1
  F  F12  1  0.50000000  0.59573799  0.19139100  1
  F  F13  1  0.50000000  0.39688399  0.79387000  1
  F  F14  1  -0.00000000  0.02882567  0.66666667  1
  F  F15  1  0.99999999  0.36509399  0.33634200  1
  F  F16  1  0.50000000  0.72470698  0.44926900  1
  F  F17  1  0.50000000  0.94187798  0.88396700  1
