# generated using pymatgen
data_Li2FeO2
_symmetry_space_group_name_H-M   'P 1'
_cell_length_a   5.24590492
_cell_length_b   5.63174200
_cell_length_c   6.24931192
_cell_angle_alpha   90.07228088
_cell_angle_beta   90.05053711
_cell_angle_gamma   91.51216888
_symmetry_Int_Tables_number   1
_chemical_formula_structural   Li2FeO2
_chemical_formula_sum   'Li8 Fe4 O8'
_cell_volume   184.56254410
_cell_formula_units_Z   4
loop_
 _symmetry_equiv_pos_site_id
 _symmetry_equiv_pos_as_xyz
  1  'x, y, z'
loop_
 _atom_site_type_symbol
 _atom_site_label
 _atom_site_symmetry_multiplicity
 _atom_site_fract_x
 _atom_site_fract_y
 _atom_site_fract_z
 _atom_site_occupancy
  Li  Li0  1  0.63516902  0.16626900  0.26283499  1
  Li  Li1  1  0.63524103  0.66652798  0.48711497  1
  Li  Li2  1  0.63496502  0.16525000  0.76186099  1
  Li  Li3  1  0.63507103  0.66513898  0.98774397  1
  Li  Li4  1  0.36414902  0.33471499  0.51302899  1
  Li  Li5  1  0.36521102  0.83368798  0.73789097  1
  Li  Li6  1  0.36538402  0.33362799  0.01236499  1
  Li  Li7  1  0.36398202  0.83443998  0.23689797  1
  Fe  Fe8  1  0.00017900  0.00003000  0.49939400  1
  Fe  Fe9  1  0.00018101  0.49985699  0.25066398  1
  Fe  Fe10  1  0.99950404  0.50053699  0.75098898  1
  Fe  Fe11  1  0.99927103  0.00073100  0.99898800  1
  O  O12  1  0.24283801  0.15805000  0.26394299  1
  O  O13  1  0.24289402  0.65817098  0.48573697  1
  O  O14  1  0.24347201  0.15705700  0.76430699  1
  O  O15  1  0.24353402  0.65696998  0.98528198  1
  O  O16  1  0.75710303  0.34253999  0.51538299  1
  O  O17  1  0.75739704  0.84206098  0.73555297  1
  O  O18  1  0.75729203  0.34180599  0.01471999  1
  O  O19  1  0.75716404  0.84253298  0.23490097  1
