# generated using pymatgen
data_CsCuI2Cl
_symmetry_space_group_name_H-M   'P 1'
_cell_length_a   7.92849779
_cell_length_b   8.11362076
_cell_length_c   7.92849779
_cell_angle_alpha   119.24806976
_cell_angle_beta   90.00000000
_cell_angle_gamma   119.24806976
_symmetry_Int_Tables_number   1
_chemical_formula_structural   CsCuI2Cl
_chemical_formula_sum   'Cs2 Cu2 I4 Cl2'
_cell_volume   368.69134952
_cell_formula_units_Z   2
loop_
 _symmetry_equiv_pos_site_id
 _symmetry_equiv_pos_as_xyz
  1  'x, y, z'
loop_
 _atom_site_type_symbol
 _atom_site_label
 _atom_site_symmetry_multiplicity
 _atom_site_fract_x
 _atom_site_fract_y
 _atom_site_fract_z
 _atom_site_occupancy
  Cs  Cs0  1  0.75000001  0.49999999  0.25000000  1
  Cs  Cs1  1  0.25000000  0.49999999  0.75000001  1
  Cu  Cu2  1  0.00000000  0.00000000  0.00000000  1
  Cu  Cu3  1  0.50000001  0.00000000  0.50000001  1
  I  I4  1  0.71006401  0.42012799  0.71006401  1
  I  I5  1  0.77537902  0.00000000  0.77537902  1
  I  I6  1  0.28993600  0.57987199  0.28993600  1
  I  I7  1  0.77537902  0.00000100  0.22462201  1
  Cl  Cl8  1  0.22462101  0.00000000  0.22462101  1
  Cl  Cl9  1  0.22462099  0.99999899  0.77537801  1
