# generated using pymatgen
data_Mg2CrS4
_symmetry_space_group_name_H-M   'P 1'
_cell_length_a   7.35026264
_cell_length_b   7.44140148
_cell_length_c   7.44126463
_cell_angle_alpha   119.24105835
_cell_angle_beta   119.51733398
_cell_angle_gamma   60.48173141
_symmetry_Int_Tables_number   1
_chemical_formula_structural   Mg2CrS4
_chemical_formula_sum   'Mg4 Cr2 S8'
_cell_volume   291.52908656
_cell_formula_units_Z   2
loop_
 _symmetry_equiv_pos_site_id
 _symmetry_equiv_pos_as_xyz
  1  'x, y, z'
loop_
 _atom_site_type_symbol
 _atom_site_label
 _atom_site_symmetry_multiplicity
 _atom_site_fract_x
 _atom_site_fract_y
 _atom_site_fract_z
 _atom_site_occupancy
  Mg  Mg0  1  0.12598704  0.62375403  0.87622706  1
  Mg  Mg1  1  0.87400604  0.37625902  0.12377610  1
  Mg  Mg2  1  0.50004704  0.49994303  0.49998508  1
  Mg  Mg3  1  0.49995406  0.99996205  0.00000613  1
  Cr  Cr4  1  0.00000500  0.00001100  0.50000800  1
  Cr  Cr5  1  0.49997301  0.00002800  0.49999003  1
  S  S6  1  0.25409502  0.22400301  0.73192303  1
  S  S7  1  0.27606602  0.23607401  0.26398504  1
  S  S8  1  0.75196503  0.23622401  0.26376507  1
  S  S9  1  0.74589803  0.23195301  0.72401007  1
  S  S10  1  0.24803305  0.76376104  0.73620508  1
  S  S11  1  0.25410305  0.76806604  0.27599009  1
  S  S12  1  0.74589806  0.77600204  0.26807312  1
  S  S13  1  0.72396806  0.76396404  0.73606312  1
