# generated using pymatgen
data_SmGePd2
_symmetry_space_group_name_H-M   'P 1'
_cell_length_a   5.71241522
_cell_length_b   6.98319197
_cell_length_c   7.57890511
_cell_angle_alpha   90.00000000
_cell_angle_beta   90.00000000
_cell_angle_gamma   90.00000000
_symmetry_Int_Tables_number   1
_chemical_formula_structural   SmGePd2
_chemical_formula_sum   'Sm4 Ge4 Pd8'
_cell_volume   302.32928554
_cell_formula_units_Z   4
loop_
 _symmetry_equiv_pos_site_id
 _symmetry_equiv_pos_as_xyz
  1  'x, y, z'
loop_
 _atom_site_type_symbol
 _atom_site_label
 _atom_site_symmetry_multiplicity
 _atom_site_fract_x
 _atom_site_fract_y
 _atom_site_fract_z
 _atom_site_occupancy
  Sm  Sm0  1  0.14474099  0.75000000  0.52856899  1
  Sm  Sm1  1  0.85525897  0.25000000  0.47143099  1
  Sm  Sm2  1  0.64474098  0.25000000  0.97143099  1
  Sm  Sm3  1  0.35525899  0.75000000  0.02856900  1
  Ge  Ge4  1  0.85279897  0.75000000  0.87286699  1
  Ge  Ge5  1  0.14720099  0.25000000  0.12713300  1
  Ge  Ge6  1  0.35279899  0.25000000  0.62713299  1
  Ge  Ge7  1  0.64720098  0.75000000  0.37286699  1
  Pd  Pd8  1  0.59225298  0.55263200  0.67430099  1
  Pd  Pd9  1  0.40774698  0.44736800  0.32569900  1
  Pd  Pd10  1  0.09225300  0.44736800  0.82569899  1
  Pd  Pd11  1  0.40774698  0.05263200  0.32569900  1
  Pd  Pd12  1  0.90774697  0.55263200  0.17430100  1
  Pd  Pd13  1  0.59225298  0.94736800  0.67430099  1
  Pd  Pd14  1  0.90774697  0.94736800  0.17430100  1
  Pd  Pd15  1  0.09225300  0.05263200  0.82569899  1
