# generated using pymatgen
data_Ho4Ni5Ge3
_symmetry_space_group_name_H-M   'P 1'
_cell_length_a   4.22789478
_cell_length_b   6.86156797
_cell_length_c   7.37485504
_cell_angle_alpha   90.00000000
_cell_angle_beta   90.00000000
_cell_angle_gamma   90.00000000
_symmetry_Int_Tables_number   1
_chemical_formula_structural   Ho4Ni5Ge3
_chemical_formula_sum   'Ho4 Ni5 Ge3'
_cell_volume   213.94445213
_cell_formula_units_Z   1
loop_
 _symmetry_equiv_pos_site_id
 _symmetry_equiv_pos_as_xyz
  1  'x, y, z'
loop_
 _atom_site_type_symbol
 _atom_site_label
 _atom_site_symmetry_multiplicity
 _atom_site_fract_x
 _atom_site_fract_y
 _atom_site_fract_z
 _atom_site_occupancy
  Ho  Ho0  1  0.25000001  0.01655100  0.80913600  1
  Ho  Ho1  1  0.25000001  0.51655100  0.69086400  1
  Ho  Ho2  1  0.75000004  0.98344900  0.19086400  1
  Ho  Ho3  1  0.75000004  0.48344900  0.30913600  1
  Ni  Ni4  1  0.25000001  0.17319700  0.42185800  1
  Ni  Ni5  1  0.25000001  0.67319700  0.07814200  1
  Ni  Ni6  1  0.75000004  0.82680300  0.57814200  1
  Ni  Ni7  1  0.75000004  0.32680300  0.92185799  1
  Ge  Ge8  1  0.25000001  0.79772200  0.39962500  1
  Ni  Ni9  1  0.25000001  0.29772200  0.10037500  1
  Ge  Ge10  1  0.75000004  0.20227800  0.60037500  1
  Ge  Ge11  1  0.75000004  0.70227800  0.89962499  1
