# generated using pymatgen
data_Sr2AgGe
_symmetry_space_group_name_H-M   'P 1'
_cell_length_a   5.56118107
_cell_length_b   5.56118107
_cell_length_c   5.56118107
_cell_angle_alpha   60.00000000
_cell_angle_beta   60.00000000
_cell_angle_gamma   60.00000000
_symmetry_Int_Tables_number   1
_chemical_formula_structural   Sr2AgGe
_chemical_formula_sum   'Sr2 Ag1 Ge1'
_cell_volume   121.61471016
_cell_formula_units_Z   1
loop_
 _symmetry_equiv_pos_site_id
 _symmetry_equiv_pos_as_xyz
  1  'x, y, z'
loop_
 _atom_site_type_symbol
 _atom_site_label
 _atom_site_symmetry_multiplicity
 _atom_site_fract_x
 _atom_site_fract_y
 _atom_site_fract_z
 _atom_site_occupancy
  Sr  Sr0  1  0.50000002  0.50000002  0.50000002  1
  Sr  Sr1  1  0.00000000  0.00000000  0.00000000  1
  Ag  Ag2  1  0.75000003  0.75000003  0.75000003  1
  Ge  Ge3  1  0.25000001  0.25000001  0.25000001  1
