# generated using pymatgen
data_MgCd
_symmetry_space_group_name_H-M   'P 1'
_cell_length_a   3.20721412
_cell_length_b   6.09434605
_cell_length_c   7.32743502
_cell_angle_alpha   105.13491821
_cell_angle_beta   90.00000000
_cell_angle_gamma   105.25588226
_symmetry_Int_Tables_number   1
_chemical_formula_structural   MgCd
_chemical_formula_sum   'Mg3 Cd3'
_cell_volume   133.01787392
_cell_formula_units_Z   3
loop_
 _symmetry_equiv_pos_site_id
 _symmetry_equiv_pos_as_xyz
  1  'x, y, z'
loop_
 _atom_site_type_symbol
 _atom_site_label
 _atom_site_symmetry_multiplicity
 _atom_site_fract_x
 _atom_site_fract_y
 _atom_site_fract_z
 _atom_site_occupancy
  Mg  Mg0  1  0.38922194  0.77844397  0.27320101  1
  Mg  Mg1  1  0.66655296  0.33310599  0.33487701  1
  Mg  Mg2  1  0.05564699  0.11129400  0.61564401  1
  Cd  Cd3  1  0.00001400  0.00002800  0.00301100  1
  Cd  Cd4  1  0.33153495  0.66306998  0.65683602  1
  Cd  Cd5  1  0.72369595  0.44739199  0.94976302  1
