# generated using pymatgen
data_Na3Ca3Zr2O12
_symmetry_space_group_name_H-M   'P 1'
_cell_length_a   5.77021790
_cell_length_b   5.99568844
_cell_length_c   10.86600399
_cell_angle_alpha   82.76834106
_cell_angle_beta   74.60575867
_cell_angle_gamma   61.26787949
_symmetry_Int_Tables_number   1
_chemical_formula_structural   Na3Ca3Zr2O12
_chemical_formula_sum   'Na3 Ca3 Zr2 O12'
_cell_volume   317.81240140
_cell_formula_units_Z   1
loop_
 _symmetry_equiv_pos_site_id
 _symmetry_equiv_pos_as_xyz
  1  'x, y, z'
loop_
 _atom_site_type_symbol
 _atom_site_label
 _atom_site_symmetry_multiplicity
 _atom_site_fract_x
 _atom_site_fract_y
 _atom_site_fract_z
 _atom_site_occupancy
  Na  Na0  1  0.90760001  0.18106499  0.49766700  1
  Na  Na1  1  0.66416702  0.67806598  0.99853501  1
  Na  Na2  1  0.63111303  0.88810297  0.31611399  1
  Ca  Ca3  1  0.47493403  0.88872697  0.68550000  1
  Ca  Ca4  1  0.41779201  0.38503899  0.81415801  1
  Ca  Ca5  1  0.20234001  0.38791199  0.18271100  1
  Zr  Zr6  1  0.23276402  0.52812498  0.50080300  1
  Zr  Zr7  1  0.98845700  0.02585500  0.00010898  1
  O  O8  1  0.56005402  0.52543098  0.39096700  1
  O  O9  1  0.90933002  0.52340898  0.61056799  1
  O  O10  1  0.77398300  0.02212200  0.89060401  1
  O  O11  1  0.20660000  0.02212300  0.11009000  1
  O  O12  1  0.00646703  0.78947797  0.39586000  1
  O  O13  1  0.19692103  0.78629597  0.60880900  1
  O  O14  1  0.06250701  0.28299199  0.89284702  1
  O  O15  1  0.65796301  0.28823099  0.10596299  1
  O  O16  1  0.26196601  0.26972799  0.39091800  1
  O  O17  1  0.46679701  0.26643899  0.60721600  1
  O  O18  1  0.32795703  0.76341597  0.89278701  1
  O  O19  1  0.90574203  0.76805197  0.10913298  1
