# generated using pymatgen
data_Y2IrO3
_symmetry_space_group_name_H-M   'P 1'
_cell_length_a   5.53675461
_cell_length_b   5.53675461
_cell_length_c   5.63974190
_cell_angle_alpha   99.58248901
_cell_angle_beta   99.58248901
_cell_angle_gamma   119.92576599
_symmetry_Int_Tables_number   1
_chemical_formula_structural   Y2IrO3
_chemical_formula_sum   'Y4 Ir2 O6'
_cell_volume   141.31036441
_cell_formula_units_Z   2
loop_
 _symmetry_equiv_pos_site_id
 _symmetry_equiv_pos_as_xyz
  1  'x, y, z'
loop_
 _atom_site_type_symbol
 _atom_site_label
 _atom_site_symmetry_multiplicity
 _atom_site_fract_x
 _atom_site_fract_y
 _atom_site_fract_z
 _atom_site_occupancy
  Y  Y0  1  0.00000000  0.00000000  0.00000000  1
  Y  Y1  1  0.49999997  0.49999999  0.49999993  1
  Y  Y2  1  0.83869601  0.16130400  0.49999994  1
  Y  Y3  1  0.16130393  0.83869598  0.49999992  1
  Ir  Ir4  1  0.66686999  0.33312999  -0.00000007  1
  Ir  Ir5  1  0.33312995  0.66686999  -0.00000008  1
  O  O6  1  0.43998901  0.06902200  0.20397597  1
  O  O7  1  0.06902196  0.43998899  0.20397596  1
  O  O8  1  0.56001093  0.93097798  0.79602389  1
  O  O9  1  0.93097798  0.56001099  0.79602390  1
  O  O10  1  0.29948898  0.29948899  0.79375896  1
  O  O11  1  0.70051096  0.70051099  0.20624089  1
