# generated using pymatgen
data_InCo5(BC3)2
_symmetry_space_group_name_H-M   'P 1'
_cell_length_a   3.18763804
_cell_length_b   4.52332401
_cell_length_c   10.80965424
_cell_angle_alpha   90.00000000
_cell_angle_beta   90.00000000
_cell_angle_gamma   110.63146973
_symmetry_Int_Tables_number   1
_chemical_formula_structural   InCo5(BC3)2
_chemical_formula_sum   'In1 Co5 B2 C6'
_cell_volume   145.86538385
_cell_formula_units_Z   1
loop_
 _symmetry_equiv_pos_site_id
 _symmetry_equiv_pos_as_xyz
  1  'x, y, z'
loop_
 _atom_site_type_symbol
 _atom_site_label
 _atom_site_symmetry_multiplicity
 _atom_site_fract_x
 _atom_site_fract_y
 _atom_site_fract_z
 _atom_site_occupancy
  In  In0  1  0.49999999  0.00000000  0.49999999  1
  Co  Co1  1  0.49999999  0.00000000  0.00000000  1
  Co  Co2  1  0.91054904  0.82109804  0.39460599  1
  Co  Co3  1  0.08945101  0.17890201  0.60539399  1
  Co  Co4  1  0.91054904  0.82109804  0.10539400  1
  Co  Co5  1  0.08945101  0.17890201  0.89460598  1
  B  B6  1  0.79117802  0.58235603  0.24999999  1
  B  B7  1  0.20882202  0.41764402  0.74999998  1
  C  C8  1  0.21270402  0.42540702  0.39092299  1
  C  C9  1  0.78729602  0.57459303  0.60907699  1
  C  C10  1  0.21270402  0.42540702  0.10907700  1
  C  C11  1  0.78729602  0.57459303  0.89092298  1
  C  C12  1  0.49788605  0.99577104  0.24999999  1
  C  C13  1  0.50211399  0.00422900  0.74999998  1
