# generated using pymatgen
data_Li8BiO9
_symmetry_space_group_name_H-M   'P 1'
_cell_length_a   5.37059498
_cell_length_b   5.37059498
_cell_length_c   8.06860352
_cell_angle_alpha   83.70388031
_cell_angle_beta   83.70388031
_cell_angle_gamma   64.71633148
_symmetry_Int_Tables_number   1
_chemical_formula_structural   Li8BiO9
_chemical_formula_sum   'Li8 Bi1 O9'
_cell_volume   208.65008086
_cell_formula_units_Z   1
loop_
 _symmetry_equiv_pos_site_id
 _symmetry_equiv_pos_as_xyz
  1  'x, y, z'
loop_
 _atom_site_type_symbol
 _atom_site_label
 _atom_site_symmetry_multiplicity
 _atom_site_fract_x
 _atom_site_fract_y
 _atom_site_fract_z
 _atom_site_occupancy
  Li  Li0  1  0.75470294  0.42843199  0.56405407  1
  Li  Li1  1  0.57252696  0.21591599  0.93222208  1
  Li  Li2  1  0.42843194  0.75470298  0.06405405  1
  Li  Li3  1  0.21591596  0.57252698  0.43222205  1
  Li  Li4  1  0.37690998  0.02828100  0.36885404  1
  Li  Li5  1  0.02828098  0.37690999  0.86885406  1
  Li  Li6  1  0.83104195  0.17185599  0.24612905  1
  Li  Li7  1  0.17185595  0.83104197  0.74612908  1
  O  O8  1  0.87901895  0.13774300  0.75328408  1
  Bi  Bi9  1  0.77218294  0.39932099  0.07167904  1
  O  O10  1  0.39932094  0.77218298  0.57167907  1
  O  O11  1  0.58618196  0.25174299  0.41269105  1
  O  O12  1  0.25174296  0.58618198  0.91269108  1
  O  O13  1  0.13774295  0.87901897  0.25328405  1
  O  O14  1  0.99149892  0.62345198  0.65333109  1
  O  O15  1  0.62345192  0.99149897  0.15333107  1
  O  O16  1  0.35725098  0.01855000  0.86447706  1
  O  O17  1  0.01854998  0.35725099  0.36447703  1
