# generated using pymatgen
data_Ba2La2Mn4O11
_symmetry_space_group_name_H-M   'P 1'
_cell_length_a   3.95219994
_cell_length_b   7.65820122
_cell_length_c   8.00566959
_cell_angle_alpha   90.00000000
_cell_angle_beta   90.00000000
_cell_angle_gamma   90.00000000
_symmetry_Int_Tables_number   1
_chemical_formula_structural   Ba2La2Mn4O11
_chemical_formula_sum   'Ba2 La2 Mn4 O11'
_cell_volume   242.30553903
_cell_formula_units_Z   1
loop_
 _symmetry_equiv_pos_site_id
 _symmetry_equiv_pos_as_xyz
  1  'x, y, z'
loop_
 _atom_site_type_symbol
 _atom_site_label
 _atom_site_symmetry_multiplicity
 _atom_site_fract_x
 _atom_site_fract_y
 _atom_site_fract_z
 _atom_site_occupancy
  Ba  Ba0  1  0.50000001  0.99967597  0.25521401  1
  Ba  Ba1  1  0.50000001  0.99967597  0.74478604  1
  La  La2  1  0.50000001  0.50376699  0.23299501  1
  La  La3  1  0.50000001  0.50376699  0.76700504  1
  Mn  Mn4  1  0.00000000  0.26337599  0.50000003  1
  Mn  Mn5  1  -0.00000000  0.74962398  0.00000000  1
  Mn  Mn6  1  0.00000000  0.25082999  0.00000000  1
  Mn  Mn7  1  -0.00000000  0.73813398  0.50000003  1
  O  O8  1  0.00000000  0.29210599  0.27367001  1
  O  O9  1  0.00000000  0.29210599  0.72633004  1
  O  O10  1  0.50000001  0.72903398  0.00000000  1
  O  O11  1  0.50000001  0.26737299  0.00000000  1
  O  O12  1  -0.00000000  0.50184499  0.00000000  1
  O  O13  1  0.00000000  0.70762998  0.26389401  1
  O  O14  1  0.00000000  0.00386400  0.50000003  1
  O  O15  1  0.50000001  0.31077899  0.50000003  1
  O  O16  1  0.00000000  0.70762998  0.73610604  1
  O  O17  1  0.50000001  0.68912498  0.50000003  1
  O  O18  1  -0.00000000  0.98950697  0.00000000  1
