# generated using pymatgen
data_CeSe2
_symmetry_space_group_name_H-M   'P 1'
_cell_length_a   4.17834091
_cell_length_b   8.39239311
_cell_length_c   8.40558529
_cell_angle_alpha   89.74744415
_cell_angle_beta   90.00000000
_cell_angle_gamma   90.00000000
_symmetry_Int_Tables_number   1
_chemical_formula_structural   CeSe2
_chemical_formula_sum   'Ce4 Se8'
_cell_volume   294.74973952
_cell_formula_units_Z   4
loop_
 _symmetry_equiv_pos_site_id
 _symmetry_equiv_pos_as_xyz
  1  'x, y, z'
loop_
 _atom_site_type_symbol
 _atom_site_label
 _atom_site_symmetry_multiplicity
 _atom_site_fract_x
 _atom_site_fract_y
 _atom_site_fract_z
 _atom_site_occupancy
  Ce  Ce0  1  0.28274201  0.62757299  0.71304802  1
  Ce  Ce1  1  0.78274202  0.87242699  0.28695200  1
  Ce  Ce2  1  0.71725802  0.37242700  0.28695201  1
  Ce  Ce3  1  0.21725800  0.12757300  0.71304803  1
  Se  Se4  1  0.31593801  0.88098499  0.00202799  1
  Se  Se5  1  0.81593802  0.61901499  0.99797204  1
  Se  Se6  1  0.68406201  0.11901500  0.99797204  1
  Se  Se7  1  0.18406200  0.38098499  0.00202799  1
  Se  Se8  1  0.26027201  0.62564999  0.36587701  1
  Se  Se9  1  0.76027202  0.87434999  0.63412302  1
  Se  Se10  1  0.73972802  0.37435000  0.63412302  1
  Se  Se11  1  0.23972801  0.12565000  0.36587701  1
