# generated using pymatgen
data_Cu2P7Pd3S8
_symmetry_space_group_name_H-M   'P 1'
_cell_length_a   6.25150013
_cell_length_b   6.25150013
_cell_length_c   8.77279282
_cell_angle_alpha   90.00000000
_cell_angle_beta   90.00000000
_cell_angle_gamma   120.00000000
_symmetry_Int_Tables_number   1
_chemical_formula_structural   Cu2P7Pd3S8
_chemical_formula_sum   'Cu2 P7 Pd3 S8'
_cell_volume   296.91831935
_cell_formula_units_Z   1
loop_
 _symmetry_equiv_pos_site_id
 _symmetry_equiv_pos_as_xyz
  1  'x, y, z'
loop_
 _atom_site_type_symbol
 _atom_site_label
 _atom_site_symmetry_multiplicity
 _atom_site_fract_x
 _atom_site_fract_y
 _atom_site_fract_z
 _atom_site_occupancy
  P  P0  1  0.00000000  0.00000000  0.50000001  1
  Cu  Cu1  1  0.00000000  0.00000000  0.00000000  1
  P  P2  1  0.66666666  0.33333334  0.25000001  1
  Cu  Cu3  1  0.33333334  0.66666668  0.75000002  1
  Pd  Pd4  1  0.04485900  0.32017000  0.34668001  1
  P  P5  1  0.27531101  0.95514101  0.34668001  1
  P  P6  1  0.67983000  0.72468901  0.34668001  1
  P  P7  1  0.27531100  0.32017000  0.15332000  1
  P  P8  1  0.66666666  0.33333334  0.96322302  1
  P  P9  1  0.66666666  0.33333334  0.53677701  1
  S  S10  1  0.33333334  0.66666668  0.03677700  1
  Pd  Pd11  1  0.33333334  0.66666668  0.46322301  1
  S  S12  1  0.95514098  0.27531100  0.84668002  1
  S  S13  1  0.32016999  0.04485900  0.84668002  1
  S  S14  1  0.72468900  0.67983001  0.84668002  1
  S  S15  1  0.32017000  0.27531100  0.65332001  1
  Pd  Pd16  1  0.72468899  0.04485900  0.65332001  1
  S  S17  1  0.95514099  0.67983001  0.65332001  1
  S  S18  1  0.04485901  0.72468901  0.15332000  1
  S  S19  1  0.67983000  0.95514101  0.15332000  1
