# generated using pymatgen
data_Sr2La2(CuO3)3
_symmetry_space_group_name_H-M   'P 1'
_cell_length_a   3.82695007
_cell_length_b   3.82695007
_cell_length_c   15.28063774
_cell_angle_alpha   97.12458801
_cell_angle_beta   97.12458801
_cell_angle_gamma   90.54671478
_symmetry_Int_Tables_number   1
_chemical_formula_structural   Sr2La2(CuO3)3
_chemical_formula_sum   'Sr2 La2 Cu3 O9'
_cell_volume   220.28012261
_cell_formula_units_Z   1
loop_
 _symmetry_equiv_pos_site_id
 _symmetry_equiv_pos_as_xyz
  1  'x, y, z'
loop_
 _atom_site_type_symbol
 _atom_site_label
 _atom_site_symmetry_multiplicity
 _atom_site_fract_x
 _atom_site_fract_y
 _atom_site_fract_z
 _atom_site_occupancy
  Sr  Sr0  1  0.59140700  0.57624399  0.16765099  1
  Sr  Sr1  1  0.42375600  0.40859299  0.83234897  1
  La  La2  1  0.70312400  0.70151498  0.40463898  1
  La  La3  1  0.29848500  0.29687599  0.59536098  1
  Cu  Cu4  1  0.04423402  0.95576598  0.99999997  1
  Cu  Cu5  1  0.14709000  0.14452700  0.29161699  1
  Cu  Cu6  1  0.85547300  0.85290998  0.70838297  1
  O  O7  1  0.21922500  0.21827299  0.43749799  1
  O  O8  1  0.78172700  0.78077498  0.56250197  1
  O  O9  1  0.65053899  0.14686100  0.29666999  1
  O  O10  1  0.14980801  0.64613098  0.29666999  1
  O  O11  1  0.35386901  0.85019198  0.70332997  1
  O  O12  1  0.85313799  0.34946099  0.70332997  1
  O  O13  1  0.47467000  0.52532999  0.99999997  1
  O  O14  1  0.06975300  0.07029600  0.14004900  1
  O  O15  1  0.92970400  0.93024698  0.85995096  1
