# generated using pymatgen
data_La2Si3Ir
_symmetry_space_group_name_H-M   'P 1'
_cell_length_a   4.31484509
_cell_length_b   8.32298374
_cell_length_c   8.32298470
_cell_angle_alpha   120.00000000
_cell_angle_beta   90.00000000
_cell_angle_gamma   90.00000000
_symmetry_Int_Tables_number   1
_chemical_formula_structural   La2Si3Ir
_chemical_formula_sum   'La4 Si6 Ir2'
_cell_volume   258.85346451
_cell_formula_units_Z   2
loop_
 _symmetry_equiv_pos_site_id
 _symmetry_equiv_pos_as_xyz
  1  'x, y, z'
loop_
 _atom_site_type_symbol
 _atom_site_label
 _atom_site_symmetry_multiplicity
 _atom_site_fract_x
 _atom_site_fract_y
 _atom_site_fract_z
 _atom_site_occupancy
  La  La0  1  0.99999998  0.50000002  0.99999997  1
  La  La1  1  0.00000000  0.00000000  0.49999998  1
  La  La2  1  0.99999998  0.50000002  0.49999999  1
  La  La3  1  0.00000000  0.00000000  0.00000000  1
  Si  Si4  1  0.49999999  0.16407601  0.83592497  1
  Si  Si5  1  0.49999999  0.83592404  0.67184800  1
  Si  Si6  1  0.49999999  0.32815101  0.16407500  1
  Si  Si7  1  0.49999999  0.83592404  0.16407502  1
  Si  Si8  1  0.49999999  0.16407601  0.32815199  1
  Si  Si9  1  0.49999999  0.67184903  0.83592499  1
  Ir  Ir10  1  0.49999999  0.66666670  0.33333334  1
  Ir  Ir11  1  0.49999999  0.33333335  0.66666665  1
