# generated using pymatgen
data_Sr2FeMoO6
_symmetry_space_group_name_H-M   'P 1'
_cell_length_a   5.66322947
_cell_length_b   5.74668694
_cell_length_c   9.85339928
_cell_angle_alpha   88.96304321
_cell_angle_beta   73.31012726
_cell_angle_gamma   60.48593521
_symmetry_Int_Tables_number   1
_chemical_formula_structural   Sr2FeMoO6
_chemical_formula_sum   'Sr4 Fe2 Mo2 O12'
_cell_volume   264.36372220
_cell_formula_units_Z   2
loop_
 _symmetry_equiv_pos_site_id
 _symmetry_equiv_pos_as_xyz
  1  'x, y, z'
loop_
 _atom_site_type_symbol
 _atom_site_label
 _atom_site_symmetry_multiplicity
 _atom_site_fract_x
 _atom_site_fract_y
 _atom_site_fract_z
 _atom_site_occupancy
  Sr  Sr0  1  0.74905597  0.62795901  0.87680903  1
  Sr  Sr1  1  0.75049099  0.12195400  0.37353701  1
  Sr  Sr2  1  0.24954599  0.37793600  0.12642501  1
  Sr  Sr3  1  0.25092997  0.87210001  0.62322503  1
  Fe  Fe4  1  0.49994397  0.75004301  0.24998702  1
  Fe  Fe5  1  0.50000499  0.25007200  0.75002102  1
  Mo  Mo6  1  0.99651297  0.49700201  0.50130302  1
  Mo  Mo7  1  0.00349400  0.00301900  0.99869801  1
  O  O8  1  0.76942798  0.35900500  0.11673301  1
  O  O9  1  0.75523697  0.85298801  0.61859803  1
  O  O10  1  0.24473098  0.64704901  0.88139203  1
  O  O11  1  0.23060699  0.14094700  0.38330001  1
  O  O12  1  0.19742598  0.85814101  0.14381702  1
  O  O13  1  0.18113599  0.35622700  0.64543802  1
  O  O14  1  0.81880898  0.14381000  0.85459602  1
  O  O15  1  0.80262797  0.64177601  0.35614502  1
  O  O16  1  0.70547198  0.40020500  0.59506902  1
  O  O17  1  0.71829497  0.90967701  0.09528303  1
  O  O18  1  0.28176098  0.59027901  0.40472702  1
  O  O19  1  0.29448899  0.09981100  0.90489602  1
