# generated using pymatgen
data_BaZr(PO4)2
_symmetry_space_group_name_H-M   'P 1'
_cell_length_a   5.10004234
_cell_length_b   5.10004234
_cell_length_c   7.95615959
_cell_angle_alpha   86.93927002
_cell_angle_beta   86.93927002
_cell_angle_gamma   63.22560883
_symmetry_Int_Tables_number   1
_chemical_formula_structural   BaZr(PO4)2
_chemical_formula_sum   'Ba1 Zr1 P2 O8'
_cell_volume   184.39270194
_cell_formula_units_Z   1
loop_
 _symmetry_equiv_pos_site_id
 _symmetry_equiv_pos_as_xyz
  1  'x, y, z'
loop_
 _atom_site_type_symbol
 _atom_site_label
 _atom_site_symmetry_multiplicity
 _atom_site_fract_x
 _atom_site_fract_y
 _atom_site_fract_z
 _atom_site_occupancy
  Ba  Ba0  1  0.00000000  0.00000000  0.49999999  1
  Zr  Zr1  1  0.00000000  0.00000000  0.00000000  1
  P  P2  1  0.63774497  0.63774500  0.22033000  1
  P  P3  1  0.36225498  0.36225500  0.77966999  1
  O  O4  1  0.22493498  0.69839699  0.81330399  1
  O  O5  1  0.77663597  0.77663599  0.08954100  1
  O  O6  1  0.68207597  0.68207600  0.40257600  1
  O  O7  1  0.31792399  0.31792400  0.59742399  1
  O  O8  1  0.22336399  0.22336400  0.91045899  1
  O  O9  1  0.69839698  0.22493500  0.81330399  1
  O  O10  1  0.30160298  0.77506499  0.18669600  1
  O  O11  1  0.77506498  0.30160300  0.18669600  1
