# generated using pymatgen
data_Cs5Pr3(FeCl5)2
_symmetry_space_group_name_H-M   'P 1'
_cell_length_a   4.43921709
_cell_length_b   14.08771038
_cell_length_c   14.08770943
_cell_angle_alpha   120.00000000
_cell_angle_beta   90.00000000
_cell_angle_gamma   90.00000000
_symmetry_Int_Tables_number   1
_chemical_formula_structural   Cs5Pr3(FeCl5)2
_chemical_formula_sum   'Cs5 Pr3 Fe2 Cl10'
_cell_volume   762.98818957
_cell_formula_units_Z   1
loop_
 _symmetry_equiv_pos_site_id
 _symmetry_equiv_pos_as_xyz
  1  'x, y, z'
loop_
 _atom_site_type_symbol
 _atom_site_label
 _atom_site_symmetry_multiplicity
 _atom_site_fract_x
 _atom_site_fract_y
 _atom_site_fract_z
 _atom_site_occupancy
  Cs  Cs0  1  0.99999998  0.66666664  0.33333331  1
  Cs  Cs1  1  -0.00000000  0.33333332  0.66666665  1
  Cs  Cs2  1  -0.00000000  0.28277899  0.28277899  1
  Cs  Cs3  1  -0.00000000  0.00000000  0.71722100  1
  Cs  Cs4  1  0.99999998  0.71722097  -0.00000002  1
  Pr  Pr5  1  0.49999999  0.67487797  0.67487798  1
  Pr  Pr6  1  0.49999999  0.00000000  0.32512200  1
  Pr  Pr7  1  0.49999999  0.32512199  -0.00000001  1
  Fe  Fe8  1  -0.00000000  0.80736197  0.80736197  1
  Fe  Fe9  1  0.99999998  0.00000000  0.19263800  1
  Cl  Cl10  1  -0.00000000  0.19263799  -0.00000001  1
  Cl  Cl11  1  -0.00000000  0.54488598  0.54488598  1
  Cl  Cl12  1  0.99999998  0.00000000  0.45511400  1
  Cl  Cl13  1  -0.00000000  0.45511398  -0.00000001  1
  Cl  Cl14  1  0.49999999  0.77066897  0.21103098  1
  Cl  Cl15  1  0.49999999  0.44036198  0.22932999  1
  Cl  Cl16  1  0.49999999  0.55963798  0.78896898  1
  Cl  Cl17  1  0.49999999  0.78896797  0.55963697  1
  Cl  Cl18  1  0.49999999  0.21103199  0.77066999  1
  Cl  Cl19  1  0.49999999  0.22933099  0.44036299  1
