# generated using pymatgen
data_Li8N7O
_symmetry_space_group_name_H-M   'P 1'
_cell_length_a   5.83590364
_cell_length_b   5.83590364
_cell_length_c   6.07059479
_cell_angle_alpha   89.49470520
_cell_angle_beta   89.49470520
_cell_angle_gamma   75.82642365
_symmetry_Int_Tables_number   1
_chemical_formula_structural   Li8N7O
_chemical_formula_sum   'Li8 N7 O1'
_cell_volume   200.44457137
_cell_formula_units_Z   1
loop_
 _symmetry_equiv_pos_site_id
 _symmetry_equiv_pos_as_xyz
  1  'x, y, z'
loop_
 _atom_site_type_symbol
 _atom_site_label
 _atom_site_symmetry_multiplicity
 _atom_site_fract_x
 _atom_site_fract_y
 _atom_site_fract_z
 _atom_site_occupancy
  Li  Li0  1  0.61467403  0.15042800  0.83150199  1
  Li  Li1  1  0.38532606  0.84957201  0.16849802  1
  Li  Li2  1  0.84957204  0.38532601  0.16849802  1
  Li  Li3  1  0.15042804  0.61467401  0.83150199  1
  Li  Li4  1  0.11396501  0.11396500  0.67605598  1
  Li  Li5  1  0.88603507  0.88603501  0.32394402  1
  Li  Li6  1  0.66980805  0.66980801  0.67022800  1
  Li  Li7  1  0.33019203  0.33019201  0.32977200  1
  O  O8  1  0.12352801  0.12352800  0.31754499  1
  N  N9  1  0.87647207  0.87647201  0.68245501  1
  N  N10  1  0.15204504  0.60137601  0.18025501  1
  N  N11  1  0.84795504  0.39862401  0.81974500  1
  N  N12  1  0.39862406  0.84795501  0.81974500  1
  N  N13  1  0.60137602  0.15204500  0.18025501  1
  N  N14  1  0.35617603  0.35617601  0.63307399  1
  N  N15  1  0.64382405  0.64382401  0.36692601  1
