# generated using pymatgen
data_MgSn4Au3
_symmetry_space_group_name_H-M   'P 1'
_cell_length_a   7.72842598
_cell_length_b   8.73311138
_cell_length_c   7.72842598
_cell_angle_alpha   63.73788071
_cell_angle_beta   90.00000000
_cell_angle_gamma   116.26211548
_symmetry_Int_Tables_number   1
_chemical_formula_structural   MgSn4Au3
_chemical_formula_sum   'Mg2 Sn8 Au6'
_cell_volume   406.86929390
_cell_formula_units_Z   2
loop_
 _symmetry_equiv_pos_site_id
 _symmetry_equiv_pos_as_xyz
  1  'x, y, z'
loop_
 _atom_site_type_symbol
 _atom_site_label
 _atom_site_symmetry_multiplicity
 _atom_site_fract_x
 _atom_site_fract_y
 _atom_site_fract_z
 _atom_site_occupancy
  Mg  Mg0  1  0.00000000  0.00000000  0.00000000  1
  Mg  Mg1  1  0.50000000  0.00000000  0.50000000  1
  Sn  Sn2  1  0.79916098  0.28485399  0.01430701  1
  Sn  Sn3  1  0.20083894  0.71514597  0.98569302  1
  Sn  Sn4  1  0.48569298  0.28485399  0.70083901  1
  Sn  Sn5  1  0.29916098  0.28485399  0.20083901  1
  Sn  Sn6  1  0.01430694  0.71514597  0.48569301  1
  Sn  Sn7  1  0.51430694  0.71514597  0.29916101  1
  Sn  Sn8  1  0.70083894  0.71514597  0.79916102  1
  Sn  Sn9  1  0.98569298  0.28485399  0.51430701  1
  Au  Au10  1  0.24999996  0.49999998  0.75000001  1
  Au  Au11  1  0.74999996  0.49999998  0.25000001  1
  Au  Au12  1  0.13733791  0.99999995  0.63733802  1
  Au  Au13  1  0.86266200  0.00000000  0.36266200  1
  Au  Au14  1  0.63733800  0.00000000  0.86266200  1
  Au  Au15  1  0.36266200  0.00000000  0.13733800  1
