# generated using pymatgen
data_LiMnO2
_symmetry_space_group_name_H-M   'P 1'
_cell_length_a   5.75765800
_cell_length_b   5.83323574
_cell_length_c   5.80980778
_cell_angle_alpha   119.85258484
_cell_angle_beta   90.00000000
_cell_angle_gamma   119.57232666
_symmetry_Int_Tables_number   1
_chemical_formula_structural   LiMnO2
_chemical_formula_sum   'Li4 Mn4 O8'
_cell_volume   139.16543938
_cell_formula_units_Z   4
loop_
 _symmetry_equiv_pos_site_id
 _symmetry_equiv_pos_as_xyz
  1  'x, y, z'
loop_
 _atom_site_type_symbol
 _atom_site_label
 _atom_site_symmetry_multiplicity
 _atom_site_fract_x
 _atom_site_fract_y
 _atom_site_fract_z
 _atom_site_occupancy
  Li  Li0  1  0.00000004  0.50000003  0.50000006  1
  Li  Li1  1  0.00000000  0.00000000  0.50000002  1
  Li  Li2  1  0.50000004  0.50000003  0.50000006  1
  Li  Li3  1  0.50000008  1.00000007  1.00000012  1
  Mn  Mn4  1  0.50000004  0.50000003  1.00000008  1
  Mn  Mn5  1  0.00000000  0.00000000  0.00000000  1
  Mn  Mn6  1  0.50000008  1.00000007  0.50000010  1
  Mn  Mn7  1  0.00000004  0.50000003  1.00000008  1
  O  O8  1  0.73645808  0.99902207  0.76228111  1
  O  O9  1  0.26354200  0.00097800  0.23771901  1
  O  O10  1  0.73011804  0.46023603  0.21181004  1
  O  O11  1  0.26988205  0.53976404  0.78819007  1
  O  O12  1  0.75035504  0.50071003  0.77872707  1
  O  O13  1  0.24964504  0.49929003  0.22127305  1
  O  O14  1  0.26256408  0.99902207  0.76228111  1
  O  O15  1  0.73743600  0.00097800  0.23771901  1
