# generated using pymatgen
data_P
_symmetry_space_group_name_H-M   'P 1'
_cell_length_a   6.23811388
_cell_length_b   6.23811388
_cell_length_c   8.77249813
_cell_angle_alpha   90.00000000
_cell_angle_beta   90.00000000
_cell_angle_gamma   120.00000000
_symmetry_Int_Tables_number   1
_chemical_formula_structural   P
_chemical_formula_sum   P20
_cell_volume   295.63817563
_cell_formula_units_Z   20
loop_
 _symmetry_equiv_pos_site_id
 _symmetry_equiv_pos_as_xyz
  1  'x, y, z'
loop_
 _atom_site_type_symbol
 _atom_site_label
 _atom_site_symmetry_multiplicity
 _atom_site_fract_x
 _atom_site_fract_y
 _atom_site_fract_z
 _atom_site_occupancy
  P  P0  1  0.00000000  0.00000000  0.49999999  1
  P  P1  1  0.00000000  0.00000000  0.00000000  1
  P  P2  1  0.33333333  0.66666666  0.46344799  1
  P  P3  1  0.66666667  0.33333333  0.53655199  1
  P  P4  1  0.33333333  0.66666666  0.03655200  1
  P  P5  1  0.66666667  0.33333333  0.96344799  1
  P  P6  1  0.27589500  0.32034499  0.34681899  1
  P  P7  1  0.72410500  0.67965499  0.65318099  1
  P  P8  1  0.04444999  0.72410499  0.34681899  1
  P  P9  1  0.27589499  0.95554998  0.15318100  1
  P  P10  1  0.95555001  0.27589500  0.65318099  1
  P  P11  1  0.72410501  0.04445000  0.84681899  1
  P  P12  1  0.67965500  0.95554998  0.34681899  1
  P  P13  1  0.04445000  0.32034499  0.15318100  1
  P  P14  1  0.32034501  0.04445000  0.65318099  1
  P  P15  1  0.95555001  0.67965499  0.84681899  1
  P  P16  1  0.67965500  0.72410499  0.15318100  1
  P  P17  1  0.32034500  0.27589500  0.84681899  1
  P  P18  1  0.66666667  0.33333333  0.25000000  1
  P  P19  1  0.33333333  0.66666666  0.74999999  1
