# generated using pymatgen
data_NdI3
_symmetry_space_group_name_H-M   'P 1'
_cell_length_a   4.13835716
_cell_length_b   11.00791645
_cell_length_c   11.00791645
_cell_angle_alpha   120.00000000
_cell_angle_beta   90.00000000
_cell_angle_gamma   90.00000000
_symmetry_Int_Tables_number   1
_chemical_formula_structural   NdI3
_chemical_formula_sum   'Nd2 I6'
_cell_volume   434.27902173
_cell_formula_units_Z   2
loop_
 _symmetry_equiv_pos_site_id
 _symmetry_equiv_pos_as_xyz
  1  'x, y, z'
loop_
 _atom_site_type_symbol
 _atom_site_label
 _atom_site_symmetry_multiplicity
 _atom_site_fract_x
 _atom_site_fract_y
 _atom_site_fract_z
 _atom_site_occupancy
  Nd  Nd0  1  0.74999997  0.33333332  0.66666665  1
  Nd  Nd1  1  0.24999999  0.66666664  0.33333333  1
  I  I2  1  0.24999999  0.58327898  0.79163998  1
  I  I3  1  0.24999999  0.20836099  0.41672199  1
  I  I4  1  0.74999997  0.79163897  0.20836000  1
  I  I5  1  0.74999997  0.41672098  0.20836000  1
  I  I6  1  0.74999997  0.79163897  0.58327799  1
  I  I7  1  0.24999999  0.20836099  0.79163998  1
