# generated using pymatgen
data_Ca2Ga(CuP4)3
_symmetry_space_group_name_H-M   'P 1'
_cell_length_a   5.06191206
_cell_length_b   5.06191158
_cell_length_c   11.10818100
_cell_angle_alpha   89.96842957
_cell_angle_beta   89.96843719
_cell_angle_gamma   119.84117889
_symmetry_Int_Tables_number   1
_chemical_formula_structural   Ca2Ga(CuP4)3
_chemical_formula_sum   'Ca2 Ga1 Cu3 P12'
_cell_volume   246.88532997
_cell_formula_units_Z   1
loop_
 _symmetry_equiv_pos_site_id
 _symmetry_equiv_pos_as_xyz
  1  'x, y, z'
loop_
 _atom_site_type_symbol
 _atom_site_label
 _atom_site_symmetry_multiplicity
 _atom_site_fract_x
 _atom_site_fract_y
 _atom_site_fract_z
 _atom_site_occupancy
  Ca  Ca0  1  0.99997607  0.99997600  0.99986200  1
  Ca  Ca1  1  0.00011600  0.00011600  0.67141298  1
  Ga  Ga2  1  0.99990807  0.99990800  0.32850501  1
  Cu  Cu3  1  0.49992803  0.49992800  0.50009300  1
  Cu  Cu4  1  0.50008100  0.00002700  0.50014799  1
  Cu  Cu5  1  0.00002703  0.50008100  0.50014800  1
  P  P6  1  0.66741502  0.33291400  0.68345099  1
  P  P7  1  0.33291404  0.66741500  0.68345100  1
  P  P8  1  0.33274404  0.66696000  0.31628800  1
  P  P9  1  0.66696002  0.33274400  0.31628800  1
  P  P10  1  0.49972803  0.49972800  0.86809599  1
  P  P11  1  0.49964907  0.99953700  0.86792400  1
  P  P12  1  0.99953703  0.49964900  0.86792399  1
  P  P13  1  0.50025903  0.50025900  0.13215401  1
  P  P14  1  0.50036400  0.00047100  0.13236900  1
  P  P15  1  0.00047103  0.50036400  0.13236900  1
  P  P16  1  0.66596902  0.33405400  0.99975998  1
  P  P17  1  0.33405404  0.66596900  0.99975999  1
