# generated using pymatgen
data_Ho2Si3
_symmetry_space_group_name_H-M   'P 1'
_cell_length_a   3.89961600
_cell_length_b   4.02283001
_cell_length_c   7.43847609
_cell_angle_alpha   105.68847656
_cell_angle_beta   105.19616699
_cell_angle_gamma   90.00000000
_symmetry_Int_Tables_number   1
_chemical_formula_structural   Ho2Si3
_chemical_formula_sum   'Ho2 Si3'
_cell_volume   108.09967084
_cell_formula_units_Z   1
loop_
 _symmetry_equiv_pos_site_id
 _symmetry_equiv_pos_as_xyz
  1  'x, y, z'
loop_
 _atom_site_type_symbol
 _atom_site_label
 _atom_site_symmetry_multiplicity
 _atom_site_fract_x
 _atom_site_fract_y
 _atom_site_fract_z
 _atom_site_occupancy
  Ho  Ho0  1  0.37304498  0.87304499  0.74608998  1
  Ho  Ho1  1  0.62688098  0.62688099  0.25376197  1
  Si  Si2  1  0.79866498  0.29866500  0.59732998  1
  Si  Si3  1  0.19883499  0.19883500  0.39767000  1
  Si  Si4  1  0.96777398  0.46777399  0.93554798  1
