# generated using pymatgen
data_CdSeO3
_symmetry_space_group_name_H-M   'P 1'
_cell_length_a   5.20806408
_cell_length_b   6.18738890
_cell_length_c   8.01677132
_cell_angle_alpha   90.00000000
_cell_angle_beta   89.99993896
_cell_angle_gamma   90.00000000
_symmetry_Int_Tables_number   1
_chemical_formula_structural   CdSeO3
_chemical_formula_sum   'Cd4 Se4 O12'
_cell_volume   258.33498710
_cell_formula_units_Z   4
loop_
 _symmetry_equiv_pos_site_id
 _symmetry_equiv_pos_as_xyz
  1  'x, y, z'
loop_
 _atom_site_type_symbol
 _atom_site_label
 _atom_site_symmetry_multiplicity
 _atom_site_fract_x
 _atom_site_fract_y
 _atom_site_fract_z
 _atom_site_occupancy
  Cd  Cd0  1  0.00000000  0.50000001  0.00000000  1
  Cd  Cd1  1  0.49999999  0.00000000  0.49999998  1
  Cd  Cd2  1  0.49999999  0.00000100  0.00000000  1
  Cd  Cd3  1  0.00000000  0.50000201  0.49999998  1
  Se  Se4  1  0.98249999  0.02679600  0.25000000  1
  Se  Se5  1  0.48249999  0.47320401  0.74999997  1
  Se  Se6  1  0.51749999  0.52679601  0.24999999  1
  Se  Se7  1  0.01750000  0.97320302  0.74999997  1
  O  O8  1  0.31173800  0.07799900  0.24999699  1
  O  O9  1  0.81173799  0.42200001  0.74999698  1
  O  O10  1  0.18826200  0.57799901  0.25000299  1
  O  O11  1  0.68826199  0.92200002  0.75000297  1
  O  O12  1  0.86527099  0.18125600  0.41699999  1
  O  O13  1  0.36526299  0.31875101  0.58299998  1
  O  O14  1  0.63472899  0.68125701  0.08300000  1
  O  O15  1  0.13473700  0.81875101  0.91699996  1
  O  O16  1  0.13472900  0.81874301  0.58299998  1
  O  O17  1  0.63473699  0.68124901  0.41699999  1
  O  O18  1  0.36527099  0.31874301  0.91699997  1
  O  O19  1  0.86526299  0.18124900  0.08300000  1
