# generated using pymatgen
data_Tl4Cl3O5
_symmetry_space_group_name_H-M   'P 1'
_cell_length_a   5.56321096
_cell_length_b   5.66428804
_cell_length_c   7.03127384
_cell_angle_alpha   90.00000000
_cell_angle_beta   90.00000000
_cell_angle_gamma   90.00000000
_symmetry_Int_Tables_number   1
_chemical_formula_structural   Tl4Cl3O5
_chemical_formula_sum   'Tl4 Cl3 O5'
_cell_volume   221.56689517
_cell_formula_units_Z   1
loop_
 _symmetry_equiv_pos_site_id
 _symmetry_equiv_pos_as_xyz
  1  'x, y, z'
loop_
 _atom_site_type_symbol
 _atom_site_label
 _atom_site_symmetry_multiplicity
 _atom_site_fract_x
 _atom_site_fract_y
 _atom_site_fract_z
 _atom_site_occupancy
  Tl  Tl0  1  0.50000000  0.00000000  0.50000001  1
  Tl  Tl1  1  0.00000000  0.50000000  0.50000001  1
  Tl  Tl2  1  0.50000000  0.50000000  0.00000000  1
  Tl  Tl3  1  0.00000000  0.00000000  0.00000000  1
  Cl  Cl4  1  0.61050600  0.11239700  0.07346900  1
  Cl  Cl5  1  0.11050600  0.38760300  0.92653102  1
  Cl  Cl6  1  0.38949400  0.61239700  0.42653101  1
  O  O7  1  0.88949401  0.88760299  0.57346901  1
  O  O8  1  0.11050600  0.11239700  0.42653101  1
  O  O9  1  0.61050600  0.38760300  0.57346901  1
  O  O10  1  0.88949401  0.61239700  0.07346900  1
  O  O11  1  0.38949400  0.88760299  0.92653102  1
