# generated using pymatgen
data_PrTiGe3
_symmetry_space_group_name_H-M   'P 1'
_cell_length_a   5.81545687
_cell_length_b   6.28806782
_cell_length_c   6.28806829
_cell_angle_alpha   120.00000000
_cell_angle_beta   90.00000000
_cell_angle_gamma   90.00000000
_symmetry_Int_Tables_number   1
_chemical_formula_structural   PrTiGe3
_chemical_formula_sum   'Pr2 Ti2 Ge6'
_cell_volume   199.13561403
_cell_formula_units_Z   2
loop_
 _symmetry_equiv_pos_site_id
 _symmetry_equiv_pos_as_xyz
  1  'x, y, z'
loop_
 _atom_site_type_symbol
 _atom_site_label
 _atom_site_symmetry_multiplicity
 _atom_site_fract_x
 _atom_site_fract_y
 _atom_site_fract_z
 _atom_site_occupancy
  Pr  Pr0  1  0.25000001  0.33333335  0.66666668  1
  Pr  Pr1  1  0.75000002  0.66666670  0.33333336  1
  Ti  Ti2  1  0.00000000  0.00000000  0.00000000  1
  Ti  Ti3  1  0.50000001  0.00000000  -0.00000000  1
  Ge  Ge4  1  0.75000002  0.19774601  0.39549201  1
  Ge  Ge5  1  0.25000001  0.80225404  0.60450803  1
  Ge  Ge6  1  0.75000002  0.19774601  0.80225401  1
  Ge  Ge7  1  0.25000001  0.80225404  0.19774603  1
  Ge  Ge8  1  0.75000002  0.60450803  0.80225402  1
  Ge  Ge9  1  0.25000001  0.39549202  0.19774601  1
