# generated using pymatgen
data_LaRhO3
_symmetry_space_group_name_H-M   'P 1'
_cell_length_a   5.44467783
_cell_length_b   5.91698217
_cell_length_c   7.89216185
_cell_angle_alpha   90.00000000
_cell_angle_beta   90.00000000
_cell_angle_gamma   90.00000000
_symmetry_Int_Tables_number   1
_chemical_formula_structural   LaRhO3
_chemical_formula_sum   'La4 Rh4 O12'
_cell_volume   254.25437268
_cell_formula_units_Z   4
loop_
 _symmetry_equiv_pos_site_id
 _symmetry_equiv_pos_as_xyz
  1  'x, y, z'
loop_
 _atom_site_type_symbol
 _atom_site_label
 _atom_site_symmetry_multiplicity
 _atom_site_fract_x
 _atom_site_fract_y
 _atom_site_fract_z
 _atom_site_occupancy
  La  La0  1  0.47511501  0.57683398  0.75000001  1
  La  La1  1  0.97511503  0.92316597  0.25000000  1
  La  La2  1  0.02488500  0.07683400  0.75000001  1
  La  La3  1  0.52488502  0.42316599  0.25000000  1
  Rh  Rh4  1  0.50000002  0.00000000  0.50000001  1
  Rh  Rh5  1  -0.00000000  0.49999999  0.50000001  1
  Rh  Rh6  1  -0.00000000  0.49999999  0.00000000  1
  Rh  Rh7  1  0.50000002  0.00000000  0.00000000  1
  O  O8  1  0.81473403  0.19629599  0.44627901  1
  O  O9  1  0.31473401  0.30370399  0.55372101  1
  O  O10  1  0.68526602  0.69629598  0.05372100  1
  O  O11  1  0.18526601  0.80370398  0.94627902  1
  O  O12  1  0.18526601  0.80370398  0.55372101  1
  O  O13  1  0.68526602  0.69629598  0.44627901  1
  O  O14  1  0.31473401  0.30370399  0.94627902  1
  O  O15  1  0.81473403  0.19629599  0.05372100  1
  O  O16  1  0.38894001  0.03509400  0.25000000  1
  O  O17  1  0.88894003  0.46490599  0.75000001  1
  O  O18  1  0.11106000  0.53509398  0.25000000  1
  O  O19  1  0.61106002  0.96490597  0.75000001  1
