# generated using pymatgen
data_Pr2(CuPd)3
_symmetry_space_group_name_H-M   'P 1'
_cell_length_a   5.62162113
_cell_length_b   6.87625313
_cell_length_c   7.69892406
_cell_angle_alpha   90.00000000
_cell_angle_beta   90.00000000
_cell_angle_gamma   90.00000000
_symmetry_Int_Tables_number   1
_chemical_formula_structural   Pr2(CuPd)3
_chemical_formula_sum   'Pr4 Cu6 Pd6'
_cell_volume   297.60722115
_cell_formula_units_Z   2
loop_
 _symmetry_equiv_pos_site_id
 _symmetry_equiv_pos_as_xyz
  1  'x, y, z'
loop_
 _atom_site_type_symbol
 _atom_site_label
 _atom_site_symmetry_multiplicity
 _atom_site_fract_x
 _atom_site_fract_y
 _atom_site_fract_z
 _atom_site_occupancy
  Pr  Pr0  1  0.85347098  0.25000000  0.53336400  1
  Pr  Pr1  1  0.64652898  0.25000000  0.03336400  1
  Pr  Pr2  1  0.14652900  0.74999999  0.46663600  1
  Pr  Pr3  1  0.35347099  0.74999999  0.96663599  1
  Cu  Cu4  1  0.15384500  0.25000000  0.87793399  1
  Cu  Cu5  1  0.34615499  0.25000000  0.37793400  1
  Cu  Cu6  1  0.84615498  0.74999999  0.12206600  1
  Cu  Cu7  1  0.65384498  0.74999999  0.62206599  1
  Pd  Pd8  1  0.40625399  0.05000700  0.67549099  1
  Pd  Pd9  1  0.09374600  0.44999299  0.17549100  1
  Cu  Cu10  1  0.59374599  0.55000699  0.32450900  1
  Cu  Cu11  1  0.90625398  0.94999298  0.82450899  1
  Pd  Pd12  1  0.59374599  0.94999298  0.32450900  1
  Pd  Pd13  1  0.90625398  0.55000699  0.82450899  1
  Pd  Pd14  1  0.40625399  0.44999299  0.67549099  1
  Pd  Pd15  1  0.09374600  0.05000700  0.17549100  1
