# generated using pymatgen
data_SrIO
_symmetry_space_group_name_H-M   'P 1'
_cell_length_a   4.76532888
_cell_length_b   7.77477598
_cell_length_c   8.46200657
_cell_angle_alpha   90.00000000
_cell_angle_beta   90.00000000
_cell_angle_gamma   90.00000000
_symmetry_Int_Tables_number   1
_chemical_formula_structural   SrIO
_chemical_formula_sum   'Sr4 I4 O4'
_cell_volume   313.51196623
_cell_formula_units_Z   4
loop_
 _symmetry_equiv_pos_site_id
 _symmetry_equiv_pos_as_xyz
  1  'x, y, z'
loop_
 _atom_site_type_symbol
 _atom_site_label
 _atom_site_symmetry_multiplicity
 _atom_site_fract_x
 _atom_site_fract_y
 _atom_site_fract_z
 _atom_site_occupancy
  Sr  Sr0  1  0.25000001  0.15832900  0.92753805  1
  Sr  Sr1  1  0.25000001  0.65832900  0.57246203  1
  Sr  Sr2  1  0.75000002  0.84167100  0.07246200  1
  Sr  Sr3  1  0.75000002  0.34167100  0.42753802  1
  I  I4  1  0.25000001  0.00954400  0.29581902  1
  I  I5  1  0.25000001  0.50954400  0.20418101  1
  I  I6  1  0.75000002  0.99045600  0.70418104  1
  I  I7  1  0.75000002  0.49045600  0.79581904  1
  O  O8  1  0.25000001  0.26936200  0.59974303  1
  O  O9  1  0.25000001  0.76936200  0.90025705  1
  O  O10  1  0.75000002  0.73063800  0.40025702  1
  O  O11  1  0.75000002  0.23063800  0.09974301  1
