# generated using pymatgen
data_Sm3Pt4
_symmetry_space_group_name_H-M   'P 1'
_cell_length_a   5.84808207
_cell_length_b   8.16296673
_cell_length_c   8.16296673
_cell_angle_alpha   114.48519135
_cell_angle_beta   103.81604004
_cell_angle_gamma   103.81604004
_symmetry_Int_Tables_number   1
_chemical_formula_structural   Sm3Pt4
_chemical_formula_sum   'Sm6 Pt8'
_cell_volume   318.22840776
_cell_formula_units_Z   2
loop_
 _symmetry_equiv_pos_site_id
 _symmetry_equiv_pos_as_xyz
  1  'x, y, z'
loop_
 _atom_site_type_symbol
 _atom_site_label
 _atom_site_symmetry_multiplicity
 _atom_site_fract_x
 _atom_site_fract_y
 _atom_site_fract_z
 _atom_site_occupancy
  Sm  Sm0  1  0.97072895  0.37606700  0.25201795  1
  Sm  Sm1  1  0.71871090  0.74798200  0.12404895  1
  Sm  Sm2  1  0.59466187  0.87595100  0.62393297  1
  Sm  Sm3  1  0.02927091  0.62393300  0.74798201  1
  Sm  Sm4  1  0.28128897  0.25201800  0.87595101  1
  Sm  Sm5  1  0.40533799  0.12404900  0.37606699  1
  Pt  Pt6  1  0.00000000  0.00000000  0.00000000  1
  Pt  Pt7  1  0.49999985  1.00000000  0.99999999  1
  Pt  Pt8  1  0.94146099  0.16412400  0.49532697  1
  Pt  Pt9  1  0.44613393  0.50467300  0.66879699  1
  Pt  Pt10  1  0.77733696  0.33120300  0.83587599  1
  Pt  Pt11  1  0.05853887  0.83587600  0.50467299  1
  Pt  Pt12  1  0.55386593  0.49532700  0.33120297  1
  Pt  Pt13  1  0.22266290  0.66879700  0.16412398  1
