# generated using pymatgen
data_CaRe7C9
_symmetry_space_group_name_H-M   'P 1'
_cell_length_a   4.24676895
_cell_length_b   4.24676895
_cell_length_c   12.58536243
_cell_angle_alpha   90.00000000
_cell_angle_beta   90.00000000
_cell_angle_gamma   90.00000000
_symmetry_Int_Tables_number   1
_chemical_formula_structural   CaRe7C9
_chemical_formula_sum   'Ca1 Re7 C9'
_cell_volume   226.97759706
_cell_formula_units_Z   1
loop_
 _symmetry_equiv_pos_site_id
 _symmetry_equiv_pos_as_xyz
  1  'x, y, z'
loop_
 _atom_site_type_symbol
 _atom_site_label
 _atom_site_symmetry_multiplicity
 _atom_site_fract_x
 _atom_site_fract_y
 _atom_site_fract_z
 _atom_site_occupancy
  Ca  Ca0  1  0.00000000  0.00000000  0.00000000  1
  Re  Re1  1  0.50000001  0.50000001  0.49999998  1
  Re  Re2  1  0.50000001  0.00000000  0.32844399  1
  Re  Re3  1  -0.00000000  0.50000001  0.32844399  1
  Re  Re4  1  0.50000001  0.00000000  0.67155598  1
  Re  Re5  1  -0.00000000  0.50000001  0.67155598  1
  Re  Re6  1  0.50000001  0.50000001  0.16836099  1
  Re  Re7  1  0.50000001  0.50000001  0.83163897  1
  C  C8  1  -0.00000000  0.50000001  0.49999998  1
  C  C9  1  0.50000001  0.00000000  0.49999998  1
  C  C10  1  0.00000000  0.00000000  0.33470899  1
  C  C11  1  0.00000000  0.00000000  0.66529098  1
  C  C12  1  -0.00000000  0.50000001  0.16083899  1
  C  C13  1  0.50000001  0.00000000  0.16083899  1
  C  C14  1  -0.00000000  0.50000001  0.83916097  1
  C  C15  1  0.50000001  0.00000000  0.83916097  1
  C  C16  1  0.50000001  0.50000001  0.00000000  1
