# generated using pymatgen
data_CaBi(PO4)2
_symmetry_space_group_name_H-M   'P 1'
_cell_length_a   4.89517784
_cell_length_b   4.89517784
_cell_length_c   6.66577244
_cell_angle_alpha   111.54227448
_cell_angle_beta   111.54227448
_cell_angle_gamma   90.00000000
_symmetry_Int_Tables_number   1
_chemical_formula_structural   CaBi(PO4)2
_chemical_formula_sum   'Ca1 Bi1 P2 O8'
_cell_volume   136.50605345
_cell_formula_units_Z   1
loop_
 _symmetry_equiv_pos_site_id
 _symmetry_equiv_pos_as_xyz
  1  'x, y, z'
loop_
 _atom_site_type_symbol
 _atom_site_label
 _atom_site_symmetry_multiplicity
 _atom_site_fract_x
 _atom_site_fract_y
 _atom_site_fract_z
 _atom_site_occupancy
  Ca  Ca0  1  0.50000002  0.50000002  0.00000001  1
  Bi  Bi1  1  0.25000002  0.75000003  0.50000001  1
  P  P2  1  0.00000000  0.00000000  0.00000000  1
  P  P3  1  0.75000003  0.25000001  0.50000001  1
  O  O4  1  0.96033004  0.31575201  0.14607701  1
  O  O5  1  0.58032502  0.21032901  0.64607700  1
  O  O6  1  0.06575201  0.43574802  0.64607800  1
  O  O7  1  0.18574802  0.83032603  0.14607801  1
  O  O8  1  0.56425202  0.41967402  0.35392201  1
  O  O9  1  0.68424803  0.81425203  0.85392201  1
  O  O10  1  0.16967501  0.03967100  0.85392299  1
  O  O11  1  0.78967004  0.93424804  0.35392301  1
