# generated using pymatgen
data_Ce2(SiNi)3
_symmetry_space_group_name_H-M   'P 1'
_cell_length_a   4.01806498
_cell_length_b   4.04290819
_cell_length_c   8.26973534
_cell_angle_alpha   75.85125732
_cell_angle_beta   90.00000000
_cell_angle_gamma   90.00000000
_symmetry_Int_Tables_number   1
_chemical_formula_structural   Ce2(SiNi)3
_chemical_formula_sum   'Ce2 Si3 Ni3'
_cell_volume   130.26384824
_cell_formula_units_Z   1
loop_
 _symmetry_equiv_pos_site_id
 _symmetry_equiv_pos_as_xyz
  1  'x, y, z'
loop_
 _atom_site_type_symbol
 _atom_site_label
 _atom_site_symmetry_multiplicity
 _atom_site_fract_x
 _atom_site_fract_y
 _atom_site_fract_z
 _atom_site_occupancy
  Ce  Ce0  1  0.25000000  0.89403596  0.21192799  1
  Ce  Ce1  1  0.75000000  0.10596400  0.78807199  1
  Si  Si2  1  0.25000000  0.68092697  0.63814598  1
  Ni  Ni3  1  0.75000000  0.31907299  0.36185399  1
  Si  Si4  1  0.25000000  0.54253398  0.91493198  1
  Si  Si5  1  0.75000000  0.45746598  0.08506799  1
  Ni  Ni6  1  0.25000000  0.25076299  0.49847399  1
  Ni  Ni7  1  0.75000000  0.74923697  0.50152598  1
