# generated using pymatgen
data_LiBiS2
_symmetry_space_group_name_H-M   'P 1'
_cell_length_a   5.34572220
_cell_length_b   5.34572220
_cell_length_c   6.53453207
_cell_angle_alpha   114.14431000
_cell_angle_beta   114.14431000
_cell_angle_gamma   90.00000000
_symmetry_Int_Tables_number   1
_chemical_formula_structural   LiBiS2
_chemical_formula_sum   'Li2 Bi2 S4'
_cell_volume   152.32166999
_cell_formula_units_Z   2
loop_
 _symmetry_equiv_pos_site_id
 _symmetry_equiv_pos_as_xyz
  1  'x, y, z'
loop_
 _atom_site_type_symbol
 _atom_site_label
 _atom_site_symmetry_multiplicity
 _atom_site_fract_x
 _atom_site_fract_y
 _atom_site_fract_z
 _atom_site_occupancy
  Li  Li0  1  0.49999994  0.49999996  -0.00000007  1
  Li  Li1  1  0.24999994  0.74999994  0.49999992  1
  Bi  Bi2  1  0.00000000  0.00000000  0.00000000  1
  Bi  Bi3  1  0.74999994  0.24999998  0.49999993  1
  S  S4  1  0.49454490  0.99454492  0.98908987  1
  S  S5  1  0.00545497  0.50545496  0.01090996  1
  S  S6  1  0.74454490  0.74454494  0.48908989  1
  S  S7  1  0.25545497  0.25545498  0.51090996  1
