# generated using pymatgen
data_Li4MnCo3O8
_symmetry_space_group_name_H-M   'P 1'
_cell_length_a   5.13303709
_cell_length_b   5.63832283
_cell_length_c   6.53820896
_cell_angle_alpha   89.92954254
_cell_angle_beta   89.58438873
_cell_angle_gamma   89.96704865
_symmetry_Int_Tables_number   1
_chemical_formula_structural   Li4MnCo3O8
_chemical_formula_sum   'Li4 Mn1 Co3 O8'
_cell_volume   189.22186277
_cell_formula_units_Z   1
loop_
 _symmetry_equiv_pos_site_id
 _symmetry_equiv_pos_as_xyz
  1  'x, y, z'
loop_
 _atom_site_type_symbol
 _atom_site_label
 _atom_site_symmetry_multiplicity
 _atom_site_fract_x
 _atom_site_fract_y
 _atom_site_fract_z
 _atom_site_occupancy
  Li  Li0  1  0.99259204  0.90755802  0.38970697  1
  Li  Li1  1  0.49914303  0.57903301  0.86268198  1
  Li  Li2  1  0.99346001  0.43971001  0.12526797  1
  Li  Li3  1  0.49925000  0.09312900  0.62378698  1
  Mn  Mn4  1  0.50470600  0.08384200  0.12399798  1
  Co  Co5  1  0.98932804  0.90831602  0.85518997  1
  Co  Co6  1  0.50440003  0.57444701  0.39030399  1
  Co  Co7  1  0.99379201  0.41442901  0.62769696  1
  O  O8  1  0.38236206  0.92768702  0.88958500  1
  O  O9  1  0.39012006  0.91890802  0.35918500  1
  O  O10  1  0.88395702  0.58214101  0.86378997  1
  O  O11  1  0.88166102  0.57548701  0.38854397  1
  O  O12  1  0.36295402  0.41745601  0.62597699  1
  O  O13  1  0.39059602  0.40169501  0.12883099  1
  O  O14  1  0.88630499  0.09665600  0.62330096  1
  O  O15  1  0.87177499  0.07950600  0.12215196  1
