# generated using pymatgen
data_Mg4V2WN7
_symmetry_space_group_name_H-M   'P 1'
_cell_length_a   5.93927193
_cell_length_b   6.02010202
_cell_length_c   6.24690294
_cell_angle_alpha   61.22178650
_cell_angle_beta   61.62427521
_cell_angle_gamma   90.01852417
_symmetry_Int_Tables_number   1
_chemical_formula_structural   Mg4V2WN7
_chemical_formula_sum   'Mg4 V2 W1 N7'
_cell_volume   164.47145380
_cell_formula_units_Z   1
loop_
 _symmetry_equiv_pos_site_id
 _symmetry_equiv_pos_as_xyz
  1  'x, y, z'
loop_
 _atom_site_type_symbol
 _atom_site_label
 _atom_site_symmetry_multiplicity
 _atom_site_fract_x
 _atom_site_fract_y
 _atom_site_fract_z
 _atom_site_occupancy
  Mg  Mg0  1  0.00979000  0.00960600  0.98032199  1
  Mg  Mg1  1  0.24022993  0.74048099  0.51963606  1
  Mg  Mg2  1  0.62492797  0.37506399  0.75003504  1
  Mg  Mg3  1  0.62503692  0.87496798  0.75012208  1
  V  V4  1  0.62515097  0.37487299  0.25008004  1
  V  V5  1  0.12472496  0.37480899  0.25017803  1
  N  N6  1  0.87485500  0.15981100  0.68032702  1
  W  W7  1  0.80528795  0.59032299  0.81958906  1
  N  N8  1  0.86993396  0.57850899  0.26028906  1
  N  N9  1  0.86997500  0.16143200  0.25984103  1
  N  N10  1  0.37513895  0.59025499  0.81959705  1
  N  N11  1  0.44477899  0.15971700  0.68035102  1
  N  N12  1  0.38003495  0.58859799  0.24006906  1
  N  N13  1  0.38013299  0.17155500  0.23956402  1
