# generated using pymatgen
data_EuY5(BiS6)2
_symmetry_space_group_name_H-M   'P 1'
_cell_length_a   3.98319292
_cell_length_b   11.08616829
_cell_length_c   11.37274647
_cell_angle_alpha   108.85391998
_cell_angle_beta   90.00000000
_cell_angle_gamma   90.00000000
_symmetry_Int_Tables_number   1
_chemical_formula_structural   EuY5(BiS6)2
_chemical_formula_sum   'Eu1 Y5 Bi2 S12'
_cell_volume   475.25633659
_cell_formula_units_Z   1
loop_
 _symmetry_equiv_pos_site_id
 _symmetry_equiv_pos_as_xyz
  1  'x, y, z'
loop_
 _atom_site_type_symbol
 _atom_site_label
 _atom_site_symmetry_multiplicity
 _atom_site_fract_x
 _atom_site_fract_y
 _atom_site_fract_z
 _atom_site_occupancy
  Eu  Eu0  1  0.25000000  0.95125398  0.80654199  1
  Bi  Bi1  1  0.75000001  0.04874600  0.19345800  1
  Y  Y2  1  0.25000000  0.31943799  0.99947399  1
  Y  Y3  1  0.75000001  0.68056198  0.00052600  1
  Y  Y4  1  0.25000000  0.84017698  0.41403200  1
  Y  Y5  1  0.75000001  0.15982300  0.58596799  1
  Y  Y6  1  0.25000000  0.55827099  0.66734599  1
  Bi  Bi7  1  0.75000001  0.44172899  0.33265400  1
  S  S8  1  0.25000000  0.60643599  0.44264900  1
  S  S9  1  0.75000001  0.39356399  0.55735099  1
  S  S10  1  0.25000000  0.19400900  0.75050699  1
  S  S11  1  0.75000001  0.80599098  0.24949300  1
  S  S12  1  0.25000000  0.52071699  0.88796199  1
  S  S13  1  0.75000001  0.47928299  0.11203800  1
  S  S14  1  0.25000000  0.88470298  0.03760600  1
  S  S15  1  0.75000001  0.11529700  0.96239399  1
  S  S16  1  0.25000000  0.26323199  0.22819700  1
  S  S17  1  0.75000001  0.73676798  0.77180299  1
  S  S18  1  0.25000000  0.08270400  0.40406899  1
  S  S19  1  0.75000001  0.91729598  0.59593099  1
