# generated using pymatgen
data_Ti2AlZnCd3O10
_symmetry_space_group_name_H-M   'P 1'
_cell_length_a   4.90126181
_cell_length_b   6.52850008
_cell_length_c   7.09681702
_cell_angle_alpha   113.14486694
_cell_angle_beta   96.52383423
_cell_angle_gamma   103.84405518
_symmetry_Int_Tables_number   1
_chemical_formula_structural   Ti2AlZnCd3O10
_chemical_formula_sum   'Ti2 Al1 Zn1 Cd3 O10'
_cell_volume   197.17969899
_cell_formula_units_Z   1
loop_
 _symmetry_equiv_pos_site_id
 _symmetry_equiv_pos_as_xyz
  1  'x, y, z'
loop_
 _atom_site_type_symbol
 _atom_site_label
 _atom_site_symmetry_multiplicity
 _atom_site_fract_x
 _atom_site_fract_y
 _atom_site_fract_z
 _atom_site_occupancy
  Cd  Cd0  1  0.61859702  0.22725299  0.72816994  1
  Cd  Cd1  1  0.38140300  0.77274698  0.27182993  1
  Ti  Ti2  1  0.60116101  0.70052598  0.69724192  1
  Ti  Ti3  1  -0.00000001  0.49999999  0.49999996  1
  Cd  Cd4  1  0.39883901  0.29947399  0.30275796  1
  Zn  Zn5  1  0.79913702  0.09870700  0.10373196  1
  Al  Al6  1  0.20086299  0.90129298  0.89626792  1
  O  O7  1  0.67291001  0.60020598  0.42603193  1
  O  O8  1  0.32709000  0.39979399  0.57396795  1
  O  O9  1  0.68606002  0.18225900  0.37131995  1
  O  O10  1  0.09292400  0.40723499  0.23730897  1
  O  O11  1  0.31394000  0.81774098  0.62867992  1
  O  O12  1  0.90707602  0.59276499  0.76269091  1
  O  O13  1  0.11188900  0.00114900  0.17617299  1
  O  O14  1  0.49588501  0.20876999  0.03774297  1
  O  O15  1  0.88811101  0.99885097  0.82382689  1
  O  O16  1  0.50411500  0.79122998  0.96225691  1
