# generated using pymatgen
data_Zr2InPt2
_symmetry_space_group_name_H-M   'P 1'
_cell_length_a   7.06654787
_cell_length_b   7.68438196
_cell_length_c   7.68438196
_cell_angle_alpha   90.00000000
_cell_angle_beta   90.00000000
_cell_angle_gamma   90.00000000
_symmetry_Int_Tables_number   1
_chemical_formula_structural   Zr2InPt2
_chemical_formula_sum   'Zr8 In4 Pt8'
_cell_volume   417.27771648
_cell_formula_units_Z   4
loop_
 _symmetry_equiv_pos_site_id
 _symmetry_equiv_pos_as_xyz
  1  'x, y, z'
loop_
 _atom_site_type_symbol
 _atom_site_label
 _atom_site_symmetry_multiplicity
 _atom_site_fract_x
 _atom_site_fract_y
 _atom_site_fract_z
 _atom_site_occupancy
  Zr  Zr0  1  0.00000000  0.15096100  0.15096100  1
  Zr  Zr1  1  0.00000000  0.84903900  0.84903900  1
  Zr  Zr2  1  0.50000001  0.65096100  0.34903900  1
  Zr  Zr3  1  0.50000001  0.34903900  0.65096100  1
  Zr  Zr4  1  0.00000000  0.68387500  0.31612500  1
  Zr  Zr5  1  0.00000000  0.31612500  0.68387500  1
  Zr  Zr6  1  0.50000001  0.81612500  0.81612500  1
  Zr  Zr7  1  0.50000001  0.18387500  0.18387500  1
  In  In8  1  0.25000000  0.50000000  -0.00000000  1
  In  In9  1  0.75000001  0.50000000  0.00000000  1
  In  In10  1  0.25000000  0.00000000  0.50000000  1
  In  In11  1  0.75000001  0.00000000  0.50000000  1
  Pt  Pt12  1  0.21592800  0.37021700  0.37021700  1
  Pt  Pt13  1  0.78407201  0.62978300  0.62978300  1
  Pt  Pt14  1  0.21592800  0.62978300  0.62978300  1
  Pt  Pt15  1  0.71592801  0.87021700  0.12978300  1
  Pt  Pt16  1  0.28407201  0.87021700  0.12978300  1
  Pt  Pt17  1  0.78407201  0.37021700  0.37021700  1
  Pt  Pt18  1  0.28407201  0.12978300  0.87021700  1
  Pt  Pt19  1  0.71592801  0.12978300  0.87021700  1
