# generated using pymatgen
data_Sn7Rh3
_symmetry_space_group_name_H-M   'P 1'
_cell_length_a   8.23332405
_cell_length_b   8.23332405
_cell_length_c   8.23332405
_cell_angle_alpha   109.47122192
_cell_angle_beta   109.47122192
_cell_angle_gamma   109.47122192
_symmetry_Int_Tables_number   1
_chemical_formula_structural   Sn7Rh3
_chemical_formula_sum   'Sn14 Rh6'
_cell_volume   429.63901797
_cell_formula_units_Z   2
loop_
 _symmetry_equiv_pos_site_id
 _symmetry_equiv_pos_as_xyz
  1  'x, y, z'
loop_
 _atom_site_type_symbol
 _atom_site_label
 _atom_site_symmetry_multiplicity
 _atom_site_fract_x
 _atom_site_fract_y
 _atom_site_fract_z
 _atom_site_occupancy
  Sn  Sn0  1  0.50000004  0.25000002  0.75000005  1
  Sn  Sn1  1  0.75000004  0.25000002  0.50000005  1
  Sn  Sn2  1  0.25000006  0.75000005  0.50000006  1
  Sn  Sn3  1  0.75000006  0.50000004  0.25000005  1
  Sn  Sn4  1  0.25000004  0.50000004  0.75000006  1
  Sn  Sn5  1  0.50000007  0.75000005  0.25000006  1
  Sn  Sn6  1  0.67804003  0.00000000  1.00000005  1
  Sn  Sn7  1  0.67804007  0.67804005  0.67804007  1
  Sn  Sn8  1  0.00000000  0.00000000  0.32196001  1
  Sn  Sn9  1  0.00000002  0.32196002  0.00000002  1
  Sn  Sn10  1  0.00000000  0.00000000  0.67804002  1
  Sn  Sn11  1  0.00000004  0.67804005  0.00000004  1
  Sn  Sn12  1  0.32196003  0.32196002  0.32196004  1
  Sn  Sn13  1  0.32196001  0.00000000  0.00000001  1
  Rh  Rh14  1  0.00000004  0.65590105  0.65590106  1
  Rh  Rh15  1  0.65590107  0.65590105  1.00000008  1
  Rh  Rh16  1  0.34409904  0.34409902  1.00000006  1
  Rh  Rh17  1  0.34409901  0.00000000  0.34409902  1
  Rh  Rh18  1  0.65590103  0.00000000  0.65590104  1
  Rh  Rh19  1  0.00000002  0.34409902  0.34409903  1
