# generated using pymatgen
data_Mg2GeBiO6
_symmetry_space_group_name_H-M   'P 1'
_cell_length_a   5.46790314
_cell_length_b   7.41586399
_cell_length_c   7.41586399
_cell_angle_alpha   114.62744904
_cell_angle_beta   90.00000000
_cell_angle_gamma   90.00000000
_symmetry_Int_Tables_number   1
_chemical_formula_structural   Mg2GeBiO6
_chemical_formula_sum   'Mg4 Ge2 Bi2 O12'
_cell_volume   273.35415647
_cell_formula_units_Z   2
loop_
 _symmetry_equiv_pos_site_id
 _symmetry_equiv_pos_as_xyz
  1  'x, y, z'
loop_
 _atom_site_type_symbol
 _atom_site_label
 _atom_site_symmetry_multiplicity
 _atom_site_fract_x
 _atom_site_fract_y
 _atom_site_fract_z
 _atom_site_occupancy
  Mg  Mg0  1  0.74999998  0.89624903  0.71153306  1
  Mg  Mg1  1  0.24999999  0.71153303  0.89624905  1
  Mg  Mg2  1  0.74999998  0.28846701  0.10375102  1
  Mg  Mg3  1  0.24999999  0.10375100  0.28846701  1
  Bi  Bi4  1  0.74999998  0.40799002  0.59201003  1
  Bi  Bi5  1  0.24999999  0.59201002  0.40799004  1
  Ge  Ge6  1  0.74999998  0.80208603  0.19791405  1
  Ge  Ge7  1  0.24999999  0.19791401  0.80208602  1
  O  O8  1  0.99288698  0.11720400  0.88279602  1
  O  O9  1  0.74999998  0.90486604  0.44942506  1
  O  O10  1  0.99999997  0.32973301  0.32973302  1
  O  O11  1  0.74999998  0.55057502  0.09513403  1
  O  O12  1  0.49288699  0.88279603  0.11720405  1
  O  O13  1  0.99999997  0.67026703  0.67026705  1
  O  O14  1  0.49999999  0.32973301  0.32973302  1
  O  O15  1  0.24999999  0.44942502  0.90486604  1
  O  O16  1  0.49999999  0.67026703  0.67026705  1
  O  O17  1  0.50711299  0.11720400  0.88279602  1
  O  O18  1  0.00711300  0.88279603  0.11720405  1
  O  O19  1  0.24999999  0.09513400  0.55057501  1
