# generated using pymatgen
data_TiFe2Re
_symmetry_space_group_name_H-M   'P 1'
_cell_length_a   4.30886078
_cell_length_b   5.40657187
_cell_length_c   5.40657234
_cell_angle_alpha   60.00000000
_cell_angle_beta   90.00000000
_cell_angle_gamma   90.00000000
_symmetry_Int_Tables_number   1
_chemical_formula_structural   TiFe2Re
_chemical_formula_sum   'Ti2 Fe4 Re2'
_cell_volume   109.07798139
_cell_formula_units_Z   2
loop_
 _symmetry_equiv_pos_site_id
 _symmetry_equiv_pos_as_xyz
  1  'x, y, z'
loop_
 _atom_site_type_symbol
 _atom_site_label
 _atom_site_symmetry_multiplicity
 _atom_site_fract_x
 _atom_site_fract_y
 _atom_site_fract_z
 _atom_site_occupancy
  Ti  Ti0  1  0.25000001  0.33333335  0.33333332  1
  Ti  Ti1  1  0.75000004  0.66666669  0.66666664  1
  Fe  Fe2  1  0.75000004  0.66015003  0.16992498  1
  Fe  Fe3  1  0.75000004  0.16992501  0.16992499  1
  Fe  Fe4  1  0.75000004  0.16992501  0.66014998  1
  Fe  Fe5  1  0.25000001  0.33985001  0.83007498  1
  Re  Re6  1  0.25000001  0.83007503  0.83007496  1
  Re  Re7  1  0.25000001  0.83007503  0.33984997  1
