# generated using pymatgen
data_Lu4In3GeSe8
_symmetry_space_group_name_H-M   'P 1'
_cell_length_a   4.24621105
_cell_length_b   6.82197523
_cell_length_c   13.74417973
_cell_angle_alpha   90.00000000
_cell_angle_beta   90.00000000
_cell_angle_gamma   90.00000000
_symmetry_Int_Tables_number   1
_chemical_formula_structural   Lu4In3GeSe8
_chemical_formula_sum   'Lu4 In3 Ge1 Se8'
_cell_volume   398.13516699
_cell_formula_units_Z   1
loop_
 _symmetry_equiv_pos_site_id
 _symmetry_equiv_pos_as_xyz
  1  'x, y, z'
loop_
 _atom_site_type_symbol
 _atom_site_label
 _atom_site_symmetry_multiplicity
 _atom_site_fract_x
 _atom_site_fract_y
 _atom_site_fract_z
 _atom_site_occupancy
  Lu  Lu0  1  0.22152000  0.29280099  0.12768600  1
  Lu  Lu1  1  0.72151999  0.20719899  0.87231402  1
  Lu  Lu2  1  0.77847999  0.79280097  0.37231401  1
  Lu  Lu3  1  0.27848000  0.70719898  0.62768601  1
  In  In4  1  0.50705599  0.70569698  0.87358402  1
  In  In5  1  0.49294399  0.20569699  0.62641601  1
  In  In6  1  0.00705600  0.79430297  0.12641600  1
  Ge  Ge7  1  0.99294399  0.29430299  0.37358401  1
  Se  Se8  1  0.77085499  0.51231798  0.52708401  1
  Se  Se9  1  0.27085500  0.98768197  0.47291601  1
  Se  Se10  1  0.22914500  0.01231800  0.97291602  1
  Se  Se11  1  0.72914499  0.48768198  0.02708400  1
  Se  Se12  1  0.77717899  0.91143997  0.72606401  1
  Se  Se13  1  0.72282099  0.08856000  0.22606400  1
  Se  Se14  1  0.22282100  0.41143999  0.77393602  1
  Se  Se15  1  0.27717900  0.58855998  0.27393601  1
