# generated using pymatgen
data_NaInO2
_symmetry_space_group_name_H-M   'P 1'
_cell_length_a   3.25961423
_cell_length_b   3.25961423
_cell_length_c   5.93971729
_cell_angle_alpha   74.07425690
_cell_angle_beta   74.07425690
_cell_angle_gamma   59.99999619
_symmetry_Int_Tables_number   1
_chemical_formula_structural   NaInO2
_chemical_formula_sum   'Na1 In1 O2'
_cell_volume   51.83899262
_cell_formula_units_Z   1
loop_
 _symmetry_equiv_pos_site_id
 _symmetry_equiv_pos_as_xyz
  1  'x, y, z'
loop_
 _atom_site_type_symbol
 _atom_site_label
 _atom_site_symmetry_multiplicity
 _atom_site_fract_x
 _atom_site_fract_y
 _atom_site_fract_z
 _atom_site_occupancy
  Na  Na0  1  0.00000000  0.00000000  0.00000000  1
  In  In1  1  0.50000003  0.50000000  0.49999999  1
  O  O2  1  0.25817801  0.25817800  0.22546599  1
  O  O3  1  0.74182204  0.74182200  0.77453398  1
