# generated using pymatgen
data_Sc2CdSe4
_symmetry_space_group_name_H-M   'P 1'
_cell_length_a   8.04241371
_cell_length_b   8.04241371
_cell_length_c   8.04241371
_cell_angle_alpha   60.00000000
_cell_angle_beta   60.00000000
_cell_angle_gamma   60.00000000
_symmetry_Int_Tables_number   1
_chemical_formula_structural   Sc2CdSe4
_chemical_formula_sum   'Sc4 Cd2 Se8'
_cell_volume   367.82753108
_cell_formula_units_Z   2
loop_
 _symmetry_equiv_pos_site_id
 _symmetry_equiv_pos_as_xyz
  1  'x, y, z'
loop_
 _atom_site_type_symbol
 _atom_site_label
 _atom_site_symmetry_multiplicity
 _atom_site_fract_x
 _atom_site_fract_y
 _atom_site_fract_z
 _atom_site_occupancy
  Sc  Sc0  1  0.37499998  0.37499998  0.87499996  1
  Sc  Sc1  1  0.37499998  0.37499998  0.37499998  1
  Sc  Sc2  1  0.37499998  0.87499996  0.37499998  1
  Sc  Sc3  1  0.87499996  0.37499998  0.37499998  1
  Cd  Cd4  1  0.74999996  0.74999996  0.74999996  1
  Cd  Cd5  1  0.00000000  0.00000000  0.00000000  1
  Se  Se6  1  0.61468397  0.61468297  0.15594999  1
  Se  Se7  1  0.61468397  0.61468297  0.61468297  1
  Se  Se8  1  0.61468397  0.15594999  0.61468297  1
  Se  Se9  1  0.15595099  0.61468297  0.61468297  1
  Se  Se10  1  0.13531599  0.13531699  0.59404997  1
  Se  Se11  1  0.13531599  0.13531699  0.13531699  1
  Se  Se12  1  0.13531599  0.59404997  0.13531699  1
  Se  Se13  1  0.59404897  0.13531699  0.13531699  1
