# generated using pymatgen
data_Rb2ZnCuNiS7
_symmetry_space_group_name_H-M   'P 1'
_cell_length_a   7.17898226
_cell_length_b   7.17898226
_cell_length_c   7.69665575
_cell_angle_alpha   62.20106506
_cell_angle_beta   62.20106506
_cell_angle_gamma   59.99999619
_symmetry_Int_Tables_number   1
_chemical_formula_structural   Rb2ZnCuNiS7
_chemical_formula_sum   'Rb2 Zn1 Cu1 Ni1 S7'
_cell_volume   289.45905623
_cell_formula_units_Z   1
loop_
 _symmetry_equiv_pos_site_id
 _symmetry_equiv_pos_as_xyz
  1  'x, y, z'
loop_
 _atom_site_type_symbol
 _atom_site_label
 _atom_site_symmetry_multiplicity
 _atom_site_fract_x
 _atom_site_fract_y
 _atom_site_fract_z
 _atom_site_occupancy
  Rb  Rb0  1  0.69395594  0.69395600  0.91813205  1
  Rb  Rb1  1  0.30604398  0.30604400  0.08186802  1
  Zn  Zn2  1  0.49999996  0.50000000  0.50000004  1
  Cu  Cu3  1  0.00000000  0.00000000  0.50000000  1
  Ni  Ni4  1  0.49999993  1.00000000  0.50000006  1
  S  S5  1  -0.00000003  0.50000000  0.50000002  1
  S  S6  1  0.73034097  0.21809200  0.32122603  1
  S  S7  1  0.73034094  0.73034100  0.32122605  1
  S  S8  1  0.21809195  0.73034100  0.32122604  1
  S  S9  1  0.78190797  0.26965900  0.67877404  1
  S  S10  1  0.26965895  0.78190800  0.67877404  1
  S  S11  1  0.26965898  0.26965900  0.67877402  1
