# generated using pymatgen
data_LuBr3
_symmetry_space_group_name_H-M   'P 1'
_cell_length_a   3.69259810
_cell_length_b   10.36736393
_cell_length_c   10.36736393
_cell_angle_alpha   120.00000000
_cell_angle_beta   90.00000000
_cell_angle_gamma   90.00000000
_symmetry_Int_Tables_number   1
_chemical_formula_structural   LuBr3
_chemical_formula_sum   'Lu2 Br6'
_cell_volume   343.71569380
_cell_formula_units_Z   2
loop_
 _symmetry_equiv_pos_site_id
 _symmetry_equiv_pos_as_xyz
  1  'x, y, z'
loop_
 _atom_site_type_symbol
 _atom_site_label
 _atom_site_symmetry_multiplicity
 _atom_site_fract_x
 _atom_site_fract_y
 _atom_site_fract_z
 _atom_site_occupancy
  Lu  Lu0  1  0.24999999  0.66666666  0.33333330  1
  Lu  Lu1  1  0.74999998  0.33333333  0.66666663  1
  Br  Br2  1  0.74999998  0.78368099  0.21631896  1
  Br  Br3  1  0.74999998  0.43263800  0.21631898  1
  Br  Br4  1  0.74999998  0.78368099  0.56736195  1
  Br  Br5  1  0.24999999  0.21631900  0.78368096  1
  Br  Br6  1  0.24999999  0.56736199  0.78368095  1
  Br  Br7  1  0.24999999  0.21631900  0.43263797  1
