# generated using pymatgen
data_ZrSiRh
_symmetry_space_group_name_H-M   'P 1'
_cell_length_a   3.93053603
_cell_length_b   6.51455307
_cell_length_c   7.45587397
_cell_angle_alpha   90.00000000
_cell_angle_beta   90.00000000
_cell_angle_gamma   90.00000000
_symmetry_Int_Tables_number   1
_chemical_formula_structural   ZrSiRh
_chemical_formula_sum   'Zr4 Si4 Rh4'
_cell_volume   190.91276445
_cell_formula_units_Z   4
loop_
 _symmetry_equiv_pos_site_id
 _symmetry_equiv_pos_as_xyz
  1  'x, y, z'
loop_
 _atom_site_type_symbol
 _atom_site_label
 _atom_site_symmetry_multiplicity
 _atom_site_fract_x
 _atom_site_fract_y
 _atom_site_fract_z
 _atom_site_occupancy
  Zr  Zr0  1  0.25000000  0.52023199  0.18419700  1
  Zr  Zr1  1  0.74999999  0.47976799  0.81580300  1
  Zr  Zr2  1  0.25000000  0.02023200  0.31580300  1
  Zr  Zr3  1  0.74999999  0.97976799  0.68419700  1
  Si  Si4  1  0.25000000  0.77359599  0.88222700  1
  Si  Si5  1  0.74999999  0.22640400  0.11777300  1
  Si  Si6  1  0.25000000  0.27359600  0.61777300  1
  Si  Si7  1  0.74999999  0.72640399  0.38222700  1
  Rh  Rh8  1  0.74999999  0.84919199  0.06502300  1
  Rh  Rh9  1  0.25000000  0.15080800  0.93497700  1
  Rh  Rh10  1  0.74999999  0.34919200  0.43497700  1
  Rh  Rh11  1  0.25000000  0.65080799  0.56502300  1
