# generated using pymatgen
data_HoCrO4
_symmetry_space_group_name_H-M   'P 1'
_cell_length_a   6.04783821
_cell_length_b   6.04783821
_cell_length_c   6.04783821
_cell_angle_alpha   106.16458130
_cell_angle_beta   106.16458130
_cell_angle_gamma   116.30855560
_symmetry_Int_Tables_number   1
_chemical_formula_structural   HoCrO4
_chemical_formula_sum   'Ho2 Cr2 O8'
_cell_volume   168.44619637
_cell_formula_units_Z   2
loop_
 _symmetry_equiv_pos_site_id
 _symmetry_equiv_pos_as_xyz
  1  'x, y, z'
loop_
 _atom_site_type_symbol
 _atom_site_label
 _atom_site_symmetry_multiplicity
 _atom_site_fract_x
 _atom_site_fract_y
 _atom_site_fract_z
 _atom_site_occupancy
  Ho  Ho0  1  0.74999997  0.24999998  0.49999996  1
  Ho  Ho1  1  0.00000000  0.00000000  0.00000000  1
  Cr  Cr2  1  0.24999992  0.74999995  0.49999994  1
  Cr  Cr3  1  0.49999994  0.49999997  -0.00000005  1
  O  O4  1  0.07664292  0.76127595  0.68463294  1
  O  O5  1  0.50565996  0.32311598  0.18254396  1
  O  O6  1  0.14057196  0.32311598  0.81745597  1
  O  O7  1  0.07664296  0.39200997  0.31536697  1
  O  O8  1  0.67688394  0.49433997  0.81745594  1
  O  O9  1  0.23872390  0.92335694  0.31536692  1
  O  O10  1  0.60798990  0.92335694  0.68463291  1
  O  O11  1  0.67688390  0.85942794  0.18254392  1
