# generated using pymatgen
data_Y2MgGe2
_symmetry_space_group_name_H-M   'P 1'
_cell_length_a   3.96115494
_cell_length_b   7.91002989
_cell_length_c   7.91002989
_cell_angle_alpha   90.00000000
_cell_angle_beta   90.00000000
_cell_angle_gamma   90.00000000
_symmetry_Int_Tables_number   1
_chemical_formula_structural   Y2MgGe2
_chemical_formula_sum   'Y4 Mg2 Ge4'
_cell_volume   247.84381122
_cell_formula_units_Z   2
loop_
 _symmetry_equiv_pos_site_id
 _symmetry_equiv_pos_as_xyz
  1  'x, y, z'
loop_
 _atom_site_type_symbol
 _atom_site_label
 _atom_site_symmetry_multiplicity
 _atom_site_fract_x
 _atom_site_fract_y
 _atom_site_fract_z
 _atom_site_occupancy
  Y  Y0  1  0.50000001  0.83486801  0.66513201  1
  Y  Y1  1  0.50000001  0.33486800  0.83486801  1
  Y  Y2  1  0.50000001  0.16513200  0.33486800  1
  Y  Y3  1  0.50000001  0.66513201  0.16513200  1
  Mg  Mg4  1  0.00000000  0.50000001  0.50000001  1
  Mg  Mg5  1  0.00000000  0.00000000  0.00000000  1
  Ge  Ge6  1  0.00000000  0.13147200  0.63147201  1
  Ge  Ge7  1  0.00000000  0.63147201  0.86852801  1
  Ge  Ge8  1  0.00000000  0.36852801  0.13147200  1
  Ge  Ge9  1  0.00000000  0.86852801  0.36852801  1
