# generated using pymatgen
data_La3TiSb5
_symmetry_space_group_name_H-M   'P 1'
_cell_length_a   6.29173183
_cell_length_b   9.44531155
_cell_length_c   9.44531155
_cell_angle_alpha   120.00000000
_cell_angle_beta   90.00000000
_cell_angle_gamma   90.00000000
_symmetry_Int_Tables_number   1
_chemical_formula_structural   La3TiSb5
_chemical_formula_sum   'La6 Ti2 Sb10'
_cell_volume   486.10871847
_cell_formula_units_Z   2
loop_
 _symmetry_equiv_pos_site_id
 _symmetry_equiv_pos_as_xyz
  1  'x, y, z'
loop_
 _atom_site_type_symbol
 _atom_site_label
 _atom_site_symmetry_multiplicity
 _atom_site_fract_x
 _atom_site_fract_y
 _atom_site_fract_z
 _atom_site_occupancy
  La  La0  1  0.25000001  0.38192602  0.38192601  1
  La  La1  1  0.75000002  0.61807403  0.61807402  1
  La  La2  1  0.25000001  1.00000004  0.61807401  1
  La  La3  1  0.75000002  0.00000000  0.38192601  1
  La  La4  1  0.25000001  0.61807403  1.00000003  1
  La  La5  1  0.75000002  0.38192602  1.00000003  1
  Ti  Ti6  1  0.50000001  0.00000000  -0.00000000  1
  Ti  Ti7  1  0.00000000  0.00000000  0.00000000  1
  Sb  Sb8  1  0.25000001  0.74645603  0.74645602  1
  Sb  Sb9  1  0.75000002  0.25354401  0.25354401  1
  Sb  Sb10  1  0.25000001  1.00000004  0.25354400  1
  Sb  Sb11  1  0.75000002  1.00000004  0.74645602  1
  Sb  Sb12  1  0.25000001  0.25354401  -0.00000000  1
  Sb  Sb13  1  0.75000002  0.74645603  -0.00000001  1
  Sb  Sb14  1  0.50000001  0.66666670  0.33333334  1
  Sb  Sb15  1  0.50000001  0.33333335  0.66666669  1
  Sb  Sb16  1  1.00000003  0.33333335  0.66666669  1
  Sb  Sb17  1  -0.00000000  0.66666670  0.33333334  1
