# generated using pymatgen
data_Cu2P2Pt3
_symmetry_space_group_name_H-M   'P 1'
_cell_length_a   6.67260313
_cell_length_b   6.67265320
_cell_length_c   7.43905878
_cell_angle_alpha   90.00314331
_cell_angle_beta   116.63973999
_cell_angle_gamma   119.99877167
_symmetry_Int_Tables_number   1
_chemical_formula_structural   Cu2P2Pt3
_chemical_formula_sum   'Cu4 P4 Pt6'
_cell_volume   245.40209776
_cell_formula_units_Z   2
loop_
 _symmetry_equiv_pos_site_id
 _symmetry_equiv_pos_as_xyz
  1  'x, y, z'
loop_
 _atom_site_type_symbol
 _atom_site_label
 _atom_site_symmetry_multiplicity
 _atom_site_fract_x
 _atom_site_fract_y
 _atom_site_fract_z
 _atom_site_occupancy
  Cu  Cu0  1  0.99965794  0.99982297  0.99947690  1
  Cu  Cu1  1  0.33367598  0.66684398  0.00052296  1
  Cu  Cu2  1  0.75767796  0.54800898  0.62952494  1
  Cu  Cu3  1  0.08159900  0.20979099  0.62961298  1
  P  P4  1  0.41978797  0.87187897  0.62961694  1
  P  P5  1  0.91354395  0.79478698  0.37038293  1
  P  P6  1  0.25173499  0.45687599  0.37038697  1
  P  P7  1  0.57565597  0.11865800  0.37047496  1
  Pt  Pt8  1  0.16736799  0.75085798  0.25215796  1
  Pt  Pt9  1  0.83574595  0.08485100  0.25215995  1
  Pt  Pt10  1  0.50129797  0.41642899  0.25211296  1
  Pt  Pt11  1  0.83203395  0.25023699  0.74788694  1
  Pt  Pt12  1  0.49758797  0.58181598  0.74783994  1
  Pt  Pt13  1  0.16596599  0.91580897  0.74784195  1
