# generated using pymatgen
data_ZrRh
_symmetry_space_group_name_H-M   'P 1'
_cell_length_a   3.38626409
_cell_length_b   4.40985584
_cell_length_c   10.04368496
_cell_angle_alpha   90.00000000
_cell_angle_beta   99.70507813
_cell_angle_gamma   90.00000000
_symmetry_Int_Tables_number   1
_chemical_formula_structural   ZrRh
_chemical_formula_sum   'Zr4 Rh4'
_cell_volume   147.83525092
_cell_formula_units_Z   4
loop_
 _symmetry_equiv_pos_site_id
 _symmetry_equiv_pos_as_xyz
  1  'x, y, z'
loop_
 _atom_site_type_symbol
 _atom_site_label
 _atom_site_symmetry_multiplicity
 _atom_site_fract_x
 _atom_site_fract_y
 _atom_site_fract_z
 _atom_site_occupancy
  Zr  Zr0  1  0.43846899  0.75000003  0.87693799  1
  Zr  Zr1  1  0.30492099  0.25000001  0.60984199  1
  Zr  Zr2  1  0.69507898  0.75000003  0.39015799  1
  Zr  Zr3  1  0.56153098  0.25000001  0.12306199  1
  Rh  Rh4  1  0.05683800  0.75000003  0.11367600  1
  Rh  Rh5  1  0.94316197  0.25000001  0.88632399  1
  Rh  Rh6  1  0.16853499  0.25000001  0.33707000  1
  Rh  Rh7  1  0.83146497  0.75000003  0.66292999  1
