# generated using pymatgen
data_La2GaP6Ru
_symmetry_space_group_name_H-M   'P 1'
_cell_length_a   6.00249720
_cell_length_b   6.07672691
_cell_length_c   6.12689781
_cell_angle_alpha   63.79212570
_cell_angle_beta   62.45159531
_cell_angle_gamma   61.31552505
_symmetry_Int_Tables_number   1
_chemical_formula_structural   La2GaP6Ru
_chemical_formula_sum   'La2 Ga1 P6 Ru1'
_cell_volume   166.75248718
_cell_formula_units_Z   1
loop_
 _symmetry_equiv_pos_site_id
 _symmetry_equiv_pos_as_xyz
  1  'x, y, z'
loop_
 _atom_site_type_symbol
 _atom_site_label
 _atom_site_symmetry_multiplicity
 _atom_site_fract_x
 _atom_site_fract_y
 _atom_site_fract_z
 _atom_site_occupancy
  La  La0  1  0.25456900  0.23592401  0.25535300  1
  La  La1  1  0.74543100  0.76407602  0.74464700  1
  Ga  Ga2  1  0.50000000  0.50000001  0.50000000  1
  Ru  Ru3  1  0.00000000  0.00000000  0.00000000  1
  P  P4  1  0.22720700  0.82517802  0.69610799  1
  P  P5  1  0.31997800  0.76685702  0.16540199  1
  P  P6  1  0.17489900  0.30277901  0.75941900  1
  P  P7  1  0.77279299  0.17482200  0.30389202  1
  P  P8  1  0.68002199  0.23314301  0.83459801  1
  P  P9  1  0.82510100  0.69722102  0.24058101  1
