# generated using pymatgen
data_WO2
_symmetry_space_group_name_H-M   'P 1'
_cell_length_a   5.61114740
_cell_length_b   5.61114740
_cell_length_c   7.93513203
_cell_angle_alpha   96.68328094
_cell_angle_beta   109.87927246
_cell_angle_gamma   110.76543427
_symmetry_Int_Tables_number   1
_chemical_formula_structural   WO2
_chemical_formula_sum   'W4 O8'
_cell_volume   211.56180143
_cell_formula_units_Z   4
loop_
 _symmetry_equiv_pos_site_id
 _symmetry_equiv_pos_as_xyz
  1  'x, y, z'
loop_
 _atom_site_type_symbol
 _atom_site_label
 _atom_site_symmetry_multiplicity
 _atom_site_fract_x
 _atom_site_fract_y
 _atom_site_fract_z
 _atom_site_occupancy
  W  W0  1  0.00000000  0.00000000  0.00000000  1
  W  W1  1  0.50000000  0.00000000  0.50000001  1
  W  W2  1  0.67718704  0.92718699  0.75000001  1
  O  O3  1  0.32281300  0.07281300  0.25000001  1
  W  W4  1  0.40092401  0.24275700  0.61661300  1
  O  O5  1  0.12614404  0.78431099  0.88338698  1
  O  O6  1  0.22919501  0.30447100  0.95413898  1
  O  O7  1  0.85033201  0.27505600  0.54586102  1
  O  O8  1  0.77080503  0.69552899  0.04586104  1
  O  O9  1  0.14966804  0.72494399  0.45413900  1
  O  O10  1  0.87385601  0.21568900  0.11661304  1
  O  O11  1  0.59907603  0.75724299  0.38338702  1
