# generated using pymatgen
data_LiNiN
_symmetry_space_group_name_H-M   'P 1'
_cell_length_a   3.79244590
_cell_length_b   3.91569805
_cell_length_c   10.08251667
_cell_angle_alpha   90.00000000
_cell_angle_beta   90.00000000
_cell_angle_gamma   90.00000000
_symmetry_Int_Tables_number   1
_chemical_formula_structural   LiNiN
_chemical_formula_sum   'Li4 Ni4 N4'
_cell_volume   149.72610871
_cell_formula_units_Z   4
loop_
 _symmetry_equiv_pos_site_id
 _symmetry_equiv_pos_as_xyz
  1  'x, y, z'
loop_
 _atom_site_type_symbol
 _atom_site_label
 _atom_site_symmetry_multiplicity
 _atom_site_fract_x
 _atom_site_fract_y
 _atom_site_fract_z
 _atom_site_occupancy
  Li  Li0  1  0.00000000  0.30428300  0.00000000  1
  Li  Li1  1  0.50000001  0.69571699  0.50000002  1
  Li  Li2  1  0.00000000  0.15665400  0.34140801  1
  Li  Li3  1  0.00000000  0.15665400  0.65859202  1
  Ni  Ni4  1  0.50000001  0.84334599  0.84140803  1
  Ni  Ni5  1  0.50000001  0.84334599  0.15859201  1
  Ni  Ni6  1  0.00000000  0.90946699  0.82005303  1
  Ni  Ni7  1  0.00000000  0.39224399  0.50000002  1
  N  N8  1  0.00000000  0.90946699  0.17994701  1
  N  N9  1  0.50000001  0.60775599  0.00000000  1
  N  N10  1  0.50000001  0.09053300  0.32005301  1
  N  N11  1  0.50000001  0.09053300  0.67994702  1
