# generated using pymatgen
data_YCoBC
_symmetry_space_group_name_H-M   'P 1'
_cell_length_a   3.59005094
_cell_length_b   3.59005094
_cell_length_c   7.54355383
_cell_angle_alpha   90.00000000
_cell_angle_beta   90.00000000
_cell_angle_gamma   90.00000000
_symmetry_Int_Tables_number   1
_chemical_formula_structural   YCoBC
_chemical_formula_sum   'Y2 Co2 B2 C2'
_cell_volume   97.22483494
_cell_formula_units_Z   2
loop_
 _symmetry_equiv_pos_site_id
 _symmetry_equiv_pos_as_xyz
  1  'x, y, z'
loop_
 _atom_site_type_symbol
 _atom_site_label
 _atom_site_symmetry_multiplicity
 _atom_site_fract_x
 _atom_site_fract_y
 _atom_site_fract_z
 _atom_site_occupancy
  Y  Y0  1  0.50000001  0.00000000  0.83484402  1
  Y  Y1  1  -0.00000000  0.50000001  0.16515600  1
  Co  Co2  1  0.50000001  0.50000001  0.50000001  1
  Co  Co3  1  0.00000000  0.00000000  0.50000001  1
  B  B4  1  -0.00000000  0.50000001  0.64371701  1
  B  B5  1  0.50000001  0.00000000  0.35628301  1
  C  C6  1  0.50000001  0.00000000  0.15810000  1
  C  C7  1  -0.00000000  0.50000001  0.84190002  1
