# generated using pymatgen
data_Ca2TcN3
_symmetry_space_group_name_H-M   'P 1'
_cell_length_a   3.42632389
_cell_length_b   3.92053199
_cell_length_c   6.74170542
_cell_angle_alpha   106.90388489
_cell_angle_beta   104.72109222
_cell_angle_gamma   90.00000000
_symmetry_Int_Tables_number   1
_chemical_formula_structural   Ca2TcN3
_chemical_formula_sum   'Ca2 Tc1 N3'
_cell_volume   83.53673456
_cell_formula_units_Z   1
loop_
 _symmetry_equiv_pos_site_id
 _symmetry_equiv_pos_as_xyz
  1  'x, y, z'
loop_
 _atom_site_type_symbol
 _atom_site_label
 _atom_site_symmetry_multiplicity
 _atom_site_fract_x
 _atom_site_fract_y
 _atom_site_fract_z
 _atom_site_occupancy
  Ca  Ca0  1  0.35127199  0.85127200  0.70254399  1
  Ca  Ca1  1  0.64691101  0.14691100  0.29382199  1
  Tc  Tc2  1  0.00012999  0.50013000  0.00026000  1
  N  N3  1  0.15531899  0.65531900  0.31063799  1
  N  N4  1  0.83982301  0.33982300  0.67964599  1
  N  N5  1  0.00654500  0.00654500  0.01309000  1
