# generated using pymatgen
data_Sm5Bi3
_symmetry_space_group_name_H-M   'P 1'
_cell_length_a   6.67142105
_cell_length_b   9.08628559
_cell_length_c   9.08628654
_cell_angle_alpha   120.00000000
_cell_angle_beta   90.00000000
_cell_angle_gamma   90.00000000
_symmetry_Int_Tables_number   1
_chemical_formula_structural   Sm5Bi3
_chemical_formula_sum   'Sm10 Bi6'
_cell_volume   477.00375109
_cell_formula_units_Z   2
loop_
 _symmetry_equiv_pos_site_id
 _symmetry_equiv_pos_as_xyz
  1  'x, y, z'
loop_
 _atom_site_type_symbol
 _atom_site_label
 _atom_site_symmetry_multiplicity
 _atom_site_fract_x
 _atom_site_fract_y
 _atom_site_fract_z
 _atom_site_occupancy
  Sm  Sm0  1  -0.00000000  0.66666671  0.33333335  1
  Sm  Sm1  1  0.50000000  0.33333335  0.66666667  1
  Sm  Sm2  1  -0.00000000  0.33333335  0.66666667  1
  Sm  Sm3  1  0.50000000  0.66666671  0.33333335  1
  Sm  Sm4  1  0.74999999  0.76519505  0.76519501  1
  Sm  Sm5  1  0.25000000  0.76519505  1.00000001  1
  Sm  Sm6  1  0.25000000  0.00000000  0.76519499  1
  Sm  Sm7  1  0.74999999  1.00000006  0.23480503  1
  Sm  Sm8  1  0.74999999  0.23480501  0.99999999  1
  Sm  Sm9  1  0.25000000  0.23480501  0.23480500  1
  Bi  Bi10  1  0.74999999  0.40234302  0.40234301  1
  Bi  Bi11  1  0.25000000  0.40234302  1.00000000  1
  Bi  Bi12  1  0.25000000  0.00000000  0.40234299  1
  Bi  Bi13  1  0.74999999  0.00000000  0.59765699  1
  Bi  Bi14  1  0.74999999  0.59765704  1.00000001  1
  Bi  Bi15  1  0.25000000  0.59765704  0.59765701  1
