# generated using pymatgen
data_PrIn2
_symmetry_space_group_name_H-M   'P 1'
_cell_length_a   4.80862379
_cell_length_b   4.80862379
_cell_length_c   16.18562126
_cell_angle_alpha   98.54268646
_cell_angle_beta   98.54268646
_cell_angle_gamma   90.00000000
_symmetry_Int_Tables_number   1
_chemical_formula_structural   PrIn2
_chemical_formula_sum   'Pr4 In8'
_cell_volume   365.90635137
_cell_formula_units_Z   4
loop_
 _symmetry_equiv_pos_site_id
 _symmetry_equiv_pos_as_xyz
  1  'x, y, z'
loop_
 _atom_site_type_symbol
 _atom_site_label
 _atom_site_symmetry_multiplicity
 _atom_site_fract_x
 _atom_site_fract_y
 _atom_site_fract_z
 _atom_site_occupancy
  Pr  Pr0  1  0.82400605  0.32400602  0.64801205  1
  Pr  Pr1  1  0.92599406  0.92599405  0.85198808  1
  Pr  Pr2  1  0.67599404  0.17599401  0.35198803  1
  Pr  Pr3  1  0.07400600  0.07400600  0.14801201  1
  In  In4  1  0.00004901  0.50004903  0.00009801  1
  In  In5  1  0.74995105  0.74995104  0.49990205  1
  In  In6  1  0.49995104  0.99995105  0.99990208  1
  In  In7  1  0.25004902  0.25004901  0.50009804  1
  In  In8  1  0.16279902  0.66279903  0.32559803  1
  In  In9  1  0.58720104  0.58720103  0.17440203  1
  In  In10  1  0.33720103  0.83720104  0.67440206  1
  In  In11  1  0.41279903  0.41279902  0.82559806  1
