# generated using pymatgen
data_BaCN3
_symmetry_space_group_name_H-M   'P 1'
_cell_length_a   4.58402586
_cell_length_b   5.65227985
_cell_length_c   7.96433210
_cell_angle_alpha   101.62050629
_cell_angle_beta   90.00000000
_cell_angle_gamma   90.00000000
_symmetry_Int_Tables_number   1
_chemical_formula_structural   BaCN3
_chemical_formula_sum   'Ba2 C2 N6'
_cell_volume   202.12775153
_cell_formula_units_Z   2
loop_
 _symmetry_equiv_pos_site_id
 _symmetry_equiv_pos_as_xyz
  1  'x, y, z'
loop_
 _atom_site_type_symbol
 _atom_site_label
 _atom_site_symmetry_multiplicity
 _atom_site_fract_x
 _atom_site_fract_y
 _atom_site_fract_z
 _atom_site_occupancy
  Ba  Ba0  1  0.75000002  0.31735500  0.23610699  1
  Ba  Ba1  1  0.25000001  0.68264501  0.76389298  1
  C  C2  1  0.25000001  0.64087301  0.37928598  1
  N  N3  1  0.75000002  0.94816901  0.64583897  1
  N  N4  1  0.25000001  0.84728601  0.36580197  1
  C  C5  1  0.25000001  0.05183100  0.35416100  1
  N  N6  1  0.75000002  0.15271400  0.63419801  1
  N  N7  1  0.75000002  0.35912700  0.62071400  1
  N  N8  1  0.75000002  0.76253901  0.05169197  1
  N  N9  1  0.25000001  0.23746100  0.94830801  1
