# generated using pymatgen
data_Mg2Cu
_symmetry_space_group_name_H-M   'P 1'
_cell_length_a   5.24847984
_cell_length_b   5.40527725
_cell_length_c   5.40527725
_cell_angle_alpha   76.36674500
_cell_angle_beta   60.95503235
_cell_angle_gamma   60.95503235
_symmetry_Int_Tables_number   1
_chemical_formula_structural   Mg2Cu
_chemical_formula_sum   'Mg4 Cu2'
_cell_volume   117.20058521
_cell_formula_units_Z   2
loop_
 _symmetry_equiv_pos_site_id
 _symmetry_equiv_pos_as_xyz
  1  'x, y, z'
loop_
 _atom_site_type_symbol
 _atom_site_label
 _atom_site_symmetry_multiplicity
 _atom_site_fract_x
 _atom_site_fract_y
 _atom_site_fract_z
 _atom_site_occupancy
  Mg  Mg0  1  0.09586896  0.80826204  0.50000008  1
  Mg  Mg1  1  0.40413100  0.19173801  0.50000003  1
  Mg  Mg2  1  0.90413101  0.50000002  0.19173803  1
  Mg  Mg3  1  0.59586900  0.50000002  0.80826206  1
  Cu  Cu4  1  0.50000002  0.00000000  -0.00000001  1
  Cu  Cu5  1  0.00000000  0.00000000  0.00000000  1
