# generated using pymatgen
data_Sr3AlN3
_symmetry_space_group_name_H-M   'P 1'
_cell_length_a   5.39585686
_cell_length_b   7.66128731
_cell_length_c   7.66133451
_cell_angle_alpha   119.99842072
_cell_angle_beta   90.00000000
_cell_angle_gamma   90.00000000
_symmetry_Int_Tables_number   1
_chemical_formula_structural   Sr3AlN3
_chemical_formula_sum   'Sr6 Al2 N6'
_cell_volume   274.28631342
_cell_formula_units_Z   2
loop_
 _symmetry_equiv_pos_site_id
 _symmetry_equiv_pos_as_xyz
  1  'x, y, z'
loop_
 _atom_site_type_symbol
 _atom_site_label
 _atom_site_symmetry_multiplicity
 _atom_site_fract_x
 _atom_site_fract_y
 _atom_site_fract_z
 _atom_site_occupancy
  Sr  Sr0  1  0.75000002  0.07217800  0.71283300  1
  Sr  Sr1  1  0.75000002  0.28716700  0.35934401  1
  Sr  Sr2  1  0.75000002  0.64065501  0.92782203  1
  Sr  Sr3  1  0.25000001  0.92782201  0.28716704  1
  Sr  Sr4  1  0.25000001  0.71283301  0.64065603  1
  Sr  Sr5  1  0.25000001  0.35934501  0.07217801  1
  Al  Al6  1  0.25000001  0.33333334  0.66666668  1
  Al  Al7  1  0.75000002  0.66666668  0.33333336  1
  N  N8  1  0.25000001  0.10606900  0.69557900  1
  N  N9  1  0.25000001  0.30442000  0.41049101  1
  N  N10  1  0.25000001  0.58950801  0.89392802  1
  N  N11  1  0.75000002  0.89393101  0.30442103  1
  N  N12  1  0.75000002  0.69558001  0.58950903  1
  N  N13  1  0.75000002  0.41049201  0.10607202  1
