# generated using pymatgen
data_CeI3
_symmetry_space_group_name_H-M   'P 1'
_cell_length_a   4.44717789
_cell_length_b   8.12122631
_cell_length_c   10.16318130
_cell_angle_alpha   90.00000000
_cell_angle_beta   90.00000000
_cell_angle_gamma   105.89049530
_symmetry_Int_Tables_number   1
_chemical_formula_structural   CeI3
_chemical_formula_sum   'Ce2 I6'
_cell_volume   353.03240742
_cell_formula_units_Z   2
loop_
 _symmetry_equiv_pos_site_id
 _symmetry_equiv_pos_as_xyz
  1  'x, y, z'
loop_
 _atom_site_type_symbol
 _atom_site_label
 _atom_site_symmetry_multiplicity
 _atom_site_fract_x
 _atom_site_fract_y
 _atom_site_fract_z
 _atom_site_occupancy
  Ce  Ce0  1  0.74138904  0.48277801  0.74999998  1
  Ce  Ce1  1  0.25861103  0.51722201  0.24999999  1
  I  I2  1  0.34497703  0.68995402  0.56675198  1
  I  I3  1  0.65502303  0.31004601  0.43324799  1
  I  I4  1  0.90539405  0.81078802  0.24999999  1
  I  I5  1  0.09460601  0.18921200  0.74999998  1
  I  I6  1  0.34497703  0.68995402  0.93324797  1
  I  I7  1  0.65502303  0.31004601  0.06675200  1
