# generated using pymatgen
data_SrTiSe3
_symmetry_space_group_name_H-M   'P 1'
_cell_length_a   7.00103092
_cell_length_b   7.09531784
_cell_length_c   10.01967716
_cell_angle_alpha   90.00000000
_cell_angle_beta   90.00000000
_cell_angle_gamma   90.00000000
_symmetry_Int_Tables_number   1
_chemical_formula_structural   SrTiSe3
_chemical_formula_sum   'Sr4 Ti4 Se12'
_cell_volume   497.72285000
_cell_formula_units_Z   4
loop_
 _symmetry_equiv_pos_site_id
 _symmetry_equiv_pos_as_xyz
  1  'x, y, z'
loop_
 _atom_site_type_symbol
 _atom_site_label
 _atom_site_symmetry_multiplicity
 _atom_site_fract_x
 _atom_site_fract_y
 _atom_site_fract_z
 _atom_site_occupancy
  Sr  Sr0  1  0.48829301  0.54729701  0.25000000  1
  Sr  Sr1  1  0.01170700  0.04729700  0.25000000  1
  Sr  Sr2  1  0.51170701  0.45270301  0.74999999  1
  Sr  Sr3  1  0.98829301  0.95270302  0.74999999  1
  Ti  Ti4  1  -0.00000000  0.50000001  0.00000000  1
  Ti  Ti5  1  0.50000001  0.00000000  0.49999999  1
  Ti  Ti6  1  -0.00000000  0.50000001  0.49999999  1
  Ti  Ti7  1  0.50000001  0.00000000  0.00000000  1
  Se  Se8  1  0.94405001  0.49917401  0.25000000  1
  Se  Se9  1  0.55595001  0.99917402  0.25000000  1
  Se  Se10  1  0.05595000  0.50082601  0.74999999  1
  Se  Se11  1  0.44405000  0.00082600  0.74999999  1
  Se  Se12  1  0.71103501  0.71104302  0.97108898  1
  Se  Se13  1  0.78896501  0.21104300  0.52891099  1
  Se  Se14  1  0.28896500  0.28895701  0.47108899  1
  Se  Se15  1  0.21103500  0.78895702  0.02891100  1
  Se  Se16  1  0.28896500  0.28895701  0.02891100  1
  Se  Se17  1  0.21103500  0.78895702  0.47108899  1
  Se  Se18  1  0.71103501  0.71104302  0.52891099  1
  Se  Se19  1  0.78896501  0.21104300  0.97108898  1
