# generated using pymatgen
data_Tb5Ir2
_symmetry_space_group_name_H-M   'P 1'
_cell_length_a   6.47687817
_cell_length_b   7.19206905
_cell_length_c   8.59447002
_cell_angle_alpha   96.62458038
_cell_angle_beta   112.13591766
_cell_angle_gamma   90.00000000
_symmetry_Int_Tables_number   1
_chemical_formula_structural   Tb5Ir2
_chemical_formula_sum   'Tb10 Ir4'
_cell_volume   367.95297006
_cell_formula_units_Z   2
loop_
 _symmetry_equiv_pos_site_id
 _symmetry_equiv_pos_as_xyz
  1  'x, y, z'
loop_
 _atom_site_type_symbol
 _atom_site_label
 _atom_site_symmetry_multiplicity
 _atom_site_fract_x
 _atom_site_fract_y
 _atom_site_fract_z
 _atom_site_occupancy
  Tb  Tb0  1  0.97793401  0.91625199  0.18602005  1
  Tb  Tb1  1  0.79191400  0.58374799  0.81398003  1
  Tb  Tb2  1  0.02206600  0.08374800  0.81397999  1
  Tb  Tb3  1  0.20808601  0.41625200  0.18602001  1
  Tb  Tb4  1  0.64875501  0.81573899  0.43907004  1
  Tb  Tb5  1  0.20968501  0.68426099  0.56093002  1
  Tb  Tb6  1  0.35124500  0.18426100  0.56093001  1
  Tb  Tb7  1  0.79031500  0.31573900  0.43907003  1
  Tb  Tb8  1  0.42988201  0.74999999  0.00000003  1
  Tb  Tb9  1  0.57011800  0.25000000  0.00000003  1
  Ir  Ir10  1  0.82304300  0.57472199  0.22255204  1
  Ir  Ir11  1  0.60049101  0.92527799  0.77744803  1
  Ir  Ir12  1  0.17695701  0.42527800  0.77744800  1
  Ir  Ir13  1  0.39950900  0.07472200  0.22255201  1
