# generated using pymatgen
data_Sm3Ho
_symmetry_space_group_name_H-M   'P 1'
_cell_length_a   5.82235193
_cell_length_b   7.25479984
_cell_length_c   7.25479984
_cell_angle_alpha   120.00000000
_cell_angle_beta   90.00000000
_cell_angle_gamma   90.00000000
_symmetry_Int_Tables_number   1
_chemical_formula_structural   Sm3Ho
_chemical_formula_sum   'Sm6 Ho2'
_cell_volume   265.38718900
_cell_formula_units_Z   2
loop_
 _symmetry_equiv_pos_site_id
 _symmetry_equiv_pos_as_xyz
  1  'x, y, z'
loop_
 _atom_site_type_symbol
 _atom_site_label
 _atom_site_symmetry_multiplicity
 _atom_site_fract_x
 _atom_site_fract_y
 _atom_site_fract_z
 _atom_site_occupancy
  Sm  Sm0  1  0.75000001  0.83205001  0.16794900  1
  Sm  Sm1  1  0.75000001  0.33589901  0.16794900  1
  Sm  Sm2  1  0.75000001  0.83205001  0.66410000  1
  Sm  Sm3  1  0.25000000  0.16795000  0.83205101  1
  Sm  Sm4  1  0.25000000  0.66410101  0.83205100  1
  Sm  Sm5  1  0.25000000  0.16795000  0.33590000  1
  Ho  Ho6  1  0.25000000  0.66666668  0.33333333  1
  Ho  Ho7  1  0.75000001  0.33333334  0.66666667  1
