# generated using pymatgen
data_LiNiO2
_symmetry_space_group_name_H-M   'P 1'
_cell_length_a   5.91634941
_cell_length_b   5.91635180
_cell_length_c   5.91756630
_cell_angle_alpha   60.00982666
_cell_angle_beta   60.00982666
_cell_angle_gamma   60.00380707
_symmetry_Int_Tables_number   1
_chemical_formula_structural   LiNiO2
_chemical_formula_sum   'Li4 Ni4 O8'
_cell_volume   146.49166891
_cell_formula_units_Z   4
loop_
 _symmetry_equiv_pos_site_id
 _symmetry_equiv_pos_as_xyz
  1  'x, y, z'
loop_
 _atom_site_type_symbol
 _atom_site_label
 _atom_site_symmetry_multiplicity
 _atom_site_fract_x
 _atom_site_fract_y
 _atom_site_fract_z
 _atom_site_occupancy
  Li  Li0  1  0.49999996  0.50000002  0.50000001  1
  Li  Li1  1  0.99999994  0.50000002  0.50000002  1
  Li  Li2  1  0.49999995  1.00000004  0.50000002  1
  Li  Li3  1  0.99999993  1.00000004  0.50000003  1
  Ni  Ni4  1  0.49999695  0.99999604  0.00000204  1
  Ni  Ni5  1  0.99999994  0.50000202  0.00000003  1
  Ni  Ni6  1  0.49999996  0.50000102  0.00000002  1
  Ni  Ni7  1  0.00000097  0.99999904  0.00000203  1
  O  O8  1  0.74202795  0.74202803  0.77391202  1
  O  O9  1  0.24312597  0.73886603  0.77492501  1
  O  O10  1  0.73886496  0.24312501  0.77492900  1
  O  O11  1  0.25797098  0.25797201  0.22609001  1
  O  O12  1  0.24303398  0.24303501  0.77501299  1
  O  O13  1  0.75687496  0.26113501  0.22507201  1
  O  O14  1  0.26113597  0.75687603  0.22506802  1
  O  O15  1  0.75696595  0.75696503  0.22498803  1
