# generated using pymatgen
data_Hf3InPd4
_symmetry_space_group_name_H-M   'P 1'
_cell_length_a   3.86059594
_cell_length_b   7.16471195
_cell_length_c   7.16471148
_cell_angle_alpha   120.00000000
_cell_angle_beta   90.00000000
_cell_angle_gamma   90.00000000
_symmetry_Int_Tables_number   1
_chemical_formula_structural   Hf3InPd4
_chemical_formula_sum   'Hf3 In1 Pd4'
_cell_volume   171.62573979
_cell_formula_units_Z   1
loop_
 _symmetry_equiv_pos_site_id
 _symmetry_equiv_pos_as_xyz
  1  'x, y, z'
loop_
 _atom_site_type_symbol
 _atom_site_label
 _atom_site_symmetry_multiplicity
 _atom_site_fract_x
 _atom_site_fract_y
 _atom_site_fract_z
 _atom_site_occupancy
  Hf  Hf0  1  0.50000001  0.35558199  0.35558198  1
  Hf  Hf1  1  0.50000001  0.00000000  0.64441800  1
  Hf  Hf2  1  0.50000001  0.64441799  -0.00000003  1
  In  In3  1  -0.00000000  0.76893499  0.76893496  1
  Pd  Pd4  1  0.00000000  0.00000000  0.23106500  1
  Pd  Pd5  1  -0.00000000  0.23106500  -0.00000001  1
  Pd  Pd6  1  -0.00000000  0.66666666  0.33333330  1
  Pd  Pd7  1  -0.00000000  0.33333333  0.66666665  1
