# generated using pymatgen
data_NbCl3O
_symmetry_space_group_name_H-M   'P 1'
_cell_length_a   3.82752609
_cell_length_b   12.24912739
_cell_length_c   12.24912739
_cell_angle_alpha   90.00000000
_cell_angle_beta   90.00000000
_cell_angle_gamma   90.00000000
_symmetry_Int_Tables_number   1
_chemical_formula_structural   NbCl3O
_chemical_formula_sum   'Nb4 Cl12 O4'
_cell_volume   574.28630852
_cell_formula_units_Z   4
loop_
 _symmetry_equiv_pos_site_id
 _symmetry_equiv_pos_as_xyz
  1  'x, y, z'
loop_
 _atom_site_type_symbol
 _atom_site_label
 _atom_site_symmetry_multiplicity
 _atom_site_fract_x
 _atom_site_fract_y
 _atom_site_fract_z
 _atom_site_occupancy
  Nb  Nb0  1  0.00000000  0.10893500  0.10893500  1
  Nb  Nb1  1  0.49999999  0.60893498  0.39106499  1
  Nb  Nb2  1  0.00000000  0.89106497  0.89106497  1
  Nb  Nb3  1  0.49999999  0.39106499  0.60893498  1
  Cl  Cl4  1  0.00000000  0.90000397  0.70230498  1
  Cl  Cl5  1  0.49999999  0.59821198  0.59821198  1
  Cl  Cl6  1  0.49999999  0.79769497  0.40000399  1
  Cl  Cl7  1  0.00000000  0.09821200  0.90178797  1
  Cl  Cl8  1  0.49999999  0.40178799  0.40178799  1
  Cl  Cl9  1  -0.00000000  0.29769499  0.09999600  1
  Cl  Cl10  1  -0.00000000  0.09999600  0.29769499  1
  Cl  Cl11  1  0.49999999  0.40000399  0.79769497  1
  Cl  Cl12  1  0.49999999  0.20230499  0.59999598  1
  Cl  Cl13  1  0.49999999  0.59999598  0.20230499  1
  Cl  Cl14  1  0.00000000  0.70230498  0.90000397  1
  Cl  Cl15  1  0.00000000  0.90178797  0.09821200  1
  O  O16  1  -0.00000000  0.59899698  0.40100299  1
  O  O17  1  0.49999999  0.09899700  0.09899700  1
  O  O18  1  0.49999999  0.90100297  0.90100297  1
  O  O19  1  0.00000000  0.40100299  0.59899698  1
