# generated using pymatgen
data_Sr3TiCrO7
_symmetry_space_group_name_H-M   'P 1'
_cell_length_a   3.77569389
_cell_length_b   3.77569389
_cell_length_c   10.43668461
_cell_angle_alpha   100.42135620
_cell_angle_beta   100.42135620
_cell_angle_gamma   90.00000000
_symmetry_Int_Tables_number   1
_chemical_formula_structural   Sr3TiCrO7
_chemical_formula_sum   'Sr3 Ti1 Cr1 O7'
_cell_volume   143.83344097
_cell_formula_units_Z   1
loop_
 _symmetry_equiv_pos_site_id
 _symmetry_equiv_pos_as_xyz
  1  'x, y, z'
loop_
 _atom_site_type_symbol
 _atom_site_label
 _atom_site_symmetry_multiplicity
 _atom_site_fract_x
 _atom_site_fract_y
 _atom_site_fract_z
 _atom_site_occupancy
  Sr  Sr0  1  0.31841302  0.31841301  0.63682602  1
  Sr  Sr1  1  0.68158704  0.68158703  0.36317403  1
  Sr  Sr2  1  0.50000003  0.50000002  0.00000002  1
  Ti  Ti3  1  0.09151601  0.09151600  0.18303201  1
  Cr  Cr4  1  0.90848405  0.90848403  0.81696805  1
  O  O5  1  0.90996404  0.40996402  0.81992804  1
  O  O6  1  0.40996403  0.90996403  0.81992804  1
  O  O7  1  0.09003601  0.59003602  0.18007202  1
  O  O8  1  0.59003602  0.09003600  0.18007202  1
  O  O9  1  0.00000000  0.00000000  0.00000000  1
  O  O10  1  0.17585901  0.17585901  0.35171801  1
  O  O11  1  0.82414105  0.82414103  0.64828204  1
