# generated using pymatgen
data_Y2InPd2
_symmetry_space_group_name_H-M   'P 1'
_cell_length_a   4.04880714
_cell_length_b   7.58526802
_cell_length_c   7.58526802
_cell_angle_alpha   90.00000000
_cell_angle_beta   90.00000000
_cell_angle_gamma   90.00000000
_symmetry_Int_Tables_number   1
_chemical_formula_structural   Y2InPd2
_chemical_formula_sum   'Y4 In2 Pd4'
_cell_volume   232.95334583
_cell_formula_units_Z   2
loop_
 _symmetry_equiv_pos_site_id
 _symmetry_equiv_pos_as_xyz
  1  'x, y, z'
loop_
 _atom_site_type_symbol
 _atom_site_label
 _atom_site_symmetry_multiplicity
 _atom_site_fract_x
 _atom_site_fract_y
 _atom_site_fract_z
 _atom_site_occupancy
  Y  Y0  1  0.49999998  0.67345600  0.17345600  1
  Y  Y1  1  0.49999998  0.32654400  0.82654400  1
  Y  Y2  1  0.49999998  0.17345600  0.32654400  1
  Y  Y3  1  0.49999998  0.82654400  0.67345600  1
  In  In4  1  0.00000000  0.00000000  0.00000000  1
  In  In5  1  0.99999996  0.50000000  0.50000000  1
  Pd  Pd6  1  0.99999996  0.12764400  0.62764400  1
  Pd  Pd7  1  0.00000000  0.87235600  0.37235600  1
  Pd  Pd8  1  0.00000000  0.62764400  0.87235600  1
  Pd  Pd9  1  0.00000000  0.37235600  0.12764400  1
