# generated using pymatgen
data_Sn4Te5Pb
_symmetry_space_group_name_H-M   'P 1'
_cell_length_a   4.58718395
_cell_length_b   4.58718395
_cell_length_c   16.80249405
_cell_angle_alpha   97.84554291
_cell_angle_beta   97.84554291
_cell_angle_gamma   90.00000000
_symmetry_Int_Tables_number   1
_chemical_formula_structural   Sn4Te5Pb
_chemical_formula_sum   'Sn4 Te5 Pb1'
_cell_volume   346.91188639
_cell_formula_units_Z   1
loop_
 _symmetry_equiv_pos_site_id
 _symmetry_equiv_pos_as_xyz
  1  'x, y, z'
loop_
 _atom_site_type_symbol
 _atom_site_label
 _atom_site_symmetry_multiplicity
 _atom_site_fract_x
 _atom_site_fract_y
 _atom_site_fract_z
 _atom_site_occupancy
  Sn  Sn0  1  0.90024400  0.90024401  0.80048798  1
  Sn  Sn1  1  0.30055700  0.30055700  0.60111399  1
  Sn  Sn2  1  0.69944300  0.69944301  0.39888599  1
  Sn  Sn3  1  0.09975600  0.09975600  0.19951200  1
  Te  Te4  1  0.20008500  0.20008500  0.40016999  1
  Te  Te5  1  0.40237100  0.40237100  0.80474199  1
  Te  Te6  1  0.79991500  0.79991501  0.59982998  1
  Te  Te7  1  0.59762900  0.59762900  0.19525799  1
  Te  Te8  1  0.00000000  0.00000000  0.00000000  1
  Pb  Pb9  1  0.50000000  0.50000000  -0.00000001  1
