# generated using pymatgen
data_MnSi2
_symmetry_space_group_name_H-M   'P 1'
_cell_length_a   5.39045906
_cell_length_b   7.24928665
_cell_length_c   7.25190306
_cell_angle_alpha   119.95809937
_cell_angle_beta   89.88200378
_cell_angle_gamma   89.95974731
_symmetry_Int_Tables_number   1
_chemical_formula_structural   MnSi2
_chemical_formula_sum   'Mn6 Si12'
_cell_volume   245.51898003
_cell_formula_units_Z   6
loop_
 _symmetry_equiv_pos_site_id
 _symmetry_equiv_pos_as_xyz
  1  'x, y, z'
loop_
 _atom_site_type_symbol
 _atom_site_label
 _atom_site_symmetry_multiplicity
 _atom_site_fract_x
 _atom_site_fract_y
 _atom_site_fract_z
 _atom_site_occupancy
  Mn  Mn0  1  0.97374099  0.00071500  0.00074703  1
  Mn  Mn1  1  0.06881001  0.33381201  0.66703201  1
  Mn  Mn2  1  0.96735002  0.66689602  0.33415304  1
  Mn  Mn3  1  0.36024401  0.33116201  0.98591601  1
  Mn  Mn4  1  0.36101402  0.65266402  0.66521602  1
  Mn  Mn5  1  0.36294900  0.01417200  0.34600901  1
  Si  Si6  1  0.66074302  0.67289202  0.00799503  1
  Si  Si7  1  0.66046701  0.33492201  0.32734102  1
  Si  Si8  1  0.66030603  0.99230103  0.66509104  1
  Si  Si9  1  0.43786903  0.99751903  0.99791503  1
  Si  Si10  1  0.61422301  0.33410901  0.66783002  1
  Si  Si11  1  0.42681002  0.66609202  0.33086202  1
  Si  Si12  1  0.88144400  0.33148901  0.97737203  1
  Si  Si13  1  0.88115902  0.64787102  0.67193404  1
  Si  Si14  1  0.88324899  0.02346800  0.35456302  1
  Si  Si15  1  0.15411903  0.69314102  0.02731202  1
  Si  Si16  1  0.15435501  0.33390301  0.30669301  1
  Si  Si17  1  0.15414804  0.97287303  0.66602002  1
