# generated using pymatgen
data_Tb(GaFe)6
_symmetry_space_group_name_H-M   'P 1'
_cell_length_a   5.14775181
_cell_length_b   6.68838596
_cell_length_c   6.68838596
_cell_angle_alpha   80.39470673
_cell_angle_beta   67.36695862
_cell_angle_gamma   67.36695862
_symmetry_Int_Tables_number   1
_chemical_formula_structural   Tb(GaFe)6
_chemical_formula_sum   'Tb1 Ga6 Fe6'
_cell_volume   196.13151033
_cell_formula_units_Z   1
loop_
 _symmetry_equiv_pos_site_id
 _symmetry_equiv_pos_as_xyz
  1  'x, y, z'
loop_
 _atom_site_type_symbol
 _atom_site_label
 _atom_site_symmetry_multiplicity
 _atom_site_fract_x
 _atom_site_fract_y
 _atom_site_fract_z
 _atom_site_occupancy
  Tb  Tb0  1  0.00000000  0.00000000  0.00000000  1
  Ga  Ga1  1  0.31264501  0.18735500  0.18735502  1
  Ga  Ga2  1  0.65613602  0.34386400  0.34386403  1
  Ga  Ga3  1  0.34386401  0.65613599  0.65613604  1
  Ga  Ga4  1  -0.00000000  0.33407100  0.66592902  1
  Ga  Ga5  1  0.68735502  0.81264499  0.81264506  1
  Ga  Ga6  1  1.00000003  0.66592899  0.33407105  1
  Fe  Fe7  1  0.50000001  0.75648699  0.24351305  1
  Fe  Fe8  1  0.50000001  0.24351300  0.75648702  1
  Fe  Fe9  1  0.50000001  0.49999999  0.00000004  1
  Fe  Fe10  1  0.50000002  0.00000000  0.50000001  1
  Fe  Fe11  1  -0.00000000  0.49999999  0.00000003  1
  Fe  Fe12  1  0.00000000  0.00000000  0.50000000  1
