# generated using pymatgen
data_PaAl2
_symmetry_space_group_name_H-M   'P 1'
_cell_length_a   3.01501703
_cell_length_b   4.87922812
_cell_length_c   4.87922859
_cell_angle_alpha   120.00000000
_cell_angle_beta   90.00000000
_cell_angle_gamma   90.00000000
_symmetry_Int_Tables_number   1
_chemical_formula_structural   PaAl2
_chemical_formula_sum   'Pa1 Al2'
_cell_volume   62.16167233
_cell_formula_units_Z   1
loop_
 _symmetry_equiv_pos_site_id
 _symmetry_equiv_pos_as_xyz
  1  'x, y, z'
loop_
 _atom_site_type_symbol
 _atom_site_label
 _atom_site_symmetry_multiplicity
 _atom_site_fract_x
 _atom_site_fract_y
 _atom_site_fract_z
 _atom_site_occupancy
  Pa  Pa0  1  0.00000000  0.00000000  0.00000000  1
  Al  Al1  1  0.49999999  0.66666667  0.33333338  1
  Al  Al2  1  0.49999999  0.33333334  0.66666668  1
