# generated using pymatgen
data_LiHfF4
_symmetry_space_group_name_H-M   'P 1'
_cell_length_a   4.96898222
_cell_length_b   4.96898222
_cell_length_c   6.09777308
_cell_angle_alpha   114.04426575
_cell_angle_beta   114.04426575
_cell_angle_gamma   90.00000000
_symmetry_Int_Tables_number   1
_chemical_formula_structural   LiHfF4
_chemical_formula_sum   'Li2 Hf2 F8'
_cell_volume   123.05191294
_cell_formula_units_Z   2
loop_
 _symmetry_equiv_pos_site_id
 _symmetry_equiv_pos_as_xyz
  1  'x, y, z'
loop_
 _atom_site_type_symbol
 _atom_site_label
 _atom_site_symmetry_multiplicity
 _atom_site_fract_x
 _atom_site_fract_y
 _atom_site_fract_z
 _atom_site_occupancy
  Li  Li0  1  0.74999994  0.24999998  0.49999995  1
  Li  Li1  1  0.00000000  0.00000000  0.00000000  1
  Hf  Hf2  1  0.49999994  0.49999996  -0.00000005  1
  Hf  Hf3  1  0.24999995  0.74999994  0.49999994  1
  F  F4  1  0.12002696  0.55551796  0.69273296  1
  F  F5  1  0.57270596  0.13721499  0.69273297  1
  F  F6  1  0.86278490  0.87997293  0.30726691  1
  F  F7  1  0.30551794  0.82270594  0.19273294  1
  F  F8  1  0.88721492  0.37002697  0.19273294  1
  F  F9  1  0.44448195  0.42729397  0.30726695  1
  F  F10  1  0.17729398  0.11278499  0.80726698  1
  F  F11  1  0.62997292  0.69448195  0.80726693  1
