# generated using pymatgen
data_LiCuF3
_symmetry_space_group_name_H-M   'P 1'
_cell_length_a   3.78295994
_cell_length_b   5.67218351
_cell_length_c   6.83784437
_cell_angle_alpha   84.70733643
_cell_angle_beta   73.94145966
_cell_angle_gamma   70.52072144
_symmetry_Int_Tables_number   1
_chemical_formula_structural   LiCuF3
_chemical_formula_sum   'Li2 Cu2 F6'
_cell_volume   132.92832174
_cell_formula_units_Z   2
loop_
 _symmetry_equiv_pos_site_id
 _symmetry_equiv_pos_as_xyz
  1  'x, y, z'
loop_
 _atom_site_type_symbol
 _atom_site_label
 _atom_site_symmetry_multiplicity
 _atom_site_fract_x
 _atom_site_fract_y
 _atom_site_fract_z
 _atom_site_occupancy
  Li  Li0  1  0.41347901  0.76608101  0.40587303  1
  Li  Li1  1  0.92956002  0.73391901  0.90587304  1
  Cu  Cu2  1  0.56935201  0.26608100  0.09412700  1
  Cu  Cu3  1  0.58543301  0.23391900  0.59412702  1
  F  F4  1  0.48135601  0.46659801  0.83538303  1
  F  F5  1  0.69795302  0.03340200  0.33538400  1
  F  F6  1  0.06673800  0.96659901  0.66461705  1
  F  F7  1  0.41537301  0.00000000  -0.00000001  1
  F  F8  1  0.78333802  0.53340101  0.16461601  1
  F  F9  1  0.16537300  0.50000001  0.50000003  1
