# generated using pymatgen
data_PrIn2Rh
_symmetry_space_group_name_H-M   'P 1'
_cell_length_a   5.63169909
_cell_length_b   8.05471706
_cell_length_c   8.18881607
_cell_angle_alpha   90.00000000
_cell_angle_beta   90.00000000
_cell_angle_gamma   90.00000000
_symmetry_Int_Tables_number   1
_chemical_formula_structural   PrIn2Rh
_chemical_formula_sum   'Pr4 In8 Rh4'
_cell_volume   371.45896778
_cell_formula_units_Z   4
loop_
 _symmetry_equiv_pos_site_id
 _symmetry_equiv_pos_as_xyz
  1  'x, y, z'
loop_
 _atom_site_type_symbol
 _atom_site_label
 _atom_site_symmetry_multiplicity
 _atom_site_fract_x
 _atom_site_fract_y
 _atom_site_fract_z
 _atom_site_occupancy
  Pr  Pr0  1  0.39880599  0.53355800  0.25000000  1
  Pr  Pr1  1  0.10119400  0.03355800  0.25000000  1
  Pr  Pr2  1  0.60119399  0.46644200  0.74999999  1
  Pr  Pr3  1  0.89880599  0.96644199  0.74999999  1
  In  In4  1  0.90495399  0.67182399  0.05546300  1
  In  In5  1  0.59504599  0.17182400  0.44453700  1
  In  In6  1  0.09504600  0.32817600  0.55546300  1
  In  In7  1  0.40495399  0.82817599  0.94453699  1
  In  In8  1  0.09504600  0.32817600  0.94453699  1
  In  In9  1  0.40495399  0.82817599  0.55546300  1
  In  In10  1  0.90495399  0.67182399  0.44453700  1
  In  In11  1  0.59504599  0.17182400  0.05546300  1
  Rh  Rh12  1  0.61752299  0.87807899  0.25000000  1
  Rh  Rh13  1  0.88247699  0.37807900  0.25000000  1
  Rh  Rh14  1  0.38247699  0.12192100  0.74999999  1
  Rh  Rh15  1  0.11752300  0.62192100  0.74999999  1
