# generated using pymatgen
data_MgCd
_symmetry_space_group_name_H-M   'P 1'
_cell_length_a   3.41071606
_cell_length_b   6.03542042
_cell_length_c   7.98360634
_cell_angle_alpha   109.19664001
_cell_angle_beta   90.00000000
_cell_angle_gamma   106.41294861
_symmetry_Int_Tables_number   1
_chemical_formula_structural   MgCd
_chemical_formula_sum   'Mg3 Cd3'
_cell_volume   148.09554189
_cell_formula_units_Z   3
loop_
 _symmetry_equiv_pos_site_id
 _symmetry_equiv_pos_as_xyz
  1  'x, y, z'
loop_
 _atom_site_type_symbol
 _atom_site_label
 _atom_site_symmetry_multiplicity
 _atom_site_fract_x
 _atom_site_fract_y
 _atom_site_fract_z
 _atom_site_occupancy
  Mg  Mg0  1  0.01197100  0.02394200  0.00359900  1
  Mg  Mg1  1  0.38858597  0.77717203  0.27514604  1
  Mg  Mg2  1  0.32309298  0.64618603  0.66474404  1
  Cd  Cd3  1  0.66791898  0.33583801  0.32722802  1
  Cd  Cd4  1  0.04075400  0.08150800  0.61596301  1
  Cd  Cd5  1  0.73434498  0.46869002  0.94665204  1
