# generated using pymatgen
data_CsCeAgSe3
_symmetry_space_group_name_H-M   'P 1'
_cell_length_a   4.34352398
_cell_length_b   8.45657539
_cell_length_c   11.25251389
_cell_angle_alpha   90.00000000
_cell_angle_beta   90.00000000
_cell_angle_gamma   104.88106537
_symmetry_Int_Tables_number   1
_chemical_formula_structural   CsCeAgSe3
_chemical_formula_sum   'Cs2 Ce2 Ag2 Se6'
_cell_volume   399.45755579
_cell_formula_units_Z   2
loop_
 _symmetry_equiv_pos_site_id
 _symmetry_equiv_pos_as_xyz
  1  'x, y, z'
loop_
 _atom_site_type_symbol
 _atom_site_label
 _atom_site_symmetry_multiplicity
 _atom_site_fract_x
 _atom_site_fract_y
 _atom_site_fract_z
 _atom_site_occupancy
  Cs  Cs0  1  0.25618200  0.51236398  0.75000001  1
  Cs  Cs1  1  0.74381800  0.48763598  0.25000000  1
  Ce  Ce2  1  0.00000000  0.00000000  0.50000001  1
  Ce  Ce3  1  0.00000000  0.00000000  0.00000000  1
  Ag  Ag4  1  0.45448799  0.90897596  0.25000000  1
  Ag  Ag5  1  0.54551200  0.09102400  0.75000001  1
  Se  Se6  1  0.93973400  0.87946797  0.75000001  1
  Se  Se7  1  0.06026600  0.12053200  0.25000000  1
  Se  Se8  1  0.38070799  0.76141597  0.45771100  1
  Se  Se9  1  0.38070799  0.76141597  0.04228900  1
  Se  Se10  1  0.61929200  0.23858399  0.95771101  1
  Se  Se11  1  0.61929200  0.23858399  0.54228901  1
