# generated using pymatgen
data_BaSrWIO6
_symmetry_space_group_name_H-M   'P 1'
_cell_length_a   6.14411736
_cell_length_b   6.14411736
_cell_length_c   6.14411736
_cell_angle_alpha   60.00000000
_cell_angle_beta   60.00000000
_cell_angle_gamma   60.00000000
_symmetry_Int_Tables_number   1
_chemical_formula_structural   BaSrWIO6
_chemical_formula_sum   'Ba1 Sr1 W1 I1 O6'
_cell_volume   164.00742466
_cell_formula_units_Z   1
loop_
 _symmetry_equiv_pos_site_id
 _symmetry_equiv_pos_as_xyz
  1  'x, y, z'
loop_
 _atom_site_type_symbol
 _atom_site_label
 _atom_site_symmetry_multiplicity
 _atom_site_fract_x
 _atom_site_fract_y
 _atom_site_fract_z
 _atom_site_occupancy
  Ba  Ba0  1  0.24999999  0.24999999  0.24999999  1
  Sr  Sr1  1  0.74999997  0.74999997  0.74999997  1
  I  I2  1  0.00000000  0.00000000  0.00000000  1
  W  W3  1  0.49999998  0.49999998  0.49999998  1
  O  O4  1  0.27451413  0.72548583  0.27451413  1
  O  O5  1  0.72548583  0.27451413  0.72548583  1
  O  O6  1  0.72548583  0.27451413  0.27451413  1
  O  O7  1  0.27451413  0.72548583  0.72548583  1
  O  O8  1  0.72548583  0.72548583  0.27451413  1
  O  O9  1  0.27451413  0.27451413  0.72548583  1
