# generated using pymatgen
data_Cr4GaCuS8
_symmetry_space_group_name_H-M   'P 1'
_cell_length_a   7.07305765
_cell_length_b   7.07305765
_cell_length_c   7.07305765
_cell_angle_alpha   60.00000000
_cell_angle_beta   60.00000000
_cell_angle_gamma   60.00000000
_symmetry_Int_Tables_number   1
_chemical_formula_structural   Cr4GaCuS8
_chemical_formula_sum   'Cr4 Ga1 Cu1 S8'
_cell_volume   250.21111376
_cell_formula_units_Z   1
loop_
 _symmetry_equiv_pos_site_id
 _symmetry_equiv_pos_as_xyz
  1  'x, y, z'
loop_
 _atom_site_type_symbol
 _atom_site_label
 _atom_site_symmetry_multiplicity
 _atom_site_fract_x
 _atom_site_fract_y
 _atom_site_fract_z
 _atom_site_occupancy
  Cr  Cr0  1  0.50000000  0.50000000  0.50000000  1
  Cr  Cr1  1  0.87624099  0.87624199  0.37127500  1
  Cr  Cr2  1  0.87624099  0.87624199  0.87624199  1
  Cr  Cr3  1  0.87624099  0.37127500  0.87624199  1
  Ga  Ga4  1  0.37127400  0.87624199  0.87624199  1
  Cu  Cu5  1  0.25000000  0.25000000  0.25000000  1
  S  S6  1  0.11819400  0.11819500  0.64541600  1
  S  S7  1  0.11819400  0.11819500  0.11819500  1
  S  S8  1  0.11819400  0.64541600  0.11819500  1
  S  S9  1  0.64541500  0.11819500  0.11819500  1
  S  S10  1  0.63543600  0.63543600  0.09369200  1
  S  S11  1  0.63543600  0.63543600  0.63543600  1
  S  S12  1  0.63543600  0.09369200  0.63543600  1
  S  S13  1  0.09369200  0.63543600  0.63543600  1
