# generated using pymatgen
data_CsCaBr2
_symmetry_space_group_name_H-M   'P 1'
_cell_length_a   7.41637659
_cell_length_b   7.41637659
_cell_length_c   7.41637659
_cell_angle_alpha   104.89861298
_cell_angle_beta   104.89861298
_cell_angle_gamma   119.06365967
_symmetry_Int_Tables_number   1
_chemical_formula_structural   CsCaBr2
_chemical_formula_sum   'Cs2 Ca2 Br4'
_cell_volume   307.31885652
_cell_formula_units_Z   2
loop_
 _symmetry_equiv_pos_site_id
 _symmetry_equiv_pos_as_xyz
  1  'x, y, z'
loop_
 _atom_site_type_symbol
 _atom_site_label
 _atom_site_symmetry_multiplicity
 _atom_site_fract_x
 _atom_site_fract_y
 _atom_site_fract_z
 _atom_site_occupancy
  Cs  Cs0  1  0.24999997  0.24999998  0.99999998  1
  Cs  Cs1  1  0.74999992  0.74999995  0.99999992  1
  Ca  Ca2  1  0.24999991  0.74999995  0.49999993  1
  Ca  Ca3  1  0.74999997  0.24999998  0.49999995  1
  Br  Br4  1  0.16935292  0.66935296  0.83870595  1
  Br  Br5  1  0.33064698  0.16935399  0.49999998  1
  Br  Br6  1  0.66935291  0.83064595  0.49999991  1
  Br  Br7  1  0.83064696  0.33064698  0.16129394  1
