# generated using pymatgen
data_MnAs2
_symmetry_space_group_name_H-M   'P 1'
_cell_length_a   4.43902302
_cell_length_b   4.53475094
_cell_length_c   7.17357063
_cell_angle_alpha   88.84046936
_cell_angle_beta   89.76536560
_cell_angle_gamma   89.75089264
_symmetry_Int_Tables_number   1
_chemical_formula_structural   MnAs2
_chemical_formula_sum   'Mn2 As4'
_cell_volume   144.37090568
_cell_formula_units_Z   2
loop_
 _symmetry_equiv_pos_site_id
 _symmetry_equiv_pos_as_xyz
  1  'x, y, z'
loop_
 _atom_site_type_symbol
 _atom_site_label
 _atom_site_symmetry_multiplicity
 _atom_site_fract_x
 _atom_site_fract_y
 _atom_site_fract_z
 _atom_site_occupancy
  Mn  Mn0  1  0.10238802  0.58594399  0.01548901  1
  Mn  Mn1  1  0.60145700  0.08326600  0.00865902  1
  As  As2  1  0.07424000  0.02696500  0.50214500  1
  As  As3  1  0.57981101  0.59120499  0.51999502  1
  As  As4  1  0.60076501  0.58554099  0.86317702  1
  As  As5  1  0.09893600  0.07828400  0.16012700  1
