# generated using pymatgen
data_LuAlCu
_symmetry_space_group_name_H-M   'P 1'
_cell_length_a   3.92218494
_cell_length_b   6.99522209
_cell_length_c   6.99522209
_cell_angle_alpha   120.00000000
_cell_angle_beta   90.00000000
_cell_angle_gamma   90.00000000
_symmetry_Int_Tables_number   1
_chemical_formula_structural   LuAlCu
_chemical_formula_sum   'Lu3 Al3 Cu3'
_cell_volume   166.21174725
_cell_formula_units_Z   3
loop_
 _symmetry_equiv_pos_site_id
 _symmetry_equiv_pos_as_xyz
  1  'x, y, z'
loop_
 _atom_site_type_symbol
 _atom_site_label
 _atom_site_symmetry_multiplicity
 _atom_site_fract_x
 _atom_site_fract_y
 _atom_site_fract_z
 _atom_site_occupancy
  Lu  Lu0  1  -0.00000000  0.41428600  0.41428600  1
  Lu  Lu1  1  0.00000000  0.00000000  0.58571400  1
  Lu  Lu2  1  -0.00000000  0.58571399  0.99999999  1
  Al  Al3  1  0.50000001  0.76196499  0.76196500  1
  Al  Al4  1  0.50000001  0.99999999  0.23803500  1
  Al  Al5  1  0.50000001  0.23803500  0.99999999  1
  Cu  Cu6  1  0.00000000  0.00000000  0.00000000  1
  Cu  Cu7  1  0.50000001  0.66666666  0.33333333  1
  Cu  Cu8  1  0.50000001  0.33333333  0.66666666  1
