# generated using pymatgen
data_LiVN2
_symmetry_space_group_name_H-M   'P 1'
_cell_length_a   5.00330687
_cell_length_b   5.50301695
_cell_length_c   6.24076223
_cell_angle_alpha   90.00000000
_cell_angle_beta   90.00000000
_cell_angle_gamma   90.00000000
_symmetry_Int_Tables_number   1
_chemical_formula_structural   LiVN2
_chemical_formula_sum   'Li4 V4 N8'
_cell_volume   171.82866948
_cell_formula_units_Z   4
loop_
 _symmetry_equiv_pos_site_id
 _symmetry_equiv_pos_as_xyz
  1  'x, y, z'
loop_
 _atom_site_type_symbol
 _atom_site_label
 _atom_site_symmetry_multiplicity
 _atom_site_fract_x
 _atom_site_fract_y
 _atom_site_fract_z
 _atom_site_occupancy
  Li  Li0  1  0.99273903  0.33529000  0.24931499  1
  Li  Li1  1  0.49273901  0.66471001  0.25068499  1
  Li  Li2  1  0.99273903  0.33529000  0.75068497  1
  Li  Li3  1  0.49273901  0.66471001  0.74931497  1
  V  V4  1  0.49888401  0.15754000  0.00000000  1
  V  V5  1  0.99888403  0.84246001  0.49999998  1
  V  V6  1  0.99449103  0.82896101  -0.00000000  1
  V  V7  1  0.49449101  0.17103900  0.49999998  1
  N  N8  1  0.85517802  0.14843700  0.00000000  1
  N  N9  1  0.37191301  0.85473901  0.00000000  1
  N  N10  1  0.89702802  0.68715101  0.26150099  1
  N  N11  1  0.39702801  0.31284900  0.23849899  1
  N  N12  1  0.87191302  0.14526100  0.49999998  1
  N  N13  1  0.35517801  0.85156301  0.49999998  1
  N  N14  1  0.39702801  0.31284900  0.76150097  1
  N  N15  1  0.89702802  0.68715101  0.73849897  1
