# generated using pymatgen
data_La2Ti3O6
_symmetry_space_group_name_H-M   'P 1'
_cell_length_a   3.79600406
_cell_length_b   3.79600406
_cell_length_c   11.85324669
_cell_angle_alpha   99.21415710
_cell_angle_beta   99.21415710
_cell_angle_gamma   90.00000000
_symmetry_Int_Tables_number   1
_chemical_formula_structural   La2Ti3O6
_chemical_formula_sum   'La2 Ti3 O6'
_cell_volume   166.36411962
_cell_formula_units_Z   1
loop_
 _symmetry_equiv_pos_site_id
 _symmetry_equiv_pos_as_xyz
  1  'x, y, z'
loop_
 _atom_site_type_symbol
 _atom_site_label
 _atom_site_symmetry_multiplicity
 _atom_site_fract_x
 _atom_site_fract_y
 _atom_site_fract_z
 _atom_site_occupancy
  La  La0  1  0.66666667  0.66666666  0.33333336  1
  La  La1  1  0.33333333  0.33333333  0.66666670  1
  Ti  Ti2  1  0.92149300  0.92149299  0.84298605  1
  Ti  Ti3  1  0.07850700  0.07850700  0.15701401  1
  Ti  Ti4  1  0.79475200  0.79475199  0.58950404  1
  O  O5  1  0.20524800  0.20524800  0.41049602  1
  O  O6  1  0.00000000  0.00000000  0.00000000  1
  O  O7  1  0.90080499  0.40080500  0.80161004  1
  O  O8  1  0.59919499  0.09919500  0.19839001  1
  O  O9  1  0.40080500  0.90080499  0.80161004  1
  O  O10  1  0.09919500  0.59919499  0.19839001  1
