# generated using pymatgen
data_CuS
_symmetry_space_group_name_H-M   'P 1'
_cell_length_a   4.87648392
_cell_length_b   6.02612209
_cell_length_c   6.91629887
_cell_angle_alpha   90.00000000
_cell_angle_beta   90.00000000
_cell_angle_gamma   90.00000000
_symmetry_Int_Tables_number   1
_chemical_formula_structural   CuS
_chemical_formula_sum   'Cu8 S8'
_cell_volume   203.24434672
_cell_formula_units_Z   8
loop_
 _symmetry_equiv_pos_site_id
 _symmetry_equiv_pos_as_xyz
  1  'x, y, z'
loop_
 _atom_site_type_symbol
 _atom_site_label
 _atom_site_symmetry_multiplicity
 _atom_site_fract_x
 _atom_site_fract_y
 _atom_site_fract_z
 _atom_site_occupancy
  Cu  Cu0  1  0.98485502  0.80736699  0.39978901  1
  Cu  Cu1  1  0.48485501  0.19263300  0.10021100  1
  Cu  Cu2  1  0.51514501  0.30736700  0.60021101  1
  Cu  Cu3  1  0.01514500  0.69263299  0.89978902  1
  Cu  Cu4  1  0.01514500  0.19263300  0.60021101  1
  Cu  Cu5  1  0.51514501  0.80736699  0.89978902  1
  Cu  Cu6  1  0.48485501  0.69263299  0.39978901  1
  Cu  Cu7  1  0.98485502  0.30736700  0.10021100  1
  S  S8  1  0.82656001  0.94331699  0.11457200  1
  S  S9  1  0.32656001  0.05668300  0.38542801  1
  S  S10  1  0.67344001  0.44331699  0.88542802  1
  S  S11  1  0.17344000  0.55668299  0.61457201  1
  S  S12  1  0.17344000  0.05668300  0.88542802  1
  S  S13  1  0.67344001  0.94331699  0.61457201  1
  S  S14  1  0.32656001  0.55668299  0.11457200  1
  S  S15  1  0.82656001  0.44331699  0.38542801  1
