# generated using pymatgen
data_ZrGa
_symmetry_space_group_name_H-M   'P 1'
_cell_length_a   4.21381378
_cell_length_b   5.40134907
_cell_length_c   7.13701820
_cell_angle_alpha   90.00000000
_cell_angle_beta   90.00000000
_cell_angle_gamma   90.00000000
_symmetry_Int_Tables_number   1
_chemical_formula_structural   ZrGa
_chemical_formula_sum   'Zr4 Ga4'
_cell_volume   162.44052655
_cell_formula_units_Z   4
loop_
 _symmetry_equiv_pos_site_id
 _symmetry_equiv_pos_as_xyz
  1  'x, y, z'
loop_
 _atom_site_type_symbol
 _atom_site_label
 _atom_site_symmetry_multiplicity
 _atom_site_fract_x
 _atom_site_fract_y
 _atom_site_fract_z
 _atom_site_occupancy
  Zr  Zr0  1  0.00000000  0.12155200  0.67708098  1
  Zr  Zr1  1  0.00000000  0.87844799  0.17708099  1
  Zr  Zr2  1  0.50000003  0.37834200  0.32309799  1
  Zr  Zr3  1  0.50000003  0.62165799  0.82309798  1
  Ga  Ga4  1  0.00000000  0.62442199  0.53860898  1
  Ga  Ga5  1  0.00000000  0.37557800  0.03860900  1
  Ga  Ga6  1  0.50000003  0.87720299  0.46121199  1
  Ga  Ga7  1  0.50000003  0.12279700  0.96121197  1
