# generated using pymatgen
data_Co5CuS8
_symmetry_space_group_name_H-M   'P 1'
_cell_length_a   6.63763523
_cell_length_b   6.63763523
_cell_length_c   6.63763523
_cell_angle_alpha   60.00000000
_cell_angle_beta   60.00000000
_cell_angle_gamma   60.00000000
_symmetry_Int_Tables_number   1
_chemical_formula_structural   Co5CuS8
_chemical_formula_sum   'Co5 Cu1 S8'
_cell_volume   206.78791238
_cell_formula_units_Z   1
loop_
 _symmetry_equiv_pos_site_id
 _symmetry_equiv_pos_as_xyz
  1  'x, y, z'
loop_
 _atom_site_type_symbol
 _atom_site_label
 _atom_site_symmetry_multiplicity
 _atom_site_fract_x
 _atom_site_fract_y
 _atom_site_fract_z
 _atom_site_occupancy
  Co  Co0  1  0.50000001  0.50000001  0.50000001  1
  Co  Co1  1  0.25000001  0.25000001  0.25000001  1
  Co  Co2  1  0.87500002  0.37500001  0.87500002  1
  Co  Co3  1  0.37500001  0.87500002  0.87500002  1
  Co  Co4  1  0.87500002  0.87500002  0.87500002  1
  Cu  Cu5  1  0.87500002  0.87500002  0.37500001  1
  S  S6  1  0.11906700  0.11906800  0.64279702  1
  S  S7  1  0.63093302  0.63093202  0.10720300  1
  S  S8  1  0.63093302  0.63093202  0.63093202  1
  S  S9  1  0.63093302  0.10720300  0.63093202  1
  S  S10  1  0.64279602  0.11906800  0.11906800  1
  S  S11  1  0.11906700  0.64279702  0.11906800  1
  S  S12  1  0.11906700  0.11906800  0.11906800  1
  S  S13  1  0.10720400  0.63093202  0.63093202  1
