# generated using pymatgen
data_LaAg2
_symmetry_space_group_name_H-M   'P 1'
_cell_length_a   5.94404221
_cell_length_b   5.94404173
_cell_length_c   9.98509502
_cell_angle_alpha   90.00000000
_cell_angle_beta   90.00000000
_cell_angle_gamma   120.00000000
_symmetry_Int_Tables_number   1
_chemical_formula_structural   LaAg2
_chemical_formula_sum   'La4 Ag8'
_cell_volume   305.52487005
_cell_formula_units_Z   4
loop_
 _symmetry_equiv_pos_site_id
 _symmetry_equiv_pos_as_xyz
  1  'x, y, z'
loop_
 _atom_site_type_symbol
 _atom_site_label
 _atom_site_symmetry_multiplicity
 _atom_site_fract_x
 _atom_site_fract_y
 _atom_site_fract_z
 _atom_site_occupancy
  La  La0  1  0.66666663  0.33333332  0.55866600  1
  La  La1  1  0.33333330  0.66666665  0.44133400  1
  La  La2  1  0.33333330  0.66666665  0.05866600  1
  La  La3  1  0.66666663  0.33333332  0.94133400  1
  Ag  Ag4  1  0.00000000  0.00000000  0.50000000  1
  Ag  Ag5  1  0.00000000  0.00000000  0.00000000  1
  Ag  Ag6  1  0.17032798  0.34065599  0.75000000  1
  Ag  Ag7  1  0.17032796  0.82967198  0.75000000  1
  Ag  Ag8  1  0.65934395  0.82967198  0.75000000  1
  Ag  Ag9  1  0.82967195  0.65934398  0.25000000  1
  Ag  Ag10  1  0.82967197  0.17032800  0.25000000  1
  Ag  Ag11  1  0.34065598  0.17032800  0.25000000  1
