# generated using pymatgen
data_TiCrCuTe4
_symmetry_space_group_name_H-M   'P 1'
_cell_length_a   4.01125383
_cell_length_b   6.88403749
_cell_length_c   6.94890165
_cell_angle_alpha   118.80770111
_cell_angle_beta   106.77565765
_cell_angle_gamma   90.00000000
_symmetry_Int_Tables_number   1
_chemical_formula_structural   TiCrCuTe4
_chemical_formula_sum   'Ti1 Cr1 Cu1 Te4'
_cell_volume   158.75405628
_cell_formula_units_Z   1
loop_
 _symmetry_equiv_pos_site_id
 _symmetry_equiv_pos_as_xyz
  1  'x, y, z'
loop_
 _atom_site_type_symbol
 _atom_site_label
 _atom_site_symmetry_multiplicity
 _atom_site_fract_x
 _atom_site_fract_y
 _atom_site_fract_z
 _atom_site_occupancy
  Ti  Ti0  1  0.25746301  0.27597799  0.51492601  1
  Cr  Cr1  1  0.74253704  0.72402197  0.48507400  1
  Cu  Cu2  1  0.00000000  0.00000000  0.00000000  1
  Te  Te3  1  0.11440501  0.44610698  0.22880999  1
  Te  Te4  1  0.88559504  0.55389298  0.77119001  1
  Te  Te5  1  0.37299802  0.03005200  0.74599603  1
  Te  Te6  1  0.62700203  0.96994796  0.25400398  1
