# generated using pymatgen
data_Al7Ni9
_symmetry_space_group_name_H-M   'P 1'
_cell_length_a   6.19023943
_cell_length_b   6.19023943
_cell_length_c   7.06084776
_cell_angle_alpha   115.47126007
_cell_angle_beta   115.47126007
_cell_angle_gamma   91.08380890
_symmetry_Int_Tables_number   1
_chemical_formula_structural   Al7Ni9
_chemical_formula_sum   'Al7 Ni9'
_cell_volume   213.51430463
_cell_formula_units_Z   1
loop_
 _symmetry_equiv_pos_site_id
 _symmetry_equiv_pos_as_xyz
  1  'x, y, z'
loop_
 _atom_site_type_symbol
 _atom_site_label
 _atom_site_symmetry_multiplicity
 _atom_site_fract_x
 _atom_site_fract_y
 _atom_site_fract_z
 _atom_site_occupancy
  Al  Al0  1  0.63001806  0.36998202  0.00000006  1
  Al  Al1  1  0.24588510  0.75411504  0.50000009  1
  Al  Al2  1  0.74588504  0.25411501  0.50000006  1
  Al  Al3  1  0.87696913  0.87320004  0.00000011  1
  Al  Al4  1  0.12680002  0.12303101  0.00000002  1
  Al  Al5  1  0.36808209  0.63191803  0.00000007  1
  Ni  Ni6  1  0.52297108  0.53460503  0.71478808  1
  Ni  Ni7  1  0.18018303  0.19181701  0.71478804  1
  Al  Al8  1  0.01786509  0.69952803  0.71739308  1
  Ni  Ni9  1  0.70792401  0.00147100  0.70939504  1
  Ni  Ni10  1  0.46539507  0.47702902  0.28521207  1
  Ni  Ni11  1  0.80818312  0.81981704  0.28521211  1
  Ni  Ni12  1  0.99852905  0.29207601  0.29060507  1
  Ni  Ni13  1  0.30047213  0.98213505  0.28260711  1
  Ni  Ni14  1  0.49505214  0.99021305  0.00000011  1
  Ni  Ni15  1  0.00978707  0.50494803  0.00000005  1
