# generated using pymatgen
data_LiMn3CoO8
_symmetry_space_group_name_H-M   'P 1'
_cell_length_a   5.71425200
_cell_length_b   5.74890852
_cell_length_c   5.77865887
_cell_angle_alpha   89.64907837
_cell_angle_beta   60.74866486
_cell_angle_gamma   60.60224152
_symmetry_Int_Tables_number   1
_chemical_formula_structural   LiMn3CoO8
_chemical_formula_sum   'Li1 Mn3 Co1 O8'
_cell_volume   137.30810267
_cell_formula_units_Z   1
loop_
 _symmetry_equiv_pos_site_id
 _symmetry_equiv_pos_as_xyz
  1  'x, y, z'
loop_
 _atom_site_type_symbol
 _atom_site_label
 _atom_site_symmetry_multiplicity
 _atom_site_fract_x
 _atom_site_fract_y
 _atom_site_fract_z
 _atom_site_occupancy
  Li  Li0  1  -0.00000000  0.50000002  0.00000002  1
  Mn  Mn1  1  0.00000000  0.00000000  0.50000001  1
  Mn  Mn2  1  0.50000000  0.50000002  0.50000003  1
  Mn  Mn3  1  0.00000000  0.00000000  0.00000000  1
  Co  Co4  1  0.50000000  0.00000000  0.50000001  1
  O  O5  1  0.51960900  0.23476901  0.27556101  1
  O  O6  1  0.52567300  0.23278001  0.71049902  1
  O  O7  1  0.03864800  0.20320601  0.73423302  1
  O  O8  1  0.96378800  0.25280401  0.27522201  1
  O  O9  1  0.03621200  0.74719602  0.72477804  1
  O  O10  1  0.96135200  0.79679402  0.26576704  1
  O  O11  1  0.47432700  0.76722002  0.28950103  1
  O  O12  1  0.48039100  0.76523102  0.72443904  1
