# generated using pymatgen
data_NaCO3
_symmetry_space_group_name_H-M   'P 1'
_cell_length_a   4.15183640
_cell_length_b   4.15183640
_cell_length_c   4.15183592
_cell_angle_alpha   77.22415924
_cell_angle_beta   77.22415924
_cell_angle_gamma   77.22415924
_symmetry_Int_Tables_number   1
_chemical_formula_structural   NaCO3
_chemical_formula_sum   'Na1 C1 O3'
_cell_volume   66.94305517
_cell_formula_units_Z   1
loop_
 _symmetry_equiv_pos_site_id
 _symmetry_equiv_pos_as_xyz
  1  'x, y, z'
loop_
 _atom_site_type_symbol
 _atom_site_label
 _atom_site_symmetry_multiplicity
 _atom_site_fract_x
 _atom_site_fract_y
 _atom_site_fract_z
 _atom_site_occupancy
  Na  Na0  1  0.00196000  0.00196000  0.00196000  1
  C  C1  1  0.42588302  0.42588300  0.42588300  1
  O  O2  1  0.14051902  0.56511900  0.56511900  1
  O  O3  1  0.56511902  0.56511900  0.14051898  1
  O  O4  1  0.56511901  0.14051900  0.56511900  1
