# generated using pymatgen
data_MgSiNi4
_symmetry_space_group_name_H-M   'P 1'
_cell_length_a   4.66977072
_cell_length_b   4.66977072
_cell_length_c   4.66977167
_cell_angle_alpha   64.76668549
_cell_angle_beta   64.76668549
_cell_angle_gamma   64.76668549
_symmetry_Int_Tables_number   1
_chemical_formula_structural   MgSiNi4
_chemical_formula_sum   'Mg1 Si1 Ni4'
_cell_volume   79.51693944
_cell_formula_units_Z   1
loop_
 _symmetry_equiv_pos_site_id
 _symmetry_equiv_pos_as_xyz
  1  'x, y, z'
loop_
 _atom_site_type_symbol
 _atom_site_label
 _atom_site_symmetry_multiplicity
 _atom_site_fract_x
 _atom_site_fract_y
 _atom_site_fract_z
 _atom_site_occupancy
  Mg  Mg0  1  0.87471390  0.87471401  0.87471405  1
  Ni  Ni1  1  0.12528599  0.12528600  0.12528601  1
  Si  Si2  1  0.49999994  0.50000000  0.50000003  1
  Ni  Ni3  1  0.49999994  0.50000000  0.00000005  1
  Ni  Ni4  1  0.49999999  0.00000000  0.50000000  1
  Ni  Ni5  1  -0.00000005  0.50000000  0.50000001  1
