# generated using pymatgen
data_Ho5Ge3C
_symmetry_space_group_name_H-M   'P 1'
_cell_length_a   6.44216013
_cell_length_b   8.51941872
_cell_length_c   8.53956223
_cell_angle_alpha   119.92200470
_cell_angle_beta   90.00000000
_cell_angle_gamma   90.00000000
_symmetry_Int_Tables_number   1
_chemical_formula_structural   Ho5Ge3C
_chemical_formula_sum   'Ho10 Ge6 C2'
_cell_volume   406.20803372
_cell_formula_units_Z   2
loop_
 _symmetry_equiv_pos_site_id
 _symmetry_equiv_pos_as_xyz
  1  'x, y, z'
loop_
 _atom_site_type_symbol
 _atom_site_label
 _atom_site_symmetry_multiplicity
 _atom_site_fract_x
 _atom_site_fract_y
 _atom_site_fract_z
 _atom_site_occupancy
  Ho  Ho0  1  0.50001699  0.33314500  0.66587600  1
  Ho  Ho1  1  0.50001699  0.66727001  0.33412404  1
  Ho  Ho2  1  0.00001700  0.66685501  0.33412404  1
  Ho  Ho3  1  0.00001700  0.33273000  0.66587600  1
  Ho  Ho4  1  0.75018598  0.22084900  0.00000002  1
  Ho  Ho5  1  0.74987698  0.77813801  0.77743603  1
  Ho  Ho6  1  0.74987698  0.00070200  0.22256399  1
  Ho  Ho7  1  0.25018599  0.77915101  0.00000005  1
  Ho  Ho8  1  0.24987699  0.22186200  0.22256401  1
  Ho  Ho9  1  0.24987699  0.99929801  0.77743605  1
  Ge  Ge10  1  0.74930498  0.59201501  0.00000004  1
  Ge  Ge11  1  0.75035998  0.40714800  0.40724402  1
  Ge  Ge12  1  0.75035998  0.99990401  0.59275605  1
  Ge  Ge13  1  0.24930499  0.40798500  0.00000003  1
  Ge  Ge14  1  0.25035999  0.59285201  0.59275602  1
  Ge  Ge15  1  0.25035999  0.00009600  0.40724399  1
  C  C16  1  0.49999999  0.00019100  0.00000000  1
  C  C17  1  0.00000000  0.99980901  0.00000007  1
