# generated using pymatgen
data_Ba4Ta3NbO12
_symmetry_space_group_name_H-M   'P 1'
_cell_length_a   5.88062668
_cell_length_b   5.88059521
_cell_length_c   10.24006748
_cell_angle_alpha   106.68679047
_cell_angle_beta   106.68681335
_cell_angle_gamma   59.99975967
_symmetry_Int_Tables_number   1
_chemical_formula_structural   Ba4Ta3NbO12
_chemical_formula_sum   'Ba4 Ta3 Nb1 O12'
_cell_volume   289.32692551
_cell_formula_units_Z   1
loop_
 _symmetry_equiv_pos_site_id
 _symmetry_equiv_pos_as_xyz
  1  'x, y, z'
loop_
 _atom_site_type_symbol
 _atom_site_label
 _atom_site_symmetry_multiplicity
 _atom_site_fract_x
 _atom_site_fract_y
 _atom_site_fract_z
 _atom_site_occupancy
  Ba  Ba0  1  0.28442400  0.28442399  0.85327197  1
  Ba  Ba1  1  0.71557699  0.71557597  0.14672898  1
  Ba  Ba2  1  0.12604600  0.12604600  0.37813798  1
  Ba  Ba3  1  0.87395299  0.87395497  0.62186196  1
  Ta  Ta4  1  0.59356299  0.59356298  0.78068596  1
  Ta  Ta5  1  0.40643700  0.40643198  0.21930798  1
  Ta  Ta6  1  0.49999899  0.49999898  0.49999697  1
  Nb  Nb7  1  0.00000100  0.00000000  0.00000300  1
  O  O8  1  0.27260300  0.80486497  0.88233196  1
  O  O9  1  0.80486399  0.27260399  0.88233196  1
  O  O10  1  0.80486499  0.80486497  0.88233195  1
  O  O11  1  0.19512900  0.19512899  0.11766699  1
  O  O12  1  0.72740799  0.19512899  0.11766698  1
  O  O13  1  0.19513000  0.72740597  0.11766699  1
  O  O14  1  0.15411000  0.61144898  0.37700898  1
  O  O15  1  0.61144999  0.15410899  0.37700898  1
  O  O16  1  0.38855500  0.84588497  0.62299397  1
  O  O17  1  0.84587999  0.38855799  0.62299296  1
  O  O18  1  0.38855600  0.38855799  0.62299297  1
  O  O19  1  0.61144999  0.61144798  0.37700897  1
