# generated using pymatgen
data_Ce2Mg
_symmetry_space_group_name_H-M   'P 1'
_cell_length_a   3.79594803
_cell_length_b   5.59510994
_cell_length_c   8.96519375
_cell_angle_alpha   90.00000000
_cell_angle_beta   102.22227478
_cell_angle_gamma   90.00000000
_symmetry_Int_Tables_number   1
_chemical_formula_structural   Ce2Mg
_chemical_formula_sum   'Ce4 Mg2'
_cell_volume   186.09359256
_cell_formula_units_Z   2
loop_
 _symmetry_equiv_pos_site_id
 _symmetry_equiv_pos_as_xyz
  1  'x, y, z'
loop_
 _atom_site_type_symbol
 _atom_site_label
 _atom_site_symmetry_multiplicity
 _atom_site_fract_x
 _atom_site_fract_y
 _atom_site_fract_z
 _atom_site_occupancy
  Ce  Ce0  1  0.08887400  0.25000000  0.17774801  1
  Ce  Ce1  1  0.77234200  0.25000000  0.54468403  1
  Ce  Ce2  1  0.91112600  0.75000001  0.82225204  1
  Ce  Ce3  1  0.22765800  0.75000001  0.45531602  1
  Mg  Mg4  1  0.43287600  0.25000000  0.86575203  1
  Mg  Mg5  1  0.56712400  0.75000001  0.13424801  1
