# generated using pymatgen
data_ZnGeAs2
_symmetry_space_group_name_H-M   'P 1'
_cell_length_a   5.88460207
_cell_length_b   5.88460207
_cell_length_c   7.06468248
_cell_angle_alpha   114.61257172
_cell_angle_beta   114.61257172
_cell_angle_gamma   90.00000000
_symmetry_Int_Tables_number   1
_chemical_formula_structural   ZnGeAs2
_chemical_formula_sum   'Zn2 Ge2 As4'
_cell_volume   197.70279748
_cell_formula_units_Z   2
loop_
 _symmetry_equiv_pos_site_id
 _symmetry_equiv_pos_as_xyz
  1  'x, y, z'
loop_
 _atom_site_type_symbol
 _atom_site_label
 _atom_site_symmetry_multiplicity
 _atom_site_fract_x
 _atom_site_fract_y
 _atom_site_fract_z
 _atom_site_occupancy
  Zn  Zn0  1  0.24999999  0.74999999  0.49999998  1
  Zn  Zn1  1  0.74999999  0.25000000  0.49999998  1
  Ge  Ge2  1  0.00000000  0.00000000  0.00000000  1
  Ge  Ge3  1  0.49999999  0.49999999  0.99999998  1
  As  As4  1  0.89300298  0.89300298  0.25785698  1
  As  As5  1  0.36485399  0.36485399  0.25785699  1
  As  As6  1  0.63514599  0.10699700  0.74214298  1
  As  As7  1  0.10699699  0.63514599  0.74214298  1
