# generated using pymatgen
data_InPd
_symmetry_space_group_name_H-M   'P 1'
_cell_length_a   5.64944983
_cell_length_b   5.78137207
_cell_length_c   7.05733013
_cell_angle_alpha   114.17974091
_cell_angle_beta   113.59406281
_cell_angle_gamma   90.00000000
_symmetry_Int_Tables_number   1
_chemical_formula_structural   InPd
_chemical_formula_sum   'In4 Pd4'
_cell_volume   188.96002486
_cell_formula_units_Z   4
loop_
 _symmetry_equiv_pos_site_id
 _symmetry_equiv_pos_as_xyz
  1  'x, y, z'
loop_
 _atom_site_type_symbol
 _atom_site_label
 _atom_site_symmetry_multiplicity
 _atom_site_fract_x
 _atom_site_fract_y
 _atom_site_fract_z
 _atom_site_occupancy
  In  In0  1  0.00433200  0.00433200  0.00866400  1
  In  In1  1  0.24980101  0.74980099  0.49960200  1
  In  In2  1  0.49410802  0.49410799  0.98821601  1
  In  In3  1  0.74815903  0.24815900  0.49631801  1
  Pd  Pd4  1  0.75191303  0.75191299  0.50382601  1
  Pd  Pd5  1  0.99455704  0.49455699  0.98911402  1
  Pd  Pd6  1  0.25267901  0.25267900  0.50535800  1
  Pd  Pd7  1  0.50445102  0.00445100  0.00890201  1
