# generated using pymatgen
data_LaCo3
_symmetry_space_group_name_H-M   'P 1'
_cell_length_a   5.76006603
_cell_length_b   6.06291962
_cell_length_c   6.06291962
_cell_angle_alpha   78.09532166
_cell_angle_beta   73.12345886
_cell_angle_gamma   73.12345886
_symmetry_Int_Tables_number   1
_chemical_formula_structural   LaCo3
_chemical_formula_sum   'La2 Co6'
_cell_volume   192.16067592
_cell_formula_units_Z   2
loop_
 _symmetry_equiv_pos_site_id
 _symmetry_equiv_pos_as_xyz
  1  'x, y, z'
loop_
 _atom_site_type_symbol
 _atom_site_label
 _atom_site_symmetry_multiplicity
 _atom_site_fract_x
 _atom_site_fract_y
 _atom_site_fract_z
 _atom_site_occupancy
  La  La0  1  0.32965103  0.83450599  0.83450602  1
  La  La1  1  0.67034901  0.16549400  0.16549403  1
  Co  Co2  1  0.79864103  0.63726799  0.08589404  1
  Co  Co3  1  0.79864101  0.08589400  0.63726803  1
  Co  Co4  1  0.20135901  0.36273199  0.91410601  1
  Co  Co5  1  0.20135903  0.91410599  0.36273202  1
  Co  Co6  1  0.77326602  0.51086899  0.51086903  1
  Co  Co7  1  0.22673402  0.48913099  0.48913101  1
