# generated using pymatgen
data_Y3MgIn3Ag2
_symmetry_space_group_name_H-M   'P 1'
_cell_length_a   4.15598583
_cell_length_b   7.90786982
_cell_length_c   7.90787077
_cell_angle_alpha   120.00000000
_cell_angle_beta   90.00000000
_cell_angle_gamma   90.00000000
_symmetry_Int_Tables_number   1
_chemical_formula_structural   Y3MgIn3Ag2
_chemical_formula_sum   'Y3 Mg1 In3 Ag2'
_cell_volume   225.07318912
_cell_formula_units_Z   1
loop_
 _symmetry_equiv_pos_site_id
 _symmetry_equiv_pos_as_xyz
  1  'x, y, z'
loop_
 _atom_site_type_symbol
 _atom_site_label
 _atom_site_symmetry_multiplicity
 _atom_site_fract_x
 _atom_site_fract_y
 _atom_site_fract_z
 _atom_site_occupancy
  Y  Y0  1  0.50000002  0.58988303  0.00000003  1
  Y  Y1  1  0.50000002  0.41011702  0.41011701  1
  Y  Y2  1  0.50000002  1.00000005  0.58988304  1
  Ag  Ag3  1  -0.00000000  0.33333335  0.66666667  1
  Ag  Ag4  1  -0.00000000  0.66666670  0.33333336  1
  Mg  Mg5  1  0.50000002  0.00000000  -0.00000000  1
  In  In6  1  -0.00000000  0.25574401  0.00000001  1
  In  In7  1  -0.00000000  0.74425604  0.74425602  1
  In  In8  1  0.00000000  0.00000000  0.25574399  1
