# generated using pymatgen
data_Hf7Bi4O9
_symmetry_space_group_name_H-M   'P 1'
_cell_length_a   5.74097157
_cell_length_b   6.93126822
_cell_length_c   10.51265144
_cell_angle_alpha   109.24832916
_cell_angle_beta   91.54888916
_cell_angle_gamma   90.00000000
_symmetry_Int_Tables_number   1
_chemical_formula_structural   Hf7Bi4O9
_chemical_formula_sum   'Hf7 Bi4 O9'
_cell_volume   394.77502226
_cell_formula_units_Z   1
loop_
 _symmetry_equiv_pos_site_id
 _symmetry_equiv_pos_as_xyz
  1  'x, y, z'
loop_
 _atom_site_type_symbol
 _atom_site_label
 _atom_site_symmetry_multiplicity
 _atom_site_fract_x
 _atom_site_fract_y
 _atom_site_fract_z
 _atom_site_occupancy
  Hf  Hf0  1  0.50000000  0.49999998  0.50000001  1
  Hf  Hf1  1  0.00000000  0.00000000  0.50000002  1
  Hf  Hf2  1  0.95950698  0.31428898  0.16601702  1
  Hf  Hf3  1  0.45950700  0.85172796  0.16601699  1
  Hf  Hf4  1  0.54049299  0.14827199  0.83398304  1
  Hf  Hf5  1  0.04049301  0.68571097  0.83398300  1
  Hf  Hf6  1  0.82992898  0.30747399  0.84052304  1
  Bi  Bi7  1  0.70065000  0.88801796  0.73609301  1
  O  O8  1  0.49334199  0.15520399  0.64442003  1
  Bi  Bi9  1  0.32992900  0.53304897  0.84052302  1
  Bi  Bi10  1  0.99334198  0.48921598  0.64442003  1
  Bi  Bi11  1  0.29934999  0.11198199  0.26390701  1
  O  O12  1  0.17007101  0.69252597  0.15947699  1
  O  O13  1  0.50665800  0.84479596  0.35558000  1
  O  O14  1  0.74999998  0.08079800  0.00000002  1
  O  O15  1  0.25000001  0.91920196  1.00000001  1
  O  O16  1  0.00665801  0.51078398  0.35557999  1
  O  O17  1  0.20065001  0.84807496  0.73609300  1
  O  O18  1  0.79934998  0.15192499  0.26390703  1
  O  O19  1  0.67007099  0.46695098  0.15947701  1
