# generated using pymatgen
data_Pr3Bi4Pt3
_symmetry_space_group_name_H-M   'P 1'
_cell_length_a   8.73205471
_cell_length_b   8.73205471
_cell_length_c   8.73205471
_cell_angle_alpha   109.47122192
_cell_angle_beta   109.47122192
_cell_angle_gamma   109.47122192
_symmetry_Int_Tables_number   1
_chemical_formula_structural   Pr3Bi4Pt3
_chemical_formula_sum   'Pr6 Bi8 Pt6'
_cell_volume   512.53960850
_cell_formula_units_Z   2
loop_
 _symmetry_equiv_pos_site_id
 _symmetry_equiv_pos_as_xyz
  1  'x, y, z'
loop_
 _atom_site_type_symbol
 _atom_site_label
 _atom_site_symmetry_multiplicity
 _atom_site_fract_x
 _atom_site_fract_y
 _atom_site_fract_z
 _atom_site_occupancy
  Pr  Pr0  1  0.74999999  0.12500000  0.37500001  1
  Pr  Pr1  1  0.62500000  0.25000000  0.87500000  1
  Pr  Pr2  1  0.87500003  0.75000001  0.62500005  1
  Pr  Pr3  1  0.25000002  0.37500000  0.12500002  1
  Pr  Pr4  1  0.37500003  0.62500001  0.75000002  1
  Pr  Pr5  1  0.12500005  0.87500001  0.25000004  1
  Bi  Bi6  1  0.17015401  0.17015400  0.67015400  1
  Bi  Bi7  1  0.82984598  0.00000000  0.99999999  1
  Bi  Bi8  1  0.50000001  0.32984600  0.50000002  1
  Bi  Bi9  1  0.67015403  0.67015401  0.17015405  1
  Bi  Bi10  1  1.00000001  0.50000001  0.32984604  1
  Bi  Bi11  1  1.00000001  0.50000001  0.82984603  1
  Bi  Bi12  1  0.32984606  1.00000001  0.00000006  1
  Bi  Bi13  1  0.50000004  0.82984601  0.50000004  1
  Pt  Pt14  1  0.87499999  0.12500000  0.75000001  1
  Pt  Pt15  1  0.12500001  0.25000000  0.37500001  1
  Pt  Pt16  1  0.75000003  0.62500001  0.87500003  1
  Pt  Pt17  1  0.62500001  0.37500000  0.25000003  1
  Pt  Pt18  1  0.37500004  0.75000001  0.12500005  1
  Pt  Pt19  1  0.25000005  0.87500001  0.62500004  1
