# generated using pymatgen
data_Ce2Co3Ge5
_symmetry_space_group_name_H-M   'P 1'
_cell_length_a   5.93919992
_cell_length_b   8.27710056
_cell_length_c   8.27710056
_cell_angle_alpha   73.08061981
_cell_angle_beta   68.97514343
_cell_angle_gamma   68.97514343
_symmetry_Int_Tables_number   1
_chemical_formula_structural   Ce2Co3Ge5
_chemical_formula_sum   'Ce4 Co6 Ge10'
_cell_volume   348.31623954
_cell_formula_units_Z   2
loop_
 _symmetry_equiv_pos_site_id
 _symmetry_equiv_pos_as_xyz
  1  'x, y, z'
loop_
 _atom_site_type_symbol
 _atom_site_label
 _atom_site_symmetry_multiplicity
 _atom_site_fract_x
 _atom_site_fract_y
 _atom_site_fract_z
 _atom_site_occupancy
  Ce  Ce0  1  0.86665802  0.39517500  0.87150903  1
  Ce  Ce1  1  0.13334204  0.60482500  0.12849099  1
  Ce  Ce2  1  0.63334201  0.12849100  0.60482503  1
  Ce  Ce3  1  0.36665805  0.87150900  0.39517499  1
  Co  Co4  1  0.63564403  0.47337100  0.25534001  1
  Co  Co5  1  0.36435603  0.52662900  0.74466001  1
  Co  Co6  1  0.86435504  0.74466100  0.52662902  1
  Co  Co7  1  0.13564502  0.25533900  0.47337100  1
  Co  Co8  1  0.25000006  1.00000001  1.00000000  1
  Co  Co9  1  0.75000006  1.00000001  1.00000001  1
  Ge  Ge10  1  0.01410002  0.23590000  0.23590000  1
  Ge  Ge11  1  0.48590005  0.76410000  0.76410001  1
  Ge  Ge12  1  0.98590004  0.76410000  0.76410002  1
  Ge  Ge13  1  0.51410001  0.23590000  0.23590001  1
  Ge  Ge14  1  0.59861405  0.74551500  0.05725700  1
  Ge  Ge15  1  0.40138601  0.25448500  0.94274302  1
  Ge  Ge16  1  0.90138606  0.94274301  0.25448501  1
  Ge  Ge17  1  0.09861400  0.05725700  0.74551501  1
  Ge  Ge18  1  0.25000003  0.50000000  0.50000000  1
  Ge  Ge19  1  0.75000003  0.50000000  0.50000002  1
