# generated using pymatgen
data_Mg4(NiSn)7
_symmetry_space_group_name_H-M   'P 1'
_cell_length_a   4.80390120
_cell_length_b   4.80390120
_cell_length_c   13.45947456
_cell_angle_alpha   95.12945557
_cell_angle_beta   95.12945557
_cell_angle_gamma   119.30886078
_symmetry_Int_Tables_number   1
_chemical_formula_structural   Mg4(NiSn)7
_chemical_formula_sum   'Mg4 Ni7 Sn7'
_cell_volume   266.57552661
_cell_formula_units_Z   1
loop_
 _symmetry_equiv_pos_site_id
 _symmetry_equiv_pos_as_xyz
  1  'x, y, z'
loop_
 _atom_site_type_symbol
 _atom_site_label
 _atom_site_symmetry_multiplicity
 _atom_site_fract_x
 _atom_site_fract_y
 _atom_site_fract_z
 _atom_site_occupancy
  Mg  Mg0  1  0.62979204  0.70478403  0.83142899  1
  Mg  Mg1  1  0.29521602  0.37020802  0.16857100  1
  Mg  Mg2  1  0.37366405  0.95635004  0.33197800  1
  Mg  Mg3  1  0.04365003  0.62633603  0.66802199  1
  Ni  Ni4  1  0.70662503  0.29337501  0.00000001  1
  Ni  Ni5  1  0.70626304  0.63107403  0.33527800  1
  Ni  Ni6  1  0.36892602  0.29373701  0.66472199  1
  Ni  Ni7  1  0.03626604  0.96373404  0.00000001  1
  Ni  Ni8  1  0.28771504  0.71228503  0.50000000  1
  Ni  Ni9  1  0.95788404  0.36858102  0.83246999  1
  Ni  Ni10  1  0.63141902  0.04211600  0.16753000  1
  Sn  Sn11  1  0.96499702  0.03500300  0.50000000  1
  Sn  Sn12  1  0.63086103  0.36913902  0.50000000  1
  Sn  Sn13  1  0.29594001  0.03901100  0.83316498  1
  Sn  Sn14  1  0.96098905  0.70406003  0.16683501  1
  Sn  Sn15  1  0.03630201  0.29434101  0.33846099  1
  Sn  Sn16  1  0.70565906  0.96369804  0.66153900  1
  Sn  Sn17  1  0.36783103  0.63216903  0.00000001  1
