# generated using pymatgen
data_PrGe2Ir
_symmetry_space_group_name_H-M   'P 1'
_cell_length_a   4.44484806
_cell_length_b   8.88146019
_cell_length_c   9.68422318
_cell_angle_alpha   117.29377747
_cell_angle_beta   103.26699829
_cell_angle_gamma   90.00000000
_symmetry_Int_Tables_number   1
_chemical_formula_structural   PrGe2Ir
_chemical_formula_sum   'Pr4 Ge8 Ir4'
_cell_volume   328.21515690
_cell_formula_units_Z   4
loop_
 _symmetry_equiv_pos_site_id
 _symmetry_equiv_pos_as_xyz
  1  'x, y, z'
loop_
 _atom_site_type_symbol
 _atom_site_label
 _atom_site_symmetry_multiplicity
 _atom_site_fract_x
 _atom_site_fract_y
 _atom_site_fract_z
 _atom_site_occupancy
  Pr  Pr0  1  1.00000000  0.23830999  0.99999999  1
  Pr  Pr1  1  0.00000001  0.76168998  -0.00000000  1
  Pr  Pr2  1  0.79573301  0.79573298  0.59146599  1
  Pr  Pr3  1  0.20426700  0.20426700  0.40853399  1
  Ge  Ge4  1  0.57491200  0.57491199  0.14982400  1
  Ge  Ge5  1  0.42508800  0.42508799  0.85017599  1
  Ge  Ge6  1  0.57480200  0.07480200  0.14960400  1
  Ge  Ge7  1  0.42519801  0.92519798  0.85039599  1
  Ge  Ge8  1  0.80165700  0.14974100  0.60331400  1
  Ge  Ge9  1  0.19834301  0.85025898  0.39668599  1
  Ge  Ge10  1  0.80165700  0.45357299  0.60331400  1
  Ge  Ge11  1  0.19834301  0.54642699  0.39668599  1
  Ir  Ir12  1  0.64897901  0.89686998  0.29795700  1
  Ir  Ir13  1  0.35102100  0.10313000  0.70204299  1
  Ir  Ir14  1  0.64897800  0.40108699  0.29795600  1
  Ir  Ir15  1  0.35102201  0.59891299  0.70204399  1
