# generated using pymatgen
data_Li2AlO4
_symmetry_space_group_name_H-M   'P 1'
_cell_length_a   5.98246765
_cell_length_b   5.98246765
_cell_length_c   5.98246765
_cell_angle_alpha   107.88941956
_cell_angle_beta   107.88941956
_cell_angle_gamma   112.68336487
_symmetry_Int_Tables_number   1
_chemical_formula_structural   Li2AlO4
_chemical_formula_sum   'Li4 Al2 O8'
_cell_volume   164.43264554
_cell_formula_units_Z   2
loop_
 _symmetry_equiv_pos_site_id
 _symmetry_equiv_pos_as_xyz
  1  'x, y, z'
loop_
 _atom_site_type_symbol
 _atom_site_label
 _atom_site_symmetry_multiplicity
 _atom_site_fract_x
 _atom_site_fract_y
 _atom_site_fract_z
 _atom_site_occupancy
  Li  Li0  1  0.87499993  0.96664995  0.59164993  1
  Li  Li1  1  0.37499998  0.28334999  0.40834997  1
  Li  Li2  1  0.71664997  0.12499999  0.09164998  1
  Li  Li3  1  0.03334997  0.62499997  0.90834995  1
  Al  Al4  1  0.24999996  0.74999996  0.49999995  1
  Al  Al5  1  0.49999996  0.49999997  -0.00000003  1
  O  O6  1  0.55306597  0.35096398  0.18523997  1
  O  O7  1  0.19693396  0.88217395  0.29789796  1
  O  O8  1  0.16572398  0.36782598  0.81475996  1
  O  O9  1  0.58427594  0.89903595  0.70210194  1
  O  O10  1  0.63217396  0.44693398  0.79789795  1
  O  O11  1  0.11782598  0.41572398  0.31475997  1
  O  O12  1  0.64903594  0.83427596  0.20210195  1
  O  O13  1  0.10096396  0.80306596  0.68523995  1
