# generated using pymatgen
data_Na2Cu5Sb2Pd
_symmetry_space_group_name_H-M   'P 1'
_cell_length_a   4.49359179
_cell_length_b   7.81685925
_cell_length_c   9.46235943
_cell_angle_alpha   114.11655426
_cell_angle_beta   103.73583221
_cell_angle_gamma   90.00000000
_symmetry_Int_Tables_number   1
_chemical_formula_structural   Na2Cu5Sb2Pd
_chemical_formula_sum   'Na2 Cu5 Sb2 Pd1'
_cell_volume   292.91641336
_cell_formula_units_Z   1
loop_
 _symmetry_equiv_pos_site_id
 _symmetry_equiv_pos_as_xyz
  1  'x, y, z'
loop_
 _atom_site_type_symbol
 _atom_site_label
 _atom_site_symmetry_multiplicity
 _atom_site_fract_x
 _atom_site_fract_y
 _atom_site_fract_z
 _atom_site_occupancy
  Na  Na0  1  0.49288706  0.49224801  0.98577404  1
  Na  Na1  1  0.99529912  0.99700901  0.99059807  1
  Cu  Cu2  1  0.19494304  0.51721601  0.38988602  1
  Cu  Cu3  1  0.32242707  0.97444501  0.64485404  1
  Cu  Cu4  1  0.81673708  0.49850201  0.63347405  1
  Cu  Cu5  1  0.68706504  0.03189200  0.37413003  1
  Sb  Sb6  1  0.36764706  0.69730701  0.73529404  1
  Cu  Cu7  1  0.84840506  0.18684800  0.69681004  1
  Sb  Sb8  1  0.63196406  0.30046500  0.26392803  1
  Pd  Pd9  1  0.13672205  0.80406901  0.27344402  1
