# generated using pymatgen
data_Ce3CuGe9
_symmetry_space_group_name_H-M   'P 1'
_cell_length_a   4.14283800
_cell_length_b   4.22178411
_cell_length_c   13.20102787
_cell_angle_alpha   90.00000000
_cell_angle_beta   99.02778625
_cell_angle_gamma   90.00000000
_symmetry_Int_Tables_number   1
_chemical_formula_structural   Ce3CuGe9
_chemical_formula_sum   'Ce3 Cu1 Ge9'
_cell_volume   228.02803094
_cell_formula_units_Z   1
loop_
 _symmetry_equiv_pos_site_id
 _symmetry_equiv_pos_as_xyz
  1  'x, y, z'
loop_
 _atom_site_type_symbol
 _atom_site_label
 _atom_site_symmetry_multiplicity
 _atom_site_fract_x
 _atom_site_fract_y
 _atom_site_fract_z
 _atom_site_occupancy
  Ce  Ce0  1  0.00088900  0.99999997  0.00177800  1
  Ce  Ce1  1  0.68587000  0.49999999  0.37173999  1
  Ce  Ce2  1  0.31788600  0.49999999  0.63577199  1
  Cu  Cu3  1  0.59401900  0.00000000  0.18803799  1
  Ge  Ge4  1  0.40862600  0.99999997  0.81725198  1
  Ge  Ge5  1  0.77646100  0.00000000  0.55292198  1
  Ge  Ge6  1  0.22428700  0.00000000  0.44857399  1
  Ge  Ge7  1  0.90859100  0.49999999  0.81718198  1
  Ge  Ge8  1  0.09472700  0.49999999  0.18945400  1
  Ge  Ge9  1  0.53850800  0.49999999  0.07701599  1
  Ge  Ge10  1  0.86635800  0.99999997  0.73271598  1
  Ge  Ge11  1  0.13263500  0.99999997  0.26526999  1
  Ge  Ge12  1  0.45114500  0.49999999  0.90228998  1
