# generated using pymatgen
data_Dy2C3
_symmetry_space_group_name_H-M   'P 1'
_cell_length_a   7.29896259
_cell_length_b   7.29896259
_cell_length_c   7.29896259
_cell_angle_alpha   109.47122192
_cell_angle_beta   109.47122192
_cell_angle_gamma   109.47122192
_symmetry_Int_Tables_number   1
_chemical_formula_structural   Dy2C3
_chemical_formula_sum   'Dy8 C12'
_cell_volume   299.33775850
_cell_formula_units_Z   4
loop_
 _symmetry_equiv_pos_site_id
 _symmetry_equiv_pos_as_xyz
  1  'x, y, z'
loop_
 _atom_site_type_symbol
 _atom_site_label
 _atom_site_symmetry_multiplicity
 _atom_site_fract_x
 _atom_site_fract_y
 _atom_site_fract_z
 _atom_site_occupancy
  Dy  Dy0  1  0.00000003  0.50000002  0.09630303  1
  Dy  Dy1  1  0.59630307  1.00000004  1.00000007  1
  Dy  Dy2  1  0.50000004  0.59630302  0.50000004  1
  Dy  Dy3  1  0.90369706  0.90369703  0.40369707  1
  Dy  Dy4  1  0.09471700  0.00000000  1.00000000  1
  Dy  Dy5  1  0.00000003  0.50000002  0.59471703  1
  Dy  Dy6  1  0.50000001  0.09471700  0.50000001  1
  Dy  Dy7  1  0.40528303  0.40528301  0.90528303  1
  C  C8  1  0.29867605  0.75000003  0.04867605  1
  C  C9  1  0.20132402  0.25000001  0.45132402  1
  C  C10  1  0.03770602  0.25000001  0.28770601  1
  C  C11  1  0.46229405  0.75000003  0.21229405  1
  C  C12  1  0.75000004  0.54867602  0.79867604  1
  C  C13  1  0.25000006  0.95132403  0.70132406  1
  C  C14  1  0.25000005  0.78770603  0.53770605  1
  C  C15  1  0.75000005  0.71229403  0.96229405  1
  C  C16  1  0.54867602  0.29867601  0.25000003  1
  C  C17  1  0.95132402  0.20132401  0.75000003  1
  C  C18  1  0.78770601  0.03770600  0.75000002  1
  C  C19  1  0.71229403  0.46229402  0.25000004  1
