# generated using pymatgen
data_Sr3La(SnO3)4
_symmetry_space_group_name_H-M   'P 1'
_cell_length_a   5.62206888
_cell_length_b   5.82373810
_cell_length_c   8.10462856
_cell_angle_alpha   90.00000000
_cell_angle_beta   90.00000000
_cell_angle_gamma   89.96701050
_symmetry_Int_Tables_number   1
_chemical_formula_structural   Sr3La(SnO3)4
_chemical_formula_sum   'Sr3 La1 Sn4 O12'
_cell_volume   265.35730149
_cell_formula_units_Z   1
loop_
 _symmetry_equiv_pos_site_id
 _symmetry_equiv_pos_as_xyz
  1  'x, y, z'
loop_
 _atom_site_type_symbol
 _atom_site_label
 _atom_site_symmetry_multiplicity
 _atom_site_fract_x
 _atom_site_fract_y
 _atom_site_fract_z
 _atom_site_occupancy
  Sr  Sr0  1  0.48573200  0.44360999  0.25000001  1
  Sr  Sr1  1  0.51426799  0.55638999  0.75000004  1
  La  La2  1  0.01232597  0.94902598  0.25000001  1
  Sr  Sr3  1  0.98767402  0.05097400  0.75000004  1
  Sn  Sn4  1  0.50000001  0.00000000  0.50000003  1
  Sn  Sn5  1  0.50000001  0.00000000  0.00000000  1
  Sn  Sn6  1  -0.00000001  0.49999999  0.50000003  1
  Sn  Sn7  1  -0.00000001  0.49999999  0.00000000  1
  O  O8  1  0.69178101  0.30062699  0.55665403  1
  O  O9  1  0.80326699  0.80350898  0.94347605  1
  O  O10  1  0.30821899  0.69937298  0.05665400  1
  O  O11  1  0.19673300  0.19649100  0.44347602  1
  O  O12  1  0.80326699  0.80350898  0.55652403  1
  O  O13  1  0.19673300  0.19649100  0.05652400  1
  O  O14  1  0.10023099  0.46180199  0.75000004  1
  O  O15  1  0.69178101  0.30062699  0.94334605  1
  O  O16  1  0.60944201  0.04530800  0.25000001  1
  O  O17  1  0.30821899  0.69937298  0.44334602  1
  O  O18  1  0.89976900  0.53819799  0.25000001  1
  O  O19  1  0.39055798  0.95469198  0.75000004  1
