# generated using pymatgen
data_CsCuCl3
_symmetry_space_group_name_H-M   'P 1'
_cell_length_a   7.17364645
_cell_length_b   7.17364645
_cell_length_c   7.17364645
_cell_angle_alpha   60.00000000
_cell_angle_beta   60.00000000
_cell_angle_gamma   60.00000000
_symmetry_Int_Tables_number   1
_chemical_formula_structural   CsCuCl3
_chemical_formula_sum   'Cs2 Cu2 Cl6'
_cell_volume   261.03870648
_cell_formula_units_Z   2
loop_
 _symmetry_equiv_pos_site_id
 _symmetry_equiv_pos_as_xyz
  1  'x, y, z'
loop_
 _atom_site_type_symbol
 _atom_site_label
 _atom_site_symmetry_multiplicity
 _atom_site_fract_x
 _atom_site_fract_y
 _atom_site_fract_z
 _atom_site_occupancy
  Cs  Cs0  1  0.25000000  0.25000000  0.25000000  1
  Cs  Cs1  1  0.74999999  0.74999999  0.74999999  1
  Cu  Cu2  1  0.00000000  0.00000000  0.00000000  1
  Cu  Cu3  1  0.50000000  0.50000000  0.50000000  1
  Cl  Cl4  1  0.23144900  0.76855099  0.23144900  1
  Cl  Cl5  1  0.23144900  0.23144900  0.76855099  1
  Cl  Cl6  1  0.76855099  0.23144900  0.76855099  1
  Cl  Cl7  1  0.23144900  0.76855099  0.76855099  1
  Cl  Cl8  1  0.76855099  0.23144900  0.23144900  1
  Cl  Cl9  1  0.76855099  0.76855099  0.23144900  1
