# generated using pymatgen
data_HfZr7N12
_symmetry_space_group_name_H-M   'P 1'
_cell_length_a   3.02024889
_cell_length_b   8.18864346
_cell_length_c   8.31998253
_cell_angle_alpha   90.00000000
_cell_angle_beta   90.00000000
_cell_angle_gamma   90.00000000
_symmetry_Int_Tables_number   1
_chemical_formula_structural   HfZr7N12
_chemical_formula_sum   'Hf1 Zr7 N12'
_cell_volume   205.76765557
_cell_formula_units_Z   1
loop_
 _symmetry_equiv_pos_site_id
 _symmetry_equiv_pos_as_xyz
  1  'x, y, z'
loop_
 _atom_site_type_symbol
 _atom_site_label
 _atom_site_symmetry_multiplicity
 _atom_site_fract_x
 _atom_site_fract_y
 _atom_site_fract_z
 _atom_site_occupancy
  Hf  Hf0  1  0.25000001  0.18720699  0.47793203  1
  Zr  Zr1  1  0.25000001  0.31279298  0.97793206  1
  Zr  Zr2  1  0.75000003  0.81279295  0.52206803  1
  Zr  Zr3  1  0.75000003  0.68720696  0.02206800  1
  Zr  Zr4  1  0.25000001  0.99572994  0.80508605  1
  Zr  Zr5  1  0.25000001  0.50426997  0.30508602  1
  Zr  Zr6  1  0.75000003  0.00427000  0.19491401  1
  Zr  Zr7  1  0.75000003  0.49572997  0.69491404  1
  N  N8  1  0.25000001  0.62574597  0.54557403  1
  N  N9  1  0.25000001  0.87425395  0.04557400  1
  N  N10  1  0.75000003  0.37425398  0.45442603  1
  N  N11  1  0.75000003  0.12574599  0.95442605  1
  N  N12  1  0.25000001  0.95203195  0.37871902  1
  N  N13  1  0.25000001  0.54796797  0.87871905  1
  N  N14  1  0.75000003  0.04796800  0.62128104  1
  N  N15  1  0.75000003  0.45203197  0.12128101  1
  N  N16  1  0.25000001  0.29740398  0.72148404  1
  N  N17  1  0.25000001  0.20259599  0.22148401  1
  N  N18  1  0.75000003  0.70259596  0.27851602  1
  N  N19  1  0.75000003  0.79740396  0.77851604  1
