# generated using pymatgen
data_Sr2LuBiO6
_symmetry_space_group_name_H-M   'P 1'
_cell_length_a   5.92615652
_cell_length_b   6.04941988
_cell_length_c   8.45034885
_cell_angle_alpha   90.00000000
_cell_angle_beta   90.07142639
_cell_angle_gamma   90.00000000
_symmetry_Int_Tables_number   1
_chemical_formula_structural   Sr2LuBiO6
_chemical_formula_sum   'Sr4 Lu2 Bi2 O12'
_cell_volume   302.94315758
_cell_formula_units_Z   2
loop_
 _symmetry_equiv_pos_site_id
 _symmetry_equiv_pos_as_xyz
  1  'x, y, z'
loop_
 _atom_site_type_symbol
 _atom_site_label
 _atom_site_symmetry_multiplicity
 _atom_site_fract_x
 _atom_site_fract_y
 _atom_site_fract_z
 _atom_site_occupancy
  Sr  Sr0  1  0.01118300  0.45637001  0.25065001  1
  Sr  Sr1  1  0.98881703  0.54363001  0.74934998  1
  Sr  Sr2  1  0.48881701  0.95637002  0.24934999  1
  Sr  Sr3  1  0.51118301  0.04363000  0.75065000  1
  Lu  Lu4  1  0.00000000  0.00000000  0.50000001  1
  Lu  Lu5  1  0.50000001  0.50000001  -0.00000002  1
  Bi  Bi6  1  0.00000000  0.00000000  0.00000000  1
  Bi  Bi7  1  0.50000001  0.50000001  0.49999999  1
  O  O8  1  0.91031503  0.03074600  0.24465197  1
  O  O9  1  0.08968500  0.96925402  0.75534801  1
  O  O10  1  0.58968502  0.53074601  0.25534798  1
  O  O11  1  0.41031501  0.46925401  0.74465200  1
  O  O12  1  0.20080101  0.71283701  0.04923799  1
  O  O13  1  0.79919902  0.28716301  0.95076199  1
  O  O14  1  0.29919901  0.21283700  0.45076200  1
  O  O15  1  0.70080102  0.78716302  0.54923798  1
  O  O16  1  0.28853901  0.20288600  0.04640899  1
  O  O17  1  0.71146102  0.79711402  0.95359099  1
  O  O18  1  0.21146101  0.70288601  0.45359100  1
  O  O19  1  0.78853902  0.29711401  0.54640898  1
