# generated using pymatgen
data_Eu4FeGe15
_symmetry_space_group_name_H-M   'P 1'
_cell_length_a   6.13546991
_cell_length_b   6.14323807
_cell_length_c   11.57395077
_cell_angle_alpha   105.39016724
_cell_angle_beta   105.37023163
_cell_angle_gamma   90.00000000
_symmetry_Int_Tables_number   1
_chemical_formula_structural   Eu4FeGe15
_chemical_formula_sum   'Eu4 Fe1 Ge15'
_cell_volume   404.39207578
_cell_formula_units_Z   1
loop_
 _symmetry_equiv_pos_site_id
 _symmetry_equiv_pos_as_xyz
  1  'x, y, z'
loop_
 _atom_site_type_symbol
 _atom_site_label
 _atom_site_symmetry_multiplicity
 _atom_site_fract_x
 _atom_site_fract_y
 _atom_site_fract_z
 _atom_site_occupancy
  Eu  Eu0  1  0.99633803  0.99633798  0.99267601  1
  Eu  Eu1  1  0.49952502  0.49952599  0.99905101  1
  Eu  Eu2  1  0.74865502  0.24865399  0.49730902  1
  Eu  Eu3  1  0.24689401  0.74689298  0.49378699  1
  Ge  Ge4  1  0.20435201  0.20435100  0.40870300  1
  Fe  Fe5  1  0.81063103  0.81063098  0.62126201  1
  Ge  Ge6  1  0.60251402  0.61347399  0.74488201  1
  Ge  Ge7  1  0.14236700  0.13140900  0.74488201  1
  Ge  Ge8  1  0.60251402  0.13140900  0.74488202  1
  Ge  Ge9  1  0.14236701  0.61347399  0.74488199  1
  Ge  Ge10  1  0.86453803  0.89531898  0.24506100  1
  Ge  Ge11  1  0.38052301  0.34974299  0.24506100  1
  Ge  Ge12  1  0.86453803  0.34974299  0.24506102  1
  Ge  Ge13  1  0.38052301  0.89531898  0.24506099  1
  Ge  Ge14  1  0.69212002  0.69211998  0.38424001  1
  Ge  Ge15  1  0.06176700  0.56176699  0.12353399  1
  Ge  Ge16  1  0.45380602  0.95380698  0.90761299  1
  Ge  Ge17  1  0.94300203  0.44300199  0.88600402  1
  Ge  Ge18  1  0.31434101  0.31434099  0.62868201  1
  Ge  Ge19  1  0.56351602  0.06351500  0.12703102  1
