# generated using pymatgen
data_Rb3Br(ClO)2
_symmetry_space_group_name_H-M   'P 1'
_cell_length_a   3.99625802
_cell_length_b   3.99625802
_cell_length_c   15.38848114
_cell_angle_alpha   82.53932190
_cell_angle_beta   82.53932190
_cell_angle_gamma   60.00000000
_symmetry_Int_Tables_number   1
_chemical_formula_structural   Rb3Br(ClO)2
_chemical_formula_sum   'Rb3 Br1 Cl2 O2'
_cell_volume   210.42448896
_cell_formula_units_Z   1
loop_
 _symmetry_equiv_pos_site_id
 _symmetry_equiv_pos_as_xyz
  1  'x, y, z'
loop_
 _atom_site_type_symbol
 _atom_site_label
 _atom_site_symmetry_multiplicity
 _atom_site_fract_x
 _atom_site_fract_y
 _atom_site_fract_z
 _atom_site_occupancy
  Rb  Rb0  1  0.38460500  0.38460600  0.84618400  1
  Rb  Rb1  1  0.89032400  0.89032400  0.32902802  1
  Rb  Rb2  1  0.10967600  0.10967600  0.67097199  1
  Br  Br3  1  0.61539500  0.61539400  0.15381601  1
  Cl  Cl4  1  0.50000000  0.50000000  0.50000000  1
  Cl  Cl5  1  0.00000000  0.00000000  0.00000000  1
  O  O6  1  0.74706400  0.74706400  0.75880801  1
  O  O7  1  0.25293600  0.25293600  0.24119200  1
