# generated using pymatgen
data_Hf7ZrN12
_symmetry_space_group_name_H-M   'P 1'
_cell_length_a   3.00048399
_cell_length_b   8.20050240
_cell_length_c   8.23923874
_cell_angle_alpha   90.00000000
_cell_angle_beta   90.00000000
_cell_angle_gamma   90.00000000
_symmetry_Int_Tables_number   1
_chemical_formula_structural   Hf7ZrN12
_chemical_formula_sum   'Hf7 Zr1 N12'
_cell_volume   202.73039225
_cell_formula_units_Z   1
loop_
 _symmetry_equiv_pos_site_id
 _symmetry_equiv_pos_as_xyz
  1  'x, y, z'
loop_
 _atom_site_type_symbol
 _atom_site_label
 _atom_site_symmetry_multiplicity
 _atom_site_fract_x
 _atom_site_fract_y
 _atom_site_fract_z
 _atom_site_occupancy
  Hf  Hf0  1  0.25000000  0.68690397  0.02100400  1
  Hf  Hf1  1  0.75000000  0.31309598  0.97899603  1
  Hf  Hf2  1  0.75000000  0.18690399  0.47899602  1
  Hf  Hf3  1  0.25000000  0.81309596  0.52100402  1
  Zr  Zr4  1  0.25000000  0.00426300  0.19423501  1
  Hf  Hf5  1  0.75000000  0.99573695  0.80576503  1
  Hf  Hf6  1  0.75000000  0.50426298  0.30576501  1
  Hf  Hf7  1  0.25000000  0.49573698  0.69423502  1
  N  N8  1  0.25000000  0.37460298  0.45388801  1
  N  N9  1  0.75000000  0.62539697  0.54611202  1
  N  N10  1  0.75000000  0.87460296  0.04611200  1
  N  N11  1  0.25000000  0.12539699  0.95388803  1
  N  N12  1  0.25000000  0.45042198  0.12091600  1
  N  N13  1  0.75000000  0.54957797  0.87908403  1
  N  N14  1  0.75000000  0.95042195  0.37908401  1
  N  N15  1  0.25000000  0.04957800  0.62091602  1
  N  N16  1  0.25000000  0.69943097  0.28001701  1
  N  N17  1  0.75000000  0.30056899  0.71998302  1
  N  N18  1  0.75000000  0.19943099  0.21998301  1
  N  N19  1  0.25000000  0.80056896  0.78001702  1
