# generated using pymatgen
data_Hf4CrS8
_symmetry_space_group_name_H-M   'P 1'
_cell_length_a   6.87527990
_cell_length_b   6.87527990
_cell_length_c   7.18498564
_cell_angle_alpha   105.26409149
_cell_angle_beta   105.19720459
_cell_angle_gamma   116.80283356
_symmetry_Int_Tables_number   1
_chemical_formula_structural   Hf4CrS8
_chemical_formula_sum   'Hf4 Cr1 S8'
_cell_volume   262.28650697
_cell_formula_units_Z   1
loop_
 _symmetry_equiv_pos_site_id
 _symmetry_equiv_pos_as_xyz
  1  'x, y, z'
loop_
 _atom_site_type_symbol
 _atom_site_label
 _atom_site_symmetry_multiplicity
 _atom_site_fract_x
 _atom_site_fract_y
 _atom_site_fract_z
 _atom_site_occupancy
  Hf  Hf0  1  0.74883001  0.25413601  0.00296603  1
  Hf  Hf1  1  0.25117005  0.74586402  0.99703404  1
  Hf  Hf2  1  0.24556405  0.74556402  0.50000004  1
  Hf  Hf3  1  0.75443601  0.25443601  0.50000004  1
  Cr  Cr4  1  0.00000000  0.00000000  0.00000000  1
  S  S5  1  0.71132706  0.95857902  0.66990606  1
  S  S6  1  0.20977503  0.45543201  0.66520703  1
  S  S7  1  0.20901003  0.45032301  0.16532903  1
  S  S8  1  0.71500606  0.95631902  0.16532906  1
  S  S9  1  0.28499400  0.04368100  0.83467102  1
  S  S10  1  0.79099003  0.54967701  0.83467105  1
  S  S11  1  0.79022503  0.54456801  0.33479305  1
  S  S12  1  0.28867300  0.04142100  0.33009401  1
