# generated using pymatgen
data_Y2Si3Pt
_symmetry_space_group_name_H-M   'P 1'
_cell_length_a   4.10550213
_cell_length_b   8.19925594
_cell_length_c   8.19925594
_cell_angle_alpha   120.00000000
_cell_angle_beta   90.00000000
_cell_angle_gamma   90.00000000
_symmetry_Int_Tables_number   1
_chemical_formula_structural   Y2Si3Pt
_chemical_formula_sum   'Y4 Si6 Pt2'
_cell_volume   239.02636113
_cell_formula_units_Z   2
loop_
 _symmetry_equiv_pos_site_id
 _symmetry_equiv_pos_as_xyz
  1  'x, y, z'
loop_
 _atom_site_type_symbol
 _atom_site_label
 _atom_site_symmetry_multiplicity
 _atom_site_fract_x
 _atom_site_fract_y
 _atom_site_fract_z
 _atom_site_occupancy
  Y  Y0  1  0.49999998  0.00000000  -0.00000000  1
  Y  Y1  1  0.49999998  0.00000000  0.50000000  1
  Y  Y2  1  0.49999998  0.50000000  0.00000000  1
  Y  Y3  1  0.49999998  0.50000000  0.50000000  1
  Si  Si4  1  0.99999997  0.66919600  0.83459801  1
  Si  Si5  1  0.99999997  0.16540200  0.33080400  1
  Si  Si6  1  -0.00000000  0.16540200  0.83459801  1
  Si  Si7  1  0.99999997  0.83459801  0.16540200  1
  Si  Si8  1  -0.00000000  0.83459801  0.66919601  1
  Si  Si9  1  -0.00000000  0.33080400  0.16540200  1
  Pt  Pt10  1  -0.00000000  0.33333334  0.66666667  1
  Pt  Pt11  1  -0.00000000  0.66666667  0.33333334  1
