# generated using pymatgen
data_YGa2
_symmetry_space_group_name_H-M   'P 1'
_cell_length_a   4.51646423
_cell_length_b   4.51646376
_cell_length_c   7.23542023
_cell_angle_alpha   90.00000000
_cell_angle_beta   90.00000000
_cell_angle_gamma   120.00000000
_symmetry_Int_Tables_number   1
_chemical_formula_structural   YGa2
_chemical_formula_sum   'Y2 Ga4'
_cell_volume   127.81784649
_cell_formula_units_Z   2
loop_
 _symmetry_equiv_pos_site_id
 _symmetry_equiv_pos_as_xyz
  1  'x, y, z'
loop_
 _atom_site_type_symbol
 _atom_site_label
 _atom_site_symmetry_multiplicity
 _atom_site_fract_x
 _atom_site_fract_y
 _atom_site_fract_z
 _atom_site_occupancy
  Y  Y0  1  0.66666661  0.33333330  0.75968798  1
  Y  Y1  1  0.66666661  0.33333330  0.24226199  1
  Ga  Ga2  1  0.00000000  0.00000000  0.02972300  1
  Ga  Ga3  1  0.00000000  0.00000000  0.45226599  1
  Ga  Ga4  1  0.33333327  0.66666661  0.54554998  1
  Ga  Ga5  1  0.33333327  0.66666661  0.97051197  1
