# generated using pymatgen
data_BaSrBr3
_symmetry_space_group_name_H-M   'P 1'
_cell_length_a   4.22540903
_cell_length_b   9.13763714
_cell_length_c   19.13484383
_cell_angle_alpha   90.00000000
_cell_angle_beta   90.00000000
_cell_angle_gamma   90.00000000
_symmetry_Int_Tables_number   1
_chemical_formula_structural   BaSrBr3
_chemical_formula_sum   'Ba4 Sr4 Br12'
_cell_volume   738.80118968
_cell_formula_units_Z   4
loop_
 _symmetry_equiv_pos_site_id
 _symmetry_equiv_pos_as_xyz
  1  'x, y, z'
loop_
 _atom_site_type_symbol
 _atom_site_label
 _atom_site_symmetry_multiplicity
 _atom_site_fract_x
 _atom_site_fract_y
 _atom_site_fract_z
 _atom_site_occupancy
  Ba  Ba0  1  0.00000000  0.36941699  0.85318596  1
  Ba  Ba1  1  0.50000000  0.58154199  -0.00000000  1
  Ba  Ba2  1  0.00000000  0.36941699  0.14681399  1
  Ba  Ba3  1  -0.00000000  0.83793299  0.49999998  1
  Sr  Sr4  1  0.50000000  0.63058299  0.35318598  1
  Sr  Sr5  1  0.00000000  0.41845799  0.49999998  1
  Sr  Sr6  1  0.50000000  0.63058299  0.64681397  1
  Sr  Sr7  1  0.50000000  0.16206700  -0.00000000  1
  Br  Br8  1  0.50000000  0.62594499  0.49999998  1
  Br  Br9  1  0.00000000  0.37405499  -0.00000000  1
  Br  Br10  1  0.50000000  0.10595700  0.17031499  1
  Br  Br11  1  0.00000000  0.35992799  0.67388997  1
  Br  Br12  1  0.00000000  0.87114199  0.00000000  1
  Br  Br13  1  0.00000000  0.89404299  0.32968499  1
  Br  Br14  1  0.50000000  0.10595700  0.82968496  1
  Br  Br15  1  0.50000000  0.64007199  0.82610996  1
  Br  Br16  1  0.00000000  0.89404299  0.67031497  1
  Br  Br17  1  0.00000000  0.35992799  0.32610999  1
  Br  Br18  1  0.50000000  0.64007199  0.17388999  1
  Br  Br19  1  0.50000000  0.12885800  0.49999998  1
