# generated using pymatgen
data_TbB2Ir3
_symmetry_space_group_name_H-M   'P 1'
_cell_length_a   2.96011209
_cell_length_b   5.57179785
_cell_length_c   5.57179832
_cell_angle_alpha   120.00000000
_cell_angle_beta   90.00000000
_cell_angle_gamma   90.00000000
_symmetry_Int_Tables_number   1
_chemical_formula_structural   TbB2Ir3
_chemical_formula_sum   'Tb1 B2 Ir3'
_cell_volume   79.58468997
_cell_formula_units_Z   1
loop_
 _symmetry_equiv_pos_site_id
 _symmetry_equiv_pos_as_xyz
  1  'x, y, z'
loop_
 _atom_site_type_symbol
 _atom_site_label
 _atom_site_symmetry_multiplicity
 _atom_site_fract_x
 _atom_site_fract_y
 _atom_site_fract_z
 _atom_site_occupancy
  Tb  Tb0  1  0.00000000  0.00000000  0.00000000  1
  B  B1  1  -0.00000000  0.66666670  0.33333336  1
  B  B2  1  -0.00000000  0.33333335  0.66666668  1
  Ir  Ir3  1  0.49999998  0.50000002  0.00000002  1
  Ir  Ir4  1  0.49999998  0.00000000  0.50000000  1
  Ir  Ir5  1  0.49999998  0.50000002  0.50000002  1
