# generated using pymatgen
data_LaAgPb
_symmetry_space_group_name_H-M   'P 1'
_cell_length_a   4.90744591
_cell_length_b   4.90744543
_cell_length_c   7.79382420
_cell_angle_alpha   90.00000000
_cell_angle_beta   90.00000000
_cell_angle_gamma   120.00000763
_symmetry_Int_Tables_number   1
_chemical_formula_structural   LaAgPb
_chemical_formula_sum   'La2 Ag2 Pb2'
_cell_volume   162.55195756
_cell_formula_units_Z   2
loop_
 _symmetry_equiv_pos_site_id
 _symmetry_equiv_pos_as_xyz
  1  'x, y, z'
loop_
 _atom_site_type_symbol
 _atom_site_label
 _atom_site_symmetry_multiplicity
 _atom_site_fract_x
 _atom_site_fract_y
 _atom_site_fract_z
 _atom_site_occupancy
  La  La0  1  0.00000000  0.00000000  0.49999999  1
  La  La1  1  0.00000000  0.00000000  0.00000000  1
  Ag  Ag2  1  0.66666670  0.33333333  0.24999999  1
  Ag  Ag3  1  0.33333337  0.66666665  0.74999998  1
  Pb  Pb4  1  0.66666670  0.33333333  0.74999998  1
  Pb  Pb5  1  0.33333337  0.66666665  0.24999999  1
