# generated using pymatgen
data_NdDy5Ho2
_symmetry_space_group_name_H-M   'P 1'
_cell_length_a   5.93104601
_cell_length_b   7.30062389
_cell_length_c   7.30062389
_cell_angle_alpha   60.00000000
_cell_angle_beta   90.00000000
_cell_angle_gamma   90.00000000
_symmetry_Int_Tables_number   1
_chemical_formula_structural   NdDy5Ho2
_chemical_formula_sum   'Nd1 Dy5 Ho2'
_cell_volume   273.76749090
_cell_formula_units_Z   1
loop_
 _symmetry_equiv_pos_site_id
 _symmetry_equiv_pos_as_xyz
  1  'x, y, z'
loop_
 _atom_site_type_symbol
 _atom_site_label
 _atom_site_symmetry_multiplicity
 _atom_site_fract_x
 _atom_site_fract_y
 _atom_site_fract_z
 _atom_site_occupancy
  Nd  Nd0  1  0.75000000  0.66560401  0.16719800  1
  Dy  Dy1  1  0.75000000  0.16719800  0.16719800  1
  Dy  Dy2  1  0.75000000  0.16719800  0.66560402  1
  Dy  Dy3  1  0.25000000  0.33439601  0.83280202  1
  Dy  Dy4  1  0.25000000  0.83280202  0.83280202  1
  Dy  Dy5  1  0.25000000  0.83280202  0.33439600  1
  Ho  Ho6  1  0.25000000  0.33333334  0.33333334  1
  Ho  Ho7  1  0.75000000  0.66666668  0.66666668  1
