# generated using pymatgen
data_Nb3(FeGe2)2
_symmetry_space_group_name_H-M   'P 1'
_cell_length_a   3.62250209
_cell_length_b   6.57277822
_cell_length_c   6.57277727
_cell_angle_alpha   120.00000000
_cell_angle_beta   90.00000000
_cell_angle_gamma   90.00000000
_symmetry_Int_Tables_number   1
_chemical_formula_structural   Nb3(FeGe2)2
_chemical_formula_sum   'Nb3 Fe2 Ge4'
_cell_volume   135.53054066
_cell_formula_units_Z   1
loop_
 _symmetry_equiv_pos_site_id
 _symmetry_equiv_pos_as_xyz
  1  'x, y, z'
loop_
 _atom_site_type_symbol
 _atom_site_label
 _atom_site_symmetry_multiplicity
 _atom_site_fract_x
 _atom_site_fract_y
 _atom_site_fract_z
 _atom_site_occupancy
  Nb  Nb0  1  0.49999999  0.59119996  -0.00000004  1
  Nb  Nb1  1  0.49999999  0.40879997  0.40879998  1
  Nb  Nb2  1  0.49999999  0.00000000  0.59120001  1
  Ge  Ge3  1  0.99999998  0.33333331  0.66666666  1
  Ge  Ge4  1  -0.00000000  0.66666662  0.33333330  1
  Ge  Ge5  1  0.49999999  0.00000000  -0.00000000  1
  Fe  Fe6  1  0.99999998  0.25827098  -0.00000002  1
  Fe  Fe7  1  0.99999998  0.74172895  0.74172897  1
  Ge  Ge8  1  -0.00000000  0.00000000  0.25827100  1
