# generated using pymatgen
data_Ca4La2Cl2O11
_symmetry_space_group_name_H-M   'P 1'
_cell_length_a   6.86288738
_cell_length_b   6.86288738
_cell_length_c   6.86288738
_cell_angle_alpha   98.42494202
_cell_angle_beta   98.42494202
_cell_angle_gamma   98.42494965
_symmetry_Int_Tables_number   1
_chemical_formula_structural   Ca4La2Cl2O11
_chemical_formula_sum   'Ca4 La2 Cl2 O11'
_cell_volume   311.60265874
_cell_formula_units_Z   1
loop_
 _symmetry_equiv_pos_site_id
 _symmetry_equiv_pos_as_xyz
  1  'x, y, z'
loop_
 _atom_site_type_symbol
 _atom_site_label
 _atom_site_symmetry_multiplicity
 _atom_site_fract_x
 _atom_site_fract_y
 _atom_site_fract_z
 _atom_site_occupancy
  Ca  Ca0  1  0.69444405  0.85702802  0.39310296  1
  Ca  Ca1  1  0.14297203  0.60689701  0.30555598  1
  Ca  Ca2  1  0.60689702  0.30555601  0.14297197  1
  Ca  Ca3  1  0.39310304  0.69444401  0.85702797  1
  La  La4  1  0.85702803  0.39310301  0.69444396  1
  La  La5  1  0.30555601  0.14297200  0.60689699  1
  Cl  Cl6  1  0.00000000  0.00000000  0.00000000  1
  Cl  Cl7  1  0.71583805  0.93125202  0.03040196  1
  O  O8  1  0.06874805  0.96959802  0.28416198  1
  O  O9  1  0.43929903  0.59403101  0.17673097  1
  O  O10  1  0.40596904  0.82326901  0.56070097  1
  O  O11  1  0.96959802  0.28416201  0.06874796  1
  O  O12  1  0.82326904  0.56070101  0.40596896  1
  O  O13  1  0.17673102  0.43929901  0.59403099  1
  O  O14  1  0.03040204  0.71583801  0.93125198  1
  O  O15  1  0.59403101  0.17673100  0.43929898  1
  O  O16  1  0.56070103  0.40596901  0.82326897  1
  O  O17  1  0.93125201  0.03040200  0.71583797  1
  O  O18  1  0.28416201  0.06874800  0.96959799  1
