# generated using pymatgen
data_AgH4NF3
_symmetry_space_group_name_H-M   'P 1'
_cell_length_a   6.19948244
_cell_length_b   6.19948244
_cell_length_c   6.19948244
_cell_angle_alpha   60.00000000
_cell_angle_beta   60.00000000
_cell_angle_gamma   60.00000000
_symmetry_Int_Tables_number   1
_chemical_formula_structural   AgH4NF3
_chemical_formula_sum   'Ag2 H8 N2 F6'
_cell_volume   168.48114487
_cell_formula_units_Z   2
loop_
 _symmetry_equiv_pos_site_id
 _symmetry_equiv_pos_as_xyz
  1  'x, y, z'
loop_
 _atom_site_type_symbol
 _atom_site_label
 _atom_site_symmetry_multiplicity
 _atom_site_fract_x
 _atom_site_fract_y
 _atom_site_fract_z
 _atom_site_occupancy
  Ag  Ag0  1  0.00000000  0.00000000  0.00000000  1
  Ag  Ag1  1  0.49999999  0.49999999  0.49999999  1
  H  H2  1  0.81779099  0.54662699  0.81779099  1
  H  H3  1  0.81779099  0.81779099  0.81779099  1
  H  H4  1  0.81779099  0.81779099  0.54662699  1
  H  H5  1  0.54662699  0.81779099  0.81779099  1
  H  H6  1  0.18220900  0.45337299  0.18220900  1
  H  H7  1  0.18220900  0.18220900  0.18220900  1
  H  H8  1  0.18220900  0.18220900  0.45337299  1
  H  H9  1  0.45337299  0.18220900  0.18220900  1
  N  N10  1  0.74999999  0.74999999  0.74999999  1
  N  N11  1  0.25000000  0.25000000  0.25000000  1
  F  F12  1  0.25825700  0.25825700  0.74174299  1
  F  F13  1  0.74174299  0.25825700  0.25825700  1
  F  F14  1  0.74174299  0.25825700  0.74174299  1
  F  F15  1  0.74174299  0.74174299  0.25825700  1
  F  F16  1  0.25825700  0.74174299  0.74174299  1
  F  F17  1  0.25825700  0.74174299  0.25825700  1
