# generated using pymatgen
data_Dy3YC8
_symmetry_space_group_name_H-M   'P 1'
_cell_length_a   3.66702604
_cell_length_b   3.66702604
_cell_length_c   12.35437679
_cell_angle_alpha   90.00000000
_cell_angle_beta   90.00000000
_cell_angle_gamma   90.00000000
_symmetry_Int_Tables_number   1
_chemical_formula_structural   Dy3YC8
_chemical_formula_sum   'Y1 Dy3 C8'
_cell_volume   166.13029308
_cell_formula_units_Z   1
loop_
 _symmetry_equiv_pos_site_id
 _symmetry_equiv_pos_as_xyz
  1  'x, y, z'
loop_
 _atom_site_type_symbol
 _atom_site_label
 _atom_site_symmetry_multiplicity
 _atom_site_fract_x
 _atom_site_fract_y
 _atom_site_fract_z
 _atom_site_occupancy
  Y  Y0  1  0.00000000  0.00000000  0.00000000  1
  Dy  Dy1  1  0.49999999  0.49999999  0.25002300  1
  Dy  Dy2  1  0.00000000  0.00000000  0.50000001  1
  Dy  Dy3  1  0.49999999  0.49999999  0.74997701  1
  C  C4  1  0.00000000  0.00000000  0.19754500  1
  C  C5  1  0.49999999  0.49999999  0.44720901  1
  C  C6  1  0.00000000  0.00000000  0.69662301  1
  C  C7  1  0.49999999  0.49999999  0.94726202  1
  C  C8  1  0.49999999  0.49999999  0.05273800  1
  C  C9  1  0.00000000  0.00000000  0.30337701  1
  C  C10  1  0.49999999  0.49999999  0.55279101  1
  C  C11  1  0.00000000  0.00000000  0.80245501  1
