# generated using pymatgen
data_Bi7TeO12
_symmetry_space_group_name_H-M   'P 1'
_cell_length_a   5.86739206
_cell_length_b   5.93287706
_cell_length_c   10.17431450
_cell_angle_alpha   73.36108398
_cell_angle_beta   89.98005676
_cell_angle_gamma   60.37044144
_symmetry_Int_Tables_number   1
_chemical_formula_structural   Bi7TeO12
_chemical_formula_sum   'Bi7 Te1 O12'
_cell_volume   290.69965937
_cell_formula_units_Z   1
loop_
 _symmetry_equiv_pos_site_id
 _symmetry_equiv_pos_as_xyz
  1  'x, y, z'
loop_
 _atom_site_type_symbol
 _atom_site_label
 _atom_site_symmetry_multiplicity
 _atom_site_fract_x
 _atom_site_fract_y
 _atom_site_fract_z
 _atom_site_occupancy
  Bi  Bi0  1  0.35061900  0.29887501  0.11366201  1
  Te  Te1  1  0.85359000  0.29170901  0.62208003  1
  Bi  Bi2  1  0.10345100  0.79290202  0.36819301  1
  Bi  Bi3  1  0.59978400  0.79999802  0.86652503  1
  Bi  Bi4  1  0.19877400  0.60361501  0.73985101  1
  Bi  Bi5  1  0.69391700  0.61107501  0.22333003  1
  Bi  Bi6  1  0.44571300  0.10594700  0.48508502  1
  Bi  Bi7  1  0.94198500  0.11845200  0.97924103  1
  O  O8  1  0.24701900  0.98539702  0.76870602  1
  O  O9  1  0.72443700  0.99597802  0.25854203  1
  O  O10  1  0.03190100  0.49152101  0.51558201  1
  O  O11  1  0.52764400  0.50416001  0.00696902  1
  O  O12  1  0.03468900  0.99198702  0.51272701  1
  O  O13  1  0.53298400  0.98756402  0.99790202  1
  O  O14  1  0.99683600  0.50433801  0.97814904  1
  O  O15  1  0.50908600  0.49148601  0.48365202  1
  O  O16  1  0.74154700  0.98607602  0.74156503  1
  O  O17  1  0.24887800  0.99512802  0.22824901  1
  O  O18  1  0.71962400  0.50298801  0.76037203  1
  O  O19  1  0.22092200  0.49400401  0.25741801  1
