# generated using pymatgen
data_Sr4VN4
_symmetry_space_group_name_H-M   'P 1'
_cell_length_a   6.45478487
_cell_length_b   6.47740984
_cell_length_c   9.69083405
_cell_angle_alpha   71.96098328
_cell_angle_beta   79.93157196
_cell_angle_gamma   66.85187531
_symmetry_Int_Tables_number   1
_chemical_formula_structural   Sr4VN4
_chemical_formula_sum   'Sr8 V2 N8'
_cell_volume   353.59000283
_cell_formula_units_Z   2
loop_
 _symmetry_equiv_pos_site_id
 _symmetry_equiv_pos_as_xyz
  1  'x, y, z'
loop_
 _atom_site_type_symbol
 _atom_site_label
 _atom_site_symmetry_multiplicity
 _atom_site_fract_x
 _atom_site_fract_y
 _atom_site_fract_z
 _atom_site_occupancy
  Sr  Sr0  1  0.27781401  0.03782000  0.38253499  1
  Sr  Sr1  1  0.24545704  0.58989498  0.16395399  1
  Sr  Sr2  1  0.22632603  0.48728099  0.56179498  1
  Sr  Sr3  1  0.25603302  0.23532399  0.97299098  1
  Sr  Sr4  1  0.74396706  0.76467598  0.02700898  1
  Sr  Sr5  1  0.77367405  0.51271899  0.43820497  1
  Sr  Sr6  1  0.75454304  0.41010499  0.83604596  1
  Sr  Sr7  1  0.72218607  0.96217997  0.61746496  1
  V  V8  1  0.22436105  0.84472798  0.75213197  1
  V  V9  1  0.77563903  0.15527200  0.24786798  1
  N  N10  1  0.05056301  0.14218300  0.65274799  1
  N  N11  1  0.04579204  0.66502498  0.80743198  1
  N  N12  1  0.63708703  0.16008300  0.09463498  1
  N  N13  1  0.54687103  0.28937499  0.37293798  1
  N  N14  1  0.45312905  0.71062498  0.62706197  1
  N  N15  1  0.36291306  0.83991698  0.90536497  1
  N  N16  1  0.95420804  0.33497499  0.19256797  1
  N  N17  1  0.94943707  0.85781698  0.34725196  1
