# generated using pymatgen
data_InCu2PI6
_symmetry_space_group_name_H-M   'P 1'
_cell_length_a   7.82655048
_cell_length_b   7.82655048
_cell_length_c   7.82655048
_cell_angle_alpha   60.53104401
_cell_angle_beta   60.53104401
_cell_angle_gamma   60.53104401
_symmetry_Int_Tables_number   1
_chemical_formula_structural   InCu2PI6
_chemical_formula_sum   'In1 Cu2 P1 I6'
_cell_volume   343.06491200
_cell_formula_units_Z   1
loop_
 _symmetry_equiv_pos_site_id
 _symmetry_equiv_pos_as_xyz
  1  'x, y, z'
loop_
 _atom_site_type_symbol
 _atom_site_label
 _atom_site_symmetry_multiplicity
 _atom_site_fract_x
 _atom_site_fract_y
 _atom_site_fract_z
 _atom_site_occupancy
  In  In0  1  0.28984902  0.28984901  0.28984898  1
  Cu  Cu1  1  0.78984906  0.78984903  0.78984895  1
  Cu  Cu2  1  0.98685308  0.98685304  0.98685294  1
  P  P3  1  0.48685304  0.48685302  0.48685297  1
  I  I4  1  0.86763105  0.19319501  0.69097098  1
  I  I5  1  0.69097106  0.86763103  0.19319494  1
  I  I6  1  0.19319503  0.69097103  0.86763098  1
  I  I7  1  0.36763102  0.19097101  0.69319500  1
  I  I8  1  0.19097103  0.69319503  0.36763097  1
  I  I9  1  0.69319505  0.36763101  0.19097096  1
