# generated using pymatgen
data_Ag3BiSe8
_symmetry_space_group_name_H-M   'P 1'
_cell_length_a   6.40241480
_cell_length_b   6.42306709
_cell_length_c   6.49661779
_cell_angle_alpha   114.84548187
_cell_angle_beta   90.00000000
_cell_angle_gamma   90.00000000
_symmetry_Int_Tables_number   1
_chemical_formula_structural   Ag3BiSe8
_chemical_formula_sum   'Ag3 Bi1 Se8'
_cell_volume   242.43399943
_cell_formula_units_Z   1
loop_
 _symmetry_equiv_pos_site_id
 _symmetry_equiv_pos_as_xyz
  1  'x, y, z'
loop_
 _atom_site_type_symbol
 _atom_site_label
 _atom_site_symmetry_multiplicity
 _atom_site_fract_x
 _atom_site_fract_y
 _atom_site_fract_z
 _atom_site_occupancy
  Bi  Bi0  1  0.12990200  0.84411703  0.13176003  1
  Ag  Ag1  1  0.62990202  0.15588300  0.36824000  1
  Ag  Ag2  1  0.87009803  0.15588300  0.86823999  1
  Ag  Ag3  1  0.37009801  0.84411703  0.63176002  1
  Se  Se4  1  0.86343303  0.65300002  0.32363302  1
  Se  Se5  1  0.36343301  0.34700001  0.17636701  1
  Se  Se6  1  0.13656700  0.34700001  0.67636700  1
  Se  Se7  1  0.63656702  0.65300002  0.82363301  1
  Se  Se8  1  0.50807502  0.71528802  0.20426403  1
  Se  Se9  1  0.00807500  0.28471201  0.29573601  1
  Se  Se10  1  0.49192502  0.28471201  0.79573599  1
  Se  Se11  1  0.99192503  0.71528802  0.70426401  1
