# generated using pymatgen
data_Nd2CoSi3
_symmetry_space_group_name_H-M   'P 1'
_cell_length_a   4.12064409
_cell_length_b   4.12064409
_cell_length_c   7.67211151
_cell_angle_alpha   105.57781982
_cell_angle_beta   105.57781982
_cell_angle_gamma   90.00000000
_symmetry_Int_Tables_number   1
_chemical_formula_structural   Nd2CoSi3
_chemical_formula_sum   'Nd2 Co1 Si3'
_cell_volume   120.50980872
_cell_formula_units_Z   1
loop_
 _symmetry_equiv_pos_site_id
 _symmetry_equiv_pos_as_xyz
  1  'x, y, z'
loop_
 _atom_site_type_symbol
 _atom_site_label
 _atom_site_symmetry_multiplicity
 _atom_site_fract_x
 _atom_site_fract_y
 _atom_site_fract_z
 _atom_site_occupancy
  Nd  Nd0  1  0.25000000  0.74999999  0.50000000  1
  Nd  Nd1  1  0.00000000  0.00000000  0.00000000  1
  Co  Co2  1  0.66725399  0.16725400  0.33450800  1
  Si  Si3  1  0.58407199  0.58407199  0.16814401  1
  Si  Si4  1  0.83274599  0.33274599  0.66549200  1
  Si  Si5  1  0.41592799  0.41592799  0.83185600  1
