# generated using pymatgen
data_BiRh2
_symmetry_space_group_name_H-M   'P 1'
_cell_length_a   5.53478050
_cell_length_b   5.53478050
_cell_length_c   5.53478098
_cell_angle_alpha   84.12071991
_cell_angle_beta   84.12071991
_cell_angle_gamma   84.12071228
_symmetry_Int_Tables_number   1
_chemical_formula_structural   BiRh2
_chemical_formula_sum   'Bi4 Rh8'
_cell_volume   167.04655107
_cell_formula_units_Z   4
loop_
 _symmetry_equiv_pos_site_id
 _symmetry_equiv_pos_as_xyz
  1  'x, y, z'
loop_
 _atom_site_type_symbol
 _atom_site_label
 _atom_site_symmetry_multiplicity
 _atom_site_fract_x
 _atom_site_fract_y
 _atom_site_fract_z
 _atom_site_occupancy
  Bi  Bi0  1  0.00000000  0.00000000  0.00000000  1
  Bi  Bi1  1  0.50000001  0.50000002  -0.00000000  1
  Bi  Bi2  1  0.50000002  0.00000000  0.49999998  1
  Bi  Bi3  1  -0.00000001  0.50000002  0.49999998  1
  Rh  Rh4  1  0.37358900  0.37358901  0.37358898  1
  Rh  Rh5  1  0.62641101  0.62641102  0.62641097  1
  Rh  Rh6  1  0.21531299  0.86465203  0.21531299  1
  Rh  Rh7  1  0.86465203  0.21531301  0.21531299  1
  Rh  Rh8  1  0.21531300  0.21531301  0.86465196  1
  Rh  Rh9  1  0.78468702  0.13534801  0.78468697  1
  Rh  Rh10  1  0.13534799  0.78468703  0.78468697  1
  Rh  Rh11  1  0.78468701  0.78468703  0.13534799  1
