# generated using pymatgen
data_LaCuGe
_symmetry_space_group_name_H-M   'P 1'
_cell_length_a   4.31684017
_cell_length_b   4.31684017
_cell_length_c   6.90099192
_cell_angle_alpha   90.00000000
_cell_angle_beta   90.00000000
_cell_angle_gamma   90.00000000
_symmetry_Int_Tables_number   1
_chemical_formula_structural   LaCuGe
_chemical_formula_sum   'La2 Cu2 Ge2'
_cell_volume   128.60073705
_cell_formula_units_Z   2
loop_
 _symmetry_equiv_pos_site_id
 _symmetry_equiv_pos_as_xyz
  1  'x, y, z'
loop_
 _atom_site_type_symbol
 _atom_site_label
 _atom_site_symmetry_multiplicity
 _atom_site_fract_x
 _atom_site_fract_y
 _atom_site_fract_z
 _atom_site_occupancy
  La  La0  1  0.00000000  0.49999998  0.31379400  1
  La  La1  1  0.49999998  0.00000000  0.68620601  1
  Cu  Cu2  1  0.00000000  0.49999998  0.80774001  1
  Cu  Cu3  1  0.49999998  0.00000000  0.19226000  1
  Ge  Ge4  1  0.00000000  0.00000000  0.00000000  1
  Ge  Ge5  1  0.49999998  0.49999998  0.00000000  1
