# generated using pymatgen
data_Nd(Fe5Mo)2
_symmetry_space_group_name_H-M   'P 1'
_cell_length_a   4.71157408
_cell_length_b   6.57498407
_cell_length_c   6.57498407
_cell_angle_alpha   82.31681061
_cell_angle_beta   69.00444794
_cell_angle_gamma   69.00444794
_symmetry_Int_Tables_number   1
_chemical_formula_structural   Nd(Fe5Mo)2
_chemical_formula_sum   'Nd1 Fe10 Mo2'
_cell_volume   177.53202274
_cell_formula_units_Z   1
loop_
 _symmetry_equiv_pos_site_id
 _symmetry_equiv_pos_as_xyz
  1  'x, y, z'
loop_
 _atom_site_type_symbol
 _atom_site_label
 _atom_site_symmetry_multiplicity
 _atom_site_fract_x
 _atom_site_fract_y
 _atom_site_fract_z
 _atom_site_occupancy
  Nd  Nd0  1  0.00000000  0.00000000  0.00000000  1
  Fe  Fe1  1  0.00000000  0.00000000  0.50000000  1
  Fe  Fe2  1  0.49999999  0.00000000  0.50000000  1
  Fe  Fe3  1  0.49999998  0.50000000  0.00000003  1
  Fe  Fe4  1  -0.00000002  0.50000000  0.00000003  1
  Fe  Fe5  1  0.49999997  0.77577800  0.22422204  1
  Fe  Fe6  1  0.49999998  0.22422200  0.77577801  1
  Fe  Fe7  1  0.72961296  0.77038700  0.77038704  1
  Fe  Fe8  1  0.27038699  0.22961300  0.22961301  1
  Fe  Fe9  1  0.99999997  0.35922200  0.64077802  1
  Fe  Fe10  1  -0.00000002  0.64077800  0.35922204  1
  Mo  Mo11  1  0.64145098  0.35854900  0.35854902  1
  Mo  Mo12  1  0.35854897  0.64145100  0.64145103  1
