# generated using pymatgen
data_GaAg3Te4
_symmetry_space_group_name_H-M   'P 1'
_cell_length_a   6.39165401
_cell_length_b   6.39165401
_cell_length_c   7.84705400
_cell_angle_alpha   114.03311157
_cell_angle_beta   114.03311157
_cell_angle_gamma   90.00000000
_symmetry_Int_Tables_number   1
_chemical_formula_structural   GaAg3Te4
_chemical_formula_sum   'Ga1 Ag3 Te4'
_cell_volume   262.06531107
_cell_formula_units_Z   1
loop_
 _symmetry_equiv_pos_site_id
 _symmetry_equiv_pos_as_xyz
  1  'x, y, z'
loop_
 _atom_site_type_symbol
 _atom_site_label
 _atom_site_symmetry_multiplicity
 _atom_site_fract_x
 _atom_site_fract_y
 _atom_site_fract_z
 _atom_site_occupancy
  Ga  Ga0  1  0.00000000  0.00000000  0.00000000  1
  Ag  Ag1  1  0.74999996  0.24999999  0.49999993  1
  Ag  Ag2  1  0.49999996  0.49999998  -0.00000006  1
  Ag  Ag3  1  0.24999995  0.74999997  0.49999992  1
  Te  Te4  1  0.65101797  0.12500000  0.74999994  1
  Te  Te5  1  0.37499997  0.34898199  0.24999995  1
  Te  Te6  1  0.87499992  0.90101796  0.24999988  1
  Te  Te7  1  0.09898196  0.62499998  0.74999993  1
