# generated using pymatgen
data_NaTiO3F
_symmetry_space_group_name_H-M   'P 1'
_cell_length_a   3.76076198
_cell_length_b   6.65778112
_cell_length_c   7.31294823
_cell_angle_alpha   109.90962982
_cell_angle_beta   90.00000000
_cell_angle_gamma   90.00000000
_symmetry_Int_Tables_number   1
_chemical_formula_structural   NaTiO3F
_chemical_formula_sum   'Na2 Ti2 O6 F2'
_cell_volume   172.16005070
_cell_formula_units_Z   2
loop_
 _symmetry_equiv_pos_site_id
 _symmetry_equiv_pos_as_xyz
  1  'x, y, z'
loop_
 _atom_site_type_symbol
 _atom_site_label
 _atom_site_symmetry_multiplicity
 _atom_site_fract_x
 _atom_site_fract_y
 _atom_site_fract_z
 _atom_site_occupancy
  Na  Na0  1  0.75000000  0.08872500  0.70490301  1
  Na  Na1  1  0.25000000  0.91127497  0.29509698  1
  Ti  Ti2  1  0.75000000  0.39689299  0.28602099  1
  Ti  Ti3  1  0.25000000  0.60310698  0.71397900  1
  O  O4  1  0.75000000  0.63786898  0.23973898  1
  O  O5  1  0.25000000  0.36213099  0.76026100  1
  O  O6  1  0.75000000  0.20931699  0.05478299  1
  O  O7  1  0.25000000  0.79068298  0.94521699  1
  O  O8  1  0.75000000  0.58932198  0.62750099  1
  O  O9  1  0.25000000  0.41067799  0.37249899  1
  F  F10  1  0.75000000  0.13590200  0.40034300  1
  F  F11  1  0.25000000  0.86409797  0.59965698  1
