# generated using pymatgen
data_CeSi3Ir
_symmetry_space_group_name_H-M   'P 1'
_cell_length_a   4.07787180
_cell_length_b   4.07787180
_cell_length_c   5.74762058
_cell_angle_alpha   110.77777863
_cell_angle_beta   110.77777863
_cell_angle_gamma   90.00000000
_symmetry_Int_Tables_number   1
_chemical_formula_structural   CeSi3Ir
_chemical_formula_sum   'Ce1 Si3 Ir1'
_cell_volume   82.67930755
_cell_formula_units_Z   1
loop_
 _symmetry_equiv_pos_site_id
 _symmetry_equiv_pos_as_xyz
  1  'x, y, z'
loop_
 _atom_site_type_symbol
 _atom_site_label
 _atom_site_symmetry_multiplicity
 _atom_site_fract_x
 _atom_site_fract_y
 _atom_site_fract_z
 _atom_site_occupancy
  Ce  Ce0  1  0.99899009  0.99899006  0.99798009  1
  Si  Si1  1  0.36357703  0.36357702  0.72715405  1
  Si  Si2  1  0.75454405  0.25454402  0.50908804  1
  Si  Si3  1  0.25454404  0.75454405  0.50908805  1
  Ir  Ir4  1  0.62834405  0.62834404  0.25668804  1
