# generated using pymatgen
data_TaMoRu
_symmetry_space_group_name_H-M   'P 1'
_cell_length_a   2.74624991
_cell_length_b   3.81213593
_cell_length_c   4.78501081
_cell_angle_alpha   113.47453308
_cell_angle_beta   106.67626953
_cell_angle_gamma   90.00000000
_symmetry_Int_Tables_number   1
_chemical_formula_structural   TaMoRu
_chemical_formula_sum   'Ta1 Mo1 Ru1'
_cell_volume   43.64207106
_cell_formula_units_Z   1
loop_
 _symmetry_equiv_pos_site_id
 _symmetry_equiv_pos_as_xyz
  1  'x, y, z'
loop_
 _atom_site_type_symbol
 _atom_site_label
 _atom_site_symmetry_multiplicity
 _atom_site_fract_x
 _atom_site_fract_y
 _atom_site_fract_z
 _atom_site_occupancy
  Ta  Ta0  1  0.00000000  0.00000000  0.00000000  1
  Mo  Mo1  1  0.33804899  0.33804900  0.67609796  1
  Ru  Ru2  1  0.66195099  0.66195100  0.32390195  1
