# generated using pymatgen
data_Er5Si3C
_symmetry_space_group_name_H-M   'P 1'
_cell_length_a   6.30019712
_cell_length_b   8.31437206
_cell_length_c   8.31437206
_cell_angle_alpha   120.00000000
_cell_angle_beta   90.00000000
_cell_angle_gamma   90.00000000
_symmetry_Int_Tables_number   1
_chemical_formula_structural   Er5Si3C
_chemical_formula_sum   'Er10 Si6 C2'
_cell_volume   377.17567813
_cell_formula_units_Z   2
loop_
 _symmetry_equiv_pos_site_id
 _symmetry_equiv_pos_as_xyz
  1  'x, y, z'
loop_
 _atom_site_type_symbol
 _atom_site_label
 _atom_site_symmetry_multiplicity
 _atom_site_fract_x
 _atom_site_fract_y
 _atom_site_fract_z
 _atom_site_occupancy
  Er  Er0  1  0.49999999  0.33333333  0.66666663  1
  Er  Er1  1  0.49999999  0.66666665  0.33333330  1
  Er  Er2  1  0.99999998  0.66666665  0.33333330  1
  Er  Er3  1  -0.00000000  0.33333333  0.66666663  1
  Er  Er4  1  0.74999999  0.22099600  -0.00000001  1
  Er  Er5  1  0.74999999  0.77900398  0.77900394  1
  Er  Er6  1  0.74999999  0.99999998  0.22099596  1
  Er  Er7  1  0.25000000  0.77900398  -0.00000002  1
  Er  Er8  1  0.25000000  0.22099600  0.22099598  1
  Er  Er9  1  0.25000000  0.99999998  0.77900394  1
  Si  Si10  1  0.74999999  0.59320699  -0.00000002  1
  Si  Si11  1  0.74999999  0.40679299  0.40679297  1
  Si  Si12  1  0.74999999  0.99999998  0.59320695  1
  Si  Si13  1  0.25000000  0.40679299  -0.00000001  1
  Si  Si14  1  0.25000000  0.59320699  0.59320696  1
  Si  Si15  1  0.25000000  0.99999998  0.40679296  1
  C  C16  1  0.49999999  0.00000000  -0.00000000  1
  C  C17  1  0.00000000  0.00000000  0.00000000  1
