# generated using pymatgen
data_Sr6BH2CCl3
_symmetry_space_group_name_H-M   'P 1'
_cell_length_a   4.36081600
_cell_length_b   9.99765778
_cell_length_c   10.45510769
_cell_angle_alpha   107.92779541
_cell_angle_beta   90.00000000
_cell_angle_gamma   102.59698486
_symmetry_Int_Tables_number   1
_chemical_formula_structural   Sr6BH2CCl3
_chemical_formula_sum   'Sr6 B1 H2 C1 Cl3'
_cell_volume   422.14160965
_cell_formula_units_Z   1
loop_
 _symmetry_equiv_pos_site_id
 _symmetry_equiv_pos_as_xyz
  1  'x, y, z'
loop_
 _atom_site_type_symbol
 _atom_site_label
 _atom_site_symmetry_multiplicity
 _atom_site_fract_x
 _atom_site_fract_y
 _atom_site_fract_z
 _atom_site_occupancy
  Sr  Sr0  1  0.48994602  0.97989204  0.74935396  1
  Sr  Sr1  1  0.50976200  0.01952400  0.25046499  1
  Sr  Sr2  1  0.86471102  0.72942203  0.93281295  1
  Sr  Sr3  1  0.13521401  0.27042801  0.06712599  1
  Sr  Sr4  1  0.68412200  0.00004800  0.00008000  1
  Sr  Sr5  1  0.31592600  0.00004800  0.00008000  1
  H  H6  1  0.00306400  0.00612800  0.09486600  1
  B  B7  1  0.99711302  0.99422604  0.90540495  1
  Cl  Cl8  1  0.31348202  0.62696402  0.68053196  1
  H  H9  1  0.68642101  0.37284201  0.31987398  1
  C  C10  1  0.67027501  0.34055001  0.85059496  1
  Cl  Cl11  1  0.32929602  0.65859203  0.14807798  1
  Cl  Cl12  1  0.98636802  0.97273604  0.49093197  1
