# generated using pymatgen
data_Ho2InPd2
_symmetry_space_group_name_H-M   'P 1'
_cell_length_a   3.63188195
_cell_length_b   7.82605314
_cell_length_c   7.82605314
_cell_angle_alpha   90.00000000
_cell_angle_beta   90.00000000
_cell_angle_gamma   90.00000000
_symmetry_Int_Tables_number   1
_chemical_formula_structural   Ho2InPd2
_chemical_formula_sum   'Ho4 In2 Pd4'
_cell_volume   222.44226541
_cell_formula_units_Z   2
loop_
 _symmetry_equiv_pos_site_id
 _symmetry_equiv_pos_as_xyz
  1  'x, y, z'
loop_
 _atom_site_type_symbol
 _atom_site_label
 _atom_site_symmetry_multiplicity
 _atom_site_fract_x
 _atom_site_fract_y
 _atom_site_fract_z
 _atom_site_occupancy
  Ho  Ho0  1  0.00000000  0.16795800  0.33204199  1
  Ho  Ho1  1  0.00000000  0.83204198  0.66795799  1
  Ho  Ho2  1  0.00000000  0.66795799  0.16795800  1
  Ho  Ho3  1  0.00000000  0.33204199  0.83204198  1
  In  In4  1  0.50000001  0.00000000  -0.00000000  1
  In  In5  1  0.50000001  0.49999999  0.49999999  1
  Pd  Pd6  1  0.50000001  0.36637699  0.13362300  1
  Pd  Pd7  1  0.50000001  0.63362299  0.86637698  1
  Pd  Pd8  1  0.50000001  0.86637698  0.36637699  1
  Pd  Pd9  1  0.50000001  0.13362300  0.63362299  1
