# generated using pymatgen
data_La2MnRuO6
_symmetry_space_group_name_H-M   'P 1'
_cell_length_a   5.54034281
_cell_length_b   5.64868736
_cell_length_c   7.93024588
_cell_angle_alpha   90.00000000
_cell_angle_beta   90.00000000
_cell_angle_gamma   89.93024445
_symmetry_Int_Tables_number   1
_chemical_formula_structural   La2MnRuO6
_chemical_formula_sum   'La4 Mn2 Ru2 O12'
_cell_volume   248.18212965
_cell_formula_units_Z   2
loop_
 _symmetry_equiv_pos_site_id
 _symmetry_equiv_pos_as_xyz
  1  'x, y, z'
loop_
 _atom_site_type_symbol
 _atom_site_label
 _atom_site_symmetry_multiplicity
 _atom_site_fract_x
 _atom_site_fract_y
 _atom_site_fract_z
 _atom_site_occupancy
  La  La0  1  0.48961601  0.53981298  0.50000001  1
  La  La1  1  0.01260700  0.04412800  0.50000001  1
  La  La2  1  0.51274801  0.45459999  0.00000000  1
  La  La3  1  0.98807202  0.95525997  0.00000000  1
  Mn  Mn4  1  0.00015699  0.50036298  0.24939800  1
  Mn  Mn5  1  0.49973600  0.99952097  0.75038301  1
  Ru  Ru6  1  0.00015699  0.50036298  0.75060201  1
  Ru  Ru7  1  0.49973600  0.99952097  0.24961700  1
  O  O8  1  0.21488900  0.79255098  0.29543300  1
  O  O9  1  0.28226401  0.28926299  0.70459901  1
  O  O10  1  0.78202102  0.21024799  0.79680901  1
  O  O11  1  0.71671402  0.70990998  0.20233900  1
  O  O12  1  0.78202102  0.21024799  0.20319100  1
  O  O13  1  0.71671402  0.70990998  0.79766101  1
  O  O14  1  0.21488900  0.79255098  0.70456701  1
  O  O15  1  0.28226401  0.28926299  0.29540100  1
  O  O16  1  0.58691301  0.97900397  0.50000001  1
  O  O17  1  0.91752003  0.47688799  0.50000001  1
  O  O18  1  0.41369801  0.02315300  0.00000000  1
  O  O19  1  0.08726400  0.52344198  0.00000000  1
