# generated using pymatgen
data_Lu2Co3Si5
_symmetry_space_group_name_H-M   'P 1'
_cell_length_a   5.51758528
_cell_length_b   7.85548925
_cell_length_c   7.85548925
_cell_angle_alpha   93.42115784
_cell_angle_beta   109.17691040
_cell_angle_gamma   109.17691040
_symmetry_Int_Tables_number   1
_chemical_formula_structural   Lu2Co3Si5
_chemical_formula_sum   'Lu4 Co6 Si10'
_cell_volume   298.33672420
_cell_formula_units_Z   2
loop_
 _symmetry_equiv_pos_site_id
 _symmetry_equiv_pos_as_xyz
  1  'x, y, z'
loop_
 _atom_site_type_symbol
 _atom_site_label
 _atom_site_symmetry_multiplicity
 _atom_site_fract_x
 _atom_site_fract_y
 _atom_site_fract_z
 _atom_site_occupancy
  Lu  Lu0  1  0.23680298  0.59730601  0.86961098  1
  Lu  Lu1  1  0.26319700  0.13038900  0.40269400  1
  Lu  Lu2  1  0.76319701  0.40269400  0.13038897  1
  Lu  Lu3  1  0.73680299  0.86961101  0.59730595  1
  Co  Co4  1  0.37439599  0.54006201  0.26342497  1
  Co  Co5  1  0.12560397  0.73657501  0.45993796  1
  Co  Co6  1  0.62560400  0.45993800  0.73657498  1
  Co  Co7  1  0.87439602  0.26342500  0.54006199  1
  Co  Co8  1  0.24999996  0.99666801  0.00333193  1
  Co  Co9  1  0.75000003  0.00333200  0.99666802  1
  Si  Si10  1  0.16476699  0.26224100  0.06439798  1
  Si  Si11  1  0.33523297  0.93560201  0.73775895  1
  Si  Si12  1  0.83523300  0.73775901  0.93560197  1
  Si  Si13  1  0.66476702  0.06439800  0.26224100  1
  Si  Si14  1  0.24999997  0.78575101  0.21424895  1
  Si  Si15  1  0.75000002  0.21424900  0.78575100  1
  Si  Si16  1  0.24999999  0.48859000  0.51140998  1
  Si  Si17  1  0.75000000  0.51141001  0.48858997  1
  Si  Si18  1  0.25000000  0.22861100  0.77138900  1
  Si  Si19  1  0.74999999  0.77138901  0.22861095  1
