# generated using pymatgen
data_Lu5Ga5Co8
_symmetry_space_group_name_H-M   'P 1'
_cell_length_a   5.09078074
_cell_length_b   5.09078074
_cell_length_c   12.26304054
_cell_angle_alpha   89.69648743
_cell_angle_beta   89.69648743
_cell_angle_gamma   60.05671310
_symmetry_Int_Tables_number   1
_chemical_formula_structural   Lu5Ga5Co8
_chemical_formula_sum   'Lu5 Ga5 Co8'
_cell_volume   275.38314591
_cell_formula_units_Z   1
loop_
 _symmetry_equiv_pos_site_id
 _symmetry_equiv_pos_as_xyz
  1  'x, y, z'
loop_
 _atom_site_type_symbol
 _atom_site_label
 _atom_site_symmetry_multiplicity
 _atom_site_fract_x
 _atom_site_fract_y
 _atom_site_fract_z
 _atom_site_occupancy
  Lu  Lu0  1  0.83340595  0.83340599  0.45802202  1
  Lu  Lu1  1  0.16736199  0.16736200  0.78797301  1
  Lu  Lu2  1  0.50117897  0.50117899  0.12703701  1
  Lu  Lu3  1  0.16659399  0.16659400  0.54197801  1
  Lu  Lu4  1  0.49882097  0.49882099  0.87296301  1
  Ga  Ga5  1  0.83263795  0.83263799  0.21202702  1
  Ga  Ga6  1  0.82636695  0.82636699  0.82869002  1
  Ga  Ga7  1  0.17363299  0.17363300  0.17131001  1
  Co  Co8  1  0.49999997  0.49999999  0.50000001  1
  Ga  Ga9  1  0.00000000  0.00000000  0.00000000  1
  Co  Co10  1  0.33432198  0.33432200  0.33492001  1
  Ga  Ga11  1  0.66567796  0.66567799  0.66508002  1
  Co  Co12  1  0.49999999  0.00000000  0.00000001  1
  Co  Co13  1  0.83270197  0.33317700  0.33421802  1
  Co  Co14  1  0.16729798  0.66682299  0.66578201  1
  Co  Co15  1  0.66682298  0.16729800  0.66578201  1
  Co  Co16  1  -0.00000001  0.49999999  0.00000001  1
  Co  Co17  1  0.33317697  0.83270199  0.33421802  1
