# generated using pymatgen
data_Y2Ge5Rh3
_symmetry_space_group_name_H-M   'P 1'
_cell_length_a   6.04838085
_cell_length_b   8.45333290
_cell_length_c   8.45333290
_cell_angle_alpha   92.03292847
_cell_angle_beta   110.31377411
_cell_angle_gamma   110.31377411
_symmetry_Int_Tables_number   1
_chemical_formula_structural   Y2Ge5Rh3
_chemical_formula_sum   'Y4 Ge10 Rh6'
_cell_volume   374.09271378
_cell_formula_units_Z   2
loop_
 _symmetry_equiv_pos_site_id
 _symmetry_equiv_pos_as_xyz
  1  'x, y, z'
loop_
 _atom_site_type_symbol
 _atom_site_label
 _atom_site_symmetry_multiplicity
 _atom_site_fract_x
 _atom_site_fract_y
 _atom_site_fract_z
 _atom_site_occupancy
  Y  Y0  1  0.23209001  0.59528001  0.86489502  1
  Y  Y1  1  0.26791001  0.13510500  0.40472001  1
  Y  Y2  1  0.76791003  0.40472001  0.13510501  1
  Y  Y3  1  0.73209003  0.86489501  0.59528002  1
  Ge  Ge4  1  0.16381601  0.26065300  0.06517600  1
  Ge  Ge5  1  0.33618402  0.93482402  0.73934703  1
  Ge  Ge6  1  0.83618403  0.73934701  0.93482402  1
  Ge  Ge7  1  0.66381603  0.06517600  0.26065300  1
  Ge  Ge8  1  0.25000001  0.78328901  0.21671102  1
  Ge  Ge9  1  0.75000003  0.21671100  0.78328901  1
  Ge  Ge10  1  0.25000001  0.49507001  0.50493002  1
  Ge  Ge11  1  0.75000003  0.50493001  0.49507001  1
  Ge  Ge12  1  0.25000001  0.22331000  0.77669001  1
  Ge  Ge13  1  0.75000003  0.77669001  0.22331001  1
  Rh  Rh14  1  0.38581502  0.53704701  0.25444701  1
  Rh  Rh15  1  0.11418501  0.74555301  0.46295302  1
  Rh  Rh16  1  0.61418503  0.46295301  0.74555302  1
  Rh  Rh17  1  0.88581503  0.25444700  0.53704701  1
  Rh  Rh18  1  0.25000001  0.99869302  0.00130702  1
  Rh  Rh19  1  0.75000003  0.00130700  0.99869301  1
