# generated using pymatgen
data_Li2VF5
_symmetry_space_group_name_H-M   'P 1'
_cell_length_a   3.85706592
_cell_length_b   5.38902044
_cell_length_c   10.14447403
_cell_angle_alpha   89.99972534
_cell_angle_beta   90.00003052
_cell_angle_gamma   110.97200012
_symmetry_Int_Tables_number   1
_chemical_formula_structural   Li2VF5
_chemical_formula_sum   'Li4 V2 F10'
_cell_volume   196.89268179
_cell_formula_units_Z   2
loop_
 _symmetry_equiv_pos_site_id
 _symmetry_equiv_pos_as_xyz
  1  'x, y, z'
loop_
 _atom_site_type_symbol
 _atom_site_label
 _atom_site_symmetry_multiplicity
 _atom_site_fract_x
 _atom_site_fract_y
 _atom_site_fract_z
 _atom_site_occupancy
  Li  Li0  1  0.19404998  0.38794699  0.25000498  1
  Li  Li1  1  0.80593599  0.61202698  0.75000297  1
  Li  Li2  1  0.14862299  0.29724799  0.55768999  1
  Li  Li3  1  0.14861699  0.29723599  0.94231499  1
  V  V4  1  0.85137598  0.70275197  0.05770297  1
  V  V5  1  0.85138498  0.70276797  0.44229997  1
  F  F6  1  0.31326997  0.62656598  0.44059897  1
  F  F7  1  0.31327797  0.62658398  0.05938198  1
  F  F8  1  0.68671600  0.37340699  0.94060198  1
  F  F9  1  0.68673200  0.37343599  0.55938898  1
  F  F10  1  0.04658300  0.09312600  0.11758800  1
  F  F11  1  0.04659300  0.09312100  0.38243000  1
  F  F12  1  0.23001098  0.46010498  0.74999898  1
  F  F13  1  0.76999299  0.53989998  0.24998197  1
  F  F14  1  0.95342197  0.90689297  0.61758296  1
  F  F15  1  0.95341497  0.90687997  0.88243096  1
