# generated using pymatgen
data_La2NdDyC8
_symmetry_space_group_name_H-M   'P 1'
_cell_length_a   3.79753208
_cell_length_b   3.79753208
_cell_length_c   12.76635265
_cell_angle_alpha   90.00000000
_cell_angle_beta   90.00000000
_cell_angle_gamma   90.00000000
_symmetry_Int_Tables_number   1
_chemical_formula_structural   La2NdDyC8
_chemical_formula_sum   'La2 Nd1 Dy1 C8'
_cell_volume   184.10676207
_cell_formula_units_Z   1
loop_
 _symmetry_equiv_pos_site_id
 _symmetry_equiv_pos_as_xyz
  1  'x, y, z'
loop_
 _atom_site_type_symbol
 _atom_site_label
 _atom_site_symmetry_multiplicity
 _atom_site_fract_x
 _atom_site_fract_y
 _atom_site_fract_z
 _atom_site_occupancy
  La  La0  1  0.49999999  0.49999999  0.74855202  1
  La  La1  1  0.00000000  0.00000000  0.50000001  1
  Nd  Nd2  1  0.49999999  0.49999999  0.25144801  1
  Dy  Dy3  1  0.00000000  0.00000000  0.00000000  1
  C  C4  1  0.00000000  0.00000000  0.79976902  1
  C  C5  1  0.49999999  0.49999999  0.55131401  1
  C  C6  1  0.00000000  0.00000000  0.30236201  1
  C  C7  1  0.49999999  0.49999999  0.05086400  1
  C  C8  1  0.49999999  0.49999999  0.94913603  1
  C  C9  1  0.00000000  0.00000000  0.69763802  1
  C  C10  1  0.49999999  0.49999999  0.44868601  1
  C  C11  1  0.00000000  0.00000000  0.20023101  1
