# generated using pymatgen
data_CaTi2O4
_symmetry_space_group_name_H-M   'P 1'
_cell_length_a   2.92408609
_cell_length_b   5.92164898
_cell_length_c   9.37088776
_cell_angle_alpha   90.00000000
_cell_angle_beta   90.00000000
_cell_angle_gamma   90.00000000
_symmetry_Int_Tables_number   1
_chemical_formula_structural   CaTi2O4
_chemical_formula_sum   'Ca2 Ti4 O8'
_cell_volume   162.26077699
_cell_formula_units_Z   2
loop_
 _symmetry_equiv_pos_site_id
 _symmetry_equiv_pos_as_xyz
  1  'x, y, z'
loop_
 _atom_site_type_symbol
 _atom_site_label
 _atom_site_symmetry_multiplicity
 _atom_site_fract_x
 _atom_site_fract_y
 _atom_site_fract_z
 _atom_site_occupancy
  Ca  Ca0  1  0.49999998  0.36654800  0.94976402  1
  Ca  Ca1  1  0.49999998  0.63345200  0.44976401  1
  Ti  Ti2  1  -0.00000000  0.78283800  0.12630400  1
  Ti  Ti3  1  0.49999998  0.88773400  0.85267602  1
  Ti  Ti4  1  0.49999998  0.11226600  0.35267601  1
  Ti  Ti5  1  -0.00000000  0.21716200  0.62630402  1
  O  O6  1  0.49999998  0.58353700  0.16547500  1
  O  O7  1  -0.00000000  0.10140600  0.81923502  1
  O  O8  1  -0.00000000  0.89859400  0.31923501  1
  O  O9  1  0.49999998  0.41646300  0.66547502  1
  O  O10  1  0.49999998  0.99394000  0.08272000  1
  O  O11  1  0.00000000  0.69240100  0.91932302  1
  O  O12  1  0.49999998  0.00606000  0.58272002  1
  O  O13  1  -0.00000000  0.30759900  0.41932301  1
