# generated using pymatgen
data_Er2InPd2
_symmetry_space_group_name_H-M   'P 1'
_cell_length_a   3.86683297
_cell_length_b   7.57998610
_cell_length_c   7.57998610
_cell_angle_alpha   90.00000000
_cell_angle_beta   90.00000000
_cell_angle_gamma   90.00000000
_symmetry_Int_Tables_number   1
_chemical_formula_structural   Er2InPd2
_chemical_formula_sum   'Er4 In2 Pd4'
_cell_volume   222.17348685
_cell_formula_units_Z   2
loop_
 _symmetry_equiv_pos_site_id
 _symmetry_equiv_pos_as_xyz
  1  'x, y, z'
loop_
 _atom_site_type_symbol
 _atom_site_label
 _atom_site_symmetry_multiplicity
 _atom_site_fract_x
 _atom_site_fract_y
 _atom_site_fract_z
 _atom_site_occupancy
  Er  Er0  1  0.50000000  0.66683599  0.16683600  1
  Er  Er1  1  0.50000000  0.33316400  0.83316399  1
  Er  Er2  1  0.50000000  0.16683600  0.33316400  1
  Er  Er3  1  0.50000000  0.83316399  0.66683599  1
  In  In4  1  0.00000000  0.00000000  0.00000000  1
  In  In5  1  0.00000000  0.49999999  0.49999999  1
  Pd  Pd6  1  0.00000000  0.13385900  0.63385899  1
  Pd  Pd7  1  0.00000000  0.86614099  0.36614100  1
  Pd  Pd8  1  0.00000000  0.63385899  0.86614099  1
  Pd  Pd9  1  0.00000000  0.36614100  0.13385900  1
