# generated using pymatgen
data_Ba2Sc2GaCu3Se8
_symmetry_space_group_name_H-M   'P 1'
_cell_length_a   6.65600491
_cell_length_b   6.65600491
_cell_length_c   11.21363163
_cell_angle_alpha   90.00000000
_cell_angle_beta   90.00000000
_cell_angle_gamma   118.15927124
_symmetry_Int_Tables_number   1
_chemical_formula_structural   Ba2Sc2GaCu3Se8
_chemical_formula_sum   'Ba2 Sc2 Ga1 Cu3 Se8'
_cell_volume   437.99022247
_cell_formula_units_Z   1
loop_
 _symmetry_equiv_pos_site_id
 _symmetry_equiv_pos_as_xyz
  1  'x, y, z'
loop_
 _atom_site_type_symbol
 _atom_site_label
 _atom_site_symmetry_multiplicity
 _atom_site_fract_x
 _atom_site_fract_y
 _atom_site_fract_z
 _atom_site_occupancy
  Ba  Ba0  1  0.63234704  0.63234703  0.50000002  1
  Ba  Ba1  1  0.63234704  0.63234703  -0.00000000  1
  Sc  Sc2  1  0.44941401  0.00795800  0.87035003  1
  Sc  Sc3  1  0.44941401  0.00795800  0.62965002  1
  Ga  Ga4  1  0.00795802  0.44941402  0.37035001  1
  Cu  Cu5  1  0.00795802  0.44941402  0.12965000  1
  Cu  Cu6  1  0.08140202  0.37908802  0.75000002  1
  Cu  Cu7  1  0.37908801  0.08140200  0.25000001  1
  Se  Se8  1  0.31660003  0.44065702  0.25000001  1
  Se  Se9  1  0.74351906  0.96890604  0.75000002  1
  Se  Se10  1  0.44065702  0.31660001  0.75000002  1
  Se  Se11  1  0.96890605  0.74351903  0.25000001  1
  Se  Se12  1  0.64231202  0.13251301  0.06850700  1
  Se  Se13  1  0.13251303  0.64231203  0.93149303  1
  Se  Se14  1  0.64231202  0.13251301  0.43149301  1
  Se  Se15  1  0.13251303  0.64231203  0.56850702  1
