# generated using pymatgen
data_Lu4Mg2H5C3
_symmetry_space_group_name_H-M   'P 1'
_cell_length_a   3.41908789
_cell_length_b   3.41908717
_cell_length_c   17.27271461
_cell_angle_alpha   90.00000000
_cell_angle_beta   90.00000000
_cell_angle_gamma   120.00000763
_symmetry_Int_Tables_number   1
_chemical_formula_structural   Lu4Mg2H5C3
_chemical_formula_sum   'Lu4 Mg2 H5 C3'
_cell_volume   174.86851973
_cell_formula_units_Z   1
loop_
 _symmetry_equiv_pos_site_id
 _symmetry_equiv_pos_as_xyz
  1  'x, y, z'
loop_
 _atom_site_type_symbol
 _atom_site_label
 _atom_site_symmetry_multiplicity
 _atom_site_fract_x
 _atom_site_fract_y
 _atom_site_fract_z
 _atom_site_occupancy
  Lu  Lu0  1  0.00000000  0.00000000  0.49999998  1
  Lu  Lu1  1  0.00000000  0.00000000  0.00000000  1
  Lu  Lu2  1  0.66666668  0.33333332  0.63297798  1
  Lu  Lu3  1  0.33333333  0.66666664  0.36702199  1
  Mg  Mg4  1  0.33333333  0.66666664  0.13297800  1
  Mg  Mg5  1  0.66666668  0.33333332  0.86702197  1
  H  H6  1  0.66666668  0.33333332  0.24999999  1
  H  H7  1  0.33333333  0.66666664  0.74999997  1
  H  H8  1  0.66666668  0.33333332  0.09138500  1
  H  H9  1  0.33333333  0.66666664  0.90861497  1
  C  C10  1  0.33333333  0.66666664  0.59138498  1
  C  C11  1  0.66666668  0.33333332  0.40861499  1
  C  C12  1  0.66666668  0.33333332  0.74999997  1
  H  H13  1  0.33333333  0.66666664  0.24999999  1
