# generated using pymatgen
data_Li4Mn4CoO10
_symmetry_space_group_name_H-M   'P 1'
_cell_length_a   2.85509348
_cell_length_b   5.04394054
_cell_length_c   12.46165466
_cell_angle_alpha   79.36145782
_cell_angle_beta   83.43955231
_cell_angle_gamma   73.61988068
_symmetry_Int_Tables_number   1
_chemical_formula_structural   Li4Mn4CoO10
_chemical_formula_sum   'Li4 Mn4 Co1 O10'
_cell_volume   168.84750592
_cell_formula_units_Z   1
loop_
 _symmetry_equiv_pos_site_id
 _symmetry_equiv_pos_as_xyz
  1  'x, y, z'
loop_
 _atom_site_type_symbol
 _atom_site_label
 _atom_site_symmetry_multiplicity
 _atom_site_fract_x
 _atom_site_fract_y
 _atom_site_fract_z
 _atom_site_occupancy
  Li  Li0  1  0.19325399  0.00696400  0.60303799  1
  Li  Li1  1  0.39425788  0.99860802  0.19791102  1
  Li  Li2  1  0.59547998  0.00086600  0.81839599  1
  Li  Li3  1  0.79212187  0.99854302  0.40237802  1
  Mn  Mn4  1  0.10396094  0.49821001  0.29875701  1
  Mn  Mn5  1  0.30312394  0.49746301  0.89708699  1
  Mn  Mn6  1  0.50191393  0.50284401  0.49863601  1
  Co  Co7  1  0.69277893  0.51738201  0.09952602  1
  Mn  Mn8  1  0.89896292  0.50701301  0.69810600  1
  O  O9  1  0.13669197  0.28640100  0.44627300  1
  O  O10  1  0.07011592  0.70713901  0.15468301  1
  O  O11  1  0.26710292  0.71446101  0.75422600  1
  O  O12  1  0.47095291  0.71332701  0.35065101  1
  O  O13  1  0.53185395  0.29415301  0.64473500  1
  O  O14  1  0.73736995  0.28346900  0.24583801  1
  O  O15  1  0.93430094  0.29162900  0.84116400  1
  O  O16  1  0.67693091  0.69415501  0.95158100  1
  O  O17  1  0.86765690  0.72055601  0.55006801  1
  O  O18  1  0.34441896  0.25936600  0.05189101  1
