# generated using pymatgen
data_Mn3Co2(CuS3)2
_symmetry_space_group_name_H-M   'P 1'
_cell_length_a   7.28689098
_cell_length_b   7.28689098
_cell_length_c   7.28689098
_cell_angle_alpha   60.00000000
_cell_angle_beta   60.00000000
_cell_angle_gamma   60.00000000
_symmetry_Int_Tables_number   1
_chemical_formula_structural   Mn3Co2(CuS3)2
_chemical_formula_sum   'Mn3 Co2 Cu2 S6'
_cell_volume   273.59730738
_cell_formula_units_Z   1
loop_
 _symmetry_equiv_pos_site_id
 _symmetry_equiv_pos_as_xyz
  1  'x, y, z'
loop_
 _atom_site_type_symbol
 _atom_site_label
 _atom_site_symmetry_multiplicity
 _atom_site_fract_x
 _atom_site_fract_y
 _atom_site_fract_z
 _atom_site_occupancy
  Mn  Mn0  1  0.02323900  0.47676100  0.47676100  1
  Mn  Mn1  1  0.47676100  0.02323900  0.02323900  1
  Co  Co2  1  0.02323900  0.02323900  0.47676100  1
  Mn  Mn3  1  0.47676100  0.47676100  0.02323900  1
  Cu  Cu4  1  0.02323900  0.47676100  0.02323900  1
  Co  Co5  1  0.47676100  0.02323900  0.47676100  1
  Cu  Cu6  1  0.50000000  0.50000000  0.50000000  1
  S  S7  1  0.61515300  0.61515300  0.61515300  1
  S  S8  1  0.61515300  0.61515300  0.15454100  1
  S  S9  1  0.15454100  0.61515300  0.61515300  1
  S  S10  1  0.61515300  0.15454100  0.61515300  1
  S  S11  1  0.25000000  0.25000000  0.25000000  1
  S  S12  1  0.00000000  0.00000000  0.00000000  1
