# generated using pymatgen
data_Mg3Al(CN)4
_symmetry_space_group_name_H-M   'P 1'
_cell_length_a   4.66508198
_cell_length_b   4.80189991
_cell_length_c   5.81705713
_cell_angle_alpha   114.37726593
_cell_angle_beta   113.63964844
_cell_angle_gamma   90.00000000
_symmetry_Int_Tables_number   1
_chemical_formula_structural   Mg3Al(CN)4
_chemical_formula_sum   'Mg3 Al1 C4 N4'
_cell_volume   106.57171357
_cell_formula_units_Z   1
loop_
 _symmetry_equiv_pos_site_id
 _symmetry_equiv_pos_as_xyz
  1  'x, y, z'
loop_
 _atom_site_type_symbol
 _atom_site_label
 _atom_site_symmetry_multiplicity
 _atom_site_fract_x
 _atom_site_fract_y
 _atom_site_fract_z
 _atom_site_occupancy
  Mg  Mg0  1  0.25000002  0.50000001  0.00000001  1
  Mg  Mg1  1  0.75000004  0.50000001  0.00000004  1
  Mg  Mg2  1  0.50744902  0.25744900  0.51489803  1
  Al  Al3  1  0.99255105  0.74255101  0.48510205  1
  C  C4  1  0.00744901  0.25744900  0.51489800  1
  C  C5  1  0.49255104  0.74255101  0.48510202  1
  C  C6  1  0.25000001  0.00000000  0.00000001  1
  C  C7  1  0.75000002  0.00000000  1.00000004  1
  N  N8  1  0.11375701  0.33373601  0.22751401  1
  N  N9  1  0.38624302  0.10622100  0.77248602  1
  N  N10  1  0.88624205  0.66626401  0.77248505  1
  N  N11  1  0.61375705  0.89377902  0.22751403  1
