# generated using pymatgen
data_PbSe
_symmetry_space_group_name_H-M   'P 1'
_cell_length_a   4.41143608
_cell_length_b   4.54414606
_cell_length_c   6.59945631
_cell_angle_alpha   90.00000000
_cell_angle_beta   109.52555084
_cell_angle_gamma   90.00000000
_symmetry_Int_Tables_number   1
_chemical_formula_structural   PbSe
_chemical_formula_sum   'Pb2 Se2'
_cell_volume   124.68618914
_cell_formula_units_Z   2
loop_
 _symmetry_equiv_pos_site_id
 _symmetry_equiv_pos_as_xyz
  1  'x, y, z'
loop_
 _atom_site_type_symbol
 _atom_site_label
 _atom_site_symmetry_multiplicity
 _atom_site_fract_x
 _atom_site_fract_y
 _atom_site_fract_z
 _atom_site_occupancy
  Pb  Pb0  1  0.38637899  0.75009699  0.77275796  1
  Pb  Pb1  1  0.61362098  0.25009700  0.22724197  1
  Se  Se2  1  0.15553899  0.76590299  0.31107798  1
  Se  Se3  1  0.84446097  0.26590300  0.68892195  1
