# generated using pymatgen
data_TiFeO4
_symmetry_space_group_name_H-M   'P 1'
_cell_length_a   5.66728973
_cell_length_b   5.66728973
_cell_length_c   5.66728973
_cell_angle_alpha   108.22947693
_cell_angle_beta   108.22947693
_cell_angle_gamma   111.98432159
_symmetry_Int_Tables_number   1
_chemical_formula_structural   TiFeO4
_chemical_formula_sum   'Ti2 Fe2 O8'
_cell_volume   139.91819901
_cell_formula_units_Z   2
loop_
 _symmetry_equiv_pos_site_id
 _symmetry_equiv_pos_as_xyz
  1  'x, y, z'
loop_
 _atom_site_type_symbol
 _atom_site_label
 _atom_site_symmetry_multiplicity
 _atom_site_fract_x
 _atom_site_fract_y
 _atom_site_fract_z
 _atom_site_occupancy
  Ti  Ti0  1  0.74681801  0.24681801  0.50000002  1
  Ti  Ti1  1  0.99681807  0.99681803  0.00000010  1
  Fe  Fe2  1  0.25374406  0.75374402  0.50000005  1
  Fe  Fe3  1  0.50374403  0.50374401  0.00000005  1
  O  O4  1  0.05475902  0.24612601  0.80863300  1
  O  O5  1  0.56095105  0.75359202  0.80735805  1
  O  O6  1  0.50359306  0.81095202  0.30735906  1
  O  O7  1  0.99612601  0.30475901  0.30863304  1
  O  O8  1  0.50359301  0.19623401  0.69264201  1
  O  O9  1  0.99612604  0.68749302  0.69136706  1
  O  O10  1  0.94623405  0.75359302  0.19264107  1
  O  O11  1  0.43749301  0.24612601  0.19136702  1
