# generated using pymatgen
data_LiTi5(O3F)3
_symmetry_space_group_name_H-M   'P 1'
_cell_length_a   5.49359274
_cell_length_b   5.49359274
_cell_length_c   7.04285336
_cell_angle_alpha   73.63906097
_cell_angle_beta   73.63906097
_cell_angle_gamma   74.15680695
_symmetry_Int_Tables_number   1
_chemical_formula_structural   LiTi5(O3F)3
_chemical_formula_sum   'Li1 Ti5 O9 F3'
_cell_volume   191.30667566
_cell_formula_units_Z   1
loop_
 _symmetry_equiv_pos_site_id
 _symmetry_equiv_pos_as_xyz
  1  'x, y, z'
loop_
 _atom_site_type_symbol
 _atom_site_label
 _atom_site_symmetry_multiplicity
 _atom_site_fract_x
 _atom_site_fract_y
 _atom_site_fract_z
 _atom_site_occupancy
  Li  Li0  1  0.33414101  0.33498099  0.16462300  1
  Ti  Ti1  1  0.64718003  0.68766197  0.33413499  1
  Ti  Ti2  1  0.31233801  0.35281999  0.66586500  1
  Ti  Ti3  1  0.66501902  0.66585897  0.83537699  1
  Ti  Ti4  1  0.01758506  0.98241496  0.49999999  1
  Ti  Ti5  1  0.02911906  0.97088096  -0.00000001  1
  O  O6  1  0.10309400  0.09762500  0.70419300  1
  O  O7  1  0.42485602  0.44872598  0.37198600  1
  O  O8  1  0.77663903  0.76101697  0.04176099  1
  O  O9  1  0.90237503  0.89690596  0.29580699  1
  O  O10  1  0.23898301  0.22336099  0.95823900  1
  O  O11  1  0.55127402  0.57514398  0.62801400  1
  O  O12  1  0.01914204  0.63368997  0.67258700  1
  O  O13  1  0.36631005  0.98085796  0.32741299  1
  O  O14  1  0.31454004  0.68545997  1.00000000  1
  F  F15  1  0.94438600  0.37307798  0.34265000  1
  F  F16  1  0.62692199  0.05561400  0.65735000  1
  F  F17  1  0.72609900  0.27390099  1.00000000  1
