# generated using pymatgen
data_LiYO4
_symmetry_space_group_name_H-M   'P 1'
_cell_length_a   4.21674919
_cell_length_b   4.42991209
_cell_length_c   6.97333813
_cell_angle_alpha   90.00106812
_cell_angle_beta   72.40069580
_cell_angle_gamma   90.00189972
_symmetry_Int_Tables_number   1
_chemical_formula_structural   LiYO4
_chemical_formula_sum   'Li2 Y2 O8'
_cell_volume   124.16381749
_cell_formula_units_Z   2
loop_
 _symmetry_equiv_pos_site_id
 _symmetry_equiv_pos_as_xyz
  1  'x, y, z'
loop_
 _atom_site_type_symbol
 _atom_site_label
 _atom_site_symmetry_multiplicity
 _atom_site_fract_x
 _atom_site_fract_y
 _atom_site_fract_z
 _atom_site_occupancy
  Li  Li0  1  0.00001306  0.99999998  0.99999803  1
  Li  Li1  1  0.49998800  0.49999999  0.00000202  1
  Y  Y2  1  0.16578402  0.49999699  0.66843702  1
  Y  Y3  1  0.33421698  0.00000200  0.33156302  1
  O  O4  1  0.66576003  0.99999498  0.66843904  1
  O  O5  1  0.83423898  0.50000399  0.33156103  1
  O  O6  1  0.50000797  0.00000000  0.00000701  1
  O  O7  1  0.99999197  0.49999999  0.99999305  1
  O  O8  1  0.16287899  0.00000000  0.67425102  1
  O  O9  1  0.66289599  0.49999999  0.67425804  1
  O  O10  1  0.83710295  0.00000100  0.32574203  1
  O  O11  1  0.33712201  0.49999999  0.32574902  1
