# generated using pymatgen
data_AgSCl2O
_symmetry_space_group_name_H-M   'P 1'
_cell_length_a   6.39283466
_cell_length_b   6.39283466
_cell_length_c   6.53536940
_cell_angle_alpha   94.84246826
_cell_angle_beta   94.84246826
_cell_angle_gamma   95.74934387
_symmetry_Int_Tables_number   1
_chemical_formula_structural   AgSCl2O
_chemical_formula_sum   'Ag2 S2 Cl4 O2'
_cell_volume   263.63314411
_cell_formula_units_Z   2
loop_
 _symmetry_equiv_pos_site_id
 _symmetry_equiv_pos_as_xyz
  1  'x, y, z'
loop_
 _atom_site_type_symbol
 _atom_site_label
 _atom_site_symmetry_multiplicity
 _atom_site_fract_x
 _atom_site_fract_y
 _atom_site_fract_z
 _atom_site_occupancy
  Ag  Ag0  1  0.49310899  0.50689101  -0.00000006  1
  Ag  Ag1  1  0.04484699  0.34646101  0.07663998  1
  S  S2  1  0.65353898  0.95515302  0.92335991  1
  S  S3  1  0.14805298  0.48883601  0.82993196  1
  Cl  Cl4  1  0.52699501  0.18853300  0.78110096  1
  Cl  Cl5  1  0.31566199  0.36978101  0.27145896  1
  Cl  Cl6  1  0.98444403  0.01555600  -0.00000005  1
  Cl  Cl7  1  0.63021899  0.68433802  0.72854093  1
  O  O8  1  0.81146700  0.47300501  0.21889893  1
  O  O9  1  0.51116398  0.85194702  0.17006792  1
