# generated using pymatgen
data_Li2NbO4
_symmetry_space_group_name_H-M   'P 1'
_cell_length_a   6.14394760
_cell_length_b   6.14394760
_cell_length_c   6.18119192
_cell_angle_alpha   60.19912720
_cell_angle_beta   60.19912720
_cell_angle_gamma   60.00000381
_symmetry_Int_Tables_number   1
_chemical_formula_structural   Li2NbO4
_chemical_formula_sum   'Li4 Nb2 O8'
_cell_volume   165.48279809
_cell_formula_units_Z   2
loop_
 _symmetry_equiv_pos_site_id
 _symmetry_equiv_pos_as_xyz
  1  'x, y, z'
loop_
 _atom_site_type_symbol
 _atom_site_label
 _atom_site_symmetry_multiplicity
 _atom_site_fract_x
 _atom_site_fract_y
 _atom_site_fract_z
 _atom_site_occupancy
  Li  Li0  1  0.87333697  0.37670900  0.37324502  1
  Li  Li1  1  0.74509296  0.74509300  0.76472101  1
  Li  Li2  1  0.37670898  0.37670900  0.37324501  1
  Li  Li3  1  0.37670896  0.87333700  0.37324503  1
  Nb  Nb4  1  0.37872298  0.37872300  0.86383099  1
  Nb  Nb5  1  0.00579400  0.00579400  0.98261796  1
  O  O6  1  0.60100199  0.15373100  0.64426500  1
  O  O7  1  0.60100197  0.60100200  0.64426501  1
  O  O8  1  0.13316799  0.13316800  0.60049599  1
  O  O9  1  0.13852299  0.13852300  0.10723800  1
  O  O10  1  0.61571599  0.13852300  0.10723802  1
  O  O11  1  0.13852298  0.61571600  0.10723802  1
  O  O12  1  0.15373098  0.60100200  0.64426500  1
  O  O13  1  0.61197797  0.61197800  0.16406603  1
