# generated using pymatgen
data_Al2Ag4S9
_symmetry_space_group_name_H-M   'P 1'
_cell_length_a   7.28065300
_cell_length_b   7.28065300
_cell_length_c   7.28065300
_cell_angle_alpha   60.00000000
_cell_angle_beta   60.00000000
_cell_angle_gamma   60.00000000
_symmetry_Int_Tables_number   1
_chemical_formula_structural   Al2Ag4S9
_chemical_formula_sum   'Al2 Ag4 S9'
_cell_volume   272.89526520
_cell_formula_units_Z   1
loop_
 _symmetry_equiv_pos_site_id
 _symmetry_equiv_pos_as_xyz
  1  'x, y, z'
loop_
 _atom_site_type_symbol
 _atom_site_label
 _atom_site_symmetry_multiplicity
 _atom_site_fract_x
 _atom_site_fract_y
 _atom_site_fract_z
 _atom_site_occupancy
  Al  Al0  1  -0.00000000  0.00000000  0.49999999  1
  Al  Al1  1  -0.00000000  0.49999999  0.00000000  1
  Ag  Ag2  1  0.49999999  0.00000000  0.49999999  1
  Ag  Ag3  1  0.49999999  0.49999999  0.00000000  1
  Ag  Ag4  1  0.49999999  0.00000000  -0.00000000  1
  Ag  Ag5  1  -0.00000000  0.49999999  0.49999999  1
  S  S6  1  0.00000000  0.00000000  0.00000000  1
  S  S7  1  0.24999999  0.24999999  0.24999999  1
  S  S8  1  0.74999998  0.74999998  0.74999998  1
  S  S9  1  0.23744200  0.23744200  0.76255798  1
  S  S10  1  0.76255798  0.23744200  0.76255798  1
  S  S11  1  0.23744200  0.76255798  0.23744200  1
  S  S12  1  0.23744200  0.76255798  0.76255798  1
  S  S13  1  0.76255798  0.23744200  0.23744200  1
  S  S14  1  0.76255798  0.76255798  0.23744200  1
