# generated using pymatgen
data_CeCoSi3
_symmetry_space_group_name_H-M   'P 1'
_cell_length_a   4.32554579
_cell_length_b   4.32554579
_cell_length_c   5.82596397
_cell_angle_alpha   111.79149628
_cell_angle_beta   111.79149628
_cell_angle_gamma   90.00000000
_symmetry_Int_Tables_number   1
_chemical_formula_structural   CeCoSi3
_chemical_formula_sum   'Ce1 Co1 Si3'
_cell_volume   92.77518056
_cell_formula_units_Z   1
loop_
 _symmetry_equiv_pos_site_id
 _symmetry_equiv_pos_as_xyz
  1  'x, y, z'
loop_
 _atom_site_type_symbol
 _atom_site_label
 _atom_site_symmetry_multiplicity
 _atom_site_fract_x
 _atom_site_fract_y
 _atom_site_fract_z
 _atom_site_occupancy
  Ce  Ce0  1  0.66499200  0.66499202  0.32998395  1
  Co  Co1  1  0.99829499  0.99829503  0.99658993  1
  Si  Si2  1  0.40602098  0.90602102  0.81204195  1
  Si  Si3  1  0.22907100  0.22907101  0.45814199  1
  Si  Si4  1  0.90602101  0.40602101  0.81204196  1
