# generated using pymatgen
data_Sm3In
_symmetry_space_group_name_H-M   'P 1'
_cell_length_a   5.52314806
_cell_length_b   7.06934595
_cell_length_c   7.06934690
_cell_angle_alpha   60.00000381
_cell_angle_beta   90.00000000
_cell_angle_gamma   90.00000000
_symmetry_Int_Tables_number   1
_chemical_formula_structural   Sm3In
_chemical_formula_sum   'Sm6 In2'
_cell_volume   239.04290769
_cell_formula_units_Z   2
loop_
 _symmetry_equiv_pos_site_id
 _symmetry_equiv_pos_as_xyz
  1  'x, y, z'
loop_
 _atom_site_type_symbol
 _atom_site_label
 _atom_site_symmetry_multiplicity
 _atom_site_fract_x
 _atom_site_fract_y
 _atom_site_fract_z
 _atom_site_occupancy
  Sm  Sm0  1  0.25000000  0.33333333  0.33333333  1
  Sm  Sm1  1  0.74999999  0.66666667  0.66666665  1
  Sm  Sm2  1  0.74999999  0.66748400  0.16625800  1
  Sm  Sm3  1  0.74999999  0.16625800  0.16625800  1
  Sm  Sm4  1  0.74999999  0.16625800  0.66748398  1
  Sm  Sm5  1  0.25000000  0.33251600  0.83374198  1
  In  In6  1  0.25000000  0.83374200  0.83374198  1
  In  In7  1  0.25000000  0.83374200  0.33251600  1
