# generated using pymatgen
data_CaSO4
_symmetry_space_group_name_H-M   'P 1'
_cell_length_a   6.35805893
_cell_length_b   7.05079412
_cell_length_c   7.05079317
_cell_angle_alpha   120.00000000
_cell_angle_beta   90.00000000
_cell_angle_gamma   90.00000000
_symmetry_Int_Tables_number   1
_chemical_formula_structural   CaSO4
_chemical_formula_sum   'Ca3 S3 O12'
_cell_volume   273.73554171
_cell_formula_units_Z   3
loop_
 _symmetry_equiv_pos_site_id
 _symmetry_equiv_pos_as_xyz
  1  'x, y, z'
loop_
 _atom_site_type_symbol
 _atom_site_label
 _atom_site_symmetry_multiplicity
 _atom_site_fract_x
 _atom_site_fract_y
 _atom_site_fract_z
 _atom_site_occupancy
  Ca  Ca0  1  0.83333301  0.49999998  -0.00000003  1
  Ca  Ca1  1  0.50000001  0.49999998  0.49999999  1
  Ca  Ca2  1  0.16666700  0.99999995  0.49999996  1
  S  S3  1  1.00000001  0.49999998  0.49999999  1
  S  S4  1  0.33333334  0.49999998  -0.00000003  1
  S  S5  1  0.66666667  0.99999995  0.49999996  1
  O  O6  1  0.52595701  0.86448996  0.55328497  1
  O  O7  1  0.19262400  0.68879497  0.13550996  1
  O  O8  1  0.19262400  0.31120499  0.86449001  1
  O  O9  1  0.85929101  0.55328497  0.68879499  1
  O  O10  1  0.85929101  0.44671498  0.31120498  1
  O  O11  1  0.52595701  0.13550999  0.44671501  1
  O  O12  1  0.47404301  0.44671498  0.13550998  1
  O  O13  1  0.14070900  0.31120499  0.44671499  1
  O  O14  1  0.80737601  0.13550999  0.68879501  1
  O  O15  1  0.80737601  0.86448996  0.31120496  1
  O  O16  1  0.14070900  0.68879497  0.55328498  1
  O  O17  1  0.47404301  0.55328497  0.86448999  1
