# generated using pymatgen
data_Ce(GeIr)5
_symmetry_space_group_name_H-M   'P 1'
_cell_length_a   3.88624096
_cell_length_b   7.22828388
_cell_length_c   7.22828436
_cell_angle_alpha   120.00000000
_cell_angle_beta   90.00000000
_cell_angle_gamma   90.00000000
_symmetry_Int_Tables_number   1
_chemical_formula_structural   Ce(GeIr)5
_chemical_formula_sum   'Ce1 Ge5 Ir5'
_cell_volume   175.84530864
_cell_formula_units_Z   1
loop_
 _symmetry_equiv_pos_site_id
 _symmetry_equiv_pos_as_xyz
  1  'x, y, z'
loop_
 _atom_site_type_symbol
 _atom_site_label
 _atom_site_symmetry_multiplicity
 _atom_site_fract_x
 _atom_site_fract_y
 _atom_site_fract_z
 _atom_site_occupancy
  Ce  Ce0  1  0.00000000  0.00000000  0.00000000  1
  Ge  Ge1  1  -0.00000000  0.33333334  0.66666668  1
  Ge  Ge2  1  0.50000001  0.80182203  0.60364403  1
  Ge  Ge3  1  0.50000001  0.80182203  0.19817803  1
  Ge  Ge4  1  0.50000001  0.39635601  0.19817801  1
  Ge  Ge5  1  -0.00000000  0.53321602  0.06643202  1
  Ir  Ir6  1  -0.00000000  0.53321602  0.46678302  1
  Ir  Ir7  1  1.00000001  0.93356703  0.46678303  1
  Ir  Ir8  1  0.50000001  0.19951801  0.39903601  1
  Ir  Ir9  1  0.50000001  0.19951801  0.80048201  1
  Ir  Ir10  1  0.50000001  0.60096402  0.80048202  1
