# generated using pymatgen
data_Fe3Mo
_symmetry_space_group_name_H-M   'P 1'
_cell_length_a   3.70652008
_cell_length_b   4.68642712
_cell_length_c   6.01330805
_cell_angle_alpha   90.00000000
_cell_angle_beta   107.95037079
_cell_angle_gamma   90.00000000
_symmetry_Int_Tables_number   1
_chemical_formula_structural   Fe3Mo
_chemical_formula_sum   'Fe3 Mo1'
_cell_volume   99.36880146
_cell_formula_units_Z   1
loop_
 _symmetry_equiv_pos_site_id
 _symmetry_equiv_pos_as_xyz
  1  'x, y, z'
loop_
 _atom_site_type_symbol
 _atom_site_label
 _atom_site_symmetry_multiplicity
 _atom_site_fract_x
 _atom_site_fract_y
 _atom_site_fract_z
 _atom_site_occupancy
  Fe  Fe0  1  0.10592800  0.06863000  0.21185599  1
  Fe  Fe1  1  0.89407197  0.93136998  0.78814396  1
  Fe  Fe2  1  0.39407199  0.56862999  0.78814397  1
  Mo  Mo3  1  0.60592798  0.43136999  0.21185598  1
