# generated using pymatgen
data_Li2TiNb2Al(CuO6)2
_symmetry_space_group_name_H-M   'P 1'
_cell_length_a   5.64446735
_cell_length_b   6.91212845
_cell_length_c   6.91809988
_cell_angle_alpha   76.10806274
_cell_angle_beta   72.62379456
_cell_angle_gamma   72.63719940
_symmetry_Int_Tables_number   1
_chemical_formula_structural   Li2TiNb2Al(CuO6)2
_chemical_formula_sum   'Li2 Ti1 Nb2 Al1 Cu2 O12'
_cell_volume   242.45624586
_cell_formula_units_Z   1
loop_
 _symmetry_equiv_pos_site_id
 _symmetry_equiv_pos_as_xyz
  1  'x, y, z'
loop_
 _atom_site_type_symbol
 _atom_site_label
 _atom_site_symmetry_multiplicity
 _atom_site_fract_x
 _atom_site_fract_y
 _atom_site_fract_z
 _atom_site_occupancy
  Li  Li0  1  0.24993099  0.09086800  0.90885901  1
  Li  Li1  1  0.75026197  0.28524501  0.71444701  1
  Nb  Nb2  1  0.25039599  0.72522602  0.27482897  1
  Ti  Ti3  1  0.26572499  0.18079500  0.37476200  1
  Nb  Nb4  1  0.23435499  0.62518401  0.81888599  1
  Cu  Cu5  1  0.75012996  0.92721302  0.07310497  1
  Cu  Cu6  1  0.79688396  0.38579501  0.15854200  1
  Al  Al7  1  0.70393397  0.84124902  0.61442698  1
  O  O8  1  0.36018998  0.01705600  0.19554401  1
  O  O9  1  0.13970099  0.80397602  0.98331898  1
  O  O10  1  0.33097599  0.02907500  0.60069301  1
  O  O11  1  0.16871099  0.39925901  0.97112800  1
  O  O12  1  0.82944496  0.20314100  0.99840602  1
  O  O13  1  0.66989397  0.00138300  0.79678302  1
  O  O14  1  0.43649398  0.36914501  0.30874399  1
  O  O15  1  0.06383399  0.69084602  0.63059498  1
  O  O16  1  0.93025796  0.29212201  0.40618201  1
  O  O17  1  0.56954997  0.59350901  0.70805899  1
  O  O18  1  0.68481597  0.65292802  0.11533598  1
  O  O19  1  0.81451496  0.88598402  0.34735698  1
