# generated using pymatgen
data_Ti3Ga4
_symmetry_space_group_name_H-M   'P 1'
_cell_length_a   4.09392214
_cell_length_b   5.27045441
_cell_length_c   6.47249460
_cell_angle_alpha   104.39494324
_cell_angle_beta   108.43661499
_cell_angle_gamma   90.00000000
_symmetry_Int_Tables_number   1
_chemical_formula_structural   Ti3Ga4
_chemical_formula_sum   'Ti3 Ga4'
_cell_volume   127.85790066
_cell_formula_units_Z   1
loop_
 _symmetry_equiv_pos_site_id
 _symmetry_equiv_pos_as_xyz
  1  'x, y, z'
loop_
 _atom_site_type_symbol
 _atom_site_label
 _atom_site_symmetry_multiplicity
 _atom_site_fract_x
 _atom_site_fract_y
 _atom_site_fract_z
 _atom_site_occupancy
  Ti  Ti0  1  0.00000000  0.00000000  0.00000000  1
  Ti  Ti1  1  0.21586399  0.33649999  0.43172799  1
  Ti  Ti2  1  0.78413596  0.66349999  0.56827197  1
  Ga  Ga3  1  0.42827097  0.68744298  0.85654197  1
  Ga  Ga4  1  0.57172898  0.31255699  0.14345799  1
  Ga  Ga5  1  0.17182798  0.81221598  0.34365596  1
  Ga  Ga6  1  0.82817197  0.18778400  0.65634400  1
