# generated using pymatgen
data_Hf10In5Co3
_symmetry_space_group_name_H-M   'P 1'
_cell_length_a   5.89961720
_cell_length_b   8.73189831
_cell_length_c   8.73189735
_cell_angle_alpha   120.00000000
_cell_angle_beta   90.00000000
_cell_angle_gamma   90.00000000
_symmetry_Int_Tables_number   1
_chemical_formula_structural   Hf10In5Co3
_chemical_formula_sum   'Hf10 In5 Co3'
_cell_volume   389.55766634
_cell_formula_units_Z   1
loop_
 _symmetry_equiv_pos_site_id
 _symmetry_equiv_pos_as_xyz
  1  'x, y, z'
loop_
 _atom_site_type_symbol
 _atom_site_label
 _atom_site_symmetry_multiplicity
 _atom_site_fract_x
 _atom_site_fract_y
 _atom_site_fract_z
 _atom_site_occupancy
  Hf  Hf0  1  0.49999998  0.33333332  0.66666667  1
  Hf  Hf1  1  0.49999998  0.66666663  0.33333332  1
  Hf  Hf2  1  -0.00000000  0.66666663  0.33333332  1
  Hf  Hf3  1  -0.00000000  0.33333332  0.66666667  1
  Hf  Hf4  1  0.74999998  0.25589799  -0.00000001  1
  Hf  Hf5  1  0.74999998  0.74410196  0.74410199  1
  Hf  Hf6  1  0.74999998  0.00000000  0.25589801  1
  Hf  Hf7  1  0.24999999  0.74410196  -0.00000002  1
  Hf  Hf8  1  0.24999999  0.25589799  0.25589800  1
  Hf  Hf9  1  0.24999999  0.00000000  0.74410202  1
  Co  Co10  1  0.74999998  0.60636397  1.00000001  1
  In  In11  1  0.74999998  0.39363598  0.39363600  1
  In  In12  1  0.74999998  0.00000000  0.60636401  1
  In  In13  1  0.24999999  0.39363598  -0.00000001  1
  In  In14  1  0.24999999  0.60636397  0.60636400  1
  In  In15  1  0.24999999  0.00000000  0.39363601  1
  Co  Co16  1  0.49999998  0.00000000  -0.00000000  1
  Co  Co17  1  0.00000000  0.00000000  0.00000000  1
