# generated using pymatgen
data_TiS
_symmetry_space_group_name_H-M   'P 1'
_cell_length_a   3.71053410
_cell_length_b   6.96873188
_cell_length_c   7.47722054
_cell_angle_alpha   83.91455078
_cell_angle_beta   75.63356018
_cell_angle_gamma   74.56010437
_symmetry_Int_Tables_number   1
_chemical_formula_structural   TiS
_chemical_formula_sum   'Ti4 S4'
_cell_volume   180.37286127
_cell_formula_units_Z   4
loop_
 _symmetry_equiv_pos_site_id
 _symmetry_equiv_pos_as_xyz
  1  'x, y, z'
loop_
 _atom_site_type_symbol
 _atom_site_label
 _atom_site_symmetry_multiplicity
 _atom_site_fract_x
 _atom_site_fract_y
 _atom_site_fract_z
 _atom_site_occupancy
  Ti  Ti0  1  0.79297697  0.79641098  0.61763499  1
  Ti  Ti1  1  0.20702299  0.20358900  0.38236500  1
  Ti  Ti2  1  0.44072298  0.25903299  0.85952100  1
  Ti  Ti3  1  0.55927698  0.74096698  0.14047898  1
  S  S4  1  0.07364600  0.96032498  0.89238297  1
  S  S5  1  0.92635397  0.03967500  0.10761702  1
  S  S6  1  0.87370097  0.95170998  0.30088798  1
  S  S7  1  0.12629900  0.04829000  0.69911201  1
