# generated using pymatgen
data_YInPd
_symmetry_space_group_name_H-M   'P 1'
_cell_length_a   4.20446205
_cell_length_b   7.53155613
_cell_length_c   7.53155613
_cell_angle_alpha   120.00000000
_cell_angle_beta   90.00000000
_cell_angle_gamma   90.00000000
_symmetry_Int_Tables_number   1
_chemical_formula_structural   YInPd
_chemical_formula_sum   'Y3 In3 Pd3'
_cell_volume   206.54301046
_cell_formula_units_Z   3
loop_
 _symmetry_equiv_pos_site_id
 _symmetry_equiv_pos_as_xyz
  1  'x, y, z'
loop_
 _atom_site_type_symbol
 _atom_site_label
 _atom_site_symmetry_multiplicity
 _atom_site_fract_x
 _atom_site_fract_y
 _atom_site_fract_z
 _atom_site_occupancy
  Y  Y0  1  0.49999999  0.41314600  0.41314601  1
  Y  Y1  1  0.49999999  0.58685399  0.00000001  1
  Y  Y2  1  0.49999999  0.99999999  0.58685401  1
  In  In3  1  -0.00000000  0.75123299  0.75123301  1
  In  In4  1  -0.00000000  0.24876700  0.00000000  1
  In  In5  1  -0.00000000  0.99999999  0.24876701  1
  Pd  Pd6  1  0.49999999  0.00000000  -0.00000000  1
  Pd  Pd7  1  -0.00000000  0.66666666  0.33333334  1
  Pd  Pd8  1  -0.00000000  0.33333333  0.66666667  1
