# generated using pymatgen
data_Ti2Ag
_symmetry_space_group_name_H-M   'P 1'
_cell_length_a   3.23197603
_cell_length_b   3.23197603
_cell_length_c   6.05923843
_cell_angle_alpha   105.46788788
_cell_angle_beta   105.46788788
_cell_angle_gamma   90.00000000
_symmetry_Int_Tables_number   1
_chemical_formula_structural   Ti2Ag
_chemical_formula_sum   'Ti2 Ag1'
_cell_volume   58.61829340
_cell_formula_units_Z   1
loop_
 _symmetry_equiv_pos_site_id
 _symmetry_equiv_pos_as_xyz
  1  'x, y, z'
loop_
 _atom_site_type_symbol
 _atom_site_label
 _atom_site_symmetry_multiplicity
 _atom_site_fract_x
 _atom_site_fract_y
 _atom_site_fract_z
 _atom_site_occupancy
  Ti  Ti0  1  0.34573001  0.34573000  0.69146002  1
  Ti  Ti1  1  0.65427003  0.65427001  0.30854004  1
  Ag  Ag2  1  0.00000000  0.00000000  0.00000000  1
