# generated using pymatgen
data_Er4Ge12Pt
_symmetry_space_group_name_H-M   'P 1'
_cell_length_a   7.48378468
_cell_length_b   7.48378468
_cell_length_c   7.48378468
_cell_angle_alpha   109.47122192
_cell_angle_beta   109.47122192
_cell_angle_gamma   109.47122192
_symmetry_Int_Tables_number   1
_chemical_formula_structural   Er4Ge12Pt
_chemical_formula_sum   'Er4 Ge12 Pt1'
_cell_volume   322.65762950
_cell_formula_units_Z   1
loop_
 _symmetry_equiv_pos_site_id
 _symmetry_equiv_pos_as_xyz
  1  'x, y, z'
loop_
 _atom_site_type_symbol
 _atom_site_label
 _atom_site_symmetry_multiplicity
 _atom_site_fract_x
 _atom_site_fract_y
 _atom_site_fract_z
 _atom_site_occupancy
  Er  Er0  1  0.00000003  0.50000001  0.00000003  1
  Er  Er1  1  0.00000000  0.00000000  0.49999999  1
  Er  Er2  1  0.49999999  0.00000000  0.00000001  1
  Er  Er3  1  0.50000002  0.50000001  0.50000003  1
  Ge  Ge4  1  0.25000004  0.75000001  0.50000004  1
  Ge  Ge5  1  0.29400600  0.00000000  0.29400600  1
  Ge  Ge6  1  0.00000002  0.29400601  0.29400601  1
  Ge  Ge7  1  0.75000002  0.50000001  0.25000004  1
  Ge  Ge8  1  0.50000004  0.75000001  0.25000005  1
  Ge  Ge9  1  0.75000001  0.25000000  0.50000002  1
  Ge  Ge10  1  0.50000001  0.25000000  0.75000001  1
  Ge  Ge11  1  0.29400601  0.29400601  0.00000002  1
  Ge  Ge12  1  0.25000003  0.50000001  0.75000002  1
  Ge  Ge13  1  0.70599399  0.00000000  0.70599400  1
  Ge  Ge14  1  0.70599403  0.70599401  0.00000006  1
  Ge  Ge15  1  0.00000004  0.70599401  0.70599402  1
  Pt  Pt16  1  0.00000000  0.00000000  0.00000000  1
