# generated using pymatgen
data_YSnRh
_symmetry_space_group_name_H-M   'P 1'
_cell_length_a   4.20022583
_cell_length_b   7.32834578
_cell_length_c   7.32834625
_cell_angle_alpha   120.00000000
_cell_angle_beta   90.00000000
_cell_angle_gamma   90.00000000
_symmetry_Int_Tables_number   1
_chemical_formula_structural   YSnRh
_chemical_formula_sum   'Y3 Sn3 Rh3'
_cell_volume   195.35080559
_cell_formula_units_Z   3
loop_
 _symmetry_equiv_pos_site_id
 _symmetry_equiv_pos_as_xyz
  1  'x, y, z'
loop_
 _atom_site_type_symbol
 _atom_site_label
 _atom_site_symmetry_multiplicity
 _atom_site_fract_x
 _atom_site_fract_y
 _atom_site_fract_z
 _atom_site_occupancy
  Y  Y0  1  0.50000002  0.58173002  0.00000001  1
  Y  Y1  1  0.50000002  0.41827002  0.41827000  1
  Y  Y2  1  0.50000002  0.00000000  0.58172999  1
  Sn  Sn3  1  -0.00000000  0.23279301  0.00000000  1
  Sn  Sn4  1  -0.00000000  0.76720703  0.76720700  1
  Sn  Sn5  1  1.00000004  0.00000000  0.23279300  1
  Rh  Rh6  1  -0.00000000  0.33333335  0.66666666  1
  Rh  Rh7  1  -0.00000000  0.66666669  0.33333334  1
  Rh  Rh8  1  0.50000002  0.00000000  -0.00000000  1
