# generated using pymatgen
data_Mg2Cd
_symmetry_space_group_name_H-M   'P 1'
_cell_length_a   5.41227341
_cell_length_b   5.41227341
_cell_length_c   6.08861256
_cell_angle_alpha   63.61128998
_cell_angle_beta   63.61128998
_cell_angle_gamma   60.00000763
_symmetry_Int_Tables_number   1
_chemical_formula_structural   Mg2Cd
_chemical_formula_sum   'Mg4 Cd2'
_cell_volume   132.56438466
_cell_formula_units_Z   2
loop_
 _symmetry_equiv_pos_site_id
 _symmetry_equiv_pos_as_xyz
  1  'x, y, z'
loop_
 _atom_site_type_symbol
 _atom_site_label
 _atom_site_symmetry_multiplicity
 _atom_site_fract_x
 _atom_site_fract_y
 _atom_site_fract_z
 _atom_site_occupancy
  Mg  Mg0  1  0.66781297  0.99999999  0.00000003  1
  Mg  Mg1  1  0.33218698  0.66781299  0.00000002  1
  Mg  Mg2  1  0.49999998  0.49999999  0.50000002  1
  Mg  Mg3  1  -0.00000001  0.33218700  0.00000001  1
  Cd  Cd4  1  0.83417197  0.83417199  0.49748404  1
  Cd  Cd5  1  0.16582799  0.16582800  0.50251601  1
