# generated using pymatgen
data_CeSi2Ni
_symmetry_space_group_name_H-M   'P 1'
_cell_length_a   4.11568689
_cell_length_b   4.20670223
_cell_length_c   8.64700413
_cell_angle_alpha   75.92178345
_cell_angle_beta   90.00000000
_cell_angle_gamma   90.00000000
_symmetry_Int_Tables_number   1
_chemical_formula_structural   CeSi2Ni
_chemical_formula_sum   'Ce2 Si4 Ni2'
_cell_volume   145.21304597
_cell_formula_units_Z   2
loop_
 _symmetry_equiv_pos_site_id
 _symmetry_equiv_pos_as_xyz
  1  'x, y, z'
loop_
 _atom_site_type_symbol
 _atom_site_label
 _atom_site_symmetry_multiplicity
 _atom_site_fract_x
 _atom_site_fract_y
 _atom_site_fract_z
 _atom_site_occupancy
  Ce  Ce0  1  0.25000001  0.89163196  0.21673598  1
  Ce  Ce1  1  0.75000002  0.10836800  0.78326402  1
  Si  Si2  1  0.25000001  0.68060797  0.63878400  1
  Si  Si3  1  0.75000002  0.31939199  0.36121600  1
  Si  Si4  1  0.25000001  0.54463998  0.91072002  1
  Si  Si5  1  0.75000002  0.45535998  0.08927999  1
  Ni  Ni6  1  0.25000001  0.24920399  0.50159201  1
  Ni  Ni7  1  0.75000002  0.75079597  0.49840800  1
