# generated using pymatgen
data_Tc
_symmetry_space_group_name_H-M   'P 1'
_cell_length_a   4.37106705
_cell_length_b   5.44585800
_cell_length_c   5.44585848
_cell_angle_alpha   60.00000381
_cell_angle_beta   90.00000000
_cell_angle_gamma   90.00000000
_symmetry_Int_Tables_number   1
_chemical_formula_structural   Tc
_chemical_formula_sum   Tc8
_cell_volume   112.26665443
_cell_formula_units_Z   8
loop_
 _symmetry_equiv_pos_site_id
 _symmetry_equiv_pos_as_xyz
  1  'x, y, z'
loop_
 _atom_site_type_symbol
 _atom_site_label
 _atom_site_symmetry_multiplicity
 _atom_site_fract_x
 _atom_site_fract_y
 _atom_site_fract_z
 _atom_site_occupancy
  Tc  Tc0  1  0.25000000  0.33333333  0.33333334  1
  Tc  Tc1  1  0.74999999  0.66666666  0.66666668  1
  Tc  Tc2  1  0.74999999  0.66465400  0.16767301  1
  Tc  Tc3  1  0.74999999  0.16767300  0.16767300  1
  Tc  Tc4  1  0.74999999  0.16767300  0.66465401  1
  Tc  Tc5  1  0.25000000  0.33534600  0.83232701  1
  Tc  Tc6  1  0.25000000  0.83232700  0.83232702  1
  Tc  Tc7  1  0.25000000  0.83232700  0.33534601  1
