# generated using pymatgen
data_Ba2TaO6
_symmetry_space_group_name_H-M   'P 1'
_cell_length_a   5.85285807
_cell_length_b   5.85285759
_cell_length_c   9.55239964
_cell_angle_alpha   90.00000000
_cell_angle_beta   90.00000000
_cell_angle_gamma   120.00000000
_symmetry_Int_Tables_number   1
_chemical_formula_structural   Ba2TaO6
_chemical_formula_sum   'Ba4 Ta2 O12'
_cell_volume   283.38643945
_cell_formula_units_Z   2
loop_
 _symmetry_equiv_pos_site_id
 _symmetry_equiv_pos_as_xyz
  1  'x, y, z'
loop_
 _atom_site_type_symbol
 _atom_site_label
 _atom_site_symmetry_multiplicity
 _atom_site_fract_x
 _atom_site_fract_y
 _atom_site_fract_z
 _atom_site_occupancy
  Ba  Ba0  1  0.00000000  0.00000000  0.90566803  1
  Ba  Ba1  1  0.00000000  0.00000000  0.40566802  1
  Ba  Ba2  1  0.33333328  0.66666662  0.62881202  1
  Ba  Ba3  1  0.66666664  0.33333331  0.12881200  1
  Ta  Ta4  1  0.33333328  0.66666662  0.24228601  1
  Ta  Ta5  1  0.66666664  0.33333331  0.74228603  1
  O  O6  1  0.48023893  0.96047793  0.35502401  1
  O  O7  1  0.96047795  0.48023897  0.85502403  1
  O  O8  1  0.51976096  0.48023897  0.85502403  1
  O  O9  1  0.48023896  0.51976096  0.35502401  1
  O  O10  1  0.03952196  0.51976096  0.35502401  1
  O  O11  1  0.51976099  0.03952200  0.85502403  1
  O  O12  1  0.81735995  0.63471995  0.63605402  1
  O  O13  1  0.63472094  0.81736094  0.13605401  1
  O  O14  1  0.18263994  0.81736094  0.13605401  1
  O  O15  1  0.81735998  0.18263899  0.63605402  1
  O  O16  1  0.36527898  0.18263899  0.63605402  1
  O  O17  1  0.18263997  0.36527997  0.13605401  1
