# generated using pymatgen
data_Er2InCu2
_symmetry_space_group_name_H-M   'P 1'
_cell_length_a   3.68989205
_cell_length_b   7.34117985
_cell_length_c   7.34117985
_cell_angle_alpha   90.00000000
_cell_angle_beta   90.00000000
_cell_angle_gamma   90.00000000
_symmetry_Int_Tables_number   1
_chemical_formula_structural   Er2InCu2
_chemical_formula_sum   'Er4 In2 Cu4'
_cell_volume   198.85906300
_cell_formula_units_Z   2
loop_
 _symmetry_equiv_pos_site_id
 _symmetry_equiv_pos_as_xyz
  1  'x, y, z'
loop_
 _atom_site_type_symbol
 _atom_site_label
 _atom_site_symmetry_multiplicity
 _atom_site_fract_x
 _atom_site_fract_y
 _atom_site_fract_z
 _atom_site_occupancy
  Er  Er0  1  0.49999999  0.67932401  0.17932400  1
  Er  Er1  1  0.49999999  0.32067601  0.82067602  1
  Er  Er2  1  0.49999999  0.17932400  0.32067601  1
  Er  Er3  1  0.49999999  0.82067602  0.67932401  1
  In  In4  1  0.00000000  0.00000000  0.00000000  1
  In  In5  1  0.00000000  0.50000001  0.50000001  1
  Cu  Cu6  1  0.99999999  0.11569600  0.61569601  1
  Cu  Cu7  1  0.00000000  0.88430402  0.38430401  1
  Cu  Cu8  1  0.99999999  0.61569601  0.88430402  1
  Cu  Cu9  1  0.00000000  0.38430401  0.11569600  1
