# generated using pymatgen
data_LaZrO3
_symmetry_space_group_name_H-M   'P 1'
_cell_length_a   5.60066795
_cell_length_b   5.81582499
_cell_length_c   8.02309513
_cell_angle_alpha   90.00000000
_cell_angle_beta   90.00000000
_cell_angle_gamma   90.00000000
_symmetry_Int_Tables_number   1
_chemical_formula_structural   LaZrO3
_chemical_formula_sum   'La4 Zr4 O12'
_cell_volume   261.33230321
_cell_formula_units_Z   4
loop_
 _symmetry_equiv_pos_site_id
 _symmetry_equiv_pos_as_xyz
  1  'x, y, z'
loop_
 _atom_site_type_symbol
 _atom_site_label
 _atom_site_symmetry_multiplicity
 _atom_site_fract_x
 _atom_site_fract_y
 _atom_site_fract_z
 _atom_site_occupancy
  La  La0  1  0.98551501  0.05552300  0.74999999  1
  La  La1  1  0.48551500  0.44447700  0.25000000  1
  La  La2  1  0.51448500  0.55552300  0.74999999  1
  La  La3  1  0.01448500  0.94447700  0.25000000  1
  Zr  Zr4  1  0.00000000  0.50000000  0.49999999  1
  Zr  Zr5  1  0.50000000  0.00000000  0.49999999  1
  Zr  Zr6  1  0.50000000  0.00000000  0.00000000  1
  Zr  Zr7  1  0.00000000  0.50000000  0.00000000  1
  O  O8  1  0.69635501  0.30205300  0.55963999  1
  O  O9  1  0.19635500  0.19794700  0.44035999  1
  O  O10  1  0.80364501  0.80205300  0.94035998  1
  O  O11  1  0.30364500  0.69794700  0.05964000  1
  O  O12  1  0.30364500  0.69794700  0.44035999  1
  O  O13  1  0.80364501  0.80205300  0.55963999  1
  O  O14  1  0.19635500  0.19794700  0.05964000  1
  O  O15  1  0.69635501  0.30205300  0.94035998  1
  O  O16  1  0.88650101  0.54630900  0.25000000  1
  O  O17  1  0.38650100  0.95369100  0.74999999  1
  O  O18  1  0.61349901  0.04630900  0.25000000  1
  O  O19  1  0.11349900  0.45369100  0.74999999  1
