# generated using pymatgen
data_LaCeOs4
_symmetry_space_group_name_H-M   'P 1'
_cell_length_a   5.45579147
_cell_length_b   5.45579147
_cell_length_c   5.45579147
_cell_angle_alpha   60.00000000
_cell_angle_beta   60.00000000
_cell_angle_gamma   60.00000000
_symmetry_Int_Tables_number   1
_chemical_formula_structural   LaCeOs4
_chemical_formula_sum   'La1 Ce1 Os4'
_cell_volume   114.83077353
_cell_formula_units_Z   1
loop_
 _symmetry_equiv_pos_site_id
 _symmetry_equiv_pos_as_xyz
  1  'x, y, z'
loop_
 _atom_site_type_symbol
 _atom_site_label
 _atom_site_symmetry_multiplicity
 _atom_site_fract_x
 _atom_site_fract_y
 _atom_site_fract_z
 _atom_site_occupancy
  Ce  Ce0  1  0.74999997  0.74999997  0.74999997  1
  La  La1  1  0.00000000  0.00000000  0.00000000  1
  Os  Os2  1  0.87499997  0.37499999  0.37499999  1
  Os  Os3  1  0.37499999  0.37499999  0.87499997  1
  Os  Os4  1  0.37499999  0.37499999  0.37499999  1
  Os  Os5  1  0.37499999  0.87499997  0.37499999  1
