# generated using pymatgen
data_Sr3LaMn4O12
_symmetry_space_group_name_H-M   'P 1'
_cell_length_a   5.61057186
_cell_length_b   5.62135935
_cell_length_c   7.94823694
_cell_angle_alpha   89.97998810
_cell_angle_beta   89.92209625
_cell_angle_gamma   89.27619934
_symmetry_Int_Tables_number   1
_chemical_formula_structural   Sr3LaMn4O12
_chemical_formula_sum   'Sr3 La1 Mn4 O12'
_cell_volume   250.65951982
_cell_formula_units_Z   1
loop_
 _symmetry_equiv_pos_site_id
 _symmetry_equiv_pos_as_xyz
  1  'x, y, z'
loop_
 _atom_site_type_symbol
 _atom_site_label
 _atom_site_symmetry_multiplicity
 _atom_site_fract_x
 _atom_site_fract_y
 _atom_site_fract_z
 _atom_site_occupancy
  Sr  Sr0  1  0.50587100  0.99284203  0.26210701  1
  Sr  Sr1  1  0.00720899  0.49333502  0.26331900  1
  Sr  Sr2  1  0.50749300  0.99441903  0.74487300  1
  La  La3  1  0.00609799  0.49490702  0.74456099  1
  Mn  Mn4  1  0.00614998  0.99559703  0.01601302  1
  Mn  Mn5  1  0.50516100  0.49303802  0.98778299  1
  Mn  Mn6  1  0.00530199  0.98109403  0.50081401  1
  Mn  Mn7  1  0.50438900  0.51219502  0.50810100  1
  O  O8  1  0.04996799  0.95337303  0.24493301  1
  O  O9  1  0.24961799  0.75195403  0.54894400  1
  O  O10  1  0.74936401  0.75005603  0.49984600  1
  O  O11  1  0.54707801  0.44766802  0.75355799  1
  O  O12  1  0.74586101  0.75434603  0.99718599  1
  O  O13  1  0.24720800  0.25241301  0.99795098  1
  O  O14  1  0.43875200  0.55467702  0.24551600  1
  O  O15  1  0.74729101  0.25371901  0.05537300  1
  O  O16  1  0.24539400  0.25374901  0.49710499  1
  O  O17  1  0.74425801  0.25138501  0.44170999  1
  O  O18  1  0.24624799  0.75309603  0.94229599  1
  O  O19  1  0.94134902  0.06607700  0.74807098  1
