# generated using pymatgen
data_Ti2Cr3CuS8
_symmetry_space_group_name_H-M   'P 1'
_cell_length_a   6.98570013
_cell_length_b   7.00601244
_cell_length_c   7.15569639
_cell_angle_alpha   60.89080048
_cell_angle_beta   60.78280640
_cell_angle_gamma   60.09585953
_symmetry_Int_Tables_number   1
_chemical_formula_structural   Ti2Cr3CuS8
_chemical_formula_sum   'Ti2 Cr3 Cu1 S8'
_cell_volume   250.90952347
_cell_formula_units_Z   1
loop_
 _symmetry_equiv_pos_site_id
 _symmetry_equiv_pos_as_xyz
  1  'x, y, z'
loop_
 _atom_site_type_symbol
 _atom_site_label
 _atom_site_symmetry_multiplicity
 _atom_site_fract_x
 _atom_site_fract_y
 _atom_site_fract_z
 _atom_site_occupancy
  Ti  Ti0  1  0.03469398  0.48624400  0.99318502  1
  Ti  Ti1  1  0.48587697  0.48624400  0.99318502  1
  Cr  Cr2  1  0.86873794  0.87611099  0.38641303  1
  Cr  Cr3  1  0.49622897  0.49802000  0.50952202  1
  Cr  Cr4  1  0.49094399  0.02193500  0.99617702  1
  Cu  Cu5  1  0.12697999  0.12806100  0.61797901  1
  S  S6  1  0.25614198  0.24517500  0.24254101  1
  S  S7  1  0.25627596  0.73781700  0.74963102  1
  S  S8  1  0.73138097  0.25325100  0.75125102  1
  S  S9  1  0.26411698  0.25325100  0.75125101  1
  S  S10  1  0.73888795  0.74798700  0.77423703  1
  S  S11  1  0.74147197  0.27196000  0.24509602  1
  S  S12  1  0.27026296  0.74697100  0.24476602  1
  S  S13  1  0.73799995  0.74697100  0.24476603  1
