# generated using pymatgen
data_In4Cu3As5
_symmetry_space_group_name_H-M   'P 1'
_cell_length_a   6.51451302
_cell_length_b   6.51451302
_cell_length_c   8.16463280
_cell_angle_alpha   97.00865936
_cell_angle_beta   97.00865936
_cell_angle_gamma   97.33773804
_symmetry_Int_Tables_number   1
_chemical_formula_structural   In4Cu3As5
_chemical_formula_sum   'In4 Cu3 As5'
_cell_volume   337.74347049
_cell_formula_units_Z   1
loop_
 _symmetry_equiv_pos_site_id
 _symmetry_equiv_pos_as_xyz
  1  'x, y, z'
loop_
 _atom_site_type_symbol
 _atom_site_label
 _atom_site_symmetry_multiplicity
 _atom_site_fract_x
 _atom_site_fract_y
 _atom_site_fract_z
 _atom_site_occupancy
  In  In0  1  0.88837100  0.59839999  0.78570298  1
  In  In1  1  0.40160000  0.11162900  0.71429699  1
  In  In2  1  0.59840001  0.88837099  0.28570298  1
  In  In3  1  0.11162901  0.40160000  0.21429699  1
  Cu  Cu4  1  0.32816001  0.42352900  0.52638599  1
  Cu  Cu5  1  0.42352900  0.32816000  0.02638599  1
  Cu  Cu6  1  0.70907200  0.29092800  0.24999999  1
  As  As7  1  0.29092801  0.70907199  0.74999999  1
  As  As8  1  0.67184000  0.57647099  0.47361398  1
  As  As9  1  0.57647101  0.67183999  0.97361398  1
  As  As10  1  0.12723202  0.87276799  0.24999999  1
  As  As11  1  0.87276799  0.12723200  0.74999999  1
