# generated using pymatgen
data_YMgIn
_symmetry_space_group_name_H-M   'P 1'
_cell_length_a   4.71013784
_cell_length_b   7.66366816
_cell_length_c   7.66366768
_cell_angle_alpha   120.00000000
_cell_angle_beta   90.00000000
_cell_angle_gamma   90.00000000
_symmetry_Int_Tables_number   1
_chemical_formula_structural   YMgIn
_chemical_formula_sum   'Y3 Mg3 In3'
_cell_volume   239.57285256
_cell_formula_units_Z   3
loop_
 _symmetry_equiv_pos_site_id
 _symmetry_equiv_pos_as_xyz
  1  'x, y, z'
loop_
 _atom_site_type_symbol
 _atom_site_label
 _atom_site_symmetry_multiplicity
 _atom_site_fract_x
 _atom_site_fract_y
 _atom_site_fract_z
 _atom_site_occupancy
  Y  Y0  1  0.50000002  0.00000000  0.57238101  1
  Y  Y1  1  0.50000002  0.57238098  -0.00000001  1
  Y  Y2  1  0.50000002  0.42761899  0.42761900  1
  Mg  Mg3  1  -0.00000000  0.75074398  0.75074401  1
  Mg  Mg4  1  1.00000003  0.00000000  0.24925601  1
  Mg  Mg5  1  -0.00000000  0.24925599  1.00000002  1
  In  In6  1  -0.00000000  0.33333332  0.66666668  1
  In  In7  1  1.00000003  0.66666665  0.33333333  1
  In  In8  1  0.50000002  0.00000000  -0.00000000  1
