# generated using pymatgen
data_In4Ge2S9
_symmetry_space_group_name_H-M   'P 1'
_cell_length_a   6.60475969
_cell_length_b   6.60475969
_cell_length_c   6.60475969
_cell_angle_alpha   89.12772369
_cell_angle_beta   89.12772369
_cell_angle_gamma   89.12772369
_symmetry_Int_Tables_number   1
_chemical_formula_structural   In4Ge2S9
_chemical_formula_sum   'In4 Ge2 S9'
_cell_volume   288.01928544
_cell_formula_units_Z   1
loop_
 _symmetry_equiv_pos_site_id
 _symmetry_equiv_pos_as_xyz
  1  'x, y, z'
loop_
 _atom_site_type_symbol
 _atom_site_label
 _atom_site_symmetry_multiplicity
 _atom_site_fract_x
 _atom_site_fract_y
 _atom_site_fract_z
 _atom_site_occupancy
  In  In0  1  0.22748600  0.56315199  0.41506805  1
  In  In1  1  0.58493200  0.77251399  0.43684807  1
  In  In2  1  0.56315200  0.41506799  0.22748605  1
  In  In3  1  0.77251399  0.43684799  0.58493207  1
  Ge  Ge4  1  0.43684800  0.58493199  0.77251407  1
  Ge  Ge5  1  0.41506800  0.22748600  0.56315204  1
  S  S6  1  0.00000000  0.00000000  0.00000000  1
  S  S7  1  0.87405099  0.61526499  0.25926107  1
  S  S8  1  0.24473900  0.24473900  0.24473903  1
  S  S9  1  0.38473500  0.74073899  0.12594905  1
  S  S10  1  0.12594900  0.38473499  0.74073905  1
  S  S11  1  0.74073899  0.12594900  0.38473505  1
  S  S12  1  0.61526499  0.25926100  0.87405106  1
  S  S13  1  0.75526100  0.75526099  0.75526109  1
  S  S14  1  0.25926101  0.87405099  0.61526507  1
