# generated using pymatgen
data_Dy3Co2Si3Ir
_symmetry_space_group_name_H-M   'P 1'
_cell_length_a   4.16406822
_cell_length_b   5.76522875
_cell_length_c   8.06449604
_cell_angle_alpha   106.37697601
_cell_angle_beta   90.00000000
_cell_angle_gamma   111.17000580
_symmetry_Int_Tables_number   1
_chemical_formula_structural   Dy3Co2Si3Ir
_chemical_formula_sum   'Dy3 Co2 Si3 Ir1'
_cell_volume   172.08677964
_cell_formula_units_Z   1
loop_
 _symmetry_equiv_pos_site_id
 _symmetry_equiv_pos_as_xyz
  1  'x, y, z'
loop_
 _atom_site_type_symbol
 _atom_site_label
 _atom_site_symmetry_multiplicity
 _atom_site_fract_x
 _atom_site_fract_y
 _atom_site_fract_z
 _atom_site_occupancy
  Dy  Dy0  1  0.00000000  0.00000000  0.00000000  1
  Dy  Dy1  1  0.62287899  0.24575802  0.69244199  1
  Dy  Dy2  1  0.37712105  0.75424206  0.30755802  1
  Co  Co3  1  0.30738804  0.61477605  0.62753800  1
  Co  Co4  1  0.69261200  0.38522403  0.37246200  1
  Si  Si5  1  0.90074903  0.80149806  0.60071201  1
  Si  Si6  1  0.70914900  0.41829803  0.08118001  1
  Si  Si7  1  0.29085104  0.58170205  0.91882000  1
  Ir  Ir8  1  0.09925101  0.19850202  0.39928800  1
