# generated using pymatgen
data_KWCl6
_symmetry_space_group_name_H-M   'P 1'
_cell_length_a   6.42454576
_cell_length_b   6.89327240
_cell_length_c   12.38665771
_cell_angle_alpha   100.62012482
_cell_angle_beta   90.00000000
_cell_angle_gamma   117.77503204
_symmetry_Int_Tables_number   1
_chemical_formula_structural   KWCl6
_chemical_formula_sum   'K2 W2 Cl12'
_cell_volume   474.70899465
_cell_formula_units_Z   2
loop_
 _symmetry_equiv_pos_site_id
 _symmetry_equiv_pos_as_xyz
  1  'x, y, z'
loop_
 _atom_site_type_symbol
 _atom_site_label
 _atom_site_symmetry_multiplicity
 _atom_site_fract_x
 _atom_site_fract_y
 _atom_site_fract_z
 _atom_site_occupancy
  K  K0  1  0.11887800  0.00000000  0.75000001  1
  K  K1  1  0.88112203  0.00000000  0.25000000  1
  W  W2  1  0.49999999  0.49999999  0.50000000  1
  W  W3  1  -0.00000003  0.49999999  1.00000001  1
  Cl  Cl4  1  0.53710097  0.83839799  0.60346199  1
  Cl  Cl5  1  0.46289901  0.16160200  0.39653800  1
  Cl  Cl6  1  0.69870302  0.16160200  0.89653801  1
  Cl  Cl7  1  0.30129696  0.83839799  0.10346199  1
  Cl  Cl8  1  0.62947300  0.42841100  0.65857200  1
  Cl  Cl9  1  0.37052698  0.57158899  0.34142800  1
  Cl  Cl10  1  0.20106197  0.57158899  0.84142800  1
  Cl  Cl11  1  0.79893800  0.42841100  0.15857200  1
  Cl  Cl12  1  0.20493899  0.31139200  0.04033700  1
  Cl  Cl13  1  0.79506099  0.68860799  0.95966300  1
  Cl  Cl14  1  0.89354699  0.68860799  0.45966300  1
  Cl  Cl15  1  0.10645299  0.31139200  0.54033700  1
