# generated using pymatgen
data_Dy2CoSi4
_symmetry_space_group_name_H-M   'P 1'
_cell_length_a   4.13637495
_cell_length_b   4.14090204
_cell_length_c   8.17734146
_cell_angle_alpha   104.66658020
_cell_angle_beta   90.00000000
_cell_angle_gamma   90.00000000
_symmetry_Int_Tables_number   1
_chemical_formula_structural   Dy2CoSi4
_chemical_formula_sum   'Dy2 Co1 Si4'
_cell_volume   135.50024369
_cell_formula_units_Z   1
loop_
 _symmetry_equiv_pos_site_id
 _symmetry_equiv_pos_as_xyz
  1  'x, y, z'
loop_
 _atom_site_type_symbol
 _atom_site_label
 _atom_site_symmetry_multiplicity
 _atom_site_fract_x
 _atom_site_fract_y
 _atom_site_fract_z
 _atom_site_occupancy
  Dy  Dy0  1  0.25000000  0.10683000  0.21366101  1
  Dy  Dy1  1  0.75000001  0.89992200  0.79984404  1
  Co  Co2  1  0.25000000  0.31072800  0.62145602  1
  Si  Si3  1  0.25000000  0.74358800  0.48717703  1
  Si  Si4  1  0.75000001  0.24533100  0.49066302  1
  Si  Si5  1  0.25000000  0.45568600  0.91137203  1
  Si  Si6  1  0.75000001  0.55891300  0.11782602  1
