# generated using pymatgen
data_Ce4CI5
_symmetry_space_group_name_H-M   'P 1'
_cell_length_a   4.30851984
_cell_length_b   9.37729454
_cell_length_c   10.27047443
_cell_angle_alpha   102.71237946
_cell_angle_beta   102.10786438
_cell_angle_gamma   90.00000000
_symmetry_Int_Tables_number   1
_chemical_formula_structural   Ce4CI5
_chemical_formula_sum   'Ce4 C1 I5'
_cell_volume   395.31046224
_cell_formula_units_Z   1
loop_
 _symmetry_equiv_pos_site_id
 _symmetry_equiv_pos_as_xyz
  1  'x, y, z'
loop_
 _atom_site_type_symbol
 _atom_site_label
 _atom_site_symmetry_multiplicity
 _atom_site_fract_x
 _atom_site_fract_y
 _atom_site_fract_z
 _atom_site_occupancy
  Ce  Ce0  1  0.13947201  0.07219000  0.27894400  1
  Ce  Ce1  1  0.86052806  0.92780997  0.72105600  1
  Ce  Ce2  1  0.49973203  0.20894899  0.99946399  1
  Ce  Ce3  1  0.50026804  0.79105097  0.00053601  1
  C  C4  1  0.00000000  0.00000000  0.00000000  1
  I  I5  1  0.32827002  0.16847999  0.65653999  1
  I  I6  1  0.67173005  0.83151997  0.34346000  1
  I  I7  1  0.33429903  0.66312298  0.66859799  1
  I  I8  1  0.66570104  0.33687699  0.33140200  1
  I  I9  1  0.00000001  0.49999998  -0.00000000  1
