# generated using pymatgen
data_Mn2Si3
_symmetry_space_group_name_H-M   'P 1'
_cell_length_a   4.16287994
_cell_length_b   6.46870470
_cell_length_c   6.46870422
_cell_angle_alpha   84.05715179
_cell_angle_beta   71.22995758
_cell_angle_gamma   71.22994232
_symmetry_Int_Tables_number   1
_chemical_formula_structural   Mn2Si3
_chemical_formula_sum   'Mn6 Si9'
_cell_volume   156.15688551
_cell_formula_units_Z   3
loop_
 _symmetry_equiv_pos_site_id
 _symmetry_equiv_pos_as_xyz
  1  'x, y, z'
loop_
 _atom_site_type_symbol
 _atom_site_label
 _atom_site_symmetry_multiplicity
 _atom_site_fract_x
 _atom_site_fract_y
 _atom_site_fract_z
 _atom_site_occupancy
  Mn  Mn0  1  0.18652297  0.50000001  0.18454202  1
  Mn  Mn1  1  0.87106599  0.50000001  0.81545797  1
  Mn  Mn2  1  0.31347595  0.81545801  0.50000002  1
  Mn  Mn3  1  0.62893501  0.18454200  0.49999997  1
  Mn  Mn4  1  0.70554295  0.87334101  0.71568200  1
  Mn  Mn5  1  0.29456600  0.12665900  0.28431799  1
  Si  Si6  1  0.79445700  0.28431800  0.12665898  1
  Si  Si7  1  0.20543395  0.71568201  0.87334101  1
  Si  Si8  1  0.57877496  0.71568201  0.12665901  1
  Si  Si9  1  0.42111599  0.28431800  0.87334098  1
  Si  Si10  1  0.07888399  0.12665900  0.71568199  1
  Si  Si11  1  0.92122496  0.87334101  0.28431801  1
  Si  Si12  1  0.74999999  0.50000001  0.49999999  1
  Si  Si13  1  0.25000001  0.00000000  -0.00000001  1
  Si  Si14  1  0.75000002  0.00000000  -0.00000003  1
