# generated using pymatgen
data_Zr5Pt3
_symmetry_space_group_name_H-M   'P 1'
_cell_length_a   5.51526117
_cell_length_b   8.18819714
_cell_length_c   8.18829632
_cell_angle_alpha   120.00039673
_cell_angle_beta   90.00078583
_cell_angle_gamma   89.99960327
_symmetry_Int_Tables_number   1
_chemical_formula_structural   Zr5Pt3
_chemical_formula_sum   'Zr10 Pt6'
_cell_volume   320.24091586
_cell_formula_units_Z   2
loop_
 _symmetry_equiv_pos_site_id
 _symmetry_equiv_pos_as_xyz
  1  'x, y, z'
loop_
 _atom_site_type_symbol
 _atom_site_label
 _atom_site_symmetry_multiplicity
 _atom_site_fract_x
 _atom_site_fract_y
 _atom_site_fract_z
 _atom_site_occupancy
  Zr  Zr0  1  0.50288191  0.66666666  0.33333334  1
  Zr  Zr1  1  0.50288195  0.33333333  0.66666668  1
  Zr  Zr2  1  0.99711893  0.33333333  0.66666667  1
  Zr  Zr3  1  0.99711890  0.66666666  0.33329366  1
  Zr  Zr4  1  0.75000898  0.00000000  0.75497501  1
  Zr  Zr5  1  0.74999489  0.75497499  0.00002399  1
  Zr  Zr6  1  0.74999495  0.24502500  0.24504899  1
  Zr  Zr7  1  0.25000799  0.00000000  0.24685900  1
  Zr  Zr8  1  0.24999497  0.24685100  0.99996503  1
  Zr  Zr9  1  0.24999491  0.75314899  0.75311402  1
  Pt  Pt10  1  0.74999787  0.99999998  0.39202800  1
  Pt  Pt11  1  0.75000093  0.39204899  0.00004499  1
  Pt  Pt12  1  0.75000091  0.60795099  0.60799601  1
  Pt  Pt13  1  0.24999299  0.00000000  0.60600601  1
  Pt  Pt14  1  0.25000293  0.60598499  0.99994503  1
  Pt  Pt15  1  0.25000295  0.39401499  0.39396101  1
