# generated using pymatgen
data_Nb2Se3S2
_symmetry_space_group_name_H-M   'P 1'
_cell_length_a   3.40984201
_cell_length_b   3.40984225
_cell_length_c   14.32019043
_cell_angle_alpha   90.00000000
_cell_angle_beta   90.00000000
_cell_angle_gamma   120.00000000
_symmetry_Int_Tables_number   1
_chemical_formula_structural   Nb2Se3S2
_chemical_formula_sum   'Nb2 Se3 S2'
_cell_volume   144.19425932
_cell_formula_units_Z   1
loop_
 _symmetry_equiv_pos_site_id
 _symmetry_equiv_pos_as_xyz
  1  'x, y, z'
loop_
 _atom_site_type_symbol
 _atom_site_label
 _atom_site_symmetry_multiplicity
 _atom_site_fract_x
 _atom_site_fract_y
 _atom_site_fract_z
 _atom_site_occupancy
  Nb  Nb0  1  0.66666668  0.33333333  0.99939197  1
  Nb  Nb1  1  0.00000000  0.00000000  0.74834098  1
  Se  Se2  1  0.66666668  0.33333333  0.25177599  1
  Se  Se3  1  0.33333336  0.66666666  0.85880297  1
  Se  Se4  1  0.33333336  0.66666666  0.14133200  1
  S  S5  1  0.33333336  0.66666666  0.35811099  1
  S  S6  1  0.33333336  0.66666666  0.64204598  1
