# generated using pymatgen
data_U2Nb2FeRe(BN3)2
_symmetry_space_group_name_H-M   'P 1'
_cell_length_a   6.29084063
_cell_length_b   6.29084063
_cell_length_c   6.89967108
_cell_angle_alpha   75.84552002
_cell_angle_beta   75.84552002
_cell_angle_gamma   70.58300781
_symmetry_Int_Tables_number   1
_chemical_formula_structural   U2Nb2FeRe(BN3)2
_chemical_formula_sum   'U2 Nb2 Fe1 Re1 B2 N6'
_cell_volume   245.69318571
_cell_formula_units_Z   1
loop_
 _symmetry_equiv_pos_site_id
 _symmetry_equiv_pos_as_xyz
  1  'x, y, z'
loop_
 _atom_site_type_symbol
 _atom_site_label
 _atom_site_symmetry_multiplicity
 _atom_site_fract_x
 _atom_site_fract_y
 _atom_site_fract_z
 _atom_site_occupancy
  U  U0  1  0.72247500  0.72247502  0.38337703  1
  U  U1  1  0.27752500  0.27752501  0.61662302  1
  Nb  Nb2  1  0.86261700  0.86261703  0.76754504  1
  Nb  Nb3  1  0.13738300  0.13738300  0.23245501  1
  B  B4  1  0.48904300  0.48904302  0.26983002  1
  B  B5  1  0.51095700  0.51095702  0.73017003  1
  N  N6  1  0.95353900  0.95353903  0.29956904  1
  Fe  Fe7  1  0.04646100  0.04646100  0.70043101  1
  N  N8  1  0.00729599  0.39333401  0.34926101  1
  Re  Re9  1  0.99270401  0.60666602  0.65073904  1
  N  N10  1  0.60666599  0.99270403  0.65073904  1
  N  N11  1  0.39333401  0.00729600  0.34926101  1
  N  N12  1  0.79258800  0.79258803  0.03947703  1
  N  N13  1  0.20741200  0.20741201  0.96052302  1
