# generated using pymatgen
data_Y2Si2O7
_symmetry_space_group_name_H-M   'P 1'
_cell_length_a   4.78859854
_cell_length_b   5.71650839
_cell_length_c   5.71650839
_cell_angle_alpha   105.34144592
_cell_angle_beta   97.17929840
_cell_angle_gamma   97.17929840
_symmetry_Int_Tables_number   1
_chemical_formula_structural   Y2Si2O7
_chemical_formula_sum   'Y2 Si2 O7'
_cell_volume   147.66827197
_cell_formula_units_Z   1
loop_
 _symmetry_equiv_pos_site_id
 _symmetry_equiv_pos_as_xyz
  1  'x, y, z'
loop_
 _atom_site_type_symbol
 _atom_site_label
 _atom_site_symmetry_multiplicity
 _atom_site_fract_x
 _atom_site_fract_y
 _atom_site_fract_z
 _atom_site_occupancy
  Y  Y0  1  -0.00000002  0.69256500  0.30743503  1
  Y  Y1  1  -0.00000001  0.30743500  0.69256501  1
  Si  Si2  1  0.58867696  0.78266100  0.78266102  1
  Si  Si3  1  0.41132298  0.21733900  0.21733900  1
  O  O4  1  0.22102099  0.08576700  0.38337100  1
  O  O5  1  0.77897896  0.61662900  0.91423301  1
  O  O6  1  0.77897896  0.91423300  0.61662902  1
  O  O7  1  0.22102098  0.38337100  0.08576701  1
  O  O8  1  0.49999999  0.00000000  -0.00000001  1
  O  O9  1  0.71283297  0.38011600  0.38011600  1
  O  O10  1  0.28716698  0.61988400  0.61988402  1
