# generated using pymatgen
data_La3LuN3
_symmetry_space_group_name_H-M   'P 1'
_cell_length_a   6.31315088
_cell_length_b   6.66137218
_cell_length_c   6.66137171
_cell_angle_alpha   120.00000000
_cell_angle_beta   90.00000000
_cell_angle_gamma   90.00000000
_symmetry_Int_Tables_number   1
_chemical_formula_structural   La3LuN3
_chemical_formula_sum   'La6 Lu2 N6'
_cell_volume   242.60746959
_cell_formula_units_Z   2
loop_
 _symmetry_equiv_pos_site_id
 _symmetry_equiv_pos_as_xyz
  1  'x, y, z'
loop_
 _atom_site_type_symbol
 _atom_site_label
 _atom_site_symmetry_multiplicity
 _atom_site_fract_x
 _atom_site_fract_y
 _atom_site_fract_z
 _atom_site_occupancy
  La  La0  1  0.50000001  0.66666664  0.33333331  1
  La  La1  1  0.50000001  0.33333332  0.66666665  1
  La  La2  1  0.13023800  0.00000000  0.33723500  1
  La  La3  1  0.13023800  0.66276497  0.66276497  1
  La  La4  1  0.13023800  0.33723498  0.99999998  1
  La  La5  1  0.86976202  0.00000000  0.66276500  1
  Lu  Lu6  1  0.86976202  0.33723498  0.33723499  1
  Lu  Lu7  1  0.86976202  0.66276497  0.99999997  1
  N  N8  1  0.25185900  0.66721397  -0.00000002  1
  N  N9  1  0.25185900  0.00000000  0.66721400  1
  N  N10  1  0.25185900  0.33278599  0.33278599  1
  N  N11  1  0.74814101  0.33278599  -0.00000001  1
  N  N12  1  0.74814101  0.00000000  0.33278600  1
  N  N13  1  0.74814101  0.66721397  0.66721397  1
