# generated using pymatgen
data_Hf4Mn5Cr3
_symmetry_space_group_name_H-M   'P 1'
_cell_length_a   5.04734993
_cell_length_b   5.05783463
_cell_length_c   7.92829180
_cell_angle_alpha   90.00000000
_cell_angle_beta   90.00000000
_cell_angle_gamma   119.93144989
_symmetry_Int_Tables_number   1
_chemical_formula_structural   Hf4Mn5Cr3
_chemical_formula_sum   'Hf4 Mn5 Cr3'
_cell_volume   175.40334664
_cell_formula_units_Z   1
loop_
 _symmetry_equiv_pos_site_id
 _symmetry_equiv_pos_as_xyz
  1  'x, y, z'
loop_
 _atom_site_type_symbol
 _atom_site_label
 _atom_site_symmetry_multiplicity
 _atom_site_fract_x
 _atom_site_fract_y
 _atom_site_fract_z
 _atom_site_occupancy
  Hf  Hf0  1  0.66620901  0.33241802  0.81821302  1
  Hf  Hf1  1  0.33445001  0.66890003  0.68513702  1
  Hf  Hf2  1  0.33445001  0.66890003  0.31486301  1
  Hf  Hf3  1  0.66620901  0.33241802  0.18178700  1
  Mn  Mn4  1  0.17114800  0.34229602  -0.00000000  1
  Mn  Mn5  1  0.82988701  0.17136801  0.50000001  1
  Mn  Mn6  1  0.34148101  0.17136801  0.50000001  1
  Mn  Mn7  1  0.82906202  0.65812403  0.50000001  1
  Cr  Cr8  1  0.99906602  0.99813205  0.75121602  1
  Cr  Cr9  1  0.99906602  0.99813205  0.24878401  1
  Mn  Mn10  1  0.17003901  0.82881604  -0.00000000  1
  Cr  Cr11  1  0.65877701  0.82881604  -0.00000000  1
