# generated using pymatgen
data_Sr2NiO4
_symmetry_space_group_name_H-M   'P 1'
_cell_length_a   5.38758612
_cell_length_b   5.40022278
_cell_length_c   7.11164379
_cell_angle_alpha   90.00000000
_cell_angle_beta   112.25852203
_cell_angle_gamma   90.00000000
_symmetry_Int_Tables_number   1
_chemical_formula_structural   Sr2NiO4
_chemical_formula_sum   'Sr4 Ni2 O8'
_cell_volume   191.48946857
_cell_formula_units_Z   2
loop_
 _symmetry_equiv_pos_site_id
 _symmetry_equiv_pos_as_xyz
  1  'x, y, z'
loop_
 _atom_site_type_symbol
 _atom_site_label
 _atom_site_symmetry_multiplicity
 _atom_site_fract_x
 _atom_site_fract_y
 _atom_site_fract_z
 _atom_site_occupancy
  Sr  Sr0  1  0.63891299  0.99512504  0.27782602  1
  Sr  Sr1  1  0.86108699  0.49512502  0.72217403  1
  Sr  Sr2  1  0.13891300  0.50487502  0.27782601  1
  Sr  Sr3  1  0.36108700  0.00487500  0.72217402  1
  Ni  Ni4  1  0.00000000  0.00000000  0.00000000  1
  Ni  Ni5  1  0.49999999  0.50000002  1.00000003  1
  O  O6  1  0.81435699  0.01429100  0.62871403  1
  O  O7  1  0.25074800  0.25000001  0.00149600  1
  O  O8  1  0.74925199  0.75000003  0.99850404  1
  O  O9  1  0.68564299  0.51429102  0.37128602  1
  O  O10  1  0.18564300  0.98570904  0.37128601  1
  O  O11  1  0.24925200  0.75000003  0.99850403  1
  O  O12  1  0.75074799  0.25000001  0.00149601  1
  O  O13  1  0.31435700  0.48570902  0.62871402  1
