# generated using pymatgen
data_Ce2InGe3
_symmetry_space_group_name_H-M   'P 1'
_cell_length_a   4.07362223
_cell_length_b   4.07362223
_cell_length_c   9.23409081
_cell_angle_alpha   102.74282074
_cell_angle_beta   102.74282074
_cell_angle_gamma   90.00000000
_symmetry_Int_Tables_number   1
_chemical_formula_structural   Ce2InGe3
_chemical_formula_sum   'Ce2 In1 Ge3'
_cell_volume   145.58804560
_cell_formula_units_Z   1
loop_
 _symmetry_equiv_pos_site_id
 _symmetry_equiv_pos_as_xyz
  1  'x, y, z'
loop_
 _atom_site_type_symbol
 _atom_site_label
 _atom_site_symmetry_multiplicity
 _atom_site_fract_x
 _atom_site_fract_y
 _atom_site_fract_z
 _atom_site_occupancy
  Ce  Ce0  1  0.86684999  0.86684997  0.73370004  1
  Ce  Ce1  1  0.13315000  0.13314999  0.26630000  1
  In  In2  1  0.00000002  0.49999998  0.00000002  1
  Ge  Ge3  1  0.49999998  0.00000000  0.00000001  1
  Ge  Ge4  1  0.68729599  0.68729597  0.37459203  1
  Ge  Ge5  1  0.31270400  0.31270399  0.62540801  1
