# generated using pymatgen
data_Mg3Ag5
_symmetry_space_group_name_H-M   'P 1'
_cell_length_a   4.95198202
_cell_length_b   6.20156622
_cell_length_c   6.20156527
_cell_angle_alpha   120.00000000
_cell_angle_beta   90.00000000
_cell_angle_gamma   90.00000000
_symmetry_Int_Tables_number   1
_chemical_formula_structural   Mg3Ag5
_chemical_formula_sum   'Mg3 Ag5'
_cell_volume   164.93483675
_cell_formula_units_Z   1
loop_
 _symmetry_equiv_pos_site_id
 _symmetry_equiv_pos_as_xyz
  1  'x, y, z'
loop_
 _atom_site_type_symbol
 _atom_site_label
 _atom_site_symmetry_multiplicity
 _atom_site_fract_x
 _atom_site_fract_y
 _atom_site_fract_z
 _atom_site_occupancy
  Mg  Mg0  1  0.25000000  0.33788098  0.16894098  1
  Mg  Mg1  1  0.25000000  0.83105994  0.16894095  1
  Ag  Ag2  1  0.25000000  0.83105994  0.66211996  1
  Ag  Ag3  1  0.75000000  0.16893999  0.83105901  1
  Ag  Ag4  1  0.75000000  0.16893999  0.33788000  1
  Mg  Mg5  1  0.75000000  0.66211895  0.83105897  1
  Ag  Ag6  1  0.25000000  0.33333331  0.66666666  1
  Ag  Ag7  1  0.75000000  0.66666662  0.33333330  1
