# generated using pymatgen
data_BaCaN
_symmetry_space_group_name_H-M   'P 1'
_cell_length_a   3.52446818
_cell_length_b   3.52446818
_cell_length_c   6.97431326
_cell_angle_alpha   75.36415100
_cell_angle_beta   75.36415100
_cell_angle_gamma   59.99999619
_symmetry_Int_Tables_number   1
_chemical_formula_structural   BaCaN
_chemical_formula_sum   'Ba1 Ca1 N1'
_cell_volume   71.76288375
_cell_formula_units_Z   1
loop_
 _symmetry_equiv_pos_site_id
 _symmetry_equiv_pos_as_xyz
  1  'x, y, z'
loop_
 _atom_site_type_symbol
 _atom_site_label
 _atom_site_symmetry_multiplicity
 _atom_site_fract_x
 _atom_site_fract_y
 _atom_site_fract_z
 _atom_site_occupancy
  Ca  Ca0  1  0.00000000  0.00000000  0.00000000  1
  Ba  Ba1  1  0.73671603  0.73671601  0.78985202  1
  N  N2  1  0.26328401  0.26328400  0.21014801  1
