# generated using pymatgen
data_Ag2S
_symmetry_space_group_name_H-M   'P 1'
_cell_length_a   4.38896799
_cell_length_b   6.97006226
_cell_length_c   12.01514912
_cell_angle_alpha   83.65144348
_cell_angle_beta   79.47624969
_cell_angle_gamma   71.64859009
_symmetry_Int_Tables_number   1
_chemical_formula_structural   Ag2S
_chemical_formula_sum   'Ag8 S4'
_cell_volume   342.44376387
_cell_formula_units_Z   4
loop_
 _symmetry_equiv_pos_site_id
 _symmetry_equiv_pos_as_xyz
  1  'x, y, z'
loop_
 _atom_site_type_symbol
 _atom_site_label
 _atom_site_symmetry_multiplicity
 _atom_site_fract_x
 _atom_site_fract_y
 _atom_site_fract_z
 _atom_site_occupancy
  Ag  Ag0  1  0.49174202  0.24999999  0.74999997  1
  Ag  Ag1  1  0.50825805  0.74999997  0.24999997  1
  Ag  Ag2  1  0.00000000  0.00000000  0.00000000  1
  Ag  Ag3  1  0.00000004  0.49999998  0.49999997  1
  Ag  Ag4  1  0.16808005  0.68375597  0.09475898  1
  Ag  Ag5  1  0.94659506  0.81624396  0.40524097  1
  Ag  Ag6  1  0.81153603  0.39898898  0.35354298  1
  Ag  Ag7  1  0.56406801  0.10101100  0.14645699  1
  S  S8  1  0.18846404  0.60101097  0.64645696  1
  S  S9  1  0.83192002  0.31624399  0.90524096  1
  S  S10  1  0.05340501  0.18375599  0.59475897  1
  S  S11  1  0.43593207  0.89898896  0.85354294  1
