# generated using pymatgen
data_Er5Ga4Co9
_symmetry_space_group_name_H-M   'P 1'
_cell_length_a   6.63448000
_cell_length_b   6.63448000
_cell_length_c   7.86912012
_cell_angle_alpha   90.00000000
_cell_angle_beta   90.00000000
_cell_angle_gamma   120.00000000
_symmetry_Int_Tables_number   1
_chemical_formula_structural   Er5Ga4Co9
_chemical_formula_sum   'Er5 Ga4 Co9'
_cell_volume   299.96500056
_cell_formula_units_Z   1
loop_
 _symmetry_equiv_pos_site_id
 _symmetry_equiv_pos_as_xyz
  1  'x, y, z'
loop_
 _atom_site_type_symbol
 _atom_site_label
 _atom_site_symmetry_multiplicity
 _atom_site_fract_x
 _atom_site_fract_y
 _atom_site_fract_z
 _atom_site_occupancy
  Er  Er0  1  0.58172399  0.58172398  0.49999999  1
  Er  Er1  1  -0.00000001  0.41827598  0.49999999  1
  Er  Er2  1  0.41827600  0.00000000  0.49999999  1
  Er  Er3  1  0.37616300  0.00000000  0.99999998  1
  Er  Er4  1  -0.00000001  0.37616299  -0.00000000  1
  Co  Co5  1  0.24933100  0.24933099  0.22304500  1
  Ga  Ga6  1  0.62383699  0.62383698  -0.00000000  1
  Ga  Ga7  1  -0.00000001  0.75066897  0.22304500  1
  Ga  Ga8  1  0.24933100  0.24933099  0.77695499  1
  Ga  Ga9  1  -0.00000001  0.75066897  0.77695499  1
  Co  Co10  1  0.75066900  0.00000000  0.22304500  1
  Co  Co11  1  0.75066900  0.00000000  0.77695499  1
  Co  Co12  1  0.00000000  0.00000000  0.00000000  1
  Co  Co13  1  0.33333332  0.66666664  0.76209899  1
  Co  Co14  1  0.33333332  0.66666664  0.23790100  1
  Co  Co15  1  0.00000000  0.00000000  0.49999999  1
  Co  Co16  1  0.66666666  0.33333332  0.23790100  1
  Co  Co17  1  0.66666666  0.33333332  0.76209899  1
