# generated using pymatgen
data_Ti11C2N5
_symmetry_space_group_name_H-M   'P 1'
_cell_length_a   3.30382895
_cell_length_b   6.91336203
_cell_length_c   11.13818836
_cell_angle_alpha   108.08002472
_cell_angle_beta   90.00000000
_cell_angle_gamma   90.00000000
_symmetry_Int_Tables_number   1
_chemical_formula_structural   Ti11C2N5
_chemical_formula_sum   'Ti11 C2 N5'
_cell_volume   241.84113994
_cell_formula_units_Z   1
loop_
 _symmetry_equiv_pos_site_id
 _symmetry_equiv_pos_as_xyz
  1  'x, y, z'
loop_
 _atom_site_type_symbol
 _atom_site_label
 _atom_site_symmetry_multiplicity
 _atom_site_fract_x
 _atom_site_fract_y
 _atom_site_fract_z
 _atom_site_occupancy
  Ti  Ti0  1  0.00000000  0.01552300  0.00000000  1
  Ti  Ti1  1  0.50000001  0.83272801  0.66663301  1
  Ti  Ti2  1  0.50000001  0.47792300  0.00000001  1
  Ti  Ti3  1  1.00000001  0.66607300  0.33191701  1
  Ti  Ti4  1  1.00000001  0.33415600  0.66808300  1
  Ti  Ti5  1  0.50000001  0.16609500  0.33336700  1
  C  C6  1  1.00000001  0.30600800  0.00000001  1
  Ti  Ti7  1  0.50000001  0.93363001  0.87130401  1
  Ti  Ti8  1  0.00000000  0.02802900  0.66659599  1
  Ti  Ti9  1  0.00000000  0.69667800  0.00000001  1
  Ti  Ti10  1  0.00000000  0.36143300  0.33340400  1
  Ti  Ti11  1  0.50000001  0.73198600  0.46413201  1
  N  N12  1  0.50000001  0.40303200  0.79678200  1
  N  N13  1  0.50000001  0.26785400  0.53586800  1
  N  N14  1  0.50000001  0.60625000  0.20321801  1
  N  N15  1  0.00000000  0.97209001  0.33356802  1
  N  N16  1  0.00000000  0.63852200  0.66643200  1
  C  C17  1  0.50000001  0.06232600  0.12869600  1
