# generated using pymatgen
data_BaIn3Cu2Sb3
_symmetry_space_group_name_H-M   'P 1'
_cell_length_a   4.26453781
_cell_length_b   5.58810806
_cell_length_c   12.06449032
_cell_angle_alpha   103.39088440
_cell_angle_beta   100.17988586
_cell_angle_gamma   90.00000000
_symmetry_Int_Tables_number   1
_chemical_formula_structural   BaIn3Cu2Sb3
_chemical_formula_sum   'Ba1 In3 Cu2 Sb3'
_cell_volume   275.03415830
_cell_formula_units_Z   1
loop_
 _symmetry_equiv_pos_site_id
 _symmetry_equiv_pos_as_xyz
  1  'x, y, z'
loop_
 _atom_site_type_symbol
 _atom_site_label
 _atom_site_symmetry_multiplicity
 _atom_site_fract_x
 _atom_site_fract_y
 _atom_site_fract_z
 _atom_site_occupancy
  Ba  Ba0  1  0.00000000  0.00000000  0.00000000  1
  In  In1  1  0.18025499  0.68025498  0.36050999  1
  In  In2  1  0.81974502  0.31974499  0.63949000  1
  Cu  Cu3  1  0.60920800  0.85518498  0.21841597  1
  In  In4  1  0.77103601  0.77103598  0.54207199  1
  Sb  Sb5  1  0.39079300  0.63676998  0.78158500  1
  Sb  Sb6  1  0.60920701  0.36322999  0.21841499  1
  Cu  Cu7  1  0.39079201  0.14481500  0.78158402  1
  Sb  Sb8  1  0.22896400  0.22896399  0.45792801  1
