# generated using pymatgen
data_CsGaAs
_symmetry_space_group_name_H-M   'P 1'
_cell_length_a   4.40141010
_cell_length_b   4.40141010
_cell_length_c   20.47163773
_cell_angle_alpha   90.00000000
_cell_angle_beta   90.00000000
_cell_angle_gamma   120.00000000
_symmetry_Int_Tables_number   1
_chemical_formula_structural   CsGaAs
_chemical_formula_sum   'Cs4 Ga4 As4'
_cell_volume   343.45266544
_cell_formula_units_Z   4
loop_
 _symmetry_equiv_pos_site_id
 _symmetry_equiv_pos_as_xyz
  1  'x, y, z'
loop_
 _atom_site_type_symbol
 _atom_site_label
 _atom_site_symmetry_multiplicity
 _atom_site_fract_x
 _atom_site_fract_y
 _atom_site_fract_z
 _atom_site_occupancy
  Cs  Cs0  1  0.00000000  0.00000000  0.49999998  1
  Cs  Cs1  1  0.00000000  0.00000000  0.00000000  1
  Cs  Cs2  1  0.00000000  0.00000000  0.74999997  1
  Cs  Cs3  1  0.00000000  0.00000000  0.24999999  1
  Ga  Ga4  1  0.66666666  0.33333334  0.63499898  1
  Ga  Ga5  1  0.33333334  0.66666667  0.36500099  1
  Ga  Ga6  1  0.33333334  0.66666667  0.13499900  1
  Ga  Ga7  1  0.66666666  0.33333334  0.86500097  1
  As  As8  1  0.66666666  0.33333334  0.11628100  1
  As  As9  1  0.33333334  0.66666667  0.88371897  1
  As  As10  1  0.33333334  0.66666667  0.61628098  1
  As  As11  1  0.66666666  0.33333334  0.38371899  1
