# generated using pymatgen
data_Sm2InAu2
_symmetry_space_group_name_H-M   'P 1'
_cell_length_a   3.88779402
_cell_length_b   8.09176540
_cell_length_c   8.09176540
_cell_angle_alpha   90.00000000
_cell_angle_beta   90.00000000
_cell_angle_gamma   90.00000000
_symmetry_Int_Tables_number   1
_chemical_formula_structural   Sm2InAu2
_chemical_formula_sum   'Sm4 In2 Au4'
_cell_volume   254.55979563
_cell_formula_units_Z   2
loop_
 _symmetry_equiv_pos_site_id
 _symmetry_equiv_pos_as_xyz
  1  'x, y, z'
loop_
 _atom_site_type_symbol
 _atom_site_label
 _atom_site_symmetry_multiplicity
 _atom_site_fract_x
 _atom_site_fract_y
 _atom_site_fract_z
 _atom_site_occupancy
  Sm  Sm0  1  0.50000000  0.67461597  0.17461599  1
  Sm  Sm1  1  0.50000000  0.32538398  0.82538396  1
  Sm  Sm2  1  0.50000000  0.17461599  0.32538398  1
  Sm  Sm3  1  0.50000000  0.82538396  0.67461597  1
  In  In4  1  0.00000000  0.00000000  0.00000000  1
  In  In5  1  0.00000000  0.49999998  0.49999998  1
  Au  Au6  1  0.00000000  0.12720799  0.62720797  1
  Au  Au7  1  0.00000000  0.87279196  0.37279198  1
  Au  Au8  1  0.00000000  0.62720797  0.87279196  1
  Au  Au9  1  0.00000000  0.37279198  0.12720799  1
