# generated using pymatgen
data_SmInSn2
_symmetry_space_group_name_H-M   'P 1'
_cell_length_a   4.74043322
_cell_length_b   4.76608086
_cell_length_c   9.50085640
_cell_angle_alpha   90.00000000
_cell_angle_beta   90.00000000
_cell_angle_gamma   90.00000000
_symmetry_Int_Tables_number   1
_chemical_formula_structural   SmInSn2
_chemical_formula_sum   'Sm2 In2 Sn4'
_cell_volume   214.65558490
_cell_formula_units_Z   2
loop_
 _symmetry_equiv_pos_site_id
 _symmetry_equiv_pos_as_xyz
  1  'x, y, z'
loop_
 _atom_site_type_symbol
 _atom_site_label
 _atom_site_symmetry_multiplicity
 _atom_site_fract_x
 _atom_site_fract_y
 _atom_site_fract_z
 _atom_site_occupancy
  Sm  Sm0  1  0.00000000  0.00000000  0.24669499  1
  Sm  Sm1  1  0.00000000  0.00000000  0.75330497  1
  In  In2  1  0.49999998  0.50000002  0.25127599  1
  In  In3  1  0.49999998  0.50000002  0.74872397  1
  Sn  Sn4  1  0.00000000  0.50000002  0.49999998  1
  Sn  Sn5  1  0.00000000  0.50000002  0.00000000  1
  Sn  Sn6  1  0.49999998  0.00000000  0.49999998  1
  Sn  Sn7  1  0.49999998  0.00000000  0.00000000  1
