# generated using pymatgen
data_LaTaO3
_symmetry_space_group_name_H-M   'P 1'
_cell_length_a   5.76324701
_cell_length_b   7.11636782
_cell_length_c   7.13698864
_cell_angle_alpha   108.44747925
_cell_angle_beta   90.00000000
_cell_angle_gamma   90.00000000
_symmetry_Int_Tables_number   1
_chemical_formula_structural   LaTaO3
_chemical_formula_sum   'La4 Ta4 O12'
_cell_volume   277.67079891
_cell_formula_units_Z   4
loop_
 _symmetry_equiv_pos_site_id
 _symmetry_equiv_pos_as_xyz
  1  'x, y, z'
loop_
 _atom_site_type_symbol
 _atom_site_label
 _atom_site_symmetry_multiplicity
 _atom_site_fract_x
 _atom_site_fract_y
 _atom_site_fract_z
 _atom_site_occupancy
  La  La0  1  0.24447000  0.38351200  0.62270397  1
  La  La1  1  0.75553000  0.61648800  0.37729596  1
  La  La2  1  0.25553000  0.88351201  0.12270395  1
  La  La3  1  0.74447000  0.11648800  0.87729599  1
  Ta  Ta4  1  0.72557500  0.63088401  0.85883796  1
  Ta  Ta5  1  0.22557500  0.86911601  0.64116195  1
  Ta  Ta6  1  0.27442500  0.36911600  0.14116198  1
  Ta  Ta7  1  0.77442500  0.13088400  0.35883799  1
  O  O8  1  0.23421300  0.63265101  0.36328796  1
  O  O9  1  0.26578700  0.13265100  0.86328799  1
  O  O10  1  0.53666800  0.77016201  0.70863895  1
  O  O11  1  0.03666800  0.72983801  0.79136095  1
  O  O12  1  0.46333200  0.22983800  0.29136098  1
  O  O13  1  0.76578700  0.36734900  0.63671197  1
  O  O14  1  0.90068400  0.95871601  0.53785194  1
  O  O15  1  0.09931600  0.04128400  0.46214799  1
  O  O16  1  0.73421300  0.86734901  0.13671195  1
  O  O17  1  0.96333200  0.27016200  0.20863898  1
  O  O18  1  0.59931600  0.45871600  0.03785197  1
  O  O19  1  0.40068400  0.54128400  0.96214796  1
