# generated using pymatgen
data_HgS
_symmetry_space_group_name_H-M   'P 1'
_cell_length_a   3.79251599
_cell_length_b   6.57338572
_cell_length_c   8.83547306
_cell_angle_alpha   101.01725769
_cell_angle_beta   90.00000000
_cell_angle_gamma   106.76668549
_symmetry_Int_Tables_number   1
_chemical_formula_structural   HgS
_chemical_formula_sum   'Hg4 S4'
_cell_volume   206.65794385
_cell_formula_units_Z   4
loop_
 _symmetry_equiv_pos_site_id
 _symmetry_equiv_pos_as_xyz
  1  'x, y, z'
loop_
 _atom_site_type_symbol
 _atom_site_label
 _atom_site_symmetry_multiplicity
 _atom_site_fract_x
 _atom_site_fract_y
 _atom_site_fract_z
 _atom_site_occupancy
  Hg  Hg0  1  0.03154200  0.06308400  0.28726799  1
  Hg  Hg1  1  0.96845805  0.93691600  0.71273195  1
  Hg  Hg2  1  0.35083704  0.70167400  0.98298294  1
  Hg  Hg3  1  0.64916302  0.29832600  0.01701699  1
  S  S4  1  0.39573704  0.79147400  0.26770497  1
  S  S5  1  0.66680802  0.33361600  0.30079998  1
  S  S6  1  0.33319204  0.66638400  0.69919996  1
  S  S7  1  0.60426301  0.20852600  0.73229497  1
