# generated using pymatgen
data_Sc2CuSe4
_symmetry_space_group_name_H-M   'P 1'
_cell_length_a   7.70755529
_cell_length_b   7.70771646
_cell_length_c   7.70820045
_cell_angle_alpha   60.93972397
_cell_angle_beta   60.93986893
_cell_angle_gamma   60.95675659
_symmetry_Int_Tables_number   1
_chemical_formula_structural   Sc2CuSe4
_chemical_formula_sum   'Sc4 Cu2 Se8'
_cell_volume   330.70090597
_cell_formula_units_Z   2
loop_
 _symmetry_equiv_pos_site_id
 _symmetry_equiv_pos_as_xyz
  1  'x, y, z'
loop_
 _atom_site_type_symbol
 _atom_site_label
 _atom_site_symmetry_multiplicity
 _atom_site_fract_x
 _atom_site_fract_y
 _atom_site_fract_z
 _atom_site_occupancy
  Sc  Sc0  1  0.49999802  0.50002000  0.49999701  1
  Sc  Sc1  1  0.99999003  1.00000000  0.50000102  1
  Sc  Sc2  1  0.00000200  0.49999000  0.00000002  1
  Sc  Sc3  1  0.62459602  0.12456900  0.12461799  1
  Cu  Cu4  1  0.37541301  0.87543000  0.87537804  1
  Cu  Cu5  1  0.00000800  0.49999100  0.50000203  1
  Se  Se6  1  0.23206701  0.26681500  0.26679101  1
  Se  Se7  1  0.23322101  0.26792800  0.73320902  1
  Se  Se8  1  0.24569301  0.74574600  0.74568903  1
  Se  Se9  1  0.23320101  0.73318300  0.26794002  1
  Se  Se10  1  0.75427902  0.25426900  0.25432299  1
  Se  Se11  1  0.76679402  0.26681800  0.73206200  1
  Se  Se12  1  0.76793602  0.73316600  0.73321502  1
  Se  Se13  1  0.76680402  0.73207400  0.26677001  1
