# generated using pymatgen
data_Sc2InS4
_symmetry_space_group_name_H-M   'P 1'
_cell_length_a   7.55439854
_cell_length_b   7.55628586
_cell_length_c   7.55652857
_cell_angle_alpha   119.81646729
_cell_angle_beta   91.56358337
_cell_angle_gamma   118.36690521
_symmetry_Int_Tables_number   1
_chemical_formula_structural   Sc2InS4
_chemical_formula_sum   'Sc4 In2 S8'
_cell_volume   309.07029267
_cell_formula_units_Z   2
loop_
 _symmetry_equiv_pos_site_id
 _symmetry_equiv_pos_as_xyz
  1  'x, y, z'
loop_
 _atom_site_type_symbol
 _atom_site_label
 _atom_site_symmetry_multiplicity
 _atom_site_fract_x
 _atom_site_fract_y
 _atom_site_fract_z
 _atom_site_occupancy
  Sc  Sc0  1  0.49998197  0.99996996  0.50000399  1
  Sc  Sc1  1  0.00003098  0.50007598  0.50000099  1
  Sc  Sc2  1  0.87588498  0.75007797  0.12592900  1
  Sc  Sc3  1  0.12406999  0.24995499  0.87404299  1
  In  In4  1  0.50016399  0.49983198  0.49996900  1
  In  In5  1  0.49993297  0.99998196  0.00010999  1
  S  S6  1  0.71502799  0.47029898  0.24489500  1
  S  S7  1  0.27039897  0.99784196  0.76836398  1
  S  S8  1  0.27054099  0.50218998  0.27253799  1
  S  S9  1  0.72534597  0.97034796  0.75526499  1
  S  S10  1  0.72945799  0.49781698  0.72745200  1
  S  S11  1  0.27460500  0.02965700  0.24471800  1
  S  S12  1  0.28494599  0.52973798  0.75507499  1
  S  S13  1  0.72961700  0.00222100  0.23164401  1
