# generated using pymatgen
data_LaPb2
_symmetry_space_group_name_H-M   'P 1'
_cell_length_a   3.95231390
_cell_length_b   3.95231390
_cell_length_c   7.98148632
_cell_angle_alpha   104.33509827
_cell_angle_beta   104.33509827
_cell_angle_gamma   90.00000000
_symmetry_Int_Tables_number   1
_chemical_formula_structural   LaPb2
_chemical_formula_sum   'La1 Pb2'
_cell_volume   116.78428850
_cell_formula_units_Z   1
loop_
 _symmetry_equiv_pos_site_id
 _symmetry_equiv_pos_as_xyz
  1  'x, y, z'
loop_
 _atom_site_type_symbol
 _atom_site_label
 _atom_site_symmetry_multiplicity
 _atom_site_fract_x
 _atom_site_fract_y
 _atom_site_fract_z
 _atom_site_occupancy
  La  La0  1  0.00000000  0.00000000  0.00000000  1
  Pb  Pb1  1  0.37349400  0.37349400  0.74698798  1
  Pb  Pb2  1  0.62650600  0.62650601  0.25301197  1
