# generated using pymatgen
data_VCrO4
_symmetry_space_group_name_H-M   'P 1'
_cell_length_a   4.37457323
_cell_length_b   4.83940077
_cell_length_c   5.40899706
_cell_angle_alpha   90.00000000
_cell_angle_beta   90.00000000
_cell_angle_gamma   90.00000000
_symmetry_Int_Tables_number   1
_chemical_formula_structural   VCrO4
_chemical_formula_sum   'V2 Cr2 O8'
_cell_volume   114.51016104
_cell_formula_units_Z   2
loop_
 _symmetry_equiv_pos_site_id
 _symmetry_equiv_pos_as_xyz
  1  'x, y, z'
loop_
 _atom_site_type_symbol
 _atom_site_label
 _atom_site_symmetry_multiplicity
 _atom_site_fract_x
 _atom_site_fract_y
 _atom_site_fract_z
 _atom_site_occupancy
  V  V0  1  0.49999997  0.75000004  0.65843399  1
  V  V1  1  0.00000000  0.25000001  0.84156599  1
  Cr  Cr2  1  0.49999997  0.25000001  0.34156600  1
  Cr  Cr3  1  0.00000000  0.75000004  0.15843400  1
  O  O4  1  0.76802696  0.07851700  0.11251000  1
  O  O5  1  0.26802699  0.92148304  0.38749000  1
  O  O6  1  0.73197296  0.57851703  0.38749000  1
  O  O7  1  0.23197299  0.42148302  0.11251000  1
  O  O8  1  0.76802696  0.57851703  0.88748999  1
  O  O9  1  0.26802699  0.42148302  0.61250999  1
  O  O10  1  0.73197296  0.07851700  0.61250999  1
  O  O11  1  0.23197299  0.92148304  0.88748999  1
