# generated using pymatgen
data_TiV2O5
_symmetry_space_group_name_H-M   'P 1'
_cell_length_a   5.11923218
_cell_length_b   5.68593979
_cell_length_c   7.06658125
_cell_angle_alpha   109.30589294
_cell_angle_beta   90.00000000
_cell_angle_gamma   116.75432587
_symmetry_Int_Tables_number   1
_chemical_formula_structural   TiV2O5
_chemical_formula_sum   'Ti2 V4 O10'
_cell_volume   170.61822400
_cell_formula_units_Z   2
loop_
 _symmetry_equiv_pos_site_id
 _symmetry_equiv_pos_as_xyz
  1  'x, y, z'
loop_
 _atom_site_type_symbol
 _atom_site_label
 _atom_site_symmetry_multiplicity
 _atom_site_fract_x
 _atom_site_fract_y
 _atom_site_fract_z
 _atom_site_occupancy
  Ti  Ti0  1  0.00000000  0.00000000  0.50000001  1
  Ti  Ti1  1  0.00000000  0.00000000  0.00000000  1
  V  V2  1  0.36302896  0.73691294  0.77540199  1
  V  V3  1  0.37388396  0.73691294  0.27540198  1
  V  V4  1  0.62611597  0.26308698  0.72459801  1
  V  V5  1  0.63697097  0.26308698  0.22459800  1
  O  O6  1  0.32788097  0.36255997  0.64674100  1
  O  O7  1  0.03467898  0.36255997  0.14674099  1
  O  O8  1  0.25325296  0.83598894  0.55028498  1
  O  O9  1  0.81417897  0.00000000  0.75000002  1
  O  O10  1  0.41726398  0.16401099  0.94971502  1
  O  O11  1  0.58273594  0.83598894  0.05028497  1
  O  O12  1  0.18582099  0.00000000  0.25000001  1
  O  O13  1  0.74674697  0.16401099  0.44971501  1
  O  O14  1  0.96532094  0.63743995  0.85325900  1
  O  O15  1  0.67211895  0.63743995  0.35325898  1
