# generated using pymatgen
data_Dy6FeBi2
_symmetry_space_group_name_H-M   'P 1'
_cell_length_a   4.14336300
_cell_length_b   8.22819042
_cell_length_c   8.22819042
_cell_angle_alpha   120.00000000
_cell_angle_beta   90.00000000
_cell_angle_gamma   90.00000000
_symmetry_Int_Tables_number   1
_chemical_formula_structural   Dy6FeBi2
_chemical_formula_sum   'Dy6 Fe1 Bi2'
_cell_volume   242.93622731
_cell_formula_units_Z   1
loop_
 _symmetry_equiv_pos_site_id
 _symmetry_equiv_pos_as_xyz
  1  'x, y, z'
loop_
 _atom_site_type_symbol
 _atom_site_label
 _atom_site_symmetry_multiplicity
 _atom_site_fract_x
 _atom_site_fract_y
 _atom_site_fract_z
 _atom_site_occupancy
  Dy  Dy0  1  0.50000000  0.77035497  0.77035502  1
  Dy  Dy1  1  0.50000000  0.00000000  0.22964500  1
  Dy  Dy2  1  0.50000000  0.22964499  1.00000000  1
  Dy  Dy3  1  1.00000000  0.38713599  0.38713601  1
  Dy  Dy4  1  0.00000000  0.00000000  0.61286400  1
  Dy  Dy5  1  -0.00000000  0.61286398  1.00000001  1
  Fe  Fe6  1  0.00000000  0.00000000  0.00000000  1
  Bi  Bi7  1  0.50000000  0.66666664  0.33333335  1
  Bi  Bi8  1  0.50000000  0.33333332  0.66666667  1
