# generated using pymatgen
data_Ba2Cu2Cl2OF2
_symmetry_space_group_name_H-M   'P 1'
_cell_length_a   4.12482405
_cell_length_b   4.12482405
_cell_length_c   11.41281128
_cell_angle_alpha   100.41113281
_cell_angle_beta   100.41113281
_cell_angle_gamma   90.00000000
_symmetry_Int_Tables_number   1
_chemical_formula_structural   Ba2Cu2Cl2OF2
_chemical_formula_sum   'Ba2 Cu2 Cl2 O1 F2'
_cell_volume   187.73131986
_cell_formula_units_Z   1
loop_
 _symmetry_equiv_pos_site_id
 _symmetry_equiv_pos_as_xyz
  1  'x, y, z'
loop_
 _atom_site_type_symbol
 _atom_site_label
 _atom_site_symmetry_multiplicity
 _atom_site_fract_x
 _atom_site_fract_y
 _atom_site_fract_z
 _atom_site_occupancy
  Ba  Ba0  1  0.31443700  0.31443700  0.62887402  1
  Ba  Ba1  1  0.68556299  0.68556299  0.37112602  1
  Cu  Cu2  1  0.49999999  0.00000000  0.00000000  1
  Cu  Cu3  1  0.00000000  0.50000000  0.00000000  1
  Cl  Cl4  1  0.90270599  0.90270599  0.80541203  1
  Cl  Cl5  1  0.09729400  0.09729400  0.19458801  1
  O  O6  1  0.50000000  0.50000000  0.00000000  1
  F  F7  1  0.25000000  0.74999999  0.50000002  1
  F  F8  1  0.74999999  0.25000000  0.50000002  1
