# generated using pymatgen
data_Zn(GaO2)2
_symmetry_space_group_name_H-M   'P 1'
_cell_length_a   5.98830318
_cell_length_b   5.98829556
_cell_length_c   5.98829556
_cell_angle_alpha   59.99995041
_cell_angle_beta   59.99995041
_cell_angle_gamma   59.99993134
_symmetry_Int_Tables_number   1
_chemical_formula_structural   Zn(GaO2)2
_chemical_formula_sum   'Zn2 Ga4 O8'
_cell_volume   151.84296852
_cell_formula_units_Z   2
loop_
 _symmetry_equiv_pos_site_id
 _symmetry_equiv_pos_as_xyz
  1  'x, y, z'
loop_
 _atom_site_type_symbol
 _atom_site_label
 _atom_site_symmetry_multiplicity
 _atom_site_fract_x
 _atom_site_fract_y
 _atom_site_fract_z
 _atom_site_occupancy
  Zn  Zn0  1  0.49999797  0.50000000  0.00000002  1
  Zn  Zn1  1  0.49999698  0.00000100  0.50000200  1
  Ga  Ga2  1  0.00000298  0.49999500  0.50000202  1
  Ga  Ga3  1  0.50000097  0.49999900  0.50000002  1
  Ga  Ga4  1  0.12499999  0.12500100  0.12499900  1
  Ga  Ga5  1  0.87499994  0.87499999  0.87500003  1
  O  O6  1  0.73855695  0.73855899  0.73855603  1
  O  O7  1  0.71567197  0.26144300  0.26144101  1
  O  O8  1  0.26144298  0.26144300  0.71567201  1
  O  O9  1  0.26144197  0.71567299  0.26144302  1
  O  O10  1  0.73855695  0.73855799  0.28432702  1
  O  O11  1  0.73855797  0.28432800  0.73855701  1
  O  O12  1  0.26144298  0.26144300  0.26144101  1
  O  O13  1  0.28432797  0.73855799  0.73855802  1
