# generated using pymatgen
data_Al2Ag2SeS3
_symmetry_space_group_name_H-M   'P 1'
_cell_length_a   5.83337021
_cell_length_b   5.87611532
_cell_length_c   6.75300741
_cell_angle_alpha   115.17671204
_cell_angle_beta   115.58878326
_cell_angle_gamma   90.00000000
_symmetry_Int_Tables_number   1
_chemical_formula_structural   Al2Ag2SeS3
_chemical_formula_sum   'Al2 Ag2 Se1 S3'
_cell_volume   184.09004723
_cell_formula_units_Z   1
loop_
 _symmetry_equiv_pos_site_id
 _symmetry_equiv_pos_as_xyz
  1  'x, y, z'
loop_
 _atom_site_type_symbol
 _atom_site_label
 _atom_site_symmetry_multiplicity
 _atom_site_fract_x
 _atom_site_fract_y
 _atom_site_fract_z
 _atom_site_occupancy
  Al  Al0  1  0.74727597  0.26027098  0.50600700  1
  Al  Al1  1  0.49126797  0.48972896  0.99399299  1
  Ag  Ag2  1  0.26555096  0.74513094  0.50896796  1
  Ag  Ag3  1  0.00658300  0.00486900  0.99103203  1
  Se  Se4  1  0.84388794  0.87499993  0.24999994  1
  S  S5  1  0.12337898  0.58656595  0.75065398  1
  S  S6  1  0.62272597  0.16343399  0.74934601  1
  S  S7  1  0.40932897  0.37499997  0.24999998  1
