# generated using pymatgen
data_NaBiS2
_symmetry_space_group_name_H-M   'P 1'
_cell_length_a   3.97148180
_cell_length_b   3.97148180
_cell_length_c   6.88214779
_cell_angle_alpha   73.22972107
_cell_angle_beta   73.22972107
_cell_angle_gamma   60.00000381
_symmetry_Int_Tables_number   1
_chemical_formula_structural   NaBiS2
_chemical_formula_sum   'Na1 Bi1 S2'
_cell_volume   88.63593852
_cell_formula_units_Z   1
loop_
 _symmetry_equiv_pos_site_id
 _symmetry_equiv_pos_as_xyz
  1  'x, y, z'
loop_
 _atom_site_type_symbol
 _atom_site_label
 _atom_site_symmetry_multiplicity
 _atom_site_fract_x
 _atom_site_fract_y
 _atom_site_fract_z
 _atom_site_occupancy
  Na  Na0  1  0.24699499  0.24699500  0.25901500  1
  Bi  Bi1  1  0.75300498  0.75300499  0.74098499  1
  S  S2  1  0.49999999  0.49999999  0.49999999  1
  S  S3  1  0.00000000  0.00000000  0.00000000  1
