# generated using pymatgen
data_DyPt
_symmetry_space_group_name_H-M   'P 1'
_cell_length_a   3.90350795
_cell_length_b   4.18803215
_cell_length_c   6.07142162
_cell_angle_alpha   90.00000000
_cell_angle_beta   108.75158691
_cell_angle_gamma   90.00000000
_symmetry_Int_Tables_number   1
_chemical_formula_structural   DyPt
_chemical_formula_sum   'Dy2 Pt2'
_cell_volume   93.98733162
_cell_formula_units_Z   2
loop_
 _symmetry_equiv_pos_site_id
 _symmetry_equiv_pos_as_xyz
  1  'x, y, z'
loop_
 _atom_site_type_symbol
 _atom_site_label
 _atom_site_symmetry_multiplicity
 _atom_site_fract_x
 _atom_site_fract_y
 _atom_site_fract_z
 _atom_site_occupancy
  Dy  Dy0  1  0.86404600  0.24999999  0.72809199  1
  Dy  Dy1  1  0.13595400  0.74999997  0.27190800  1
  Pt  Pt2  1  0.59892500  0.24999999  0.19784999  1
  Pt  Pt3  1  0.40107500  0.74999997  0.80215000  1
