# generated using pymatgen
data_ZrHO2
_symmetry_space_group_name_H-M   'P 1'
_cell_length_a   3.36024809
_cell_length_b   4.14408684
_cell_length_c   5.60990381
_cell_angle_alpha   109.89643097
_cell_angle_beta   90.00000000
_cell_angle_gamma   90.00000000
_symmetry_Int_Tables_number   1
_chemical_formula_structural   ZrHO2
_chemical_formula_sum   'Zr2 H2 O4'
_cell_volume   73.45584336
_cell_formula_units_Z   2
loop_
 _symmetry_equiv_pos_site_id
 _symmetry_equiv_pos_as_xyz
  1  'x, y, z'
loop_
 _atom_site_type_symbol
 _atom_site_label
 _atom_site_symmetry_multiplicity
 _atom_site_fract_x
 _atom_site_fract_y
 _atom_site_fract_z
 _atom_site_occupancy
  Zr  Zr0  1  0.74999998  0.33574701  0.18653100  1
  Zr  Zr1  1  0.24999999  0.66425303  0.81346902  1
  H  H2  1  0.24999999  0.00643200  0.40294901  1
  H  H3  1  0.74999998  0.99356804  0.59705101  1
  O  O4  1  0.74999998  0.76792303  0.05724100  1
  O  O5  1  0.24999999  0.25276401  0.43383301  1
  O  O6  1  0.74999998  0.74723603  0.56616701  1
  O  O7  1  0.24999999  0.23207701  0.94275902  1
