# generated using pymatgen
data_Na2(NbBi)3
_symmetry_space_group_name_H-M   'P 1'
_cell_length_a   4.04941607
_cell_length_b   4.04941607
_cell_length_c   16.05115891
_cell_angle_alpha   90.00000000
_cell_angle_beta   90.00000000
_cell_angle_gamma   120.00000000
_symmetry_Int_Tables_number   1
_chemical_formula_structural   Na2(NbBi)3
_chemical_formula_sum   'Na2 Nb3 Bi3'
_cell_volume   227.94067444
_cell_formula_units_Z   1
loop_
 _symmetry_equiv_pos_site_id
 _symmetry_equiv_pos_as_xyz
  1  'x, y, z'
loop_
 _atom_site_type_symbol
 _atom_site_label
 _atom_site_symmetry_multiplicity
 _atom_site_fract_x
 _atom_site_fract_y
 _atom_site_fract_z
 _atom_site_occupancy
  Nb  Nb0  1  0.66666665  0.33333332  0.75000000  1
  Na  Na1  1  0.33333332  0.66666663  0.25000000  1
  Nb  Nb2  1  0.00000000  0.00000000  0.50000000  1
  Nb  Nb3  1  0.00000000  0.00000000  0.00000000  1
  Bi  Bi4  1  0.66666665  0.33333332  0.08978600  1
  Na  Na5  1  0.33333332  0.66666663  0.91021401  1
  Bi  Bi6  1  0.33333332  0.66666663  0.58978600  1
  Bi  Bi7  1  0.66666665  0.33333332  0.41021400  1
