# generated using pymatgen
data_LaY3(TaN2)2
_symmetry_space_group_name_H-M   'P 1'
_cell_length_a   5.67729807
_cell_length_b   5.67729807
_cell_length_c   10.41354561
_cell_angle_alpha   90.00000000
_cell_angle_beta   90.00000000
_cell_angle_gamma   90.00000000
_symmetry_Int_Tables_number   1
_chemical_formula_structural   LaY3(TaN2)2
_chemical_formula_sum   'La2 Y6 Ta4 N8'
_cell_volume   335.64641716
_cell_formula_units_Z   2
loop_
 _symmetry_equiv_pos_site_id
 _symmetry_equiv_pos_as_xyz
  1  'x, y, z'
loop_
 _atom_site_type_symbol
 _atom_site_label
 _atom_site_symmetry_multiplicity
 _atom_site_fract_x
 _atom_site_fract_y
 _atom_site_fract_z
 _atom_site_occupancy
  La  La0  1  0.18421100  0.18421100  0.34450501  1
  Y  Y1  1  0.31578900  0.68421099  0.84450503  1
  Y  Y2  1  0.68421099  0.31578900  0.84450503  1
  La  La3  1  0.68421099  0.31578900  0.15549501  1
  Y  Y4  1  0.31578900  0.68421099  0.15549501  1
  Y  Y5  1  0.18421100  0.18421100  0.65549502  1
  Y  Y6  1  0.81578899  0.81578899  0.34450501  1
  Y  Y7  1  0.81578899  0.81578899  0.65549502  1
  Ta  Ta8  1  0.32053500  0.67946499  0.50000002  1
  Ta  Ta9  1  0.82053499  0.82053499  0.00000000  1
  Ta  Ta10  1  0.17946500  0.17946500  0.00000000  1
  Ta  Ta11  1  0.67946499  0.32053500  0.50000002  1
  N  N12  1  0.00000000  0.00000000  0.14527201  1
  N  N13  1  0.49999999  0.49999999  0.64527202  1
  N  N14  1  0.49999999  0.00000000  0.50000002  1
  N  N15  1  0.49999999  0.49999999  0.35472801  1
  N  N16  1  0.00000000  0.00000000  0.85472803  1
  N  N17  1  0.49999999  0.00000000  0.00000000  1
  N  N18  1  0.00000000  0.49999999  0.00000000  1
  N  N19  1  0.00000000  0.49999999  0.50000002  1
