# generated using pymatgen
data_Mg5B2O7
_symmetry_space_group_name_H-M   'P 1'
_cell_length_a   3.42745399
_cell_length_b   3.42745471
_cell_length_c   15.88766384
_cell_angle_alpha   90.00000000
_cell_angle_beta   90.00000000
_cell_angle_gamma   119.99999237
_symmetry_Int_Tables_number   1
_chemical_formula_structural   Mg5B2O7
_chemical_formula_sum   'Mg5 B2 O7'
_cell_volume   161.63450080
_cell_formula_units_Z   1
loop_
 _symmetry_equiv_pos_site_id
 _symmetry_equiv_pos_as_xyz
  1  'x, y, z'
loop_
 _atom_site_type_symbol
 _atom_site_label
 _atom_site_symmetry_multiplicity
 _atom_site_fract_x
 _atom_site_fract_y
 _atom_site_fract_z
 _atom_site_occupancy
  Mg  Mg0  1  0.00000000  0.00000000  0.25000000  1
  Mg  Mg1  1  0.00000000  0.00000000  0.75000001  1
  Mg  Mg2  1  0.33333332  0.66666665  0.12212100  1
  Mg  Mg3  1  0.66666666  0.33333332  0.87787901  1
  Mg  Mg4  1  0.66666666  0.33333332  0.62212101  1
  O  O5  1  0.33333332  0.66666665  0.37787900  1
  B  B6  1  0.00000000  0.00000000  0.00000000  1
  B  B7  1  0.00000000  0.00000000  0.50000000  1
  O  O8  1  0.33333332  0.66666665  0.25000000  1
  O  O9  1  0.66666666  0.33333332  0.75000001  1
  O  O10  1  0.00000000  0.00000000  0.09076000  1
  O  O11  1  0.00000000  0.00000000  0.90924001  1
  O  O12  1  0.00000000  0.00000000  0.59076001  1
  O  O13  1  0.00000000  0.00000000  0.40924000  1
