# generated using pymatgen
data_Ca3Cu2H3O8
_symmetry_space_group_name_H-M   'P 1'
_cell_length_a   5.67381287
_cell_length_b   6.00858545
_cell_length_c   6.82727480
_cell_angle_alpha   90.00000000
_cell_angle_beta   90.00000000
_cell_angle_gamma   114.37593079
_symmetry_Int_Tables_number   1
_chemical_formula_structural   Ca3Cu2H3O8
_chemical_formula_sum   'Ca3 Cu2 H3 O8'
_cell_volume   212.00440808
_cell_formula_units_Z   1
loop_
 _symmetry_equiv_pos_site_id
 _symmetry_equiv_pos_as_xyz
  1  'x, y, z'
loop_
 _atom_site_type_symbol
 _atom_site_label
 _atom_site_symmetry_multiplicity
 _atom_site_fract_x
 _atom_site_fract_y
 _atom_site_fract_z
 _atom_site_occupancy
  Cu  Cu0  1  0.77075902  0.01138200  0.37853001  1
  Ca  Ca1  1  0.72924109  0.98861803  0.87853003  1
  Ca  Ca2  1  0.22924108  0.98861803  0.62147002  1
  Ca  Ca3  1  0.27075901  0.01138200  0.12147000  1
  Cu  Cu4  1  0.99403208  0.69865302  0.35947301  1
  H  H5  1  0.50596804  0.30134701  0.85947303  1
  H  H6  1  0.00596802  0.30134701  0.64052702  1
  H  H7  1  0.49403207  0.69865302  0.14052700  1
  O  O8  1  0.62984704  0.31553401  0.40689801  1
  O  O9  1  0.87015307  0.68446602  0.90689803  1
  O  O10  1  0.37015306  0.68446602  0.59310202  1
  O  O11  1  0.12984703  0.31553401  0.09310200  1
  O  O12  1  0.05513307  0.87809903  0.36133801  1
  O  O13  1  0.44486702  0.12190100  0.86133803  1
  O  O14  1  0.94486703  0.12190100  0.63866202  1
  O  O15  1  0.55513308  0.87809903  0.13866200  1
