# generated using pymatgen
data_Mg5Ni7Sn
_symmetry_space_group_name_H-M   'P 1'
_cell_length_a   4.95215845
_cell_length_b   4.95215845
_cell_length_c   9.18149185
_cell_angle_alpha   74.35468292
_cell_angle_beta   74.35468292
_cell_angle_gamma   59.99999619
_symmetry_Int_Tables_number   1
_chemical_formula_structural   Mg5Ni7Sn
_chemical_formula_sum   'Mg5 Ni7 Sn1'
_cell_volume   185.30358466
_cell_formula_units_Z   1
loop_
 _symmetry_equiv_pos_site_id
 _symmetry_equiv_pos_as_xyz
  1  'x, y, z'
loop_
 _atom_site_type_symbol
 _atom_site_label
 _atom_site_symmetry_multiplicity
 _atom_site_fract_x
 _atom_site_fract_y
 _atom_site_fract_z
 _atom_site_occupancy
  Mg  Mg0  1  0.00000000  0.00000000  0.00000000  1
  Mg  Mg1  1  0.83316396  0.83316397  0.50050805  1
  Mg  Mg2  1  0.16683599  0.16683599  0.49949202  1
  Mg  Mg3  1  0.65430197  0.65430198  0.03709404  1
  Mg  Mg4  1  0.34569798  0.34569799  0.96290604  1
  Sn  Sn5  1  0.54913897  0.54913898  0.35258404  1
  Ni  Ni6  1  0.45086098  0.45086098  0.64741604  1
  Ni  Ni7  1  0.90701096  0.41869699  0.76728205  1
  Ni  Ni8  1  0.90701096  0.90701097  0.76728206  1
  Ni  Ni9  1  0.41869697  0.90701097  0.76728205  1
  Ni  Ni10  1  0.09298899  0.58130298  0.23271802  1
  Ni  Ni11  1  0.09298900  0.09298900  0.23271801  1
  Ni  Ni12  1  0.58130298  0.09298900  0.23271802  1
