# generated using pymatgen
data_SrCrO3
_symmetry_space_group_name_H-M   'P 1'
_cell_length_a   5.56133318
_cell_length_b   5.60806513
_cell_length_c   7.87916613
_cell_angle_alpha   90.00008392
_cell_angle_beta   89.99980927
_cell_angle_gamma   90.00002289
_symmetry_Int_Tables_number   1
_chemical_formula_structural   SrCrO3
_chemical_formula_sum   'Sr4 Cr4 O12'
_cell_volume   245.73794400
_cell_formula_units_Z   4
loop_
 _symmetry_equiv_pos_site_id
 _symmetry_equiv_pos_as_xyz
  1  'x, y, z'
loop_
 _atom_site_type_symbol
 _atom_site_label
 _atom_site_symmetry_multiplicity
 _atom_site_fract_x
 _atom_site_fract_y
 _atom_site_fract_z
 _atom_site_occupancy
  Sr  Sr0  1  0.99193997  0.03749200  0.74999395  1
  Sr  Sr1  1  0.50806401  0.53749499  0.75000496  1
  Sr  Sr2  1  0.49192300  0.46251499  0.24999097  1
  Sr  Sr3  1  0.00807104  0.96250398  0.25000299  1
  Cr  Cr4  1  0.00000702  0.49999999  0.50000399  1
  Cr  Cr5  1  0.50000598  0.00000400  0.00000198  1
  Cr  Cr6  1  0.49998598  0.00000700  0.50000197  1
  Cr  Cr7  1  0.99999499  0.49998899  0.99999294  1
  O  O8  1  0.92043899  0.51851799  0.24999895  1
  O  O9  1  0.57956198  0.01850700  0.24999997  1
  O  O10  1  0.42044003  0.98148298  0.75000296  1
  O  O11  1  0.07955802  0.48148799  0.74999698  1
  O  O12  1  0.28783902  0.71246398  0.45752798  1
  O  O13  1  0.21217100  0.21246200  0.04247699  1
  O  O14  1  0.78783001  0.78753198  0.54247595  1
  O  O15  1  0.71216399  0.28753599  0.95752495  1
  O  O16  1  0.71216899  0.28753599  0.54247396  1
  O  O17  1  0.78783501  0.78753698  0.95752095  1
  O  O18  1  0.21216500  0.21246300  0.45752898  1
  O  O19  1  0.28783702  0.71246798  0.04247598  1
