# generated using pymatgen
data_BaCo2S3
_symmetry_space_group_name_H-M   'P 1'
_cell_length_a   5.18182421
_cell_length_b   7.34902048
_cell_length_c   7.34902048
_cell_angle_alpha   102.56643677
_cell_angle_beta   90.00000000
_cell_angle_gamma   90.00000000
_symmetry_Int_Tables_number   1
_chemical_formula_structural   BaCo2S3
_chemical_formula_sum   'Ba2 Co4 S6'
_cell_volume   273.15625904
_cell_formula_units_Z   2
loop_
 _symmetry_equiv_pos_site_id
 _symmetry_equiv_pos_as_xyz
  1  'x, y, z'
loop_
 _atom_site_type_symbol
 _atom_site_label
 _atom_site_symmetry_multiplicity
 _atom_site_fract_x
 _atom_site_fract_y
 _atom_site_fract_z
 _atom_site_occupancy
  Ba  Ba0  1  0.99999996  0.32952001  0.67048003  1
  Ba  Ba1  1  0.49999998  0.67032802  0.32967204  1
  Co  Co2  1  0.75048897  0.86262503  0.86055106  1
  Co  Co3  1  0.24951099  0.86262503  0.86055106  1
  Co  Co4  1  0.75048897  0.13944900  0.13737501  1
  Co  Co5  1  0.24951099  0.13944900  0.13737501  1
  S  S6  1  0.99999996  0.83058603  0.62422705  1
  S  S7  1  0.49999998  0.63021302  0.84237805  1
  S  S8  1  0.49999998  0.15762201  0.36978702  1
  S  S9  1  -0.00000000  0.37577301  0.16941402  1
  S  S10  1  0.99999996  0.89458403  0.10541605  1
  S  S11  1  0.49999998  0.10722600  0.89277403  1
