# generated using pymatgen
data_TlNiAs2
_symmetry_space_group_name_H-M   'P 1'
_cell_length_a   4.04357815
_cell_length_b   4.04357815
_cell_length_c   7.62357044
_cell_angle_alpha   105.37897491
_cell_angle_beta   105.37897491
_cell_angle_gamma   90.00000000
_symmetry_Int_Tables_number   1
_chemical_formula_structural   TlNiAs2
_chemical_formula_sum   'Tl1 Ni1 As2'
_cell_volume   115.55040343
_cell_formula_units_Z   1
loop_
 _symmetry_equiv_pos_site_id
 _symmetry_equiv_pos_as_xyz
  1  'x, y, z'
loop_
 _atom_site_type_symbol
 _atom_site_label
 _atom_site_symmetry_multiplicity
 _atom_site_fract_x
 _atom_site_fract_y
 _atom_site_fract_z
 _atom_site_occupancy
  Tl  Tl0  1  0.00000000  0.00000000  0.00000000  1
  Ni  Ni1  1  0.24999996  0.74999996  0.49999995  1
  As  As2  1  0.65257894  0.65257896  0.30515795  1
  As  As3  1  0.34742097  0.34742098  0.69484196  1
