# generated using pymatgen
data_Ti2RuRh
_symmetry_space_group_name_H-M   'P 1'
_cell_length_a   3.71022201
_cell_length_b   3.84656596
_cell_length_c   5.28435707
_cell_angle_alpha   111.34346008
_cell_angle_beta   90.00000000
_cell_angle_gamma   90.00000000
_symmetry_Int_Tables_number   1
_chemical_formula_structural   Ti2RuRh
_chemical_formula_sum   'Ti2 Ru1 Rh1'
_cell_volume   70.24390764
_cell_formula_units_Z   1
loop_
 _symmetry_equiv_pos_site_id
 _symmetry_equiv_pos_as_xyz
  1  'x, y, z'
loop_
 _atom_site_type_symbol
 _atom_site_label
 _atom_site_symmetry_multiplicity
 _atom_site_fract_x
 _atom_site_fract_y
 _atom_site_fract_z
 _atom_site_occupancy
  Ti  Ti0  1  0.50000000  0.85963802  0.71927606  1
  Ti  Ti1  1  -0.00000000  0.14201900  0.28403802  1
  Ru  Ru2  1  0.50000000  0.58135202  0.16270403  1
  Rh  Rh3  1  -0.00000000  0.41699101  0.83398205  1
