# generated using pymatgen
data_Sc2VB2Ir5
_symmetry_space_group_name_H-M   'P 1'
_cell_length_a   3.08425999
_cell_length_b   9.32826805
_cell_length_c   9.32826805
_cell_angle_alpha   90.00000000
_cell_angle_beta   90.00000000
_cell_angle_gamma   90.00000000
_symmetry_Int_Tables_number   1
_chemical_formula_structural   Sc2VB2Ir5
_chemical_formula_sum   'Sc4 V2 B4 Ir10'
_cell_volume   268.38177080
_cell_formula_units_Z   2
loop_
 _symmetry_equiv_pos_site_id
 _symmetry_equiv_pos_as_xyz
  1  'x, y, z'
loop_
 _atom_site_type_symbol
 _atom_site_label
 _atom_site_symmetry_multiplicity
 _atom_site_fract_x
 _atom_site_fract_y
 _atom_site_fract_z
 _atom_site_occupancy
  Sc  Sc0  1  -0.00000000  0.82476600  0.32476600  1
  Sc  Sc1  1  0.00000000  0.32476600  0.17523400  1
  Sc  Sc2  1  0.00000000  0.67523400  0.82476600  1
  Sc  Sc3  1  -0.00000000  0.17523400  0.67523400  1
  V  V4  1  0.00000000  0.00000000  0.00000000  1
  V  V5  1  -0.00000000  0.50000000  0.50000000  1
  B  B6  1  -0.00000000  0.62430600  0.12430600  1
  B  B7  1  -0.00000000  0.12430600  0.37569400  1
  B  B8  1  1.00000000  0.87569400  0.62430600  1
  B  B9  1  -0.00000000  0.37569400  0.87569400  1
  Ir  Ir10  1  0.50000000  0.07065500  0.21584900  1
  Ir  Ir11  1  0.50000000  0.21584900  0.92934499  1
  Ir  Ir12  1  0.50000000  0.78415100  0.07065500  1
  Ir  Ir13  1  0.50000000  0.92934499  0.78415100  1
  Ir  Ir14  1  0.50000000  0.42934500  0.71584900  1
  Ir  Ir15  1  0.50000000  0.57065500  0.28415100  1
  Ir  Ir16  1  0.50000000  0.71584900  0.57065500  1
  Ir  Ir17  1  0.50000000  0.28415100  0.42934500  1
  Ir  Ir18  1  0.50000000  0.50000000  0.00000000  1
  Ir  Ir19  1  0.50000000  0.00000000  0.50000000  1
