# generated using pymatgen
data_CdCu2GeC2
_symmetry_space_group_name_H-M   'P 1'
_cell_length_a   2.85020208
_cell_length_b   5.19655275
_cell_length_c   5.19655275
_cell_angle_alpha   113.29636383
_cell_angle_beta   90.00000000
_cell_angle_gamma   90.00000000
_symmetry_Int_Tables_number   1
_chemical_formula_structural   CdCu2GeC2
_chemical_formula_sum   'Cd1 Cu2 Ge1 C2'
_cell_volume   70.69228349
_cell_formula_units_Z   1
loop_
 _symmetry_equiv_pos_site_id
 _symmetry_equiv_pos_as_xyz
  1  'x, y, z'
loop_
 _atom_site_type_symbol
 _atom_site_label
 _atom_site_symmetry_multiplicity
 _atom_site_fract_x
 _atom_site_fract_y
 _atom_site_fract_z
 _atom_site_occupancy
  Cd  Cd0  1  -0.00000000  0.50000001  0.50000001  1
  Cu  Cu1  1  -0.00000000  0.78579301  0.21420702  1
  C  C2  1  -0.00000000  0.21420700  0.78579301  1
  Cu  Cu3  1  0.00000000  0.00000000  0.00000000  1
  Ge  Ge4  1  0.49999999  0.00000000  0.50000000  1
  C  C5  1  0.49999999  0.50000001  0.00000001  1
