# generated using pymatgen
data_Rb2Ti3Zn(OF5)2
_symmetry_space_group_name_H-M   'P 1'
_cell_length_a   7.29185009
_cell_length_b   7.42560148
_cell_length_c   7.32424593
_cell_angle_alpha   119.54949951
_cell_angle_beta   90.00000000
_cell_angle_gamma   119.40592957
_symmetry_Int_Tables_number   1
_chemical_formula_structural   Rb2Ti3Zn(OF5)2
_chemical_formula_sum   'Rb2 Ti3 Zn1 O2 F10'
_cell_volume   284.79486740
_cell_formula_units_Z   1
loop_
 _symmetry_equiv_pos_site_id
 _symmetry_equiv_pos_as_xyz
  1  'x, y, z'
loop_
 _atom_site_type_symbol
 _atom_site_label
 _atom_site_symmetry_multiplicity
 _atom_site_fract_x
 _atom_site_fract_y
 _atom_site_fract_z
 _atom_site_occupancy
  Rb  Rb0  1  0.62459700  0.24919400  0.37459701  1
  Rb  Rb1  1  0.37540302  0.75080601  0.62540304  1
  Ti  Ti2  1  0.50000001  0.50000001  0.00000002  1
  Ti  Ti3  1  0.00000001  0.50000001  1.00000003  1
  Zn  Zn4  1  0.00000000  0.00000000  0.00000000  1
  Ti  Ti5  1  0.00000003  1.00000002  0.50000005  1
  O  O6  1  0.71570100  0.43140201  0.96570103  1
  O  O7  1  0.28429901  0.56859801  0.03429903  1
  F  F8  1  0.33981600  0.24699900  0.06467401  1
  F  F9  1  0.92494501  0.84989001  0.67494504  1
  F  F10  1  0.33981600  0.24699900  0.68232502  1
  F  F11  1  0.90718300  0.24699900  0.06467401  1
  F  F12  1  0.09281702  0.75300101  0.31767504  1
  F  F13  1  0.90718300  0.24699900  0.68232502  1
  F  F14  1  0.09281702  0.75300101  0.93532604  1
  F  F15  1  0.66018401  0.75300101  0.31767504  1
  F  F16  1  0.66018401  0.75300101  0.93532604  1
  F  F17  1  0.07505500  0.15011000  0.32505501  1
