# generated using pymatgen
data_SrLa3Mn2(WO6)2
_symmetry_space_group_name_H-M   'P 1'
_cell_length_a   5.62333250
_cell_length_b   5.65114021
_cell_length_c   7.95770025
_cell_angle_alpha   89.90383148
_cell_angle_beta   90.03984833
_cell_angle_gamma   89.89706421
_symmetry_Int_Tables_number   1
_chemical_formula_structural   SrLa3Mn2(WO6)2
_chemical_formula_sum   'Sr1 La3 Mn2 W2 O12'
_cell_volume   252.88088584
_cell_formula_units_Z   1
loop_
 _symmetry_equiv_pos_site_id
 _symmetry_equiv_pos_as_xyz
  1  'x, y, z'
loop_
 _atom_site_type_symbol
 _atom_site_label
 _atom_site_symmetry_multiplicity
 _atom_site_fract_x
 _atom_site_fract_y
 _atom_site_fract_z
 _atom_site_occupancy
  Sr  Sr0  1  0.50624600  0.97134302  0.25087200  1
  La  La1  1  0.99578897  0.47585101  0.24997000  1
  La  La2  1  0.49587298  0.02544000  0.74919001  1
  La  La3  1  0.00612901  0.53861601  0.75157200  1
  Mn  Mn4  1  0.00003600  0.00134500  0.99874001  1
  Mn  Mn5  1  0.50025499  0.49897901  0.50203200  1
  W  W6  1  0.50137299  0.49953001  0.99700701  1
  W  W7  1  0.99853498  0.99989302  0.50253600  1
  O  O8  1  0.94125698  0.96991502  0.74243400  1
  O  O9  1  0.44125199  0.50212101  0.23914600  1
  O  O10  1  0.06023700  0.01760900  0.26071800  1
  O  O11  1  0.57881299  0.49492401  0.75808301  1
  O  O12  1  0.78983198  0.72802901  0.46688600  1
  O  O13  1  0.28798300  0.76989201  0.96724100  1
  O  O14  1  0.19983100  0.27744601  0.54332400  1
  O  O15  1  0.70690098  0.22526700  0.02936300  1
  O  O16  1  0.72446398  0.20762700  0.47384301  1
  O  O17  1  0.22450600  0.29607201  0.95666301  1
  O  O18  1  0.27091701  0.78766301  0.52848600  1
  O  O19  1  0.76977199  0.71243601  0.03189200  1
