# generated using pymatgen
data_Ba2CuPbO5
_symmetry_space_group_name_H-M   'P 1'
_cell_length_a   4.35455084
_cell_length_b   4.35455084
_cell_length_c   8.93884945
_cell_angle_alpha   90.00000000
_cell_angle_beta   90.00000000
_cell_angle_gamma   90.00000000
_symmetry_Int_Tables_number   1
_chemical_formula_structural   Ba2CuPbO5
_chemical_formula_sum   'Ba2 Cu1 Pb1 O5'
_cell_volume   169.49947339
_cell_formula_units_Z   1
loop_
 _symmetry_equiv_pos_site_id
 _symmetry_equiv_pos_as_xyz
  1  'x, y, z'
loop_
 _atom_site_type_symbol
 _atom_site_label
 _atom_site_symmetry_multiplicity
 _atom_site_fract_x
 _atom_site_fract_y
 _atom_site_fract_z
 _atom_site_occupancy
  Ba  Ba0  1  0.00000000  0.00000000  0.00000000  1
  Ba  Ba1  1  0.00000000  0.00000000  0.49999997  1
  Pb  Pb2  1  0.50000002  0.50000002  0.25942799  1
  Cu  Cu3  1  0.50000002  0.50000002  0.74057196  1
  O  O4  1  0.50000002  0.00000000  0.23618799  1
  O  O5  1  0.50000002  0.00000000  0.76381196  1
  O  O6  1  0.50000002  0.50000002  0.49999997  1
  O  O7  1  0.00000000  0.50000002  0.23618799  1
  O  O8  1  0.00000000  0.50000002  0.76381196  1
