# generated using pymatgen
data_Na4MnO3
_symmetry_space_group_name_H-M   'P 1'
_cell_length_a   5.83659220
_cell_length_b   6.23089075
_cell_length_c   8.35257626
_cell_angle_alpha   111.22393036
_cell_angle_beta   90.00000000
_cell_angle_gamma   117.92784882
_symmetry_Int_Tables_number   1
_chemical_formula_structural   Na4MnO3
_chemical_formula_sum   'Na8 Mn2 O6'
_cell_volume   244.82067107
_cell_formula_units_Z   2
loop_
 _symmetry_equiv_pos_site_id
 _symmetry_equiv_pos_as_xyz
  1  'x, y, z'
loop_
 _atom_site_type_symbol
 _atom_site_label
 _atom_site_symmetry_multiplicity
 _atom_site_fract_x
 _atom_site_fract_y
 _atom_site_fract_z
 _atom_site_occupancy
  Na  Na0  1  0.27592997  0.22079798  0.94808798  1
  Na  Na1  1  0.72853791  0.77519495  0.03381698  1
  Na  Na2  1  0.54768195  0.41280397  0.62952598  1
  Na  Na3  1  0.10154795  0.61372396  0.85003097  1
  Na  Na4  1  0.51217593  0.61372396  0.35003098  1
  Na  Na5  1  0.86512194  0.41280397  0.12952599  1
  Na  Na6  1  0.04665694  0.77519495  0.53381697  1
  Na  Na7  1  0.94486795  0.22079798  0.44808799  1
  Mn  Mn8  1  0.62798790  0.95982593  0.74510996  1
  Mn  Mn9  1  0.33183791  0.95982593  0.24510997  1
  O  O10  1  0.87991390  0.87271494  0.79309896  1
  O  O11  1  0.31551794  0.63313896  0.61034297  1
  O  O12  1  0.31762094  0.63313896  0.11034298  1
  O  O13  1  0.99280090  0.87271494  0.29309897  1
  O  O14  1  0.63667196  0.29540098  0.34108599  1
  O  O15  1  0.65872895  0.29540098  0.84108598  1
