# generated using pymatgen
data_Nb(CrTe2)2
_symmetry_space_group_name_H-M   'P 1'
_cell_length_a   4.02479410
_cell_length_b   7.02244425
_cell_length_c   7.25693083
_cell_angle_alpha   117.67332458
_cell_angle_beta   106.09954071
_cell_angle_gamma   90.00000000
_symmetry_Int_Tables_number   1
_chemical_formula_structural   Nb(CrTe2)2
_chemical_formula_sum   'Nb1 Cr2 Te4'
_cell_volume   172.51198410
_cell_formula_units_Z   1
loop_
 _symmetry_equiv_pos_site_id
 _symmetry_equiv_pos_as_xyz
  1  'x, y, z'
loop_
 _atom_site_type_symbol
 _atom_site_label
 _atom_site_symmetry_multiplicity
 _atom_site_fract_x
 _atom_site_fract_y
 _atom_site_fract_z
 _atom_site_occupancy
  Nb  Nb0  1  0.25818801  0.27710400  0.51637601  1
  Cr  Cr1  1  0.00255200  0.00094000  0.00510400  1
  Cr  Cr2  1  0.73952804  0.71968500  0.47905604  1
  Te  Te3  1  0.88089602  0.55077500  0.76179204  1
  Te  Te4  1  0.11703003  0.45080600  0.23406002  1
  Te  Te5  1  0.63306305  0.97136700  0.26612606  1
  Te  Te6  1  0.36874200  0.02932200  0.73748400  1
