# generated using pymatgen
data_CdGa5(AgS4)2
_symmetry_space_group_name_H-M   'P 1'
_cell_length_a   5.55483294
_cell_length_b   5.55483294
_cell_length_c   11.01042843
_cell_angle_alpha   90.00000000
_cell_angle_beta   90.00000000
_cell_angle_gamma   90.00000000
_symmetry_Int_Tables_number   1
_chemical_formula_structural   CdGa5(AgS4)2
_chemical_formula_sum   'Cd1 Ga5 Ag2 S8'
_cell_volume   339.73963969
_cell_formula_units_Z   1
loop_
 _symmetry_equiv_pos_site_id
 _symmetry_equiv_pos_as_xyz
  1  'x, y, z'
loop_
 _atom_site_type_symbol
 _atom_site_label
 _atom_site_symmetry_multiplicity
 _atom_site_fract_x
 _atom_site_fract_y
 _atom_site_fract_z
 _atom_site_occupancy
  Ga  Ga0  1  0.50000001  0.50000001  0.49999998  1
  Cd  Cd1  1  0.00000000  0.00000000  0.00000000  1
  Ga  Ga2  1  0.50000001  0.00000000  0.25281499  1
  Ga  Ga3  1  0.00000000  0.50000001  0.74718497  1
  Ga  Ga4  1  0.00000000  0.50000001  0.25281499  1
  Ga  Ga5  1  0.50000001  0.00000000  0.74718497  1
  Ag  Ag6  1  0.50000001  0.50000001  0.00000000  1
  Ag  Ag7  1  0.00000000  0.00000000  0.49999998  1
  S  S8  1  0.74406101  0.74406101  0.14201299  1
  S  S9  1  0.25633200  0.25633200  0.63224898  1
  S  S10  1  0.25593900  0.25593900  0.14201299  1
  S  S11  1  0.74366801  0.74366801  0.63224898  1
  S  S12  1  0.74366801  0.25633200  0.36775099  1
  S  S13  1  0.25593900  0.74406101  0.85798697  1
  S  S14  1  0.25633200  0.74366801  0.36775099  1
  S  S15  1  0.74406101  0.25593900  0.85798697  1
