# generated using pymatgen
data_Zr2CuTeSe2
_symmetry_space_group_name_H-M   'P 1'
_cell_length_a   3.75252390
_cell_length_b   3.75252390
_cell_length_c   10.27706242
_cell_angle_alpha   90.00000000
_cell_angle_beta   90.00000000
_cell_angle_gamma   90.00000000
_symmetry_Int_Tables_number   1
_chemical_formula_structural   Zr2CuTeSe2
_chemical_formula_sum   'Zr2 Cu1 Te1 Se2'
_cell_volume   144.71579270
_cell_formula_units_Z   1
loop_
 _symmetry_equiv_pos_site_id
 _symmetry_equiv_pos_as_xyz
  1  'x, y, z'
loop_
 _atom_site_type_symbol
 _atom_site_label
 _atom_site_symmetry_multiplicity
 _atom_site_fract_x
 _atom_site_fract_y
 _atom_site_fract_z
 _atom_site_occupancy
  Zr  Zr0  1  0.50000001  0.00000000  0.79617697  1
  Zr  Zr1  1  0.00000000  0.50000001  0.20382299  1
  Cu  Cu2  1  0.50000001  0.50000001  0.00000000  1
  Te  Te3  1  0.50000001  0.00000000  0.33952099  1
  Se  Se4  1  0.00000000  0.50000001  0.66047897  1
  Se  Se5  1  0.00000000  0.00000000  0.00000000  1
