# generated using pymatgen
data_Sr2TaTiO6
_symmetry_space_group_name_H-M   'P 1'
_cell_length_a   5.71950197
_cell_length_b   5.76202488
_cell_length_c   7.78626919
_cell_angle_alpha   90.58954620
_cell_angle_beta   89.99980164
_cell_angle_gamma   90.00000000
_symmetry_Int_Tables_number   1
_chemical_formula_structural   Sr2TaTiO6
_chemical_formula_sum   'Sr4 Ta2 Ti2 O12'
_cell_volume   256.59002358
_cell_formula_units_Z   2
loop_
 _symmetry_equiv_pos_site_id
 _symmetry_equiv_pos_as_xyz
  1  'x, y, z'
loop_
 _atom_site_type_symbol
 _atom_site_label
 _atom_site_symmetry_multiplicity
 _atom_site_fract_x
 _atom_site_fract_y
 _atom_site_fract_z
 _atom_site_occupancy
  Sr  Sr0  1  0.49999900  0.00250400  0.24943298  1
  Sr  Sr1  1  1.00000003  0.50251101  0.74943593  1
  Sr  Sr2  1  0.00000002  0.49748901  0.25056398  1
  Sr  Sr3  1  0.50000104  0.99749602  0.75056693  1
  Ta  Ta4  1  0.50000002  0.50000001  -0.00000003  1
  Ta  Ta5  1  0.00000000  0.00000000  0.49999998  1
  Ti  Ti6  1  0.00000000  0.00000000  0.00000000  1
  Ti  Ti7  1  0.50000002  0.50000001  0.49999996  1
  O  O8  1  0.99999704  0.94578702  0.25798393  1
  O  O9  1  0.49999902  0.44582501  0.75798195  1
  O  O10  1  0.50000103  0.55417501  0.24201796  1
  O  O11  1  0.00000300  0.05421300  0.74201598  1
  O  O12  1  0.25434203  0.74333702  0.52994996  1
  O  O13  1  0.75434501  0.24333701  0.02996197  1
  O  O14  1  0.24565503  0.75666302  0.97003794  1
  O  O15  1  0.74565801  0.25666301  0.47004995  1
  O  O16  1  0.75434503  0.75666402  0.97003793  1
  O  O17  1  0.25434201  0.25666301  0.47005097  1
  O  O18  1  0.74565803  0.74333702  0.52994894  1
  O  O19  1  0.24565501  0.24333601  0.02996198  1
