# generated using pymatgen
data_TiFeO4
_symmetry_space_group_name_H-M   'P 1'
_cell_length_a   5.50194454
_cell_length_b   5.50194454
_cell_length_c   5.50194454
_cell_angle_alpha   107.10388947
_cell_angle_beta   107.10388947
_cell_angle_gamma   114.31730652
_symmetry_Int_Tables_number   1
_chemical_formula_structural   TiFeO4
_chemical_formula_sum   'Ti2 Fe2 O8'
_cell_volume   127.51754356
_cell_formula_units_Z   2
loop_
 _symmetry_equiv_pos_site_id
 _symmetry_equiv_pos_as_xyz
  1  'x, y, z'
loop_
 _atom_site_type_symbol
 _atom_site_label
 _atom_site_symmetry_multiplicity
 _atom_site_fract_x
 _atom_site_fract_y
 _atom_site_fract_z
 _atom_site_occupancy
  Ti  Ti0  1  0.73826700  0.23826700  0.50000005  1
  Ti  Ti1  1  0.98826700  0.98826700  1.00000009  1
  Fe  Fe2  1  0.24861500  0.74861500  0.50000005  1
  Fe  Fe3  1  0.49861500  0.49861500  0.00000005  1
  O  O4  1  0.06614000  0.25974100  0.80639901  1
  O  O5  1  0.54724400  0.74681800  0.80042606  1
  O  O6  1  0.00974100  0.31614000  0.30640001  1
  O  O7  1  0.49681800  0.79724400  0.30042506  1
  O  O8  1  0.00974100  0.70334200  0.69360103  1
  O  O9  1  0.49681800  0.19639200  0.69957403  1
  O  O10  1  0.94639300  0.74681900  0.19957508  1
  O  O11  1  0.45334100  0.25974000  0.19360003  1
