# generated using pymatgen
data_LaNdNi10
_symmetry_space_group_name_H-M   'P 1'
_cell_length_a   3.93031597
_cell_length_b   4.91038513
_cell_length_c   8.51662827
_cell_angle_alpha   89.99999237
_cell_angle_beta   90.00000000
_cell_angle_gamma   90.00000000
_symmetry_Int_Tables_number   1
_chemical_formula_structural   LaNdNi10
_chemical_formula_sum   'La1 Nd1 Ni10'
_cell_volume   164.36551839
_cell_formula_units_Z   1
loop_
 _symmetry_equiv_pos_site_id
 _symmetry_equiv_pos_as_xyz
  1  'x, y, z'
loop_
 _atom_site_type_symbol
 _atom_site_label
 _atom_site_symmetry_multiplicity
 _atom_site_fract_x
 _atom_site_fract_y
 _atom_site_fract_z
 _atom_site_occupancy
  La  La0  1  -0.00000000  0.99998600  0.00000001  1
  Nd  Nd1  1  0.00000000  0.49997800  0.50000003  1
  Ni  Ni2  1  -0.00000000  0.99996100  0.33390703  1
  Ni  Ni3  1  -0.00000000  0.49996000  0.83244405  1
  Ni  Ni4  1  -0.00000000  0.49996000  0.16755601  1
  Ni  Ni5  1  -0.00000000  0.99996100  0.66609304  1
  Ni  Ni6  1  0.50000000  0.00000800  0.50000002  1
  Ni  Ni7  1  0.50000000  0.50000600  0.00000000  1
  Ni  Ni8  1  0.50000000  0.25104800  0.25148702  1
  Ni  Ni9  1  0.50000000  0.74894200  0.74852104  1
  Ni  Ni10  1  0.50000000  0.74894200  0.25147902  1
  Ni  Ni11  1  0.50000000  0.25104800  0.74851304  1
