# generated using pymatgen
data_Cs3KZrBr7
_symmetry_space_group_name_H-M   'P 1'
_cell_length_a   8.92303848
_cell_length_b   8.92303848
_cell_length_c   8.92303848
_cell_angle_alpha   60.00000000
_cell_angle_beta   60.00000000
_cell_angle_gamma   60.00000000
_symmetry_Int_Tables_number   1
_chemical_formula_structural   Cs3KZrBr7
_chemical_formula_sum   'Cs3 K1 Zr1 Br7'
_cell_volume   502.36954119
_cell_formula_units_Z   1
loop_
 _symmetry_equiv_pos_site_id
 _symmetry_equiv_pos_as_xyz
  1  'x, y, z'
loop_
 _atom_site_type_symbol
 _atom_site_label
 _atom_site_symmetry_multiplicity
 _atom_site_fract_x
 _atom_site_fract_y
 _atom_site_fract_z
 _atom_site_occupancy
  Cs  Cs0  1  0.58366300  0.13877900  0.13877900  1
  Cs  Cs1  1  0.13877900  0.58366300  0.13877900  1
  Cs  Cs2  1  0.13877900  0.13877900  0.58366300  1
  K  K3  1  0.13877900  0.13877900  0.13877900  1
  Zr  Zr4  1  0.37109700  0.87630100  0.87630100  1
  Br  Br5  1  0.38777800  0.83666400  0.38777900  1
  Br  Br6  1  0.87630000  0.37109800  0.87630100  1
  Br  Br7  1  0.87630000  0.87630100  0.87630100  1
  Br  Br8  1  0.38777800  0.38777900  0.38777900  1
  Br  Br9  1  0.83666300  0.38777900  0.38777900  1
  Br  Br10  1  0.87630000  0.87630100  0.37109800  1
  Br  Br11  1  0.38777800  0.38777900  0.83666400  1
