# generated using pymatgen
data_BaTaO3
_symmetry_space_group_name_H-M   'P 1'
_cell_length_a   4.17137814
_cell_length_b   5.90105677
_cell_length_c   11.79913998
_cell_angle_alpha   90.00000000
_cell_angle_beta   90.00000000
_cell_angle_gamma   90.00000000
_symmetry_Int_Tables_number   1
_chemical_formula_structural   BaTaO3
_chemical_formula_sum   'Ba4 Ta4 O12'
_cell_volume   290.44219230
_cell_formula_units_Z   4
loop_
 _symmetry_equiv_pos_site_id
 _symmetry_equiv_pos_as_xyz
  1  'x, y, z'
loop_
 _atom_site_type_symbol
 _atom_site_label
 _atom_site_symmetry_multiplicity
 _atom_site_fract_x
 _atom_site_fract_y
 _atom_site_fract_z
 _atom_site_occupancy
  Ba  Ba0  1  0.49999998  0.00000000  0.24965600  1
  Ba  Ba1  1  0.49999998  0.50000002  0.50000000  1
  Ba  Ba2  1  0.49999998  0.00000000  0.75034400  1
  Ba  Ba3  1  0.49999998  0.50000002  -0.00000000  1
  Ta  Ta4  1  0.00000000  0.00000000  0.50000000  1
  Ta  Ta5  1  0.00000000  0.50000002  0.75083800  1
  Ta  Ta6  1  0.00000000  0.00000000  0.00000000  1
  Ta  Ta7  1  0.00000000  0.50000002  0.24916200  1
  O  O8  1  0.00000000  0.25013101  0.62516400  1
  O  O9  1  0.00000000  0.74736003  0.87655300  1
  O  O10  1  0.00000000  0.25264001  0.12344700  1
  O  O11  1  0.00000000  0.74986903  0.37483600  1
  O  O12  1  0.00000000  0.25013101  0.37483600  1
  O  O13  1  0.00000000  0.74986903  0.62516400  1
  O  O14  1  0.00000000  0.25264001  0.87655300  1
  O  O15  1  0.00000000  0.74736003  0.12344700  1
  O  O16  1  0.49999998  0.00000000  0.50000000  1
  O  O17  1  0.49999998  0.50000002  0.75155800  1
  O  O18  1  0.49999998  0.00000000  -0.00000000  1
  O  O19  1  0.49999998  0.50000002  0.24844200  1
