# generated using pymatgen
data_MoS2
_symmetry_space_group_name_H-M   'P 1'
_cell_length_a   5.87472296
_cell_length_b   5.88243389
_cell_length_c   5.89815569
_cell_angle_alpha   90.00000000
_cell_angle_beta   89.31000519
_cell_angle_gamma   90.00000000
_symmetry_Int_Tables_number   1
_chemical_formula_structural   MoS2
_chemical_formula_sum   'Mo4 S8'
_cell_volume   203.81173463
_cell_formula_units_Z   4
loop_
 _symmetry_equiv_pos_site_id
 _symmetry_equiv_pos_as_xyz
  1  'x, y, z'
loop_
 _atom_site_type_symbol
 _atom_site_label
 _atom_site_symmetry_multiplicity
 _atom_site_fract_x
 _atom_site_fract_y
 _atom_site_fract_z
 _atom_site_occupancy
  Mo  Mo0  1  0.50000000  0.00000000  0.50000001  1
  Mo  Mo1  1  0.00000000  0.50000001  0.50000000  1
  Mo  Mo2  1  0.00000000  0.00000000  0.00000000  1
  Mo  Mo3  1  0.50000000  0.50000001  0.00000001  1
  S  S4  1  0.88034401  0.38013201  0.87172402  1
  S  S5  1  0.61965600  0.88013202  0.12827601  1
  S  S6  1  0.37177300  0.62736501  0.61853101  1
  S  S7  1  0.12822700  0.12736500  0.38146900  1
  S  S8  1  0.11965600  0.61986801  0.12827600  1
  S  S9  1  0.38034400  0.11986800  0.87172401  1
  S  S10  1  0.62822700  0.37263501  0.38146901  1
  S  S11  1  0.87177301  0.87263502  0.61853102  1
