# generated using pymatgen
data_CaAgS2
_symmetry_space_group_name_H-M   'P 1'
_cell_length_a   3.76637626
_cell_length_b   3.76637626
_cell_length_c   7.23823500
_cell_angle_alpha   74.91971588
_cell_angle_beta   74.91971588
_cell_angle_gamma   59.99999619
_symmetry_Int_Tables_number   1
_chemical_formula_structural   CaAgS2
_chemical_formula_sum   'Ca1 Ag1 S2'
_cell_volume   84.81468676
_cell_formula_units_Z   1
loop_
 _symmetry_equiv_pos_site_id
 _symmetry_equiv_pos_as_xyz
  1  'x, y, z'
loop_
 _atom_site_type_symbol
 _atom_site_label
 _atom_site_symmetry_multiplicity
 _atom_site_fract_x
 _atom_site_fract_y
 _atom_site_fract_z
 _atom_site_occupancy
  Ca  Ca0  1  0.99980494  0.99980498  0.00058505  1
  Ag  Ag1  1  0.84945195  0.84945198  0.45164403  1
  S  S2  1  0.73157796  0.73157799  0.80526602  1
  S  S3  1  0.26016398  0.26016400  0.21950801  1
