# generated using pymatgen
data_Nd4FeSn8
_symmetry_space_group_name_H-M   'P 1'
_cell_length_a   4.50487995
_cell_length_b   4.57085180
_cell_length_c   16.95985222
_cell_angle_alpha   90.00000000
_cell_angle_beta   90.00000000
_cell_angle_gamma   90.00000000
_symmetry_Int_Tables_number   1
_chemical_formula_structural   Nd4FeSn8
_chemical_formula_sum   'Nd4 Fe1 Sn8'
_cell_volume   349.22266848
_cell_formula_units_Z   1
loop_
 _symmetry_equiv_pos_site_id
 _symmetry_equiv_pos_as_xyz
  1  'x, y, z'
loop_
 _atom_site_type_symbol
 _atom_site_label
 _atom_site_symmetry_multiplicity
 _atom_site_fract_x
 _atom_site_fract_y
 _atom_site_fract_z
 _atom_site_occupancy
  Nd  Nd0  1  0.00000000  0.00000000  0.09803000  1
  Nd  Nd1  1  -0.00000000  0.50000002  0.60207799  1
  Nd  Nd2  1  0.50000001  0.50000002  0.39568099  1
  Nd  Nd3  1  0.50000001  0.00000000  0.89980499  1
  Fe  Fe4  1  0.00000000  0.00000000  0.30590000  1
  Sn  Sn5  1  0.00000000  0.00000000  0.45381199  1
  Sn  Sn6  1  -0.00000000  0.50000002  0.93817599  1
  Sn  Sn7  1  0.50000001  0.50000002  0.06013800  1
  Sn  Sn8  1  0.50000001  0.00000000  0.57009399  1
  Sn  Sn9  1  -0.00000000  0.50000002  0.23942200  1
  Sn  Sn10  1  0.00000000  0.00000000  0.74903199  1
  Sn  Sn11  1  0.50000001  0.00000000  0.23858300  1
  Sn  Sn12  1  0.50000001  0.50000002  0.75225099  1
