# generated using pymatgen
data_Cs3Sb3Pd4
_symmetry_space_group_name_H-M   'P 1'
_cell_length_a   6.21471786
_cell_length_b   6.21471786
_cell_length_c   8.67596054
_cell_angle_alpha   110.98707581
_cell_angle_beta   110.98707581
_cell_angle_gamma   90.00000000
_symmetry_Int_Tables_number   1
_chemical_formula_structural   Cs3Sb3Pd4
_chemical_formula_sum   'Cs3 Sb3 Pd4'
_cell_volume   288.92511769
_cell_formula_units_Z   1
loop_
 _symmetry_equiv_pos_site_id
 _symmetry_equiv_pos_as_xyz
  1  'x, y, z'
loop_
 _atom_site_type_symbol
 _atom_site_label
 _atom_site_symmetry_multiplicity
 _atom_site_fract_x
 _atom_site_fract_y
 _atom_site_fract_z
 _atom_site_occupancy
  Cs  Cs0  1  0.39035401  0.39035401  0.78070801  1
  Cs  Cs1  1  0.75000002  0.25000001  0.50000001  1
  Cs  Cs2  1  0.60964602  0.60964602  0.21929201  1
  Sb  Sb3  1  0.25000001  0.75000002  0.50000001  1
  Sb  Sb4  1  0.29430901  0.00000000  0.00000000  1
  Sb  Sb5  1  0.13923500  0.13923500  0.27847000  1
  Pd  Pd6  1  0.00000001  0.70569102  0.00000001  1
  Pd  Pd7  1  0.70569103  1.00000003  1.00000002  1
  Pd  Pd8  1  0.86076503  0.86076502  0.72153002  1
  Pd  Pd9  1  0.00000000  0.29430901  1.00000001  1
