# generated using pymatgen
data_NaSnSbTe3
_symmetry_space_group_name_H-M   'P 1'
_cell_length_a   4.18985415
_cell_length_b   6.09702778
_cell_length_c   7.96129131
_cell_angle_alpha   112.51448822
_cell_angle_beta   105.25640869
_cell_angle_gamma   90.00000000
_symmetry_Int_Tables_number   1
_chemical_formula_structural   NaSnSbTe3
_chemical_formula_sum   'Na1 Sn1 Sb1 Te3'
_cell_volume   180.09235505
_cell_formula_units_Z   1
loop_
 _symmetry_equiv_pos_site_id
 _symmetry_equiv_pos_as_xyz
  1  'x, y, z'
loop_
 _atom_site_type_symbol
 _atom_site_label
 _atom_site_symmetry_multiplicity
 _atom_site_fract_x
 _atom_site_fract_y
 _atom_site_fract_z
 _atom_site_occupancy
  Na  Na0  1  0.86110701  0.86110704  0.72221404  1
  Sn  Sn1  1  0.13649500  0.13649501  0.27299001  1
  Sb  Sb2  1  0.79559399  0.29559401  0.59118803  1
  Te  Te3  1  0.20476302  0.70476303  0.40952602  1
  Te  Te4  1  0.50102000  0.24886701  0.00204001  1
  Te  Te5  1  0.50102001  0.75317303  0.00204003  1
