# generated using pymatgen
data_ZnAg2
_symmetry_space_group_name_H-M   'P 1'
_cell_length_a   4.59296417
_cell_length_b   4.59296370
_cell_length_c   5.50141287
_cell_angle_alpha   90.00000000
_cell_angle_beta   90.00000000
_cell_angle_gamma   120.00000000
_symmetry_Int_Tables_number   1
_chemical_formula_structural   ZnAg2
_chemical_formula_sum   'Zn2 Ag4'
_cell_volume   100.50575746
_cell_formula_units_Z   2
loop_
 _symmetry_equiv_pos_site_id
 _symmetry_equiv_pos_as_xyz
  1  'x, y, z'
loop_
 _atom_site_type_symbol
 _atom_site_label
 _atom_site_symmetry_multiplicity
 _atom_site_fract_x
 _atom_site_fract_y
 _atom_site_fract_z
 _atom_site_occupancy
  Zn  Zn0  1  0.66666662  0.33333331  0.28304901  1
  Zn  Zn1  1  0.33333328  0.66666663  0.71695102  1
  Ag  Ag2  1  0.00000000  0.00000000  0.00000000  1
  Ag  Ag3  1  0.00000000  0.00000000  0.50000001  1
  Ag  Ag4  1  0.66666662  0.33333331  0.77529402  1
  Ag  Ag5  1  0.33333328  0.66666663  0.22470601  1
