# generated using pymatgen
data_CePt
_symmetry_space_group_name_H-M   'P 1'
_cell_length_a   4.63395786
_cell_length_b   5.58135891
_cell_length_c   6.96224403
_cell_angle_alpha   90.00000000
_cell_angle_beta   90.00000000
_cell_angle_gamma   90.00000000
_symmetry_Int_Tables_number   1
_chemical_formula_structural   CePt
_chemical_formula_sum   'Ce4 Pt4'
_cell_volume   180.06996195
_cell_formula_units_Z   4
loop_
 _symmetry_equiv_pos_site_id
 _symmetry_equiv_pos_as_xyz
  1  'x, y, z'
loop_
 _atom_site_type_symbol
 _atom_site_label
 _atom_site_symmetry_multiplicity
 _atom_site_fract_x
 _atom_site_fract_y
 _atom_site_fract_z
 _atom_site_occupancy
  Ce  Ce0  1  0.25000001  0.85340801  0.68161000  1
  Ce  Ce1  1  0.25000001  0.64659201  0.18161000  1
  Ce  Ce2  1  0.75000002  0.12926100  0.31941100  1
  Ce  Ce3  1  0.75000002  0.37073901  0.81941100  1
  Pt  Pt4  1  0.75000002  0.64988701  0.45686400  1
  Pt  Pt5  1  0.75000002  0.85011301  0.95686400  1
  Pt  Pt6  1  0.25000001  0.34650701  0.54211500  1
  Pt  Pt7  1  0.25000001  0.15349300  0.04211500  1
