# generated using pymatgen
data_Sr2La2CuNiO8
_symmetry_space_group_name_H-M   'P 1'
_cell_length_a   5.34911203
_cell_length_b   5.35436487
_cell_length_c   6.96753883
_cell_angle_alpha   90.00000000
_cell_angle_beta   112.57295227
_cell_angle_gamma   90.00000000
_symmetry_Int_Tables_number   1
_chemical_formula_structural   Sr2La2CuNiO8
_chemical_formula_sum   'Sr2 La2 Cu1 Ni1 O8'
_cell_volume   184.27012946
_cell_formula_units_Z   1
loop_
 _symmetry_equiv_pos_site_id
 _symmetry_equiv_pos_as_xyz
  1  'x, y, z'
loop_
 _atom_site_type_symbol
 _atom_site_label
 _atom_site_symmetry_multiplicity
 _atom_site_fract_x
 _atom_site_fract_y
 _atom_site_fract_z
 _atom_site_occupancy
  Sr  Sr0  1  0.49999998  0.00000000  -0.00000003  1
  Sr  Sr1  1  0.63673998  0.50000001  0.27347996  1
  La  La2  1  0.36325999  0.50000001  0.72651996  1
  La  La3  1  0.86238497  1.00000002  0.72476994  1
  Ni  Ni4  1  0.13761500  1.00000002  0.27522999  1
  Cu  Cu5  1  -0.00000000  0.50000001  -0.00000000  1
  O  O6  1  0.82312897  0.50000001  0.64625794  1
  O  O7  1  0.68047598  1.00000002  0.36095196  1
  O  O8  1  0.31952399  1.00000002  0.63904797  1
  O  O9  1  0.17687099  0.50000001  0.35374198  1
  O  O10  1  0.75442598  0.25663601  -0.00000004  1
  O  O11  1  0.24557399  0.74336402  -0.00000001  1
  O  O12  1  0.24557399  0.25663601  -0.00000001  1
  O  O13  1  0.75442598  0.74336402  -0.00000004  1
