# generated using pymatgen
data_DyCdCu
_symmetry_space_group_name_H-M   'P 1'
_cell_length_a   3.96501398
_cell_length_b   7.64594412
_cell_length_c   7.64594412
_cell_angle_alpha   120.00000000
_cell_angle_beta   90.00000000
_cell_angle_gamma   90.00000000
_symmetry_Int_Tables_number   1
_chemical_formula_structural   DyCdCu
_chemical_formula_sum   'Dy3 Cd3 Cu3'
_cell_volume   200.74169824
_cell_formula_units_Z   3
loop_
 _symmetry_equiv_pos_site_id
 _symmetry_equiv_pos_as_xyz
  1  'x, y, z'
loop_
 _atom_site_type_symbol
 _atom_site_label
 _atom_site_symmetry_multiplicity
 _atom_site_fract_x
 _atom_site_fract_y
 _atom_site_fract_z
 _atom_site_occupancy
  Dy  Dy0  1  0.50000000  0.58677100  0.00000001  1
  Dy  Dy1  1  0.50000000  0.41322900  0.41322901  1
  Dy  Dy2  1  0.50000000  0.99999999  0.58677103  1
  Cd  Cd3  1  -0.00000000  0.24894800  0.00000000  1
  Cd  Cd4  1  -0.00000000  0.75105200  0.75105203  1
  Cd  Cd5  1  -0.00000000  0.99999999  0.24894802  1
  Cu  Cu6  1  -0.00000000  0.33333333  0.66666668  1
  Cu  Cu7  1  1.00000000  0.66666666  0.33333335  1
  Cu  Cu8  1  0.50000000  0.00000000  -0.00000000  1
