# generated using pymatgen
data_Li2MoN3
_symmetry_space_group_name_H-M   'P 1'
_cell_length_a   5.21027613
_cell_length_b   5.86102057
_cell_length_c   5.87457132
_cell_angle_alpha   119.92372131
_cell_angle_beta   90.00000000
_cell_angle_gamma   90.00000000
_symmetry_Int_Tables_number   1
_chemical_formula_structural   Li2MoN3
_chemical_formula_sum   'Li4 Mo2 N6'
_cell_volume   155.47984492
_cell_formula_units_Z   2
loop_
 _symmetry_equiv_pos_site_id
 _symmetry_equiv_pos_as_xyz
  1  'x, y, z'
loop_
 _atom_site_type_symbol
 _atom_site_label
 _atom_site_symmetry_multiplicity
 _atom_site_fract_x
 _atom_site_fract_y
 _atom_site_fract_z
 _atom_site_occupancy
  Li  Li0  1  0.48261699  0.99255794  0.32829493  1
  Li  Li1  1  0.48261699  0.66426296  0.67170495  1
  Li  Li2  1  0.98261698  0.00744200  0.67170500  1
  Li  Li3  1  0.98261698  0.33573698  0.32829498  1
  Mo  Mo4  1  0.48759199  0.31978798  0.99999998  1
  Mo  Mo5  1  0.98759198  0.68021196  0.99999995  1
  N  N6  1  0.88939998  0.98044994  0.31298393  1
  N  N7  1  0.88939998  0.66746396  0.68701595  1
  N  N8  1  0.38939999  0.01955000  0.68701600  1
  N  N9  1  0.38939999  0.33253598  0.31298398  1
  N  N10  1  0.85637498  0.36936298  0.99999997  1
  N  N11  1  0.35637499  0.63063696  0.99999995  1
