# generated using pymatgen
data_Mn2Co7Cu4Ge3
_symmetry_space_group_name_H-M   'P 1'
_cell_length_a   5.74649000
_cell_length_b   5.74649000
_cell_length_c   5.74649000
_cell_angle_alpha   90.00000000
_cell_angle_beta   90.00000000
_cell_angle_gamma   90.00000000
_symmetry_Int_Tables_number   1
_chemical_formula_structural   Mn2Co7Cu4Ge3
_chemical_formula_sum   'Mn2 Co7 Cu4 Ge3'
_cell_volume   189.76143952
_cell_formula_units_Z   1
loop_
 _symmetry_equiv_pos_site_id
 _symmetry_equiv_pos_as_xyz
  1  'x, y, z'
loop_
 _atom_site_type_symbol
 _atom_site_label
 _atom_site_symmetry_multiplicity
 _atom_site_fract_x
 _atom_site_fract_y
 _atom_site_fract_z
 _atom_site_occupancy
  Mn  Mn0  1  0.00000000  0.00000000  0.00000000  1
  Mn  Mn1  1  0.50000000  0.50000000  0.50000000  1
  Co  Co2  1  0.25000000  0.25000000  0.25000000  1
  Cu  Cu3  1  0.75000000  0.75000000  0.25000000  1
  Co  Co4  1  0.25000000  0.75000000  0.75000000  1
  Cu  Cu5  1  0.75000000  0.25000000  0.75000000  1
  Ge  Ge6  1  0.75000000  0.75000000  0.75000000  1
  Ge  Ge7  1  0.25000000  0.25000000  0.75000000  1
  Ge  Ge8  1  0.25000000  0.75000000  0.25000000  1
  Cu  Cu9  1  0.75000000  0.25000000  0.25000000  1
  Co  Co10  1  0.50000000  0.50000000  0.00000000  1
  Cu  Cu11  1  0.50000000  0.00000000  0.50000000  1
  Co  Co12  1  0.00000000  0.50000000  0.50000000  1
  Co  Co13  1  0.50000000  0.00000000  0.00000000  1
  Co  Co14  1  0.00000000  0.50000000  0.00000000  1
  Co  Co15  1  0.00000000  0.00000000  0.50000000  1
