# generated using pymatgen
data_Pr3Ga9Au2
_symmetry_space_group_name_H-M   'P 1'
_cell_length_a   4.37536812
_cell_length_b   8.54243565
_cell_length_c   8.54243565
_cell_angle_alpha   72.61134338
_cell_angle_beta   75.16146088
_cell_angle_gamma   75.16146088
_symmetry_Int_Tables_number   1
_chemical_formula_structural   Pr3Ga9Au2
_chemical_formula_sum   'Pr3 Ga9 Au2'
_cell_volume   288.89839224
_cell_formula_units_Z   1
loop_
 _symmetry_equiv_pos_site_id
 _symmetry_equiv_pos_as_xyz
  1  'x, y, z'
loop_
 _atom_site_type_symbol
 _atom_site_label
 _atom_site_symmetry_multiplicity
 _atom_site_fract_x
 _atom_site_fract_y
 _atom_site_fract_z
 _atom_site_occupancy
  Pr  Pr0  1  0.00000000  0.00000000  0.00000000  1
  Pr  Pr1  1  0.31745002  0.68255000  0.68255000  1
  Pr  Pr2  1  0.68254999  0.31745000  0.31745001  1
  Ga  Ga3  1  0.00000002  0.50000000  0.49999999  1
  Ga  Ga4  1  0.50000000  0.28366200  0.71633800  1
  Ga  Ga5  1  0.50000002  0.71633800  0.28366200  1
  Ga  Ga6  1  0.33417100  0.29640600  0.03525200  1
  Ga  Ga7  1  0.66582901  0.70359400  0.96474800  1
  Ga  Ga8  1  0.33417099  0.03525200  0.29640601  1
  Ga  Ga9  1  0.66582902  0.96474800  0.70359400  1
  Ga  Ga10  1  0.13728002  0.58863200  0.13680799  1
  Ga  Ga11  1  0.86271999  0.41136800  0.86319201  1
  Au  Au12  1  0.13728000  0.13680800  0.58863200  1
  Au  Au13  1  0.86272001  0.86319200  0.41136800  1
