# generated using pymatgen
data_Dy3Pd4
_symmetry_space_group_name_H-M   'P 1'
_cell_length_a   5.68962860
_cell_length_b   7.81360722
_cell_length_c   7.81360722
_cell_angle_alpha   114.30715942
_cell_angle_beta   104.04730988
_cell_angle_gamma   104.04730988
_symmetry_Int_Tables_number   1
_chemical_formula_structural   Dy3Pd4
_chemical_formula_sum   'Dy6 Pd8'
_cell_volume   283.10453650
_cell_formula_units_Z   2
loop_
 _symmetry_equiv_pos_site_id
 _symmetry_equiv_pos_as_xyz
  1  'x, y, z'
loop_
 _atom_site_type_symbol
 _atom_site_label
 _atom_site_symmetry_multiplicity
 _atom_site_fract_x
 _atom_site_fract_y
 _atom_site_fract_z
 _atom_site_occupancy
  Dy  Dy0  1  0.59633396  0.87774899  0.62269597  1
  Dy  Dy1  1  0.97363800  0.37730400  0.25505298  1
  Dy  Dy2  1  0.71858498  0.74494699  0.12225097  1
  Dy  Dy3  1  0.40366600  0.12225100  0.37730400  1
  Dy  Dy4  1  0.02636197  0.62269600  0.74494699  1
  Dy  Dy5  1  0.28141499  0.25505300  0.87774900  1
  Pd  Pd6  1  0.00000000  0.00000000  0.00000000  1
  Pd  Pd7  1  0.50000001  0.00000000  -0.00000001  1
  Pd  Pd8  1  0.77511400  0.32708900  0.83614799  1
  Pd  Pd9  1  0.93896601  0.16385200  0.49094099  1
  Pd  Pd10  1  0.44802498  0.50905900  0.67291099  1
  Pd  Pd11  1  0.22488597  0.67291099  0.16385198  1
  Pd  Pd12  1  0.06103395  0.83614799  0.50905898  1
  Pd  Pd13  1  0.55197499  0.49094100  0.32708898  1
