# generated using pymatgen
data_La2Ge3
_symmetry_space_group_name_H-M   'P 1'
_cell_length_a   4.13395214
_cell_length_b   4.59587479
_cell_length_c   13.73876190
_cell_angle_alpha   90.00000000
_cell_angle_beta   98.65291595
_cell_angle_gamma   90.00000000
_symmetry_Int_Tables_number   1
_chemical_formula_structural   La2Ge3
_chemical_formula_sum   'La4 Ge6'
_cell_volume   258.05345567
_cell_formula_units_Z   2
loop_
 _symmetry_equiv_pos_site_id
 _symmetry_equiv_pos_as_xyz
  1  'x, y, z'
loop_
 _atom_site_type_symbol
 _atom_site_label
 _atom_site_symmetry_multiplicity
 _atom_site_fract_x
 _atom_site_fract_y
 _atom_site_fract_z
 _atom_site_occupancy
  La  La0  1  0.20355699  0.75000003  0.40711399  1
  La  La1  1  0.79644297  0.25000001  0.59288598  1
  La  La2  1  0.57549398  0.75000003  0.15098799  1
  La  La3  1  0.42450598  0.25000001  0.84901198  1
  Ge  Ge4  1  0.88141796  0.75000003  0.76283598  1
  Ge  Ge5  1  0.11858200  0.25000001  0.23716399  1
  Ge  Ge6  1  0.97640096  0.75000003  0.95280197  1
  Ge  Ge7  1  0.02359900  0.25000001  0.04719800  1
  Ge  Ge8  1  0.32591199  0.75000003  0.65182398  1
  Ge  Ge9  1  0.67408797  0.25000001  0.34817599  1
