# generated using pymatgen
data_Lu2GaNi2
_symmetry_space_group_name_H-M   'P 1'
_cell_length_a   4.10855579
_cell_length_b   5.40881014
_cell_length_c   5.40881014
_cell_angle_alpha   61.35066223
_cell_angle_beta   67.67856598
_cell_angle_gamma   67.67856598
_symmetry_Int_Tables_number   1
_chemical_formula_structural   Lu2GaNi2
_chemical_formula_sum   'Lu2 Ga1 Ni2'
_cell_volume   94.63924800
_cell_formula_units_Z   1
loop_
 _symmetry_equiv_pos_site_id
 _symmetry_equiv_pos_as_xyz
  1  'x, y, z'
loop_
 _atom_site_type_symbol
 _atom_site_label
 _atom_site_symmetry_multiplicity
 _atom_site_fract_x
 _atom_site_fract_y
 _atom_site_fract_z
 _atom_site_occupancy
  Lu  Lu0  1  0.20559400  0.29440600  0.29440600  1
  Lu  Lu1  1  0.79440602  0.70559400  0.70559399  1
  Ga  Ga2  1  0.00000000  0.00000000  0.00000000  1
  Ni  Ni3  1  0.50000002  0.28182800  0.71817199  1
  Ni  Ni4  1  0.50000000  0.71817200  0.28182800  1
