# generated using pymatgen
data_Na3MnO3
_symmetry_space_group_name_H-M   'P 1'
_cell_length_a   5.75677299
_cell_length_b   5.86593103
_cell_length_c   6.35030603
_cell_angle_alpha   64.65177155
_cell_angle_beta   89.16912079
_cell_angle_gamma   85.88487244
_symmetry_Int_Tables_number   1
_chemical_formula_structural   Na3MnO3
_chemical_formula_sum   'Na6 Mn2 O6'
_cell_volume   193.26551280
_cell_formula_units_Z   2
loop_
 _symmetry_equiv_pos_site_id
 _symmetry_equiv_pos_as_xyz
  1  'x, y, z'
loop_
 _atom_site_type_symbol
 _atom_site_label
 _atom_site_symmetry_multiplicity
 _atom_site_fract_x
 _atom_site_fract_y
 _atom_site_fract_z
 _atom_site_occupancy
  Na  Na0  1  0.06043503  0.76838800  0.44485801  1
  Na  Na1  1  0.14163603  0.76281100  0.98136700  1
  Na  Na2  1  0.43622801  0.26005800  0.74465998  1
  Na  Na3  1  0.56377203  0.73994200  0.25534000  1
  Na  Na4  1  0.85836401  0.23718900  0.01863298  1
  Na  Na5  1  0.93956501  0.23161200  0.55514197  1
  Mn  Mn6  1  0.37084501  0.18676300  0.31274199  1
  Mn  Mn7  1  0.62915503  0.81323700  0.68725799  1
  O  O8  1  0.24151200  0.09908600  0.09962999  1
  O  O9  1  0.25410102  0.46860900  0.34494200  1
  O  O10  1  0.30777104  0.92019300  0.62822401  1
  O  O11  1  0.69222900  0.07980700  0.37177598  1
  O  O12  1  0.74589902  0.53139100  0.65505798  1
  O  O13  1  0.75848804  0.90091400  0.90036999  1
