# generated using pymatgen
data_Er3Pt4
_symmetry_space_group_name_H-M   'P 1'
_cell_length_a   5.80161142
_cell_length_b   7.69383764
_cell_length_c   7.69383764
_cell_angle_alpha   113.90567780
_cell_angle_beta   104.55760193
_cell_angle_gamma   104.55760193
_symmetry_Int_Tables_number   1
_chemical_formula_structural   Er3Pt4
_chemical_formula_sum   'Er6 Pt8'
_cell_volume   278.62638388
_cell_formula_units_Z   2
loop_
 _symmetry_equiv_pos_site_id
 _symmetry_equiv_pos_as_xyz
  1  'x, y, z'
loop_
 _atom_site_type_symbol
 _atom_site_label
 _atom_site_symmetry_multiplicity
 _atom_site_fract_x
 _atom_site_fract_y
 _atom_site_fract_z
 _atom_site_occupancy
  Er  Er0  1  0.98774391  0.38583498  0.25471993  1
  Er  Er1  1  0.73302387  0.74527996  0.13111490  1
  Er  Er2  1  0.60190886  0.86888495  0.61416490  1
  Er  Er3  1  0.01225592  0.61416496  0.74527995  1
  Er  Er4  1  0.26697595  0.25471999  0.86888497  1
  Er  Er5  1  0.39809097  0.13111499  0.38583498  1
  Pt  Pt6  1  0.00000000  0.00000000  0.00000000  1
  Pt  Pt7  1  0.49999984  0.99999994  0.99999989  1
  Pt  Pt8  1  0.92156194  0.16042199  0.47118696  1
  Pt  Pt9  1  0.45037491  0.52881297  0.68923494  1
  Pt  Pt10  1  0.76113993  0.31076498  0.83957795  1
  Pt  Pt11  1  0.07843788  0.83957795  0.52881292  1
  Pt  Pt12  1  0.54962491  0.47118697  0.31076494  1
  Pt  Pt13  1  0.23885990  0.68923496  0.16042193  1
