# generated using pymatgen
data_Re7Os
_symmetry_space_group_name_H-M   'P 1'
_cell_length_a   4.37596512
_cell_length_b   5.46509981
_cell_length_c   5.46509981
_cell_angle_alpha   120.00000000
_cell_angle_beta   90.00000000
_cell_angle_gamma   90.00000000
_symmetry_Int_Tables_number   1
_chemical_formula_structural   Re7Os
_chemical_formula_sum   'Re7 Os1'
_cell_volume   113.18807642
_cell_formula_units_Z   1
loop_
 _symmetry_equiv_pos_site_id
 _symmetry_equiv_pos_as_xyz
  1  'x, y, z'
loop_
 _atom_site_type_symbol
 _atom_site_label
 _atom_site_symmetry_multiplicity
 _atom_site_fract_x
 _atom_site_fract_y
 _atom_site_fract_z
 _atom_site_occupancy
  Re  Re0  1  0.24999999  0.66666667  0.33333329  1
  Re  Re1  1  0.74999998  0.33333334  0.66666663  1
  Re  Re2  1  0.74999998  0.83229301  0.16770796  1
  Re  Re3  1  0.74999998  0.33541500  0.16770798  1
  Re  Re4  1  0.74999998  0.83229301  0.66458594  1
  Re  Re5  1  0.24999999  0.16770700  0.83229196  1
  Re  Re6  1  0.24999999  0.66458501  0.83229194  1
  Os  Os7  1  0.24999999  0.16770700  0.33541398  1
