# generated using pymatgen
data_NbRh2
_symmetry_space_group_name_H-M   'P 1'
_cell_length_a   5.27576017
_cell_length_b   5.27576017
_cell_length_c   5.27576017
_cell_angle_alpha   105.59487152
_cell_angle_beta   105.59487152
_cell_angle_gamma   117.53773499
_symmetry_Int_Tables_number   1
_chemical_formula_structural   NbRh2
_chemical_formula_sum   'Nb2 Rh4'
_cell_volume   111.33793623
_cell_formula_units_Z   2
loop_
 _symmetry_equiv_pos_site_id
 _symmetry_equiv_pos_as_xyz
  1  'x, y, z'
loop_
 _atom_site_type_symbol
 _atom_site_label
 _atom_site_symmetry_multiplicity
 _atom_site_fract_x
 _atom_site_fract_y
 _atom_site_fract_z
 _atom_site_occupancy
  Nb  Nb0  1  0.24999999  0.25000000  -0.00000003  1
  Nb  Nb1  1  0.74999997  0.74999999  -0.00000009  1
  Rh  Rh2  1  0.33385000  0.16615000  0.49999999  1
  Rh  Rh3  1  0.66614997  0.83384999  0.49999992  1
  Rh  Rh4  1  0.16614997  0.66614999  0.83229997  1
  Rh  Rh5  1  0.83385000  0.33385000  0.16769994  1
