# generated using pymatgen
data_Mg2Ni5Sn
_symmetry_space_group_name_H-M   'P 1'
_cell_length_a   4.23329020
_cell_length_b   4.23328924
_cell_length_c   16.27783585
_cell_angle_alpha   90.00000000
_cell_angle_beta   90.00000000
_cell_angle_gamma   120.00000763
_symmetry_Int_Tables_number   1
_chemical_formula_structural   Mg2Ni5Sn
_chemical_formula_sum   'Mg4 Ni10 Sn2'
_cell_volume   252.62902529
_cell_formula_units_Z   2
loop_
 _symmetry_equiv_pos_site_id
 _symmetry_equiv_pos_as_xyz
  1  'x, y, z'
loop_
 _atom_site_type_symbol
 _atom_site_label
 _atom_site_symmetry_multiplicity
 _atom_site_fract_x
 _atom_site_fract_y
 _atom_site_fract_z
 _atom_site_occupancy
  Mg  Mg0  1  0.33333336  0.66666671  0.20892800  1
  Mg  Mg1  1  0.66666666  0.33333336  0.79107201  1
  Mg  Mg2  1  0.33333336  0.66666671  0.54075301  1
  Mg  Mg3  1  0.33333336  0.66666671  0.70778801  1
  Sn  Sn4  1  0.66666666  0.33333336  0.95764101  1
  Sn  Sn5  1  0.33333336  0.66666671  0.04235900  1
  Ni  Ni6  1  0.66666666  0.33333336  0.29221200  1
  Ni  Ni7  1  0.66666666  0.33333336  0.45924700  1
  Ni  Ni8  1  0.00000000  0.00000000  0.12723400  1
  Ni  Ni9  1  0.00000000  0.00000000  0.62254801  1
  Ni  Ni10  1  0.00000000  0.00000000  0.37745200  1
  Ni  Ni11  1  0.00000000  0.00000000  0.87276601  1
  Ni  Ni12  1  0.66666666  0.33333336  0.12533400  1
  Ni  Ni13  1  0.33333336  0.66666671  0.37540300  1
  Ni  Ni14  1  0.66666666  0.33333336  0.62459701  1
  Ni  Ni15  1  0.33333336  0.66666671  0.87466601  1
