# generated using pymatgen
data_Y5Pd3
_symmetry_space_group_name_H-M   'P 1'
_cell_length_a   6.20049191
_cell_length_b   8.36904430
_cell_length_c   8.36904335
_cell_angle_alpha   120.00000000
_cell_angle_beta   90.00000000
_cell_angle_gamma   90.00000000
_symmetry_Int_Tables_number   1
_chemical_formula_structural   Y5Pd3
_chemical_formula_sum   'Y10 Pd6'
_cell_volume   376.10444045
_cell_formula_units_Z   2
loop_
 _symmetry_equiv_pos_site_id
 _symmetry_equiv_pos_as_xyz
  1  'x, y, z'
loop_
 _atom_site_type_symbol
 _atom_site_label
 _atom_site_symmetry_multiplicity
 _atom_site_fract_x
 _atom_site_fract_y
 _atom_site_fract_z
 _atom_site_occupancy
  Y  Y0  1  1.00000002  0.33333331  0.66666665  1
  Y  Y1  1  -0.00000000  0.66666663  0.33333330  1
  Y  Y2  1  0.74295801  0.99999994  0.75414595  1
  Y  Y3  1  0.74295801  0.75414595  0.99999997  1
  Y  Y4  1  0.74295801  0.24585399  0.24585399  1
  Y  Y5  1  0.25704200  0.99999994  0.24585395  1
  Y  Y6  1  0.25704200  0.24585399  -0.00000001  1
  Y  Y7  1  0.25704200  0.75414595  0.75414597  1
  Y  Y8  1  0.50000001  0.66666663  0.33333330  1
  Y  Y9  1  0.50000001  0.33333331  0.66666665  1
  Pd  Pd10  1  0.72408001  0.99999994  0.39815595  1
  Pd  Pd11  1  0.72408001  0.39815598  0.99999999  1
  Pd  Pd12  1  0.72408001  0.60184396  0.60184397  1
  Pd  Pd13  1  0.27592000  0.99999994  0.60184395  1
  Pd  Pd14  1  0.27592000  0.60184396  -0.00000003  1
  Pd  Pd15  1  0.27592000  0.39815598  0.39815598  1
