# generated using pymatgen
data_LaGa2Cu3
_symmetry_space_group_name_H-M   'P 1'
_cell_length_a   4.32885122
_cell_length_b   5.35986805
_cell_length_c   5.35986710
_cell_angle_alpha   120.00000763
_cell_angle_beta   90.00000000
_cell_angle_gamma   90.00000000
_symmetry_Int_Tables_number   1
_chemical_formula_structural   LaGa2Cu3
_chemical_formula_sum   'La1 Ga2 Cu3'
_cell_volume   107.69892726
_cell_formula_units_Z   1
loop_
 _symmetry_equiv_pos_site_id
 _symmetry_equiv_pos_as_xyz
  1  'x, y, z'
loop_
 _atom_site_type_symbol
 _atom_site_label
 _atom_site_symmetry_multiplicity
 _atom_site_fract_x
 _atom_site_fract_y
 _atom_site_fract_z
 _atom_site_occupancy
  La  La0  1  0.00000000  0.00000000  0.00000000  1
  Ga  Ga1  1  0.49999997  0.50000001  0.00000003  1
  Cu  Cu2  1  -0.00000000  0.33333334  0.66666671  1
  Ga  Ga3  1  0.49999997  0.00000000  0.50000002  1
  Cu  Cu4  1  0.99999995  0.66666668  0.33333339  1
  Cu  Cu5  1  0.49999997  0.50000001  0.50000005  1
