# generated using pymatgen
data_In(Ag3Te2)3
_symmetry_space_group_name_H-M   'P 1'
_cell_length_a   5.75428915
_cell_length_b   5.75428915
_cell_length_c   10.73243046
_cell_angle_alpha   90.00000000
_cell_angle_beta   90.00000000
_cell_angle_gamma   101.01700592
_symmetry_Int_Tables_number   1
_chemical_formula_structural   In(Ag3Te2)3
_chemical_formula_sum   'In1 Ag9 Te6'
_cell_volume   348.82125957
_cell_formula_units_Z   1
loop_
 _symmetry_equiv_pos_site_id
 _symmetry_equiv_pos_as_xyz
  1  'x, y, z'
loop_
 _atom_site_type_symbol
 _atom_site_label
 _atom_site_symmetry_multiplicity
 _atom_site_fract_x
 _atom_site_fract_y
 _atom_site_fract_z
 _atom_site_occupancy
  In  In0  1  0.84807299  0.39618299  0.71317497  1
  Ag  Ag1  1  0.15192701  0.60381699  0.21317499  1
  Ag  Ag2  1  0.39618301  0.84807299  0.71317497  1
  Ag  Ag3  1  0.60381699  0.15192700  0.21317499  1
  Ag  Ag4  1  0.86588999  0.37551599  0.43460298  1
  Ag  Ag5  1  0.91715200  0.91715199  0.76821497  1
  Ag  Ag6  1  0.13411001  0.62448399  0.93460296  1
  Ag  Ag7  1  0.67306400  0.67306399  0.26270699  1
  Ag  Ag8  1  0.32693600  0.32693600  0.76270697  1
  Ag  Ag9  1  0.62448399  0.13411000  0.93460296  1
  Te  Te10  1  0.08284800  0.08284800  0.26821499  1
  Te  Te11  1  0.37551601  0.86588999  0.43460298  1
  Te  Te12  1  0.12233200  0.12233200  0.99940096  1
  Te  Te13  1  0.36339600  0.36339599  0.49011998  1
  Te  Te14  1  0.63660400  0.63660399  0.99011996  1
  Te  Te15  1  0.87766800  0.87766799  0.49940098  1
