# generated using pymatgen
data_K2Al3(PO6)2
_symmetry_space_group_name_H-M   'P 1'
_cell_length_a   6.04453611
_cell_length_b   6.50927496
_cell_length_c   7.74458551
_cell_angle_alpha   109.82949829
_cell_angle_beta   96.47425079
_cell_angle_gamma   109.87010956
_symmetry_Int_Tables_number   1
_chemical_formula_structural   K2Al3(PO6)2
_chemical_formula_sum   'K2 Al3 P2 O12'
_cell_volume   260.47130911
_cell_formula_units_Z   1
loop_
 _symmetry_equiv_pos_site_id
 _symmetry_equiv_pos_as_xyz
  1  'x, y, z'
loop_
 _atom_site_type_symbol
 _atom_site_label
 _atom_site_symmetry_multiplicity
 _atom_site_fract_x
 _atom_site_fract_y
 _atom_site_fract_z
 _atom_site_occupancy
  K  K0  1  0.35166704  0.70527602  0.24417103  1
  K  K1  1  0.64833301  0.29472401  0.75582899  1
  Al  Al2  1  0.67631101  0.34924401  0.24020301  1
  Al  Al3  1  0.32368904  0.65075602  0.75979701  1
  Al  Al4  1  0.00000000  0.00000000  0.00000000  1
  P  P5  1  0.12166801  0.12697700  0.40051900  1
  P  P6  1  0.87833205  0.87302302  0.59948103  1
  O  O7  1  0.93547404  0.85018302  0.31374203  1
  O  O8  1  0.06452601  0.14981700  0.68625799  1
  O  O9  1  0.06435107  0.97229102  0.28754004  1
  O  O10  1  0.64355000  0.19157300  0.36797300  1
  O  O11  1  0.35645005  0.80842702  0.63202702  1
  O  O12  1  0.76588603  0.64020002  0.37946802  1
  O  O13  1  0.23411402  0.35980001  0.62053200  1
  O  O14  1  0.41014901  0.26335901  0.08589901  1
  O  O15  1  0.58985104  0.73664102  0.91410101  1
  O  O16  1  0.88525101  0.31719201  0.11867901  1
  O  O17  1  0.11474905  0.68280802  0.88132101  1
  O  O18  1  0.93564899  0.02770900  0.71245998  1
