# generated using pymatgen
data_Ga2AgS3
_symmetry_space_group_name_H-M   'P 1'
_cell_length_a   5.79431295
_cell_length_b   5.79431295
_cell_length_c   10.72024059
_cell_angle_alpha   90.00000000
_cell_angle_beta   90.00000000
_cell_angle_gamma   90.00000000
_symmetry_Int_Tables_number   1
_chemical_formula_structural   Ga2AgS3
_chemical_formula_sum   'Ga4 Ag2 S6'
_cell_volume   359.92202884
_cell_formula_units_Z   2
loop_
 _symmetry_equiv_pos_site_id
 _symmetry_equiv_pos_as_xyz
  1  'x, y, z'
loop_
 _atom_site_type_symbol
 _atom_site_label
 _atom_site_symmetry_multiplicity
 _atom_site_fract_x
 _atom_site_fract_y
 _atom_site_fract_z
 _atom_site_occupancy
  Ga  Ga0  1  0.00000000  0.50000000  0.75000003  1
  Ga  Ga1  1  0.50000000  0.00000000  0.25000001  1
  Ga  Ga2  1  0.50000000  0.50000000  -0.00000000  1
  Ga  Ga3  1  0.50000000  0.50000000  0.50000002  1
  S  S4  1  0.23206900  0.73993101  0.87372003  1
  Ag  Ag5  1  0.76793101  0.26006900  0.87372003  1
  Ag  Ag6  1  0.23206900  0.26006900  0.62628002  1
  S  S7  1  0.76793101  0.73993101  0.62628002  1
  S  S8  1  0.73993101  0.76793101  0.12628000  1
  S  S9  1  0.26006900  0.23206900  0.12628000  1
  S  S10  1  0.26006900  0.76793101  0.37372001  1
  S  S11  1  0.73993101  0.23206900  0.37372001  1
