# generated using pymatgen
data_SnPbC
_symmetry_space_group_name_H-M   'P 1'
_cell_length_a   4.48367977
_cell_length_b   4.80637217
_cell_length_c   4.48367977
_cell_angle_alpha   117.80285645
_cell_angle_beta   90.00000000
_cell_angle_gamma   117.80285645
_symmetry_Int_Tables_number   1
_chemical_formula_structural   SnPbC
_chemical_formula_sum   'Sn1 Pb1 C1'
_cell_volume   72.62171285
_cell_formula_units_Z   1
loop_
 _symmetry_equiv_pos_site_id
 _symmetry_equiv_pos_as_xyz
  1  'x, y, z'
loop_
 _atom_site_type_symbol
 _atom_site_label
 _atom_site_symmetry_multiplicity
 _atom_site_fract_x
 _atom_site_fract_y
 _atom_site_fract_z
 _atom_site_occupancy
  Sn  Sn0  1  0.00000000  0.00000000  0.00000000  1
  Pb  Pb1  1  0.28769895  0.57539795  0.28769896  1
  C  C2  1  0.71230099  0.42460196  0.71230099  1
