# generated using pymatgen
data_Sr3Si
_symmetry_space_group_name_H-M   'P 1'
_cell_length_a   6.94829321
_cell_length_b   7.97064400
_cell_length_c   10.29176617
_cell_angle_alpha   90.00000000
_cell_angle_beta   90.00000000
_cell_angle_gamma   90.00000000
_symmetry_Int_Tables_number   1
_chemical_formula_structural   Sr3Si
_chemical_formula_sum   'Sr12 Si4'
_cell_volume   569.98241783
_cell_formula_units_Z   4
loop_
 _symmetry_equiv_pos_site_id
 _symmetry_equiv_pos_as_xyz
  1  'x, y, z'
loop_
 _atom_site_type_symbol
 _atom_site_label
 _atom_site_symmetry_multiplicity
 _atom_site_fract_x
 _atom_site_fract_y
 _atom_site_fract_z
 _atom_site_occupancy
  Sr  Sr0  1  0.33832599  0.67943300  0.05970600  1
  Sr  Sr1  1  0.16167400  0.17943300  0.44029399  1
  Sr  Sr2  1  0.66167398  0.32056700  0.55970599  1
  Sr  Sr3  1  0.83832597  0.82056700  0.94029398  1
  Sr  Sr4  1  0.66167398  0.32056700  0.94029398  1
  Sr  Sr5  1  0.83832597  0.82056700  0.55970599  1
  Sr  Sr6  1  0.33832599  0.67943300  0.44029399  1
  Sr  Sr7  1  0.16167400  0.17943300  0.05970600  1
  Sr  Sr8  1  0.86389997  0.52963000  0.25000000  1
  Sr  Sr9  1  0.63609998  0.02963000  0.25000000  1
  Sr  Sr10  1  0.13610000  0.47037000  0.74999999  1
  Sr  Sr11  1  0.36389999  0.97037000  0.74999999  1
  Si  Si12  1  0.05610600  0.88144800  0.25000000  1
  Si  Si13  1  0.44389399  0.38144800  0.25000000  1
  Si  Si14  1  0.94389397  0.11855200  0.74999999  1
  Si  Si15  1  0.55610598  0.61855200  0.74999999  1
