# generated using pymatgen
data_BaIrO3
_symmetry_space_group_name_H-M   'P 1'
_cell_length_a   5.83152246
_cell_length_b   5.83152246
_cell_length_c   8.04637623
_cell_angle_alpha   68.75421143
_cell_angle_beta   68.75421143
_cell_angle_gamma   59.99999619
_symmetry_Int_Tables_number   1
_chemical_formula_structural   BaIrO3
_chemical_formula_sum   'Ba3 Ir3 O9'
_cell_volume   215.22870161
_cell_formula_units_Z   3
loop_
 _symmetry_equiv_pos_site_id
 _symmetry_equiv_pos_as_xyz
  1  'x, y, z'
loop_
 _atom_site_type_symbol
 _atom_site_label
 _atom_site_symmetry_multiplicity
 _atom_site_fract_x
 _atom_site_fract_y
 _atom_site_fract_z
 _atom_site_occupancy
  Ba  Ba0  1  0.78057192  0.78057197  0.65828409  1
  Ba  Ba1  1  0.21942798  0.21942799  0.34171603  1
  Ba  Ba2  1  0.00000000  0.00000000  0.00000000  1
  Ir  Ir3  1  0.61708394  0.61708398  0.14874806  1
  Ir  Ir4  1  0.38291596  0.38291599  0.85125206  1
  Ir  Ir5  1  0.49999995  0.49999998  0.50000006  1
  O  O6  1  0.71397295  0.24769999  0.32435405  1
  O  O7  1  0.24769995  0.71397297  0.32435406  1
  O  O8  1  0.71397293  0.71397297  0.32435408  1
  O  O9  1  0.28602695  0.75229997  0.67564607  1
  O  O10  1  0.75229994  0.28602699  0.67564607  1
  O  O11  1  0.28602697  0.28602699  0.67564605  1
  O  O12  1  0.49999995  0.49999998  0.00000005  1
  O  O13  1  -0.00000002  0.49999998  0.00000003  1
  O  O14  1  0.49999997  0.00000000  0.00000002  1
