# generated using pymatgen
data_Sr3CaN4
_symmetry_space_group_name_H-M   'P 1'
_cell_length_a   5.53246784
_cell_length_b   5.53246784
_cell_length_c   5.53246784
_cell_angle_alpha   90.00000000
_cell_angle_beta   90.00000000
_cell_angle_gamma   90.00000000
_symmetry_Int_Tables_number   1
_chemical_formula_structural   Sr3CaN4
_chemical_formula_sum   'Sr3 Ca1 N4'
_cell_volume   169.33888455
_cell_formula_units_Z   1
loop_
 _symmetry_equiv_pos_site_id
 _symmetry_equiv_pos_as_xyz
  1  'x, y, z'
loop_
 _atom_site_type_symbol
 _atom_site_label
 _atom_site_symmetry_multiplicity
 _atom_site_fract_x
 _atom_site_fract_y
 _atom_site_fract_z
 _atom_site_occupancy
  Sr  Sr0  1  0.00000000  0.00000000  0.50000001  1
  Sr  Sr1  1  -0.00000000  0.50000001  -0.00000000  1
  Sr  Sr2  1  0.50000001  0.00000000  0.00000000  1
  Ca  Ca3  1  0.50000001  0.50000001  0.50000001  1
  N  N4  1  0.00000000  0.00000000  0.00000000  1
  N  N5  1  0.50000001  0.50000001  0.00000000  1
  N  N6  1  0.50000001  0.00000000  0.50000001  1
  N  N7  1  -0.00000000  0.50000001  0.50000001  1
