# generated using pymatgen
data_CeSnPt4
_symmetry_space_group_name_H-M   'P 1'
_cell_length_a   5.40711832
_cell_length_b   5.40711832
_cell_length_c   5.40711832
_cell_angle_alpha   60.00000000
_cell_angle_beta   60.00000000
_cell_angle_gamma   60.00000000
_symmetry_Int_Tables_number   1
_chemical_formula_structural   CeSnPt4
_chemical_formula_sum   'Ce1 Sn1 Pt4'
_cell_volume   111.78476583
_cell_formula_units_Z   1
loop_
 _symmetry_equiv_pos_site_id
 _symmetry_equiv_pos_as_xyz
  1  'x, y, z'
loop_
 _atom_site_type_symbol
 _atom_site_label
 _atom_site_symmetry_multiplicity
 _atom_site_fract_x
 _atom_site_fract_y
 _atom_site_fract_z
 _atom_site_occupancy
  Ce  Ce0  1  0.74999999  0.74999999  0.74999999  1
  Sn  Sn1  1  0.00000000  0.00000000  0.00000000  1
  Pt  Pt2  1  0.87601999  0.37466000  0.37466000  1
  Pt  Pt3  1  0.37466100  0.87601899  0.37466000  1
  Pt  Pt4  1  0.37466100  0.37466000  0.37466000  1
  Pt  Pt5  1  0.37466100  0.37466000  0.87601899  1
