# generated using pymatgen
data_VCoSi
_symmetry_space_group_name_H-M   'P 1'
_cell_length_a   3.46562409
_cell_length_b   6.21062422
_cell_length_c   6.21062422
_cell_angle_alpha   118.05591583
_cell_angle_beta   90.00000000
_cell_angle_gamma   90.00000000
_symmetry_Int_Tables_number   1
_chemical_formula_structural   VCoSi
_chemical_formula_sum   'V3 Co3 Si3'
_cell_volume   117.96719797
_cell_formula_units_Z   3
loop_
 _symmetry_equiv_pos_site_id
 _symmetry_equiv_pos_as_xyz
  1  'x, y, z'
loop_
 _atom_site_type_symbol
 _atom_site_label
 _atom_site_symmetry_multiplicity
 _atom_site_fract_x
 _atom_site_fract_y
 _atom_site_fract_z
 _atom_site_occupancy
  V  V0  1  0.49999999  0.40906301  0.40906302  1
  V  V1  1  0.49999999  0.99305501  0.57793406  1
  V  V2  1  0.49999999  0.57793401  0.99305502  1
  Co  Co3  1  -0.00000000  0.75826401  0.75826404  1
  Co  Co4  1  -0.00000000  0.00327900  0.24992800  1
  Co  Co5  1  -0.00000000  0.24992800  0.00327902  1
  Si  Si6  1  0.99999997  0.66372601  0.32129204  1
  Si  Si7  1  0.99999997  0.32129200  0.66372601  1
  Si  Si8  1  0.49999999  0.02335900  0.02335900  1
