# generated using pymatgen
data_LiMn5(OF5)2
_symmetry_space_group_name_H-M   'P 1'
_cell_length_a   4.61767244
_cell_length_b   4.61767244
_cell_length_c   9.08988476
_cell_angle_alpha   89.62593079
_cell_angle_beta   89.62593079
_cell_angle_gamma   85.91238403
_symmetry_Int_Tables_number   1
_chemical_formula_structural   LiMn5(OF5)2
_chemical_formula_sum   'Li1 Mn5 O2 F10'
_cell_volume   193.32195686
_cell_formula_units_Z   1
loop_
 _symmetry_equiv_pos_site_id
 _symmetry_equiv_pos_as_xyz
  1  'x, y, z'
loop_
 _atom_site_type_symbol
 _atom_site_label
 _atom_site_symmetry_multiplicity
 _atom_site_fract_x
 _atom_site_fract_y
 _atom_site_fract_z
 _atom_site_occupancy
  Mn  Mn0  1  0.98794411  0.98794404  0.17525297  1
  Li  Li1  1  0.00000000  0.00000000  0.50000000  1
  Mn  Mn2  1  0.01205600  0.01205600  0.82474699  1
  Mn  Mn3  1  0.50000006  0.50000002  -0.00000001  1
  Mn  Mn4  1  0.52113606  0.52113602  0.33439798  1
  Mn  Mn5  1  0.47886405  0.47886402  0.66560198  1
  O  O6  1  0.19121502  0.19121501  0.66146999  1
  F  F7  1  0.31750606  0.70700803  0.16963798  1
  F  F8  1  0.30756506  0.69243403  0.49999998  1
  F  F9  1  0.29299206  0.68249403  0.83036198  1
  F  F10  1  0.70700805  0.31750601  0.16963798  1
  F  F11  1  0.69243505  0.30756501  0.49999998  1
  F  F12  1  0.68249405  0.29299201  0.83036198  1
  O  O13  1  0.80878509  0.80878503  0.33852997  1
  F  F14  1  0.22305503  0.22305501  0.33376199  1
  F  F15  1  0.18751202  0.18751201  0.01314199  1
  F  F16  1  0.77694509  0.77694503  0.66623797  1
  F  F17  1  0.81248809  0.81248803  0.98685797  1
