# generated using pymatgen
data_NaCaSiO4
_symmetry_space_group_name_H-M   'P 1'
_cell_length_a   5.42326546
_cell_length_b   5.42326546
_cell_length_c   7.20702124
_cell_angle_alpha   90.00000000
_cell_angle_beta   90.00000000
_cell_angle_gamma   116.54021454
_symmetry_Int_Tables_number   1
_chemical_formula_structural   NaCaSiO4
_chemical_formula_sum   'Na2 Ca2 Si2 O8'
_cell_volume   189.63417166
_cell_formula_units_Z   2
loop_
 _symmetry_equiv_pos_site_id
 _symmetry_equiv_pos_as_xyz
  1  'x, y, z'
loop_
 _atom_site_type_symbol
 _atom_site_label
 _atom_site_symmetry_multiplicity
 _atom_site_fract_x
 _atom_site_fract_y
 _atom_site_fract_z
 _atom_site_occupancy
  Na  Na0  1  0.31818495  0.68181496  0.24999999  1
  Na  Na1  1  0.68181496  0.31818498  0.74999998  1
  Ca  Ca2  1  0.99627291  0.99627294  0.99999997  1
  Ca  Ca3  1  0.00372700  0.00372700  0.49999998  1
  Si  Si4  1  0.64444796  0.35555198  0.24999999  1
  Si  Si5  1  0.35555195  0.64444796  0.74999998  1
  O  O6  1  0.77981194  0.69288296  0.25568199  1
  O  O7  1  0.69288293  0.77981196  0.74431798  1
  O  O8  1  0.22018798  0.30711698  0.75568198  1
  O  O9  1  0.30711698  0.22018799  0.24431799  1
  O  O10  1  0.76995996  0.27396298  0.06257200  1
  O  O11  1  0.27396295  0.76995996  0.93742797  1
  O  O12  1  0.23003995  0.72603696  0.56257198  1
  O  O13  1  0.72603696  0.23003999  0.43742799  1
