# generated using pymatgen
data_Lu2ScMn3S8
_symmetry_space_group_name_H-M   'P 1'
_cell_length_a   7.43190622
_cell_length_b   7.49395323
_cell_length_c   7.49525118
_cell_angle_alpha   60.72421265
_cell_angle_beta   60.37026596
_cell_angle_gamma   60.37472916
_symmetry_Int_Tables_number   1
_chemical_formula_structural   Lu2ScMn3S8
_chemical_formula_sum   'Lu2 Sc1 Mn3 S8'
_cell_volume   298.43674206
_cell_formula_units_Z   1
loop_
 _symmetry_equiv_pos_site_id
 _symmetry_equiv_pos_as_xyz
  1  'x, y, z'
loop_
 _atom_site_type_symbol
 _atom_site_label
 _atom_site_symmetry_multiplicity
 _atom_site_fract_x
 _atom_site_fract_y
 _atom_site_fract_z
 _atom_site_occupancy
  Lu  Lu0  1  0.49999000  0.50001099  0.49999105  1
  Lu  Lu1  1  0.50000799  0.99999398  0.00000805  1
  Sc  Sc2  1  0.87520500  0.37533299  0.87531907  1
  Mn  Mn3  1  0.12478399  0.62465999  0.12468203  1
  Mn  Mn4  1  0.00000098  0.99997998  0.50003005  1
  Mn  Mn5  1  0.50000100  0.00003400  0.49998103  1
  S  S6  1  0.75074899  0.78129698  0.71520707  1
  S  S7  1  0.72694399  0.76961998  0.26950306  1
  S  S8  1  0.23496599  0.76896898  0.26907504  1
  S  S9  1  0.24925099  0.78486798  0.71866905  1
  S  S10  1  0.76503200  0.23104700  0.73090605  1
  S  S11  1  0.75076000  0.21512800  0.28131704  1
  S  S12  1  0.24925700  0.21869700  0.28479802  1
  S  S13  1  0.27305200  0.23036000  0.73051904  1
