# generated using pymatgen
data_Li2MnF4
_symmetry_space_group_name_H-M   'P 1'
_cell_length_a   4.19688177
_cell_length_b   4.19688177
_cell_length_c   5.40357971
_cell_angle_alpha   112.85141754
_cell_angle_beta   112.85141754
_cell_angle_gamma   90.00000000
_symmetry_Int_Tables_number   1
_chemical_formula_structural   Li2MnF4
_chemical_formula_sum   'Li2 Mn1 F4'
_cell_volume   79.53913968
_cell_formula_units_Z   1
loop_
 _symmetry_equiv_pos_site_id
 _symmetry_equiv_pos_as_xyz
  1  'x, y, z'
loop_
 _atom_site_type_symbol
 _atom_site_label
 _atom_site_symmetry_multiplicity
 _atom_site_fract_x
 _atom_site_fract_y
 _atom_site_fract_z
 _atom_site_occupancy
  Li  Li0  1  0.24999997  0.75000002  0.49999994  1
  Li  Li1  1  0.75000001  0.25000001  0.49999995  1
  Mn  Mn2  1  0.00000000  0.00000000  0.00000000  1
  F  F3  1  0.76322999  0.76323002  0.52645992  1
  F  F4  1  0.23677000  0.23677001  0.47353997  1
  F  F5  1  -0.00000002  0.50000001  -0.00000003  1
  F  F6  1  0.49999997  1.00000003  0.99999991  1
