# generated using pymatgen
data_Lu6CoSb2
_symmetry_space_group_name_H-M   'P 1'
_cell_length_a   4.06231213
_cell_length_b   8.19958591
_cell_length_c   8.19958591
_cell_angle_alpha   120.00000000
_cell_angle_beta   90.00000000
_cell_angle_gamma   90.00000000
_symmetry_Int_Tables_number   1
_chemical_formula_structural   Lu6CoSb2
_chemical_formula_sum   'Lu6 Co1 Sb2'
_cell_volume   236.53083360
_cell_formula_units_Z   1
loop_
 _symmetry_equiv_pos_site_id
 _symmetry_equiv_pos_as_xyz
  1  'x, y, z'
loop_
 _atom_site_type_symbol
 _atom_site_label
 _atom_site_symmetry_multiplicity
 _atom_site_fract_x
 _atom_site_fract_y
 _atom_site_fract_z
 _atom_site_occupancy
  Lu  Lu0  1  0.49999998  0.60761001  0.60761003  1
  Lu  Lu1  1  0.49999998  1.00000002  0.39239003  1
  Lu  Lu2  1  0.49999998  0.39239001  0.00000001  1
  Lu  Lu3  1  0.99999997  0.23666700  0.23666701  1
  Lu  Lu4  1  0.00000000  0.00000000  0.76333303  1
  Lu  Lu5  1  0.99999997  0.76333301  0.00000001  1
  Sb  Sb6  1  0.49999998  0.00000000  -0.00000000  1
  Sb  Sb7  1  0.99999997  0.66666668  0.33333336  1
  Co  Co8  1  0.99999997  0.33333334  0.66666669  1
