# generated using pymatgen
data_VO
_symmetry_space_group_name_H-M   'P 1'
_cell_length_a   2.93480706
_cell_length_b   2.96271205
_cell_length_c   4.13827801
_cell_angle_alpha   69.02476501
_cell_angle_beta   90.00000000
_cell_angle_gamma   90.00000000
_symmetry_Int_Tables_number   1
_chemical_formula_structural   VO
_chemical_formula_sum   'V2 O2'
_cell_volume   33.59792147
_cell_formula_units_Z   2
loop_
 _symmetry_equiv_pos_site_id
 _symmetry_equiv_pos_as_xyz
  1  'x, y, z'
loop_
 _atom_site_type_symbol
 _atom_site_label
 _atom_site_symmetry_multiplicity
 _atom_site_fract_x
 _atom_site_fract_y
 _atom_site_fract_z
 _atom_site_occupancy
  V  V0  1  0.00000000  0.85712000  0.28575997  1
  V  V1  1  0.49999999  0.14429000  0.71141999  1
  O  O2  1  0.49999999  0.43247900  0.13504198  1
  O  O3  1  0.00000000  0.56611100  0.86777797  1
