# generated using pymatgen
data_Ce2Ag5PbSe10
_symmetry_space_group_name_H-M   'P 1'
_cell_length_a   5.92380190
_cell_length_b   8.16197777
_cell_length_c   8.18593884
_cell_angle_alpha   90.00000000
_cell_angle_beta   90.00000000
_cell_angle_gamma   111.27779388
_symmetry_Int_Tables_number   1
_chemical_formula_structural   Ce2Ag5PbSe10
_chemical_formula_sum   'Ce2 Ag5 Pb1 Se10'
_cell_volume   368.80943536
_cell_formula_units_Z   1
loop_
 _symmetry_equiv_pos_site_id
 _symmetry_equiv_pos_as_xyz
  1  'x, y, z'
loop_
 _atom_site_type_symbol
 _atom_site_label
 _atom_site_symmetry_multiplicity
 _atom_site_fract_x
 _atom_site_fract_y
 _atom_site_fract_z
 _atom_site_occupancy
  Ce  Ce0  1  0.38503203  0.77006404  0.07976600  1
  Ce  Ce1  1  0.61496802  0.22993601  0.92023402  1
  Ag  Ag2  1  0.11496801  0.22993601  0.57976601  1
  Ag  Ag3  1  0.88503203  0.77006404  0.42023401  1
  Ag  Ag4  1  0.50000001  0.00000000  0.50000001  1
  Pb  Pb5  1  0.00000000  0.00000000  0.00000000  1
  Se  Se6  1  0.46798102  0.43596202  0.25000001  1
  Se  Se7  1  0.03201901  0.56403803  0.75000002  1
  Se  Se8  1  0.53201902  0.56403803  0.75000002  1
  Se  Se9  1  0.96798103  0.43596202  0.25000001  1
  Ag  Ag10  1  0.29873401  0.09746801  0.25000001  1
  Se  Se11  1  0.20126603  0.90253205  0.75000002  1
  Se  Se12  1  0.70126603  0.90253205  0.75000002  1
  Ag  Ag13  1  0.79873402  0.09746801  0.25000001  1
  Se  Se14  1  0.31492602  0.62985203  0.44778801  1
  Se  Se15  1  0.68507402  0.37014802  0.55221201  1
  Se  Se16  1  0.18507401  0.37014802  0.94778802  1
  Se  Se17  1  0.81492603  0.62985203  0.05221200  1
