# generated using pymatgen
data_YZrPt2
_symmetry_space_group_name_H-M   'P 1'
_cell_length_a   3.72566009
_cell_length_b   3.98461390
_cell_length_c   5.89502192
_cell_angle_alpha   90.00000000
_cell_angle_beta   108.42122650
_cell_angle_gamma   90.00000000
_symmetry_Int_Tables_number   1
_chemical_formula_structural   YZrPt2
_chemical_formula_sum   'Y1 Zr1 Pt2'
_cell_volume   83.02919173
_cell_formula_units_Z   1
loop_
 _symmetry_equiv_pos_site_id
 _symmetry_equiv_pos_as_xyz
  1  'x, y, z'
loop_
 _atom_site_type_symbol
 _atom_site_label
 _atom_site_symmetry_multiplicity
 _atom_site_fract_x
 _atom_site_fract_y
 _atom_site_fract_z
 _atom_site_occupancy
  Zr  Zr0  1  0.13341400  0.75000002  0.26682799  1
  Y  Y1  1  0.86658598  0.25000001  0.73317199  1
  Pt  Pt2  1  0.40753299  0.75000002  0.81506598  1
  Pt  Pt3  1  0.59246699  0.25000001  0.18493400  1
