# generated using pymatgen
data_Ba2Cu(SO4)2
_symmetry_space_group_name_H-M   'P 1'
_cell_length_a   5.59343147
_cell_length_b   5.59343147
_cell_length_c   7.78517103
_cell_angle_alpha   68.94670105
_cell_angle_beta   68.94670105
_cell_angle_gamma   60.00000381
_symmetry_Int_Tables_number   1
_chemical_formula_structural   Ba2Cu(SO4)2
_chemical_formula_sum   'Ba2 Cu1 S2 O8'
_cell_volume   191.93443259
_cell_formula_units_Z   1
loop_
 _symmetry_equiv_pos_site_id
 _symmetry_equiv_pos_as_xyz
  1  'x, y, z'
loop_
 _atom_site_type_symbol
 _atom_site_label
 _atom_site_symmetry_multiplicity
 _atom_site_fract_x
 _atom_site_fract_y
 _atom_site_fract_z
 _atom_site_occupancy
  Ba  Ba0  1  0.79627504  0.79627503  0.61117491  1
  Ba  Ba1  1  0.20372501  0.20372501  0.38882497  1
  Cu  Cu2  1  0.00000000  0.00000000  0.00000000  1
  S  S3  1  0.59905903  0.59905902  0.20282294  1
  S  S4  1  0.40094102  0.40094102  0.79717695  1
  O  O5  1  0.72071103  0.72071103  0.27538393  1
  O  O6  1  0.72071103  0.28319401  0.27538395  1
  O  O7  1  0.28319402  0.72071103  0.27538395  1
  O  O8  1  0.71680603  0.27928901  0.72461594  1
  O  O9  1  0.27928901  0.27928901  0.72461596  1
  O  O10  1  0.33126102  0.33126101  0.00621697  1
  O  O11  1  0.66873903  0.66873903  0.99378292  1
  O  O12  1  0.27928902  0.71680603  0.72461594  1
