# generated using pymatgen
data_CeMg2
_symmetry_space_group_name_H-M   'P 1'
_cell_length_a   4.68083000
_cell_length_b   4.82574511
_cell_length_c   7.99147511
_cell_angle_alpha   90.00000000
_cell_angle_beta   107.02949524
_cell_angle_gamma   90.00000000
_symmetry_Int_Tables_number   1
_chemical_formula_structural   CeMg2
_chemical_formula_sum   'Ce2 Mg4'
_cell_volume   172.60051969
_cell_formula_units_Z   2
loop_
 _symmetry_equiv_pos_site_id
 _symmetry_equiv_pos_as_xyz
  1  'x, y, z'
loop_
 _atom_site_type_symbol
 _atom_site_label
 _atom_site_symmetry_multiplicity
 _atom_site_fract_x
 _atom_site_fract_y
 _atom_site_fract_z
 _atom_site_occupancy
  Ce  Ce0  1  0.14836900  0.99999998  0.29673801  1
  Ce  Ce1  1  0.85163100  0.00000000  0.70326202  1
  Mg  Mg2  1  0.50000000  0.00000000  0.00000000  1
  Mg  Mg3  1  0.00000000  0.49999999  -0.00000000  1
  Mg  Mg4  1  0.32610600  0.49999999  0.65221201  1
  Mg  Mg5  1  0.67389400  0.49999999  0.34778801  1
