# generated using pymatgen
data_Ca2Al2O5
_symmetry_space_group_name_H-M   'P 1'
_cell_length_a   5.43007994
_cell_length_b   5.71986818
_cell_length_c   8.25242233
_cell_angle_alpha   110.27686310
_cell_angle_beta   109.20803833
_cell_angle_gamma   90.00000000
_symmetry_Int_Tables_number   1
_chemical_formula_structural   Ca2Al2O5
_chemical_formula_sum   'Ca4 Al4 O10'
_cell_volume   225.15732999
_cell_formula_units_Z   2
loop_
 _symmetry_equiv_pos_site_id
 _symmetry_equiv_pos_as_xyz
  1  'x, y, z'
loop_
 _atom_site_type_symbol
 _atom_site_label
 _atom_site_symmetry_multiplicity
 _atom_site_fract_x
 _atom_site_fract_y
 _atom_site_fract_z
 _atom_site_occupancy
  Ca  Ca0  1  0.12042499  0.57682498  0.22085700  1
  Ca  Ca1  1  0.39956799  0.85596797  0.77914301  1
  Ca  Ca2  1  0.89956900  0.42317498  0.77914401  1
  Ca  Ca3  1  0.62042600  0.14403199  0.22085800  1
  Al  Al4  1  0.49783600  0.49999998  1.00000002  1
  Al  Al5  1  0.99783601  0.00000000  1.00000002  1
  Al  Al6  1  0.28810100  0.17335099  0.50000001  1
  Al  Al7  1  0.78810100  0.82664897  0.50000000  1
  O  O8  1  0.61645900  0.10057000  0.49999901  1
  O  O9  1  0.11645999  0.89942997  0.50000000  1
  O  O10  1  0.61878300  0.57533298  0.29459200  1
  O  O11  1  0.32419100  0.42466698  0.70540801  1
  O  O12  1  0.11878200  0.21925799  0.29459101  1
  O  O13  1  0.82419200  0.78074197  0.70540901  1
  O  O14  1  0.24095700  0.23074099  0.97410803  1
  O  O15  1  0.26684899  0.76925897  0.02589199  1
  O  O16  1  0.76684900  0.75663297  0.02589199  1
  O  O17  1  0.74095700  0.24336699  0.97410802  1
