# generated using pymatgen
data_Er3Co2Si3
_symmetry_space_group_name_H-M   'P 1'
_cell_length_a   4.15907812
_cell_length_b   5.67587852
_cell_length_c   14.03248405
_cell_angle_alpha   90.00000000
_cell_angle_beta   90.00000000
_cell_angle_gamma   111.49265289
_symmetry_Int_Tables_number   1
_chemical_formula_structural   Er3Co2Si3
_chemical_formula_sum   'Er6 Co4 Si6'
_cell_volume   308.22265868
_cell_formula_units_Z   2
loop_
 _symmetry_equiv_pos_site_id
 _symmetry_equiv_pos_as_xyz
  1  'x, y, z'
loop_
 _atom_site_type_symbol
 _atom_site_label
 _atom_site_symmetry_multiplicity
 _atom_site_fract_x
 _atom_site_fract_y
 _atom_site_fract_z
 _atom_site_occupancy
  Er  Er0  1  0.41824105  0.83648203  0.60948300  1
  Er  Er1  1  0.58175900  0.16351801  0.39051700  1
  Er  Er2  1  0.41824105  0.83648203  0.89051700  1
  Er  Er3  1  0.58175900  0.16351801  0.10948300  1
  Er  Er4  1  0.14062102  0.28124201  0.75000000  1
  Er  Er5  1  0.85937903  0.71875803  0.25000000  1
  Co  Co6  1  0.71159701  0.42319402  0.59372300  1
  Co  Co7  1  0.28840304  0.57680602  0.40627700  1
  Co  Co8  1  0.71159701  0.42319402  0.90627700  1
  Co  Co9  1  0.28840304  0.57680602  0.09372300  1
  Si  Si10  1  0.83705403  0.67410803  0.75000000  1
  Si  Si11  1  0.16294602  0.32589201  0.25000000  1
  Si  Si12  1  0.12754102  0.25508201  0.54011200  1
  Si  Si13  1  0.87245903  0.74491803  0.45988800  1
  Si  Si14  1  0.12754102  0.25508201  0.95988800  1
  Si  Si15  1  0.87245903  0.74491803  0.04011200  1
