# generated using pymatgen
data_DySn2
_symmetry_space_group_name_H-M   'P 1'
_cell_length_a   4.34792519
_cell_length_b   4.39604807
_cell_length_c   8.39796162
_cell_angle_alpha   74.82707977
_cell_angle_beta   90.00000000
_cell_angle_gamma   90.00000000
_symmetry_Int_Tables_number   1
_chemical_formula_structural   DySn2
_chemical_formula_sum   'Dy2 Sn4'
_cell_volume   154.92047978
_cell_formula_units_Z   2
loop_
 _symmetry_equiv_pos_site_id
 _symmetry_equiv_pos_as_xyz
  1  'x, y, z'
loop_
 _atom_site_type_symbol
 _atom_site_label
 _atom_site_symmetry_multiplicity
 _atom_site_fract_x
 _atom_site_fract_y
 _atom_site_fract_z
 _atom_site_occupancy
  Dy  Dy0  1  0.24999999  0.90129599  0.19740799  1
  Dy  Dy1  1  0.74999997  0.09870400  0.80259197  1
  Sn  Sn2  1  0.24999999  0.56406599  0.87186797  1
  Sn  Sn3  1  0.74999997  0.43593399  0.12813199  1
  Sn  Sn4  1  0.24999999  0.25051700  0.49896598  1
  Sn  Sn5  1  0.74999997  0.74948299  0.50103398  1
