# generated using pymatgen
data_Li2V4FeO8
_symmetry_space_group_name_H-M   'P 1'
_cell_length_a   5.87713814
_cell_length_b   5.87713814
_cell_length_c   6.19005108
_cell_angle_alpha   61.65858459
_cell_angle_beta   61.65858459
_cell_angle_gamma   60.00000000
_symmetry_Int_Tables_number   1
_chemical_formula_structural   Li2V4FeO8
_chemical_formula_sum   'Li2 V4 Fe1 O8'
_cell_volume   154.86573312
_cell_formula_units_Z   1
loop_
 _symmetry_equiv_pos_site_id
 _symmetry_equiv_pos_as_xyz
  1  'x, y, z'
loop_
 _atom_site_type_symbol
 _atom_site_label
 _atom_site_symmetry_multiplicity
 _atom_site_fract_x
 _atom_site_fract_y
 _atom_site_fract_z
 _atom_site_occupancy
  Li  Li0  1  0.14213899  0.14213900  0.57358303  1
  Li  Li1  1  0.00000000  0.00000000  0.00000000  1
  Fe  Fe2  1  0.85786094  0.85786097  0.42641708  1
  V  V3  1  0.49999996  0.49999998  0.50000006  1
  V  V4  1  -0.00000001  0.49999998  0.00000002  1
  V  V5  1  0.49999998  0.00000000  0.00000002  1
  V  V6  1  0.49999996  0.49999998  0.00000004  1
  O  O7  1  0.24499197  0.71851098  0.79150507  1
  O  O8  1  0.24499198  0.24499199  0.79150504  1
  O  O9  1  0.71851096  0.24499199  0.79150506  1
  O  O10  1  0.26525498  0.26525499  0.20423503  1
  O  O11  1  0.28148897  0.75500798  0.20849505  1
  O  O12  1  0.73474495  0.73474498  0.79576508  1
  O  O13  1  0.75500794  0.75500798  0.20849507  1
  O  O14  1  0.75500796  0.28148899  0.20849505  1
