# generated using pymatgen
data_BaCaI4
_symmetry_space_group_name_H-M   'P 1'
_cell_length_a   8.16291237
_cell_length_b   8.16291237
_cell_length_c   10.31772041
_cell_angle_alpha   113.30198669
_cell_angle_beta   113.30198669
_cell_angle_gamma   90.00000000
_symmetry_Int_Tables_number   1
_chemical_formula_structural   BaCaI4
_chemical_formula_sum   'Ba2 Ca2 I8'
_cell_volume   569.85468823
_cell_formula_units_Z   2
loop_
 _symmetry_equiv_pos_site_id
 _symmetry_equiv_pos_as_xyz
  1  'x, y, z'
loop_
 _atom_site_type_symbol
 _atom_site_label
 _atom_site_symmetry_multiplicity
 _atom_site_fract_x
 _atom_site_fract_y
 _atom_site_fract_z
 _atom_site_occupancy
  Ba  Ba0  1  0.25000004  0.74999999  0.50000007  1
  Ba  Ba1  1  0.50000002  0.50000000  0.00000006  1
  Ca  Ca2  1  0.00000000  0.00000000  0.00000000  1
  Ca  Ca3  1  0.75000000  0.25000000  0.50000006  1
  I  I4  1  0.10915603  0.50982800  0.67140405  1
  I  I5  1  0.91157600  0.35915600  0.17140407  1
  I  I6  1  0.25982804  0.81224799  0.17140407  1
  I  I7  1  0.18775200  0.08842400  0.82859602  1
  I  I8  1  0.56224800  0.16157600  0.67140405  1
  I  I9  1  0.49017202  0.43775200  0.32859606  1
  I  I10  1  0.83842404  0.89084399  0.32859611  1
  I  I11  1  0.64084403  0.74017199  0.82859609  1
