# generated using pymatgen
data_AlPd3Br14
_symmetry_space_group_name_H-M   'P 1'
_cell_length_a   7.13910675
_cell_length_b   7.13910675
_cell_length_c   11.66192627
_cell_angle_alpha   101.75492096
_cell_angle_beta   101.75492096
_cell_angle_gamma   109.53704834
_symmetry_Int_Tables_number   1
_chemical_formula_structural   AlPd3Br14
_chemical_formula_sum   'Al1 Pd3 Br14'
_cell_volume   524.05845265
_cell_formula_units_Z   1
loop_
 _symmetry_equiv_pos_site_id
 _symmetry_equiv_pos_as_xyz
  1  'x, y, z'
loop_
 _atom_site_type_symbol
 _atom_site_label
 _atom_site_symmetry_multiplicity
 _atom_site_fract_x
 _atom_site_fract_y
 _atom_site_fract_z
 _atom_site_occupancy
  Al  Al0  1  0.35101097  0.85101097  0.70202198  1
  Pd  Pd1  1  0.10101100  0.10101100  0.20202200  1
  Pd  Pd2  1  0.14270198  0.51868898  0.37444599  1
  Pd  Pd3  1  0.76868896  0.89270197  0.87444597  1
  Br  Br4  1  0.10575697  0.98174397  0.87444599  1
  Br  Br5  1  0.23174397  0.85575697  0.37444597  1
  Br  Br6  1  0.68756398  0.13490600  0.85498900  1
  Br  Br7  1  0.16742498  0.72008198  0.85498900  1
  Br  Br8  1  0.07763898  0.52677198  0.53816299  1
  Br  Br9  1  0.46052399  0.01139100  0.53816300  1
  Br  Br10  1  0.26139099  0.21052399  0.03816298  1
  Br  Br11  1  0.77677196  0.82763897  0.03816293  1
  Br  Br12  1  0.34567697  0.90990997  0.23329296  1
  Br  Br13  1  0.88761597  0.32338199  0.23329296  1
  Br  Br14  1  0.57338197  0.63761598  0.73329198  1
  Br  Br15  1  0.15990999  0.09567700  0.73329202  1
  Br  Br16  1  0.38490598  0.43756399  0.35498798  1
  Br  Br17  1  0.97008195  0.91742497  0.35498794  1
