# generated using pymatgen
data_ThIn2
_symmetry_space_group_name_H-M   'P 1'
_cell_length_a   4.80593204
_cell_length_b   4.80593204
_cell_length_c   15.37378788
_cell_angle_alpha   98.99236298
_cell_angle_beta   98.99236298
_cell_angle_gamma   90.00000000
_symmetry_Int_Tables_number   1
_chemical_formula_structural   ThIn2
_chemical_formula_sum   'Th4 In8'
_cell_volume   346.30447132
_cell_formula_units_Z   4
loop_
 _symmetry_equiv_pos_site_id
 _symmetry_equiv_pos_as_xyz
  1  'x, y, z'
loop_
 _atom_site_type_symbol
 _atom_site_label
 _atom_site_symmetry_multiplicity
 _atom_site_fract_x
 _atom_site_fract_y
 _atom_site_fract_z
 _atom_site_occupancy
  Th  Th0  1  0.82914400  0.32914400  0.65828801  1
  Th  Th1  1  0.92085600  0.92085599  0.84171201  1
  Th  Th2  1  0.67085600  0.17085600  0.34171201  1
  Th  Th3  1  0.07914400  0.07914400  0.15828800  1
  In  In4  1  0.00039800  0.50039800  0.00079600  1
  In  In5  1  0.74960200  0.74960200  0.49920401  1
  In  In6  1  0.49960200  0.99960199  0.99920401  1
  In  In7  1  0.25039800  0.25039800  0.50079600  1
  In  In8  1  0.16319400  0.66319400  0.32638801  1
  In  In9  1  0.58680600  0.58680600  0.17361201  1
  In  In10  1  0.33680600  0.83680599  0.67361201  1
  In  In11  1  0.41319400  0.41319400  0.82638800  1
