# generated using pymatgen
data_La2MgUPd8
_symmetry_space_group_name_H-M   'P 1'
_cell_length_a   5.55546904
_cell_length_b   5.55546904
_cell_length_c   9.40798950
_cell_angle_alpha   72.82730865
_cell_angle_beta   72.82730865
_cell_angle_gamma   59.99998856
_symmetry_Int_Tables_number   1
_chemical_formula_structural   La2MgUPd8
_chemical_formula_sum   'La2 Mg1 U1 Pd8'
_cell_volume   236.39481973
_cell_formula_units_Z   1
loop_
 _symmetry_equiv_pos_site_id
 _symmetry_equiv_pos_as_xyz
  1  'x, y, z'
loop_
 _atom_site_type_symbol
 _atom_site_label
 _atom_site_symmetry_multiplicity
 _atom_site_fract_x
 _atom_site_fract_y
 _atom_site_fract_z
 _atom_site_occupancy
  La  La0  1  0.12285300  0.12285300  0.63144103  1
  La  La1  1  0.61212099  0.61212099  0.16363704  1
  U  U2  1  0.99930999  0.99930999  0.00207006  1
  Mg  Mg3  1  0.51769199  0.51769199  0.44692405  1
  Pd  Pd4  1  0.05818700  0.56108099  0.81965105  1
  Pd  Pd5  1  0.56608299  0.06306900  0.30777903  1
  Pd  Pd6  1  0.56108099  0.05818700  0.81965105  1
  Pd  Pd7  1  0.06306900  0.56608299  0.30777903  1
  Pd  Pd8  1  0.81335399  0.81335399  0.55993807  1
  Pd  Pd9  1  0.31209900  0.31209900  0.06370302  1
  Pd  Pd10  1  0.56108099  0.56108099  0.81965106  1
  Pd  Pd11  1  0.06306900  0.06306900  0.30777901  1
