# generated using pymatgen
data_Mn2FeN
_symmetry_space_group_name_H-M   'P 1'
_cell_length_a   2.89511108
_cell_length_b   2.89511108
_cell_length_c   11.93432522
_cell_angle_alpha   90.00000000
_cell_angle_beta   90.00000000
_cell_angle_gamma   90.00000000
_symmetry_Int_Tables_number   1
_chemical_formula_structural   Mn2FeN
_chemical_formula_sum   'Mn4 Fe2 N2'
_cell_volume   100.02955403
_cell_formula_units_Z   2
loop_
 _symmetry_equiv_pos_site_id
 _symmetry_equiv_pos_as_xyz
  1  'x, y, z'
loop_
 _atom_site_type_symbol
 _atom_site_label
 _atom_site_symmetry_multiplicity
 _atom_site_fract_x
 _atom_site_fract_y
 _atom_site_fract_z
 _atom_site_occupancy
  Mn  Mn0  1  0.00000000  0.00000000  0.33226799  1
  Mn  Mn1  1  0.00000000  0.00000000  0.66773199  1
  Mn  Mn2  1  0.49999999  0.49999999  0.84064498  1
  Mn  Mn3  1  0.49999999  0.49999999  0.15935500  1
  Fe  Fe4  1  0.49999999  0.49999999  0.31944399  1
  Fe  Fe5  1  0.49999999  0.49999999  0.68055599  1
  N  N6  1  0.00000000  0.00000000  0.00000000  1
  N  N7  1  0.49999999  0.49999999  0.49999999  1
