# generated using pymatgen
data_Ca3LaTa2MnCoO12
_symmetry_space_group_name_H-M   'P 1'
_cell_length_a   5.47816610
_cell_length_b   5.65828562
_cell_length_c   7.72227716
_cell_angle_alpha   90.00000000
_cell_angle_beta   90.00000000
_cell_angle_gamma   90.58863831
_symmetry_Int_Tables_number   1
_chemical_formula_structural   Ca3LaTa2MnCoO12
_chemical_formula_sum   'Ca3 La1 Ta2 Mn1 Co1 O12'
_cell_volume   239.35501283
_cell_formula_units_Z   1
loop_
 _symmetry_equiv_pos_site_id
 _symmetry_equiv_pos_as_xyz
  1  'x, y, z'
loop_
 _atom_site_type_symbol
 _atom_site_label
 _atom_site_symmetry_multiplicity
 _atom_site_fract_x
 _atom_site_fract_y
 _atom_site_fract_z
 _atom_site_occupancy
  Ca  Ca0  1  0.01820800  0.04469400  0.24999999  1
  Ca  Ca1  1  0.48767103  0.56873400  0.24999999  1
  Ca  Ca2  1  0.51232902  0.43126600  0.74999998  1
  La  La3  1  0.98179205  0.95530600  0.74999998  1
  Ta  Ta4  1  0.00000003  0.50000000  -0.00000000  1
  Ta  Ta5  1  0.00000003  0.50000000  0.49999999  1
  Mn  Mn6  1  0.49999999  0.00000000  0.00000000  1
  Co  Co7  1  0.49999999  0.00000000  0.49999999  1
  O  O8  1  0.80262900  0.21133700  0.54876999  1
  O  O9  1  0.29008702  0.30234600  0.45559299  1
  O  O10  1  0.19737105  0.78866300  0.45122999  1
  O  O11  1  0.70991303  0.69765400  0.95559298  1
  O  O12  1  0.09501103  0.52959300  0.74999998  1
  O  O13  1  0.70991303  0.69765400  0.54440699  1
  O  O14  1  0.29008702  0.30234600  0.04440700  1
  O  O15  1  0.80262900  0.21133700  0.95122998  1
  O  O16  1  0.57847006  0.98473400  0.24999999  1
  O  O17  1  0.19737105  0.78866300  0.04877000  1
  O  O18  1  0.42152999  0.01526600  0.74999998  1
  O  O19  1  0.90498902  0.47040700  0.24999999  1
