# generated using pymatgen
data_NdSiRh
_symmetry_space_group_name_H-M   'P 1'
_cell_length_a   4.16962814
_cell_length_b   4.16962814
_cell_length_c   7.72374296
_cell_angle_alpha   105.65966797
_cell_angle_beta   105.65966797
_cell_angle_gamma   90.00000000
_symmetry_Int_Tables_number   1
_chemical_formula_structural   NdSiRh
_chemical_formula_sum   'Nd2 Si2 Rh2'
_cell_volume   124.11476841
_cell_formula_units_Z   2
loop_
 _symmetry_equiv_pos_site_id
 _symmetry_equiv_pos_as_xyz
  1  'x, y, z'
loop_
 _atom_site_type_symbol
 _atom_site_label
 _atom_site_symmetry_multiplicity
 _atom_site_fract_x
 _atom_site_fract_y
 _atom_site_fract_z
 _atom_site_occupancy
  Nd  Nd0  1  0.62492997  0.12492999  0.24985998  1
  Nd  Nd1  1  0.87492994  0.87492996  0.74985996  1
  Si  Si2  1  0.45829997  0.45829998  0.91659999  1
  Si  Si3  1  0.20829997  0.70829997  0.41659998  1
  Rh  Rh4  1  0.04176998  0.54176997  0.08353999  1
  Rh  Rh5  1  0.29176998  0.29176999  0.58353999  1
