# generated using pymatgen
data_CaMnO3
_symmetry_space_group_name_H-M   'P 1'
_cell_length_a   5.38551998
_cell_length_b   5.44670105
_cell_length_c   7.64091778
_cell_angle_alpha   90.00000000
_cell_angle_beta   90.00000000
_cell_angle_gamma   90.00000000
_symmetry_Int_Tables_number   1
_chemical_formula_structural   CaMnO3
_chemical_formula_sum   'Ca4 Mn4 O12'
_cell_volume   224.13346592
_cell_formula_units_Z   4
loop_
 _symmetry_equiv_pos_site_id
 _symmetry_equiv_pos_as_xyz
  1  'x, y, z'
loop_
 _atom_site_type_symbol
 _atom_site_label
 _atom_site_symmetry_multiplicity
 _atom_site_fract_x
 _atom_site_fract_y
 _atom_site_fract_z
 _atom_site_occupancy
  Ca  Ca0  1  0.50780700  0.54158600  0.75000002  1
  Ca  Ca1  1  0.49219300  0.45841400  0.25000001  1
  Ca  Ca2  1  0.99219300  0.04158600  0.75000002  1
  Ca  Ca3  1  0.00780700  0.95841399  0.25000001  1
  Mn  Mn4  1  0.50000000  0.00000000  0.50000001  1
  Mn  Mn5  1  0.50000000  0.00000000  0.00000000  1
  Mn  Mn6  1  0.00000000  0.50000000  0.00000000  1
  Mn  Mn7  1  0.00000000  0.50000000  0.50000001  1
  O  O8  1  0.21011400  0.21103100  0.03843800  1
  O  O9  1  0.21011400  0.21103100  0.46156201  1
  O  O10  1  0.71011400  0.28896900  0.96156203  1
  O  O11  1  0.78988600  0.78896899  0.53843802  1
  O  O12  1  0.28988600  0.71103099  0.46156201  1
  O  O13  1  0.78988600  0.78896899  0.96156203  1
  O  O14  1  0.42650500  0.98265699  0.75000002  1
  O  O15  1  0.92650500  0.51734300  0.25000001  1
  O  O16  1  0.07349500  0.48265700  0.75000002  1
  O  O17  1  0.71011400  0.28896900  0.53843802  1
  O  O18  1  0.28988600  0.71103099  0.03843800  1
  O  O19  1  0.57349500  0.01734300  0.25000001  1
