# generated using pymatgen
data_YAlFe
_symmetry_space_group_name_H-M   'P 1'
_cell_length_a   5.36789751
_cell_length_b   5.38645077
_cell_length_c   8.52346230
_cell_angle_alpha   90.00000000
_cell_angle_beta   90.00000000
_cell_angle_gamma   119.88497925
_symmetry_Int_Tables_number   1
_chemical_formula_structural   YAlFe
_chemical_formula_sum   'Y4 Al4 Fe4'
_cell_volume   213.67601638
_cell_formula_units_Z   4
loop_
 _symmetry_equiv_pos_site_id
 _symmetry_equiv_pos_as_xyz
  1  'x, y, z'
loop_
 _atom_site_type_symbol
 _atom_site_label
 _atom_site_symmetry_multiplicity
 _atom_site_fract_x
 _atom_site_fract_y
 _atom_site_fract_z
 _atom_site_occupancy
  Y  Y0  1  0.33366996  0.66731098  0.56547198  1
  Y  Y1  1  0.66355198  0.32701299  0.44936098  1
  Y  Y2  1  0.66355198  0.32701299  0.05063900  1
  Y  Y3  1  0.33366996  0.66731098  0.93452797  1
  Al  Al4  1  0.83623196  0.67244398  0.74999997  1
  Al  Al5  1  0.16224196  0.83714998  0.24999999  1
  Al  Al6  1  0.67489695  0.83714498  0.24999999  1
  Al  Al7  1  0.16326098  0.32652399  0.24999999  1
  Fe  Fe8  1  0.00597200  0.01200600  0.51216498  1
  Fe  Fe9  1  0.00597200  0.01200600  0.98783497  1
  Fe  Fe10  1  0.83245799  0.15703700  0.74999997  1
  Fe  Fe11  1  0.32452299  0.15704000  0.74999997  1
