# generated using pymatgen
data_Nd7Ru3
_symmetry_space_group_name_H-M   'P 1'
_cell_length_a   6.34759521
_cell_length_b   10.03391361
_cell_length_c   10.03391361
_cell_angle_alpha   120.00000000
_cell_angle_beta   90.00000000
_cell_angle_gamma   90.00000000
_symmetry_Int_Tables_number   1
_chemical_formula_structural   Nd7Ru3
_chemical_formula_sum   'Nd14 Ru6'
_cell_volume   553.45277714
_cell_formula_units_Z   2
loop_
 _symmetry_equiv_pos_site_id
 _symmetry_equiv_pos_as_xyz
  1  'x, y, z'
loop_
 _atom_site_type_symbol
 _atom_site_label
 _atom_site_symmetry_multiplicity
 _atom_site_fract_x
 _atom_site_fract_y
 _atom_site_fract_z
 _atom_site_occupancy
  Nd  Nd0  1  0.69969898  0.53951201  0.07902399  1
  Nd  Nd1  1  0.69969898  0.92097602  0.46048798  1
  Nd  Nd2  1  0.19969899  0.07902400  0.53951200  1
  Nd  Nd3  1  0.49856898  0.74751402  0.87375698  1
  Nd  Nd4  1  0.19969899  0.46048801  0.53951199  1
  Nd  Nd5  1  0.99856897  0.25248601  0.12624299  1
  Nd  Nd6  1  0.71404598  0.33333334  0.66666666  1
  Nd  Nd7  1  0.99856897  0.87375702  0.74751398  1
  Nd  Nd8  1  0.69969898  0.53951201  0.46048799  1
  Nd  Nd9  1  0.19969899  0.46048801  0.92097599  1
  Nd  Nd10  1  0.49856898  0.12624300  0.25248600  1
  Nd  Nd11  1  0.99856897  0.87375702  0.12624298  1
  Nd  Nd12  1  0.49856898  0.12624300  0.87375700  1
  Nd  Nd13  1  0.21404599  0.66666668  0.33333332  1
  Ru  Ru14  1  0.94971697  0.18735800  0.81264200  1
  Ru  Ru15  1  0.94971697  0.18735800  0.37471600  1
  Ru  Ru16  1  0.44971698  0.37471601  0.18735799  1
  Ru  Ru17  1  0.94971697  0.62528402  0.81264199  1
  Ru  Ru18  1  0.44971698  0.81264202  0.18735798  1
  Ru  Ru19  1  0.44971698  0.81264202  0.62528398  1
