# generated using pymatgen
data_Sr4Cd3Pb
_symmetry_space_group_name_H-M   'P 1'
_cell_length_a   4.72315788
_cell_length_b   5.29093981
_cell_length_c   12.73875427
_cell_angle_alpha   90.00000000
_cell_angle_beta   90.00000000
_cell_angle_gamma   90.00000000
_symmetry_Int_Tables_number   1
_chemical_formula_structural   Sr4Cd3Pb
_chemical_formula_sum   'Sr4 Cd3 Pb1'
_cell_volume   318.34075667
_cell_formula_units_Z   1
loop_
 _symmetry_equiv_pos_site_id
 _symmetry_equiv_pos_as_xyz
  1  'x, y, z'
loop_
 _atom_site_type_symbol
 _atom_site_label
 _atom_site_symmetry_multiplicity
 _atom_site_fract_x
 _atom_site_fract_y
 _atom_site_fract_z
 _atom_site_occupancy
  Sr  Sr0  1  0.00000000  0.00000000  0.36230899  1
  Sr  Sr1  1  0.00000000  0.50000002  0.86316998  1
  Sr  Sr2  1  0.50000001  0.50000002  0.13592500  1
  Sr  Sr3  1  0.50000001  0.00000000  0.63714999  1
  Cd  Cd4  1  0.00000000  0.00000000  0.06912200  1
  Cd  Cd5  1  0.00000000  0.50000002  0.57186999  1
  Cd  Cd6  1  0.50000001  0.50000002  0.42779999  1
  Pb  Pb7  1  0.50000001  0.00000000  0.93265398  1
