# generated using pymatgen
data_Cd3HgCl2O
_symmetry_space_group_name_H-M   'P 1'
_cell_length_a   6.98793507
_cell_length_b   6.98793507
_cell_length_c   6.98793602
_cell_angle_alpha   100.75071716
_cell_angle_beta   100.75071716
_cell_angle_gamma   100.75070953
_symmetry_Int_Tables_number   1
_chemical_formula_structural   Cd3HgCl2O
_chemical_formula_sum   'Cd6 Hg2 Cl4 O2'
_cell_volume   320.57990787
_cell_formula_units_Z   2
loop_
 _symmetry_equiv_pos_site_id
 _symmetry_equiv_pos_as_xyz
  1  'x, y, z'
loop_
 _atom_site_type_symbol
 _atom_site_label
 _atom_site_symmetry_multiplicity
 _atom_site_fract_x
 _atom_site_fract_y
 _atom_site_fract_z
 _atom_site_occupancy
  Cd  Cd0  1  0.74235700  0.08169300  0.52790501  1
  Cd  Cd1  1  0.08169301  0.52790500  0.74235700  1
  Cd  Cd2  1  0.52790501  0.74235700  0.08169304  1
  Cd  Cd3  1  0.24235700  0.02790500  0.58169299  1
  Cd  Cd4  1  0.58169300  0.24235700  0.02790502  1
  Cd  Cd5  1  0.02790501  0.58169300  0.24235701  1
  Hg  Hg6  1  0.00600300  0.00600300  0.00600300  1
  Hg  Hg7  1  0.50600300  0.50600300  0.50600302  1
  Cl  Cl8  1  0.90240200  0.22623600  0.23230303  1
  Cl  Cl9  1  0.22623600  0.23230300  0.90240198  1
  Cl  Cl10  1  0.40240201  0.73230300  0.72623601  1
  Cl  Cl11  1  0.23230301  0.90240200  0.22623603  1
  O  O12  1  0.73230301  0.72623600  0.40240203  1
  O  O13  1  0.72623600  0.40240200  0.73230301  1
