# generated using pymatgen
data_Eu3Ag2P13
_symmetry_space_group_name_H-M   'P 1'
_cell_length_a   4.12302780
_cell_length_b   8.63217926
_cell_length_c   10.05219746
_cell_angle_alpha   107.46601868
_cell_angle_beta   90.00000000
_cell_angle_gamma   103.81674957
_symmetry_Int_Tables_number   1
_chemical_formula_structural   Eu3Ag2P13
_chemical_formula_sum   'Eu3 Ag2 P13'
_cell_volume   330.40168045
_cell_formula_units_Z   1
loop_
 _symmetry_equiv_pos_site_id
 _symmetry_equiv_pos_as_xyz
  1  'x, y, z'
loop_
 _atom_site_type_symbol
 _atom_site_label
 _atom_site_symmetry_multiplicity
 _atom_site_fract_x
 _atom_site_fract_y
 _atom_site_fract_z
 _atom_site_occupancy
  Eu  Eu0  1  0.15443402  0.30886801  0.70051298  1
  Eu  Eu1  1  0.84556607  0.69113201  0.29948700  1
  Eu  Eu2  1  0.00000000  0.00000000  0.00000000  1
  Ag  Ag3  1  0.19915003  0.39830001  0.13126300  1
  Ag  Ag4  1  0.80085006  0.60170001  0.86873697  1
  P  P5  1  0.46066706  0.92133402  0.21323701  1
  P  P6  1  0.53933303  0.07866600  0.78676297  1
  P  P7  1  0.36388705  0.72777401  0.54584699  1
  P  P8  1  0.63611304  0.27222601  0.45415299  1
  P  P9  1  0.04256801  0.08513600  0.33147999  1
  P  P10  1  0.95743208  0.91486402  0.66851999  1
  P  P11  1  0.22105103  0.44210201  0.39033999  1
  P  P12  1  0.77894906  0.55789801  0.60965999  1
  P  P13  1  0.62199204  0.24398400  0.19877600  1
  P  P14  1  0.37800805  0.75601601  0.80122398  1
  P  P15  1  0.50000002  0.00000000  0.49999998  1
  P  P16  1  0.31995104  0.63990201  0.03323801  1
  P  P17  1  0.68004905  0.36009801  0.96676197  1
