# generated using pymatgen
data_VB4Mo3
_symmetry_space_group_name_H-M   'P 1'
_cell_length_a   3.06041908
_cell_length_b   4.48307085
_cell_length_c   6.23628235
_cell_angle_alpha   110.31713104
_cell_angle_beta   90.00000000
_cell_angle_gamma   90.00000000
_symmetry_Int_Tables_number   1
_chemical_formula_structural   VB4Mo3
_chemical_formula_sum   'V1 B4 Mo3'
_cell_volume   80.23902263
_cell_formula_units_Z   1
loop_
 _symmetry_equiv_pos_site_id
 _symmetry_equiv_pos_as_xyz
  1  'x, y, z'
loop_
 _atom_site_type_symbol
 _atom_site_label
 _atom_site_symmetry_multiplicity
 _atom_site_fract_x
 _atom_site_fract_y
 _atom_site_fract_z
 _atom_site_occupancy
  V  V0  1  0.49999999  0.27110401  0.06804101  1
  B  B1  1  0.49999999  0.88416105  0.72545202  1
  B  B2  1  0.49999999  0.88759805  0.21679603  1
  B  B3  1  -0.00000000  0.13011801  0.27162300  1
  B  B4  1  -0.00000000  0.12447801  0.79253698  1
  Mo  Mo5  1  0.49999999  0.29039502  0.57276000  1
  Mo  Mo6  1  0.99999997  0.70401204  0.93101200  1
  Mo  Mo7  1  -0.00000000  0.70813404  0.42177902  1
