# generated using pymatgen
data_Li2FeCo2NiO8
_symmetry_space_group_name_H-M   'P 1'
_cell_length_a   5.69174004
_cell_length_b   5.69174004
_cell_length_c   5.71120548
_cell_angle_alpha   60.11268616
_cell_angle_beta   60.11268616
_cell_angle_gamma   60.00000000
_symmetry_Int_Tables_number   1
_chemical_formula_structural   Li2FeCo2NiO8
_chemical_formula_sum   'Li2 Fe1 Co2 Ni1 O8'
_cell_volume   131.05105341
_cell_formula_units_Z   1
loop_
 _symmetry_equiv_pos_site_id
 _symmetry_equiv_pos_as_xyz
  1  'x, y, z'
loop_
 _atom_site_type_symbol
 _atom_site_label
 _atom_site_symmetry_multiplicity
 _atom_site_fract_x
 _atom_site_fract_y
 _atom_site_fract_z
 _atom_site_occupancy
  Li  Li0  1  0.87616401  0.87616400  0.37150806  1
  Li  Li1  1  0.50183601  0.50183600  0.49449204  1
  Fe  Fe2  1  0.50082801  0.50082800  0.00875502  1
  Co  Co3  1  0.98958901  0.50082800  0.00875504  1
  Co  Co4  1  0.50082801  0.98958900  0.00875503  1
  Ni  Ni5  1  0.11862000  0.11862000  0.64414003  1
  O  O6  1  0.73599601  0.73599600  0.79201207  1
  O  O7  1  0.75475801  0.28547600  0.20500803  1
  O  O8  1  0.28547601  0.75475800  0.20500803  1
  O  O9  1  0.75475801  0.75475800  0.20500804  1
  O  O10  1  0.25391300  0.25391300  0.77608104  1
  O  O11  1  0.71609300  0.25391300  0.77608105  1
  O  O12  1  0.25391301  0.71609300  0.77608105  1
  O  O13  1  0.25722700  0.25722700  0.22831902  1
