# generated using pymatgen
data_Ti2P
_symmetry_space_group_name_H-M   'P 1'
_cell_length_a   3.51260495
_cell_length_b   6.61779404
_cell_length_c   6.61779356
_cell_angle_alpha   120.00000000
_cell_angle_beta   90.00000000
_cell_angle_gamma   90.00000000
_symmetry_Int_Tables_number   1
_chemical_formula_structural   Ti2P
_chemical_formula_sum   'Ti6 P3'
_cell_volume   133.22520676
_cell_formula_units_Z   3
loop_
 _symmetry_equiv_pos_site_id
 _symmetry_equiv_pos_as_xyz
  1  'x, y, z'
loop_
 _atom_site_type_symbol
 _atom_site_label
 _atom_site_symmetry_multiplicity
 _atom_site_fract_x
 _atom_site_fract_y
 _atom_site_fract_z
 _atom_site_occupancy
  Ti  Ti0  1  0.50000001  0.99999996  0.25366793  1
  Ti  Ti1  1  0.50000001  0.74633197  0.74633193  1
  Ti  Ti2  1  0.50000001  0.25366799  -0.00000002  1
  Ti  Ti3  1  1.00000001  0.40926799  0.40926796  1
  Ti  Ti4  1  -0.00000000  0.59073198  -0.00000004  1
  Ti  Ti5  1  -0.00000000  0.99999996  0.59073192  1
  P  P6  1  0.00000000  0.00000000  0.00000000  1
  P  P7  1  0.50000001  0.33333332  0.66666663  1
  P  P8  1  0.50000001  0.66666664  0.33333328  1
