# generated using pymatgen
data_Ce(BIr)4
_symmetry_space_group_name_H-M   'P 1'
_cell_length_a   4.01006317
_cell_length_b   7.62374687
_cell_length_c   7.62374687
_cell_angle_alpha   90.00000000
_cell_angle_beta   90.00000000
_cell_angle_gamma   90.00000000
_symmetry_Int_Tables_number   1
_chemical_formula_structural   Ce(BIr)4
_chemical_formula_sum   'Ce2 B8 Ir8'
_cell_volume   233.07095225
_cell_formula_units_Z   2
loop_
 _symmetry_equiv_pos_site_id
 _symmetry_equiv_pos_as_xyz
  1  'x, y, z'
loop_
 _atom_site_type_symbol
 _atom_site_label
 _atom_site_symmetry_multiplicity
 _atom_site_fract_x
 _atom_site_fract_y
 _atom_site_fract_z
 _atom_site_occupancy
  Ce  Ce0  1  0.24563499  0.00000000  0.50000001  1
  Ce  Ce1  1  0.74563497  0.50000001  -0.00000000  1
  B  B2  1  0.36403598  0.78397701  0.16064800  1
  B  B3  1  0.36403598  0.21602300  0.83935201  1
  B  B4  1  0.86403596  0.83935201  0.78397701  1
  B  B5  1  0.86403596  0.16064800  0.21602300  1
  B  B6  1  0.64079097  0.72164801  0.33791701  1
  B  B7  1  0.64079097  0.27835200  0.66208301  1
  B  B8  1  0.14079099  0.66208301  0.72164801  1
  B  B9  1  0.14079099  0.33791701  0.27835200  1
  Ir  Ir10  1  0.13738299  0.39013401  0.65840801  1
  Ir  Ir11  1  0.13738299  0.60986601  0.34159201  1
  Ir  Ir12  1  0.63738297  0.34159201  0.39013401  1
  Ir  Ir13  1  0.63738297  0.65840801  0.60986601  1
  Ir  Ir14  1  0.85997296  0.10964300  0.85427701  1
  Ir  Ir15  1  0.85997296  0.89035701  0.14572300  1
  Ir  Ir16  1  0.35997298  0.14572300  0.10964300  1
  Ir  Ir17  1  0.35997298  0.85427701  0.89035701  1
