# generated using pymatgen
data_Cs4Se(SO4)3
_symmetry_space_group_name_H-M   'P 1'
_cell_length_a   5.50414705
_cell_length_b   6.05628920
_cell_length_c   12.20107841
_cell_angle_alpha   90.00000000
_cell_angle_beta   90.00000000
_cell_angle_gamma   90.00000000
_symmetry_Int_Tables_number   1
_chemical_formula_structural   Cs4Se(SO4)3
_chemical_formula_sum   'Cs4 Se1 S3 O12'
_cell_volume   406.71936586
_cell_formula_units_Z   1
loop_
 _symmetry_equiv_pos_site_id
 _symmetry_equiv_pos_as_xyz
  1  'x, y, z'
loop_
 _atom_site_type_symbol
 _atom_site_label
 _atom_site_symmetry_multiplicity
 _atom_site_fract_x
 _atom_site_fract_y
 _atom_site_fract_z
 _atom_site_occupancy
  Cs  Cs0  1  0.74999999  0.28766599  0.96707697  1
  Cs  Cs1  1  0.74999999  0.78766597  0.53292298  1
  Cs  Cs2  1  0.25000000  0.71233398  0.03292300  1
  Cs  Cs3  1  0.25000000  0.21233399  0.46707698  1
  O  O4  1  0.74999999  0.89017497  0.17585999  1
  Se  Se5  1  0.74999999  0.39017499  0.32413999  1
  S  S6  1  0.25000000  0.10982500  0.82413997  1
  S  S7  1  0.25000000  0.60982498  0.67585998  1
  O  O8  1  0.74999999  0.26780399  0.67846398  1
  O  O9  1  0.74999999  0.76780398  0.82153597  1
  O  O10  1  0.25000000  0.73219598  0.32153599  1
  S  S11  1  0.25000000  0.23219599  0.17846399  1
  O  O12  1  0.74999999  0.27070399  0.54470398  1
  O  O13  1  0.74999999  0.77070398  0.95529597  1
  O  O14  1  0.25000000  0.72929598  0.45529598  1
  O  O15  1  0.25000000  0.22929599  0.04470400  1
  O  O16  1  0.74999999  0.51640598  0.75107297  1
  O  O17  1  0.74999999  0.01640600  0.74892697  1
  O  O18  1  0.25000000  0.48359398  0.24892699  1
  O  O19  1  0.25000000  0.98359397  0.25107299  1
