# generated using pymatgen
data_Mg2Zn
_symmetry_space_group_name_H-M   'P 1'
_cell_length_a   3.22311592
_cell_length_b   5.82796383
_cell_length_c   6.80903482
_cell_angle_alpha   104.24675751
_cell_angle_beta   90.00000000
_cell_angle_gamma   106.05271149
_symmetry_Int_Tables_number   1
_chemical_formula_structural   Mg2Zn
_chemical_formula_sum   'Mg4 Zn2'
_cell_volume   118.81643615
_cell_formula_units_Z   2
loop_
 _symmetry_equiv_pos_site_id
 _symmetry_equiv_pos_as_xyz
  1  'x, y, z'
loop_
 _atom_site_type_symbol
 _atom_site_label
 _atom_site_symmetry_multiplicity
 _atom_site_fract_x
 _atom_site_fract_y
 _atom_site_fract_z
 _atom_site_occupancy
  Mg  Mg0  1  0.00764600  0.01529200  0.02384200  1
  Mg  Mg1  1  0.05079799  0.10159600  0.59106001  1
  Mg  Mg2  1  0.32949096  0.65898199  0.66580202  1
  Mg  Mg3  1  0.37903796  0.75807598  0.27183201  1
  Zn  Zn4  1  0.67370199  0.34740399  0.33107001  1
  Zn  Zn5  1  0.72599199  0.45198399  0.94972702  1
