# generated using pymatgen
data_Sr2LaNd(CuO2)4
_symmetry_space_group_name_H-M   'P 1'
_cell_length_a   3.86580491
_cell_length_b   3.90250611
_cell_length_c   16.03698730
_cell_angle_alpha   88.98069000
_cell_angle_beta   89.44168091
_cell_angle_gamma   89.50931549
_symmetry_Int_Tables_number   1
_chemical_formula_structural   Sr2LaNd(CuO2)4
_chemical_formula_sum   'Sr2 La1 Nd1 Cu4 O8'
_cell_volume   241.88095075
_cell_formula_units_Z   1
loop_
 _symmetry_equiv_pos_site_id
 _symmetry_equiv_pos_as_xyz
  1  'x, y, z'
loop_
 _atom_site_type_symbol
 _atom_site_label
 _atom_site_symmetry_multiplicity
 _atom_site_fract_x
 _atom_site_fract_y
 _atom_site_fract_z
 _atom_site_occupancy
  Sr  Sr0  1  0.00213000  0.00783700  0.77593902  1
  Sr  Sr1  1  0.99787005  0.99216300  0.22406100  1
  La  La2  1  0.00000000  0.00000000  0.00000000  1
  Nd  Nd3  1  0.50041503  0.50125400  0.88948102  1
  Cu  Cu4  1  0.49958503  0.49874600  0.11051900  1
  Cu  Cu5  1  0.00000000  0.00000000  0.50000001  1
  Cu  Cu6  1  0.50502303  0.49606600  0.61056301  1
  Cu  Cu7  1  0.49497703  0.50393400  0.38943701  1
  O  O8  1  0.99970304  0.50325200  0.90171202  1
  O  O9  1  0.49915501  0.00014200  0.90122102  1
  O  O10  1  0.00029701  0.49674800  0.09828800  1
  O  O11  1  0.50084504  0.99985800  0.09877900  1
  O  O12  1  0.50161403  0.51026800  0.74652402  1
  O  O13  1  0.49838603  0.48973200  0.25347600  1
  O  O14  1  0.02901900  0.09721800  0.61249301  1
  O  O15  1  0.97098105  0.90278200  0.38750701  1
