# generated using pymatgen
data_ErGaCu
_symmetry_space_group_name_H-M   'P 1'
_cell_length_a   4.32496405
_cell_length_b   5.51494503
_cell_length_c   5.61346912
_cell_angle_alpha   78.27076721
_cell_angle_beta   67.34191895
_cell_angle_gamma   66.91395569
_symmetry_Int_Tables_number   1
_chemical_formula_structural   ErGaCu
_chemical_formula_sum   'Er2 Ga2 Cu2'
_cell_volume   113.44807747
_cell_formula_units_Z   2
loop_
 _symmetry_equiv_pos_site_id
 _symmetry_equiv_pos_as_xyz
  1  'x, y, z'
loop_
 _atom_site_type_symbol
 _atom_site_label
 _atom_site_symmetry_multiplicity
 _atom_site_fract_x
 _atom_site_fract_y
 _atom_site_fract_z
 _atom_site_occupancy
  Er  Er0  1  0.45661102  0.79121002  0.29556795  1
  Er  Er1  1  0.54754801  0.20315401  0.70174998  1
  Ga  Ga2  1  0.14892001  0.39152701  0.31063298  1
  Ga  Ga3  1  0.17562102  0.76874102  0.88001698  1
  Cu  Cu4  1  0.83734402  0.23070001  0.09461195  1
  Cu  Cu5  1  0.83395602  0.61466802  0.71741995  1
