# generated using pymatgen
data_Y(BiC)2
_symmetry_space_group_name_H-M   'P 1'
_cell_length_a   3.66473198
_cell_length_b   6.84284782
_cell_length_c   9.49903488
_cell_angle_alpha   105.22628021
_cell_angle_beta   90.00000000
_cell_angle_gamma   105.53210449
_symmetry_Int_Tables_number   1
_chemical_formula_structural   Y(BiC)2
_chemical_formula_sum   'Y2 Bi4 C4'
_cell_volume   220.81871332
_cell_formula_units_Z   2
loop_
 _symmetry_equiv_pos_site_id
 _symmetry_equiv_pos_as_xyz
  1  'x, y, z'
loop_
 _atom_site_type_symbol
 _atom_site_label
 _atom_site_symmetry_multiplicity
 _atom_site_fract_x
 _atom_site_fract_y
 _atom_site_fract_z
 _atom_site_occupancy
  Y  Y0  1  0.86865103  0.73730203  0.00234804  1
  Y  Y1  1  0.13134901  0.26269801  0.99765203  1
  Bi  Bi2  1  0.59677001  0.19354001  0.67324302  1
  Bi  Bi3  1  0.40323003  0.80646003  0.32675705  1
  Bi  Bi4  1  0.85589303  0.71178603  0.63206305  1
  Bi  Bi5  1  0.14410701  0.28821401  0.36793702  1
  C  C6  1  0.46485303  0.92970604  0.85622106  1
  C  C7  1  0.53514701  0.07029400  0.14377901  1
  C  C8  1  0.25626102  0.51252202  0.77303204  1
  C  C9  1  0.74373902  0.48747802  0.22696803  1
