# generated using pymatgen
data_Y2Mo2C3
_symmetry_space_group_name_H-M   'P 1'
_cell_length_a   3.28447604
_cell_length_b   5.69786501
_cell_length_c   6.21271276
_cell_angle_alpha   112.50074005
_cell_angle_beta   105.32744598
_cell_angle_gamma   90.00000000
_symmetry_Int_Tables_number   1
_chemical_formula_structural   Y2Mo2C3
_chemical_formula_sum   'Y2 Mo2 C3'
_cell_volume   102.92632851
_cell_formula_units_Z   1
loop_
 _symmetry_equiv_pos_site_id
 _symmetry_equiv_pos_as_xyz
  1  'x, y, z'
loop_
 _atom_site_type_symbol
 _atom_site_label
 _atom_site_symmetry_multiplicity
 _atom_site_fract_x
 _atom_site_fract_y
 _atom_site_fract_z
 _atom_site_occupancy
  Y  Y0  1  0.39435699  0.19091900  0.78871398  1
  Y  Y1  1  0.60564298  0.80908102  0.21128600  1
  Mo  Mo2  1  0.15629699  0.32678801  0.31259400  1
  Mo  Mo3  1  0.84370297  0.67321202  0.68740598  1
  C  C4  1  0.25074199  0.74403902  0.50148400  1
  C  C5  1  0.74925798  0.25596101  0.49851598  1
  C  C6  1  0.00000000  0.00000000  0.00000000  1
