# generated using pymatgen
data_SmNbO4
_symmetry_space_group_name_H-M   'P 1'
_cell_length_a   5.21643734
_cell_length_b   5.43876505
_cell_length_c   6.74908733
_cell_angle_alpha   112.26324463
_cell_angle_beta   111.18411255
_cell_angle_gamma   93.56993866
_symmetry_Int_Tables_number   1
_chemical_formula_structural   SmNbO4
_chemical_formula_sum   'Sm2 Nb2 O8'
_cell_volume   160.76769305
_cell_formula_units_Z   2
loop_
 _symmetry_equiv_pos_site_id
 _symmetry_equiv_pos_as_xyz
  1  'x, y, z'
loop_
 _atom_site_type_symbol
 _atom_site_label
 _atom_site_symmetry_multiplicity
 _atom_site_fract_x
 _atom_site_fract_y
 _atom_site_fract_z
 _atom_site_occupancy
  Sm  Sm0  1  0.62203094  0.37203097  0.74406193  1
  Sm  Sm1  1  0.37796894  0.62796895  0.25593794  1
  Nb  Nb2  1  0.14132594  0.89132593  0.78265191  1
  Nb  Nb3  1  0.85867395  0.10867399  0.21734796  1
  O  O4  1  0.02112699  0.21398198  0.93345996  1
  O  O5  1  0.41233294  0.71947795  0.93345991  1
  O  O6  1  0.97887290  0.78601794  0.06653991  1
  O  O7  1  0.58766695  0.28052198  0.06653996  1
  O  O8  1  0.79405392  0.63530395  0.58290191  1
  O  O9  1  0.28884793  0.94759793  0.58290191  1
  O  O10  1  0.20594597  0.36469597  0.41709796  1
  O  O11  1  0.71115196  0.05240200  0.41709796  1
