# generated using pymatgen
data_K2UF6
_symmetry_space_group_name_H-M   'P 1'
_cell_length_a   4.15258789
_cell_length_b   6.18808985
_cell_length_c   7.27186871
_cell_angle_alpha   115.18113708
_cell_angle_beta   106.59017944
_cell_angle_gamma   90.00000000
_symmetry_Int_Tables_number   1
_chemical_formula_structural   K2UF6
_chemical_formula_sum   'K2 U1 F6'
_cell_volume   160.46683375
_cell_formula_units_Z   1
loop_
 _symmetry_equiv_pos_site_id
 _symmetry_equiv_pos_as_xyz
  1  'x, y, z'
loop_
 _atom_site_type_symbol
 _atom_site_label
 _atom_site_symmetry_multiplicity
 _atom_site_fract_x
 _atom_site_fract_y
 _atom_site_fract_z
 _atom_site_occupancy
  K  K0  1  0.33250700  0.33250700  0.66501400  1
  K  K1  1  0.66749299  0.66749301  0.33498598  1
  U  U2  1  0.00000000  0.00000000  0.00000000  1
  F  F3  1  0.13844299  0.36371500  0.27688499  1
  F  F4  1  0.49999999  0.80243401  -0.00000003  1
  F  F5  1  0.86155802  0.08683000  0.72311601  1
  F  F6  1  0.13844198  0.91317001  0.27688398  1
  F  F7  1  0.50000000  0.19756600  -0.00000001  1
  F  F8  1  0.86155700  0.63628501  0.72311499  1
