# generated using pymatgen
data_RbMnBr3
_symmetry_space_group_name_H-M   'P 1'
_cell_length_a   6.17324209
_cell_length_b   7.39508820
_cell_length_c   7.39508867
_cell_angle_alpha   60.00000381
_cell_angle_beta   90.00000000
_cell_angle_gamma   90.00000000
_symmetry_Int_Tables_number   1
_chemical_formula_structural   RbMnBr3
_chemical_formula_sum   'Rb2 Mn2 Br6'
_cell_volume   292.36858166
_cell_formula_units_Z   2
loop_
 _symmetry_equiv_pos_site_id
 _symmetry_equiv_pos_as_xyz
  1  'x, y, z'
loop_
 _atom_site_type_symbol
 _atom_site_label
 _atom_site_symmetry_multiplicity
 _atom_site_fract_x
 _atom_site_fract_y
 _atom_site_fract_z
 _atom_site_occupancy
  Rb  Rb0  1  0.74999999  0.66666665  0.66666668  1
  Rb  Rb1  1  0.25000000  0.33333332  0.33333334  1
  Mn  Mn2  1  0.00000000  0.00000000  0.00000000  1
  Mn  Mn3  1  0.49999999  0.00000000  -0.00000000  1
  Br  Br4  1  0.74999999  0.15443600  0.69112801  1
  Br  Br5  1  0.74999999  0.15443600  0.15443600  1
  Br  Br6  1  0.74999999  0.69112798  0.15443601  1
  Br  Br7  1  0.25000000  0.30887199  0.84556402  1
  Br  Br8  1  0.25000000  0.84556398  0.84556402  1
  Br  Br9  1  0.25000000  0.84556398  0.30887201  1
