# generated using pymatgen
data_Sr3LaTi3ZnO12
_symmetry_space_group_name_H-M   'P 1'
_cell_length_a   6.74585819
_cell_length_b   6.74585819
_cell_length_c   6.74585819
_cell_angle_alpha   109.47122192
_cell_angle_beta   109.47122192
_cell_angle_gamma   109.47122192
_symmetry_Int_Tables_number   1
_chemical_formula_structural   Sr3LaTi3ZnO12
_chemical_formula_sum   'Sr3 La1 Ti3 Zn1 O12'
_cell_volume   236.31414120
_cell_formula_units_Z   1
loop_
 _symmetry_equiv_pos_site_id
 _symmetry_equiv_pos_as_xyz
  1  'x, y, z'
loop_
 _atom_site_type_symbol
 _atom_site_label
 _atom_site_symmetry_multiplicity
 _atom_site_fract_x
 _atom_site_fract_y
 _atom_site_fract_z
 _atom_site_occupancy
  Sr  Sr0  1  0.00000003  0.50000001  0.50000002  1
  Sr  Sr1  1  0.50000003  0.50000001  0.00000004  1
  Sr  Sr2  1  0.50000000  0.00000000  0.50000001  1
  La  La3  1  0.00000000  0.00000000  0.00000000  1
  Ti  Ti4  1  0.00000003  0.50000001  0.00000003  1
  Ti  Ti5  1  0.50000000  0.00000000  0.00000001  1
  Ti  Ti6  1  0.50000003  0.50000001  0.50000003  1
  Zn  Zn7  1  1.00000006  1.00000003  0.50000007  1
  O  O8  1  0.24553703  0.49107401  0.24553703  1
  O  O9  1  0.75446306  1.00000003  0.24553707  1
  O  O10  1  0.75446303  0.50892601  0.75446304  1
  O  O11  1  0.24553700  0.00000000  0.75446300  1
  O  O12  1  1.00000001  0.24553701  0.75446303  1
  O  O13  1  0.50892605  0.75446302  0.75446305  1
  O  O14  1  0.49107401  0.24553701  0.24553702  1
  O  O15  1  0.00000005  0.75446302  0.24553704  1
  O  O16  1  0.24553705  0.75446302  0.00000005  1
  O  O17  1  0.75446301  0.24553701  0.00000003  1
  O  O18  1  0.75446305  0.75446302  0.50892605  1
  O  O19  1  0.24553701  0.24553701  0.49107401  1
