# generated using pymatgen
data_BeSF
_symmetry_space_group_name_H-M   'P 1'
_cell_length_a   5.11086798
_cell_length_b   5.11086845
_cell_length_c   8.62666416
_cell_angle_alpha   90.00000000
_cell_angle_beta   90.00000000
_cell_angle_gamma   120.00000000
_symmetry_Int_Tables_number   1
_chemical_formula_structural   BeSF
_chemical_formula_sum   'Be4 S4 F4'
_cell_volume   195.14745345
_cell_formula_units_Z   4
loop_
 _symmetry_equiv_pos_site_id
 _symmetry_equiv_pos_as_xyz
  1  'x, y, z'
loop_
 _atom_site_type_symbol
 _atom_site_label
 _atom_site_symmetry_multiplicity
 _atom_site_fract_x
 _atom_site_fract_y
 _atom_site_fract_z
 _atom_site_occupancy
  Be  Be0  1  0.33333337  0.66666668  0.06280500  1
  Be  Be1  1  0.33333337  0.66666668  0.43719499  1
  Be  Be2  1  0.66666669  0.33333334  0.93719498  1
  Be  Be3  1  0.66666669  0.33333334  0.56280499  1
  F  F4  1  1.00000003  0.42063601  -0.00000000  1
  S  S5  1  0.57936406  1.00000002  0.49999999  1
  F  F6  1  0.42063602  0.42063601  0.49999999  1
  S  S7  1  0.42063600  0.00000000  0.99999998  1
  F  F8  1  0.00000003  0.57936401  0.49999999  1
  S  S9  1  0.33333337  0.66666668  0.25000000  1
  F  F10  1  0.66666669  0.33333334  0.74999999  1
  S  S11  1  0.57936403  0.57936401  0.99999998  1
