# generated using pymatgen
data_In11Co7
_symmetry_space_group_name_H-M   'P 1'
_cell_length_a   5.86114216
_cell_length_b   7.13660145
_cell_length_c   8.34013081
_cell_angle_alpha   106.85655975
_cell_angle_beta   90.00000000
_cell_angle_gamma   114.24501801
_symmetry_Int_Tables_number   1
_chemical_formula_structural   In11Co7
_chemical_formula_sum   'In11 Co7'
_cell_volume   301.57182174
_cell_formula_units_Z   1
loop_
 _symmetry_equiv_pos_site_id
 _symmetry_equiv_pos_as_xyz
  1  'x, y, z'
loop_
 _atom_site_type_symbol
 _atom_site_label
 _atom_site_symmetry_multiplicity
 _atom_site_fract_x
 _atom_site_fract_y
 _atom_site_fract_z
 _atom_site_occupancy
  In  In0  1  0.41519998  0.33476699  0.08678201  1
  In  In1  1  0.41287998  0.32973399  0.57795101  1
  In  In2  1  0.08043299  0.66523299  0.41321802  1
  In  In3  1  0.08314599  0.67026599  0.92204902  1
  In  In4  1  0.91685397  0.32973399  0.07795101  1
  In  In5  1  0.74570598  0.00000000  0.75000000  1
  In  In6  1  0.91956697  0.33476699  0.58678201  1
  In  In7  1  0.58711997  0.67026599  0.42204902  1
  In  In8  1  0.25429399  0.00000000  0.25000000  1
  In  In9  1  0.58479997  0.66523299  0.91321802  1
  Co  Co10  1  0.76689798  0.00000000  0.25000000  1
  In  In11  1  0.23310199  0.00000000  0.75000000  1
  Co  Co12  1  0.86135697  0.68244699  0.67345502  1
  Co  Co13  1  0.13864299  0.31755299  0.32654501  1
  Co  Co14  1  0.82108997  0.68244699  0.17345502  1
  Co  Co15  1  0.49999999  0.00000000  0.00000000  1
  Co  Co16  1  0.17890999  0.31755299  0.82654501  1
  Co  Co17  1  0.49999999  0.00000000  0.50000000  1
