# generated using pymatgen
data_Dy3Mg
_symmetry_space_group_name_H-M   'P 1'
_cell_length_a   5.81642008
_cell_length_b   6.81650400
_cell_length_c   6.81650448
_cell_angle_alpha   60.00000000
_cell_angle_beta   90.00000000
_cell_angle_gamma   90.00000000
_symmetry_Int_Tables_number   1
_chemical_formula_structural   Dy3Mg
_chemical_formula_sum   'Dy6 Mg2'
_cell_volume   234.05063030
_cell_formula_units_Z   2
loop_
 _symmetry_equiv_pos_site_id
 _symmetry_equiv_pos_as_xyz
  1  'x, y, z'
loop_
 _atom_site_type_symbol
 _atom_site_label
 _atom_site_symmetry_multiplicity
 _atom_site_fract_x
 _atom_site_fract_y
 _atom_site_fract_z
 _atom_site_occupancy
  Dy  Dy0  1  0.25000000  0.33333334  0.33333332  1
  Dy  Dy1  1  0.74999999  0.66666668  0.66666663  1
  Dy  Dy2  1  0.74999999  0.66012801  0.16993598  1
  Dy  Dy3  1  0.74999999  0.16993600  0.16993599  1
  Dy  Dy4  1  0.74999999  0.16993600  0.66012798  1
  Dy  Dy5  1  0.25000000  0.33987201  0.83006397  1
  Mg  Mg6  1  0.25000000  0.83006401  0.83006395  1
  Mg  Mg7  1  0.25000000  0.83006401  0.33987197  1
