# generated using pymatgen
data_NiSbO3
_symmetry_space_group_name_H-M   'P 1'
_cell_length_a   5.09394789
_cell_length_b   5.09395218
_cell_length_c   5.51963568
_cell_angle_alpha   90.00018311
_cell_angle_beta   62.51963043
_cell_angle_gamma   60.00010681
_symmetry_Int_Tables_number   1
_chemical_formula_structural   NiSbO3
_chemical_formula_sum   'Ni2 Sb2 O6'
_cell_volume   104.96265192
_cell_formula_units_Z   2
loop_
 _symmetry_equiv_pos_site_id
 _symmetry_equiv_pos_as_xyz
  1  'x, y, z'
loop_
 _atom_site_type_symbol
 _atom_site_label
 _atom_site_symmetry_multiplicity
 _atom_site_fract_x
 _atom_site_fract_y
 _atom_site_fract_z
 _atom_site_occupancy
  Ni  Ni0  1  0.29907503  0.35046397  0.05137198  1
  Ni  Ni1  1  0.29908208  0.85045793  0.55136792  1
  Sb  Sb2  1  0.69644901  0.15177799  0.45533700  1
  Sb  Sb3  1  0.69644505  0.65177495  0.95534395  1
  O  O4  1  0.50619705  0.55129996  0.74775796  1
  O  O5  1  0.80352508  0.94249992  0.74776193  1
  O  O6  1  0.19475202  0.25395398  0.74776698  1
  O  O7  1  0.19474900  0.05129400  0.24776900  1
  O  O8  1  0.80352506  0.75397794  0.24776295  1
  O  O9  1  0.50620004  0.44249796  0.24775797  1
