# generated using pymatgen
data_Ce(HO)3
_symmetry_space_group_name_H-M   'P 1'
_cell_length_a   3.77059102
_cell_length_b   6.56126690
_cell_length_c   6.59709263
_cell_angle_alpha   119.21083069
_cell_angle_beta   90.00000000
_cell_angle_gamma   90.00000000
_symmetry_Int_Tables_number   1
_chemical_formula_structural   Ce(HO)3
_chemical_formula_sum   'Ce2 H6 O6'
_cell_volume   142.45552615
_cell_formula_units_Z   2
loop_
 _symmetry_equiv_pos_site_id
 _symmetry_equiv_pos_as_xyz
  1  'x, y, z'
loop_
 _atom_site_type_symbol
 _atom_site_label
 _atom_site_symmetry_multiplicity
 _atom_site_fract_x
 _atom_site_fract_y
 _atom_site_fract_z
 _atom_site_occupancy
  Ce  Ce0  1  -0.00000000  0.33454300  0.66469396  1
  Ce  Ce1  1  0.50000000  0.66046300  0.32405596  1
  H  H2  1  -0.00000000  0.85973300  0.14110196  1
  H  H3  1  -0.00000000  0.85862000  0.68821894  1
  H  H4  1  -0.00000000  0.28190000  0.14000698  1
  H  H5  1  0.50000000  0.13593000  0.85372697  1
  H  H6  1  0.50000000  0.14114100  0.28553698  1
  H  H7  1  0.50000000  0.71963000  0.85754194  1
  O  O8  1  -0.00000000  0.91137499  0.30700195  1
  O  O9  1  0.99999999  0.68982300  0.59240195  1
  O  O10  1  -0.00000000  0.39221100  0.08168198  1
  O  O11  1  0.50000000  0.08783900  0.68860397  1
  O  O12  1  0.50000000  0.30785500  0.39405797  1
  O  O13  1  0.50000000  0.60334000  0.90841994  1
