# generated using pymatgen
data_Y2S3
_symmetry_space_group_name_H-M   'P 1'
_cell_length_a   4.03947210
_cell_length_b   7.45547390
_cell_length_c   15.45685863
_cell_angle_alpha   90.00000000
_cell_angle_beta   90.00000000
_cell_angle_gamma   90.00000000
_symmetry_Int_Tables_number   1
_chemical_formula_structural   Y2S3
_chemical_formula_sum   'Y8 S12'
_cell_volume   465.50151886
_cell_formula_units_Z   4
loop_
 _symmetry_equiv_pos_site_id
 _symmetry_equiv_pos_as_xyz
  1  'x, y, z'
loop_
 _atom_site_type_symbol
 _atom_site_label
 _atom_site_symmetry_multiplicity
 _atom_site_fract_x
 _atom_site_fract_y
 _atom_site_fract_z
 _atom_site_occupancy
  Y  Y0  1  0.24999999  0.25934700  0.04281300  1
  Y  Y1  1  0.74999998  0.74065301  0.95718702  1
  Y  Y2  1  0.24999999  0.75934701  0.45718701  1
  Y  Y3  1  0.74999998  0.24065300  0.54281301  1
  Y  Y4  1  0.24999999  0.13721800  0.79330002  1
  Y  Y5  1  0.74999998  0.86278201  0.20670000  1
  Y  Y6  1  0.24999999  0.63721801  0.70670002  1
  Y  Y7  1  0.74999998  0.36278200  0.29330001  1
  S  S8  1  0.24999999  0.14742300  0.22018601  1
  S  S9  1  0.74999998  0.85257701  0.77981402  1
  S  S10  1  0.24999999  0.64742301  0.27981401  1
  S  S11  1  0.74999998  0.35257700  0.72018602  1
  S  S12  1  0.24999999  0.37043200  0.43153501  1
  S  S13  1  0.74999998  0.62956801  0.56846501  1
  S  S14  1  0.24999999  0.87043201  0.06846500  1
  S  S15  1  0.74999998  0.12956800  0.93153502  1
  S  S16  1  0.74999998  0.48889701  0.10750600  1
  S  S17  1  0.24999999  0.51110301  0.89249402  1
  S  S18  1  0.74999998  0.98889701  0.39249401  1
  S  S19  1  0.24999999  0.01110300  0.60750601  1
