# generated using pymatgen
data_Ce2Al2Ge3
_symmetry_space_group_name_H-M   'P 1'
_cell_length_a   4.31522703
_cell_length_b   4.31522703
_cell_length_c   10.07007504
_cell_angle_alpha   90.00000000
_cell_angle_beta   90.00000000
_cell_angle_gamma   90.00000000
_symmetry_Int_Tables_number   1
_chemical_formula_structural   Ce2Al2Ge3
_chemical_formula_sum   'Ce2 Al2 Ge3'
_cell_volume   187.51672350
_cell_formula_units_Z   1
loop_
 _symmetry_equiv_pos_site_id
 _symmetry_equiv_pos_as_xyz
  1  'x, y, z'
loop_
 _atom_site_type_symbol
 _atom_site_label
 _atom_site_symmetry_multiplicity
 _atom_site_fract_x
 _atom_site_fract_y
 _atom_site_fract_z
 _atom_site_occupancy
  Ce  Ce0  1  0.50000000  0.00000000  0.75582500  1
  Ce  Ce1  1  0.00000000  0.50000000  0.24417500  1
  Al  Al2  1  0.50000000  0.50000000  0.50000000  1
  Al  Al3  1  0.50000000  0.00000000  0.33946400  1
  Ge  Ge4  1  0.00000000  0.50000000  0.66053600  1
  Ge  Ge5  1  0.50000000  0.50000000  0.00000000  1
  Ge  Ge6  1  0.00000000  0.00000000  0.00000000  1
