# generated using pymatgen
data_Nb3Pd5
_symmetry_space_group_name_H-M   'P 1'
_cell_length_a   5.15808439
_cell_length_b   5.15808439
_cell_length_c   5.15808439
_cell_angle_alpha   90.01725006
_cell_angle_beta   89.98274994
_cell_angle_gamma   89.98273468
_symmetry_Int_Tables_number   1
_chemical_formula_structural   Nb3Pd5
_chemical_formula_sum   'Nb3 Pd5'
_cell_volume   137.23512153
_cell_formula_units_Z   1
loop_
 _symmetry_equiv_pos_site_id
 _symmetry_equiv_pos_as_xyz
  1  'x, y, z'
loop_
 _atom_site_type_symbol
 _atom_site_label
 _atom_site_symmetry_multiplicity
 _atom_site_fract_x
 _atom_site_fract_y
 _atom_site_fract_z
 _atom_site_occupancy
  Nb  Nb0  1  0.00145900  0.25427001  0.50229599  1
  Nb  Nb1  1  0.49770399  0.99854102  0.25426997  1
  Nb  Nb2  1  0.74573001  0.50229601  0.99854103  1
  Pd  Pd3  1  0.49881300  0.50118701  0.50118701  1
  Pd  Pd4  1  0.00138998  0.99861002  0.99860995  1
  Pd  Pd5  1  0.00033099  0.74598202  0.49944496  1
  Pd  Pd6  1  0.50055499  0.99966902  0.74598198  1
  Pd  Pd7  1  0.25401800  0.49944501  0.99966900  1
