# generated using pymatgen
data_CaBiO3
_symmetry_space_group_name_H-M   'P 1'
_cell_length_a   5.76238918
_cell_length_b   7.69950485
_cell_length_c   7.97430992
_cell_angle_alpha   112.91127777
_cell_angle_beta   90.00000000
_cell_angle_gamma   90.00000000
_symmetry_Int_Tables_number   1
_chemical_formula_structural   CaBiO3
_chemical_formula_sum   'Ca4 Bi4 O12'
_cell_volume   325.88879095
_cell_formula_units_Z   4
loop_
 _symmetry_equiv_pos_site_id
 _symmetry_equiv_pos_as_xyz
  1  'x, y, z'
loop_
 _atom_site_type_symbol
 _atom_site_label
 _atom_site_symmetry_multiplicity
 _atom_site_fract_x
 _atom_site_fract_y
 _atom_site_fract_z
 _atom_site_occupancy
  Ca  Ca0  1  0.24553699  0.91232801  0.88362299  1
  Ca  Ca1  1  0.74553698  0.08767200  0.61637700  1
  Ca  Ca2  1  0.75446298  0.08767200  0.11637700  1
  Ca  Ca3  1  0.25446299  0.91232801  0.38362298  1
  Bi  Bi4  1  0.25567999  0.38752900  0.84981700  1
  Bi  Bi5  1  0.75567998  0.61247101  0.65018299  1
  Bi  Bi6  1  0.74431998  0.61247101  0.15018299  1
  Bi  Bi7  1  0.24431999  0.38752900  0.34981699  1
  O  O8  1  0.36964299  0.63055801  0.73568399  1
  O  O9  1  0.86964297  0.36944200  0.76431600  1
  O  O10  1  0.63035698  0.36944200  0.26431599  1
  O  O11  1  0.13035700  0.63055801  0.23568399  1
  O  O12  1  0.09109700  0.19090500  0.05122900  1
  O  O13  1  0.59109698  0.80909501  0.44877099  1
  O  O14  1  0.90890297  0.80909501  0.94877099  1
  O  O15  1  0.40890299  0.19090500  0.55122900  1
  O  O16  1  0.56687698  0.06716400  0.86031101  1
  O  O17  1  0.06687700  0.93283601  0.63968899  1
  O  O18  1  0.43312299  0.93283601  0.13968898  1
  O  O19  1  0.93312297  0.06716400  0.36031100  1
