# generated using pymatgen
data_CoSbS
_symmetry_space_group_name_H-M   'P 1'
_cell_length_a   3.64425898
_cell_length_b   4.85481024
_cell_length_c   5.84145594
_cell_angle_alpha   90.00000000
_cell_angle_beta   90.00000000
_cell_angle_gamma   90.00000000
_symmetry_Int_Tables_number   1
_chemical_formula_structural   CoSbS
_chemical_formula_sum   'Co2 Sb2 S2'
_cell_volume   103.34812369
_cell_formula_units_Z   2
loop_
 _symmetry_equiv_pos_site_id
 _symmetry_equiv_pos_as_xyz
  1  'x, y, z'
loop_
 _atom_site_type_symbol
 _atom_site_label
 _atom_site_symmetry_multiplicity
 _atom_site_fract_x
 _atom_site_fract_y
 _atom_site_fract_z
 _atom_site_occupancy
  Co  Co0  1  0.00000000  0.28319299  0.99911901  1
  Co  Co1  1  0.50000000  0.71680696  0.49911901  1
  Sb  Sb2  1  -0.00000000  0.03501200  0.37199200  1
  Sb  Sb3  1  0.50000000  0.96498795  0.87199201  1
  S  S4  1  0.50000000  0.54073597  0.13658900  1
  S  S5  1  -0.00000000  0.45926398  0.63658901  1
