# generated using pymatgen
data_Cs2B2P2CN7
_symmetry_space_group_name_H-M   'P 1'
_cell_length_a   6.87983656
_cell_length_b   6.87983656
_cell_length_c   6.87983656
_cell_angle_alpha   60.00000000
_cell_angle_beta   60.00000000
_cell_angle_gamma   60.00000000
_symmetry_Int_Tables_number   1
_chemical_formula_structural   Cs2B2P2CN7
_chemical_formula_sum   'Cs2 B2 P2 C1 N7'
_cell_volume   230.26045861
_cell_formula_units_Z   1
loop_
 _symmetry_equiv_pos_site_id
 _symmetry_equiv_pos_as_xyz
  1  'x, y, z'
loop_
 _atom_site_type_symbol
 _atom_site_label
 _atom_site_symmetry_multiplicity
 _atom_site_fract_x
 _atom_site_fract_y
 _atom_site_fract_z
 _atom_site_occupancy
  Cs  Cs0  1  0.74999999  0.74999999  0.74999999  1
  Cs  Cs1  1  0.25000000  0.25000000  0.25000000  1
  B  B2  1  0.87426098  0.12573900  0.12573900  1
  C  C3  1  0.87426098  0.87426098  0.12573900  1
  N  N4  1  0.87426098  0.12573900  0.87426098  1
  N  N5  1  0.12573900  0.12573900  0.87426098  1
  P  P6  1  0.12573900  0.87426098  0.87426098  1
  N  N7  1  0.12573900  0.87426098  0.12573900  1
  N  N8  1  0.74991499  0.74991499  0.25008500  1
  P  P9  1  0.74991499  0.25008500  0.25008500  1
  B  B10  1  0.74991499  0.25008500  0.74991499  1
  N  N11  1  0.25008500  0.25008500  0.74991499  1
  N  N12  1  0.25008500  0.74991499  0.74991499  1
  N  N13  1  0.25008500  0.74991499  0.25008500  1
