# generated using pymatgen
data_Rb2Co2NiS4
_symmetry_space_group_name_H-M   'P 1'
_cell_length_a   5.88206720
_cell_length_b   5.88206720
_cell_length_c   7.93044519
_cell_angle_alpha   101.03074646
_cell_angle_beta   101.03074646
_cell_angle_gamma   118.95133209
_symmetry_Int_Tables_number   1
_chemical_formula_structural   Rb2Co2NiS4
_chemical_formula_sum   'Rb2 Co2 Ni1 S4'
_cell_volume   222.40585173
_cell_formula_units_Z   1
loop_
 _symmetry_equiv_pos_site_id
 _symmetry_equiv_pos_as_xyz
  1  'x, y, z'
loop_
 _atom_site_type_symbol
 _atom_site_label
 _atom_site_symmetry_multiplicity
 _atom_site_fract_x
 _atom_site_fract_y
 _atom_site_fract_z
 _atom_site_occupancy
  Rb  Rb0  1  0.33885200  0.33885199  0.67770297  1
  Rb  Rb1  1  0.66114800  0.66114799  0.32229697  1
  Ni  Ni2  1  0.00000000  0.00000000  0.00000000  1
  Co  Co3  1  0.49999998  0.00000000  0.99999996  1
  Co  Co4  1  0.99999998  0.49999999  0.99999994  1
  S  S5  1  0.26410503  0.92865498  0.19275998  1
  S  S6  1  0.07134503  0.73589499  0.80723996  1
  S  S7  1  0.92865497  0.26410499  0.19275997  1
  S  S8  1  0.73589497  0.07134500  0.80723996  1
