# generated using pymatgen
data_Rb2SnO3
_symmetry_space_group_name_H-M   'P 1'
_cell_length_a   6.60457706
_cell_length_b   6.60457706
_cell_length_c   7.60418987
_cell_angle_alpha   98.61316681
_cell_angle_beta   98.61316681
_cell_angle_gamma   118.10202789
_symmetry_Int_Tables_number   1
_chemical_formula_structural   Rb2SnO3
_chemical_formula_sum   'Rb4 Sn2 O6'
_cell_volume   279.91287823
_cell_formula_units_Z   2
loop_
 _symmetry_equiv_pos_site_id
 _symmetry_equiv_pos_as_xyz
  1  'x, y, z'
loop_
 _atom_site_type_symbol
 _atom_site_label
 _atom_site_symmetry_multiplicity
 _atom_site_fract_x
 _atom_site_fract_y
 _atom_site_fract_z
 _atom_site_occupancy
  Rb  Rb0  1  0.66261304  0.33738702  0.00000002  1
  Rb  Rb1  1  0.33738706  0.66261304  0.00000003  1
  Rb  Rb2  1  0.81589904  0.18410101  0.50000001  1
  Rb  Rb3  1  0.18410106  0.81589906  0.50000002  1
  Sn  Sn4  1  0.94602310  0.94602306  0.84208603  1
  Sn  Sn5  1  0.05397701  0.05397700  0.15791400  1
  O  O6  1  0.20505402  0.20505401  0.75715100  1
  O  O7  1  0.79494608  0.79494605  0.24284904  1
  O  O8  1  0.62674308  0.92748806  0.76907603  1
  O  O9  1  0.92748807  0.62674304  0.76907602  1
  O  O10  1  0.37325702  0.07251200  0.23092401  1
  O  O11  1  0.07251203  0.37325703  0.23092401  1
