# generated using pymatgen
data_Zn4CuS4
_symmetry_space_group_name_H-M   'P 1'
_cell_length_a   8.62061310
_cell_length_b   8.62061310
_cell_length_c   8.62061310
_cell_angle_alpha   108.12969208
_cell_angle_beta   108.12969208
_cell_angle_gamma   108.12969208
_symmetry_Int_Tables_number   1
_chemical_formula_structural   Zn4CuS4
_chemical_formula_sum   'Zn8 Cu2 S8'
_cell_volume   516.20808785
_cell_formula_units_Z   2
loop_
 _symmetry_equiv_pos_site_id
 _symmetry_equiv_pos_as_xyz
  1  'x, y, z'
loop_
 _atom_site_type_symbol
 _atom_site_label
 _atom_site_symmetry_multiplicity
 _atom_site_fract_x
 _atom_site_fract_y
 _atom_site_fract_z
 _atom_site_occupancy
  Zn  Zn0  1  0.07103101  0.07103100  0.31221001  1
  Zn  Zn1  1  0.07103102  0.31221002  0.07103101  1
  Zn  Zn2  1  0.31221001  0.07103100  0.07103101  1
  Zn  Zn3  1  0.68779007  0.92896905  0.92896906  1
  Zn  Zn4  1  0.92896908  0.92896905  0.68779006  1
  Zn  Zn5  1  0.92896907  0.68779004  0.92896906  1
  Zn  Zn6  1  0.76477103  0.00000000  0.23522901  1
  Zn  Zn7  1  0.00000001  0.23522901  0.76477103  1
  Cu  Cu8  1  0.23522904  0.76477104  0.00000002  1
  Cu  Cu9  1  0.23522901  0.00000000  0.76477102  1
  S  S10  1  0.00000003  0.76477104  0.23522903  1
  S  S11  1  0.76477104  0.23522901  1.00000004  1
  S  S12  1  0.62611806  0.86252105  0.62611805  1
  S  S13  1  0.62611805  0.62611804  0.86252105  1
  S  S14  1  0.86252106  0.62611804  0.62611804  1
  S  S15  1  0.13747902  0.37388202  0.37388202  1
  S  S16  1  0.37388202  0.13747901  0.37388202  1
  S  S17  1  0.37388203  0.37388202  0.13747902  1
