# generated using pymatgen
data_Al5IrSe8
_symmetry_space_group_name_H-M   'P 1'
_cell_length_a   7.37469530
_cell_length_b   7.37469530
_cell_length_c   7.37469530
_cell_angle_alpha   60.00000000
_cell_angle_beta   60.00000000
_cell_angle_gamma   60.00000000
_symmetry_Int_Tables_number   1
_chemical_formula_structural   Al5IrSe8
_chemical_formula_sum   'Al5 Ir1 Se8'
_cell_volume   283.60719611
_cell_formula_units_Z   1
loop_
 _symmetry_equiv_pos_site_id
 _symmetry_equiv_pos_as_xyz
  1  'x, y, z'
loop_
 _atom_site_type_symbol
 _atom_site_label
 _atom_site_symmetry_multiplicity
 _atom_site_fract_x
 _atom_site_fract_y
 _atom_site_fract_z
 _atom_site_occupancy
  Al  Al0  1  0.87499999  0.37500000  0.87499999  1
  Al  Al1  1  0.87499999  0.87499999  0.87499999  1
  Al  Al2  1  0.37500000  0.87499999  0.87499999  1
  Al  Al3  1  0.87499999  0.87499999  0.37500000  1
  Ir  Ir4  1  0.49999999  0.49999999  0.49999999  1
  Al  Al5  1  0.25000000  0.25000000  0.25000000  1
  Se  Se6  1  0.12180400  0.12180400  0.63458799  1
  Se  Se7  1  0.11541200  0.62819599  0.62819599  1
  Se  Se8  1  0.63458799  0.12180400  0.12180400  1
  Se  Se9  1  0.62819599  0.62819599  0.11541200  1
  Se  Se10  1  0.62819599  0.62819599  0.62819599  1
  Se  Se11  1  0.62819599  0.11541200  0.62819599  1
  Se  Se12  1  0.12180400  0.12180400  0.12180400  1
  Se  Se13  1  0.12180400  0.63458799  0.12180400  1
