# generated using pymatgen
data_BaHgF4
_symmetry_space_group_name_H-M   'P 1'
_cell_length_a   7.42445278
_cell_length_b   7.42445278
_cell_length_c   7.42445278
_cell_angle_alpha   60.00000000
_cell_angle_beta   60.00000000
_cell_angle_gamma   60.00000000
_symmetry_Int_Tables_number   1
_chemical_formula_structural   BaHgF4
_chemical_formula_sum   'Ba2 Hg2 F8'
_cell_volume   289.38655569
_cell_formula_units_Z   2
loop_
 _symmetry_equiv_pos_site_id
 _symmetry_equiv_pos_as_xyz
  1  'x, y, z'
loop_
 _atom_site_type_symbol
 _atom_site_label
 _atom_site_symmetry_multiplicity
 _atom_site_fract_x
 _atom_site_fract_y
 _atom_site_fract_z
 _atom_site_occupancy
  Ba  Ba0  1  0.03441200  0.65519601  0.65519601  1
  Ba  Ba1  1  0.65519501  0.03441300  0.65519601  1
  Hg  Hg2  1  0.65519501  0.65519601  0.65519601  1
  Hg  Hg3  1  0.65519501  0.65519601  0.03441300  1
  F  F4  1  0.37108801  0.87630402  0.87630402  1
  F  F5  1  0.87630402  0.37108801  0.87630402  1
  F  F6  1  0.87630402  0.87630402  0.87630402  1
  F  F7  1  0.87630402  0.87630402  0.37108801  1
  F  F8  1  0.87053002  0.37649001  0.37649001  1
  F  F9  1  0.37648901  0.87053102  0.37649001  1
  F  F10  1  0.37648901  0.37649001  0.37649001  1
  F  F11  1  0.37648901  0.37649001  0.87053102  1
