# generated using pymatgen
data_Li5GdMgAgS4
_symmetry_space_group_name_H-M   'P 1'
_cell_length_a   4.31974411
_cell_length_b   7.21432209
_cell_length_c   7.85332680
_cell_angle_alpha   90.00000000
_cell_angle_beta   90.00000000
_cell_angle_gamma   90.00000000
_symmetry_Int_Tables_number   1
_chemical_formula_structural   Li5GdMgAgS4
_chemical_formula_sum   'Li5 Gd1 Mg1 Ag1 S4'
_cell_volume   244.74127546
_cell_formula_units_Z   1
loop_
 _symmetry_equiv_pos_site_id
 _symmetry_equiv_pos_as_xyz
  1  'x, y, z'
loop_
 _atom_site_type_symbol
 _atom_site_label
 _atom_site_symmetry_multiplicity
 _atom_site_fract_x
 _atom_site_fract_y
 _atom_site_fract_z
 _atom_site_occupancy
  Gd  Gd0  1  0.24999999  0.14614900  0.93015902  1
  Li  Li1  1  0.24999999  0.64614899  0.56984101  1
  Li  Li2  1  0.74999998  0.85385099  0.06984100  1
  Li  Li3  1  0.74999998  0.35385100  0.43015901  1
  Li  Li4  1  0.24999999  0.01400900  0.30250701  1
  Li  Li5  1  0.24999999  0.51400899  0.19749301  1
  Ag  Ag6  1  0.74999998  0.98599099  0.69749302  1
  Mg  Mg7  1  0.74999998  0.48599099  0.80250702  1
  S  S8  1  0.24999999  0.26875400  0.60214802  1
  S  S9  1  0.24999999  0.76875399  0.89785202  1
  S  S10  1  0.74999998  0.73124599  0.39785201  1
  S  S11  1  0.74999998  0.23124600  0.10214800  1
