# generated using pymatgen
data_Cs4S3O13
_symmetry_space_group_name_H-M   'P 1'
_cell_length_a   8.01388454
_cell_length_b   8.18938828
_cell_length_c   8.84241199
_cell_angle_alpha   83.41542053
_cell_angle_beta   65.41646576
_cell_angle_gamma   74.47129059
_symmetry_Int_Tables_number   1
_chemical_formula_structural   Cs4S3O13
_chemical_formula_sum   'Cs4 S3 O13'
_cell_volume   508.44751145
_cell_formula_units_Z   1
loop_
 _symmetry_equiv_pos_site_id
 _symmetry_equiv_pos_as_xyz
  1  'x, y, z'
loop_
 _atom_site_type_symbol
 _atom_site_label
 _atom_site_symmetry_multiplicity
 _atom_site_fract_x
 _atom_site_fract_y
 _atom_site_fract_z
 _atom_site_occupancy
  Cs  Cs0  1  0.33844801  0.64629697  0.83988398  1
  Cs  Cs1  1  0.66155200  0.35370298  0.16011597  1
  Cs  Cs2  1  0.85906400  0.83462296  0.36229597  1
  Cs  Cs3  1  0.14093600  0.16537699  0.63770398  1
  S  S4  1  0.78046600  0.80415896  0.91771496  1
  S  S5  1  0.21953400  0.19584099  0.08228499  1
  S  S6  1  0.57277299  0.09141300  0.76865095  1
  O  O7  1  0.42722701  0.90858696  0.23134900  1
  O  O8  1  0.84830300  0.61625297  0.76563596  1
  O  O9  1  0.15169701  0.38374698  0.23436400  1
  O  O10  1  0.67708899  0.25602799  0.59759796  1
  O  O11  1  0.32291101  0.74397197  0.40240200  1
  O  O12  1  0.91125800  0.81349996  0.99600795  1
  O  O13  1  0.08874200  0.18649999  0.00399200  1
  O  O14  1  0.51754499  0.02918200  0.26729197  1
  O  O15  1  0.48245501  0.97081796  0.73270799  1
  O  O16  1  0.25695800  0.01057000  0.17342198  1
  O  O17  1  0.74304201  0.98942996  0.82657797  1
  O  O18  1  0.43127200  0.19929399  0.94044096  1
  O  O19  1  0.56872801  0.80070596  0.05955899  1
