# generated using pymatgen
data_CaGe3TeAs3
_symmetry_space_group_name_H-M   'P 1'
_cell_length_a   4.20507097
_cell_length_b   4.44900751
_cell_length_c   11.74598980
_cell_angle_alpha   90.49649811
_cell_angle_beta   90.00000000
_cell_angle_gamma   90.00000000
_symmetry_Int_Tables_number   1
_chemical_formula_structural   CaGe3TeAs3
_chemical_formula_sum   'Ca1 Ge3 Te1 As3'
_cell_volume   219.74033505
_cell_formula_units_Z   1
loop_
 _symmetry_equiv_pos_site_id
 _symmetry_equiv_pos_as_xyz
  1  'x, y, z'
loop_
 _atom_site_type_symbol
 _atom_site_label
 _atom_site_symmetry_multiplicity
 _atom_site_fract_x
 _atom_site_fract_y
 _atom_site_fract_z
 _atom_site_occupancy
  Ge  Ge0  1  0.25000000  0.41811499  0.61264801  1
  Ca  Ca1  1  0.25000000  0.14951800  0.10585400  1
  Ge  Ge2  1  0.75000000  0.63280199  0.35862801  1
  Ge  Ge3  1  0.75000000  0.87009198  0.87998702  1
  As  As4  1  0.25000000  0.48191199  0.88225602  1
  As  As5  1  0.25000000  0.00887000  0.35101401  1
  As  As6  1  0.75000000  0.51746999  0.14763601  1
  Te  Te7  1  0.75000000  0.92121998  0.66197802  1
