# generated using pymatgen
data_NaTaO3
_symmetry_space_group_name_H-M   'P 1'
_cell_length_a   5.61527109
_cell_length_b   5.64296103
_cell_length_c   7.87569523
_cell_angle_alpha   90.00000000
_cell_angle_beta   90.00000000
_cell_angle_gamma   90.00000000
_symmetry_Int_Tables_number   1
_chemical_formula_structural   NaTaO3
_chemical_formula_sum   'Na4 Ta4 O12'
_cell_volume   249.55523237
_cell_formula_units_Z   4
loop_
 _symmetry_equiv_pos_site_id
 _symmetry_equiv_pos_as_xyz
  1  'x, y, z'
loop_
 _atom_site_type_symbol
 _atom_site_label
 _atom_site_symmetry_multiplicity
 _atom_site_fract_x
 _atom_site_fract_y
 _atom_site_fract_z
 _atom_site_occupancy
  Na  Na0  1  0.49679799  0.25097300  -0.00000000  1
  Na  Na1  1  0.99679798  0.74902700  0.49999999  1
  Na  Na2  1  0.49198699  0.22603300  0.49999999  1
  Na  Na3  1  0.99198698  0.77396700  0.00000000  1
  Ta  Ta4  1  0.48357599  0.74452400  0.25347499  1
  Ta  Ta5  1  0.48357599  0.74452400  0.74652498  1
  Ta  Ta6  1  0.98357598  0.25547600  0.24652499  1
  Ta  Ta7  1  0.98357598  0.25547600  0.75347498  1
  O  O8  1  0.07571900  0.23847000  0.00000000  1
  O  O9  1  0.57571899  0.76153000  0.49999999  1
  O  O10  1  0.94912598  0.25708400  0.49999999  1
  O  O11  1  0.44912599  0.74291600  0.00000000  1
  O  O12  1  0.79561599  0.53516700  0.21793799  1
  O  O13  1  0.79561599  0.53516700  0.78206198  1
  O  O14  1  0.29561600  0.46483300  0.28206199  1
  O  O15  1  0.29561600  0.46483300  0.71793798  1
  O  O16  1  0.23319200  0.96992100  0.28300099  1
  O  O17  1  0.23319200  0.96992100  0.71699898  1
  O  O18  1  0.73319199  0.03007900  0.21699899  1
  O  O19  1  0.73319199  0.03007900  0.78300098  1
