# generated using pymatgen
data_HfMgScTi(FeO6)2
_symmetry_space_group_name_H-M   'P 1'
_cell_length_a   5.18887758
_cell_length_b   6.50414944
_cell_length_c   6.50414944
_cell_angle_alpha   75.35894012
_cell_angle_beta   71.24150848
_cell_angle_gamma   71.24150848
_symmetry_Int_Tables_number   1
_chemical_formula_structural   HfMgScTi(FeO6)2
_chemical_formula_sum   'Hf1 Mg1 Sc1 Ti1 Fe2 O12'
_cell_volume   194.06006646
_cell_formula_units_Z   1
loop_
 _symmetry_equiv_pos_site_id
 _symmetry_equiv_pos_as_xyz
  1  'x, y, z'
loop_
 _atom_site_type_symbol
 _atom_site_label
 _atom_site_symmetry_multiplicity
 _atom_site_fract_x
 _atom_site_fract_y
 _atom_site_fract_z
 _atom_site_occupancy
  Sc  Sc0  1  0.09016299  0.13482200  0.29643100  1
  Mg  Mg1  1  0.40983696  0.70356901  0.86517801  1
  Hf  Hf2  1  0.90983695  0.86517801  0.70356900  1
  Ti  Ti3  1  0.59016298  0.29643100  0.13482199  1
  Fe  Fe4  1  0.74999996  0.68274901  0.31725100  1
  Fe  Fe5  1  0.24999998  0.31725100  0.68274900  1
  O  O6  1  0.00347397  0.74992301  0.99960402  1
  O  O7  1  0.55729396  0.62991101  0.11340200  1
  O  O8  1  0.05729399  0.11340200  0.62991100  1
  O  O9  1  0.44270598  0.37008900  0.88659800  1
  O  O10  1  0.50347395  0.99960401  0.74992301  1
  O  O11  1  0.64777497  0.32993000  0.42864299  1
  O  O12  1  0.94270595  0.88659801  0.37008900  1
  O  O13  1  0.85222496  0.57135700  0.67006999  1
  O  O14  1  0.99652597  0.25007700  0.00039598  1
  O  O15  1  0.49652599  0.00039600  0.25007699  1
  O  O16  1  0.35222496  0.67007001  0.57135701  1
  O  O17  1  0.14777498  0.42864300  0.32993001  1
