# generated using pymatgen
data_AlCuNiPtSeS6
_symmetry_space_group_name_H-M   'P 1'
_cell_length_a   5.45542908
_cell_length_b   5.45542908
_cell_length_c   6.36952305
_cell_angle_alpha   90.00000000
_cell_angle_beta   90.00000000
_cell_angle_gamma   90.00000000
_symmetry_Int_Tables_number   1
_chemical_formula_structural   AlCuNiPtSeS6
_chemical_formula_sum   'Al1 Cu1 Ni1 Pt1 Se1 S6'
_cell_volume   189.56787498
_cell_formula_units_Z   1
loop_
 _symmetry_equiv_pos_site_id
 _symmetry_equiv_pos_as_xyz
  1  'x, y, z'
loop_
 _atom_site_type_symbol
 _atom_site_label
 _atom_site_symmetry_multiplicity
 _atom_site_fract_x
 _atom_site_fract_y
 _atom_site_fract_z
 _atom_site_occupancy
  Ni  Ni0  1  0.49999999  0.49999999  0.50000000  1
  Al  Al1  1  0.49999999  0.00000000  0.00000000  1
  Pt  Pt2  1  -0.00000000  0.49999999  0.00000000  1
  Cu  Cu3  1  0.74638799  0.74638799  0.20060800  1
  S  S4  1  0.74638799  0.25361200  0.79939199  1
  Se  Se5  1  0.74638799  0.74638799  0.79939199  1
  S  S6  1  0.74638799  0.25361200  0.20060800  1
  S  S7  1  0.25361200  0.74638799  0.20060800  1
  S  S8  1  0.25361200  0.74638799  0.79939199  1
  S  S9  1  0.25361200  0.25361200  0.20060800  1
  S  S10  1  0.25361200  0.25361200  0.79939199  1
