# generated using pymatgen
data_KRbClO
_symmetry_space_group_name_H-M   'P 1'
_cell_length_a   4.31041098
_cell_length_b   4.31041098
_cell_length_c   7.89063787
_cell_angle_alpha   74.14912415
_cell_angle_beta   74.14912415
_cell_angle_gamma   59.99998856
_symmetry_Int_Tables_number   1
_chemical_formula_structural   KRbClO
_chemical_formula_sum   'K1 Rb1 Cl1 O1'
_cell_volume   120.48393879
_cell_formula_units_Z   1
loop_
 _symmetry_equiv_pos_site_id
 _symmetry_equiv_pos_as_xyz
  1  'x, y, z'
loop_
 _atom_site_type_symbol
 _atom_site_label
 _atom_site_symmetry_multiplicity
 _atom_site_fract_x
 _atom_site_fract_y
 _atom_site_fract_z
 _atom_site_occupancy
  K  K0  1  0.77071999  0.77071996  0.68784002  1
  Rb  Rb1  1  0.22928000  0.22927999  0.31216001  1
  O  O2  1  0.49999999  0.49999998  0.50000001  1
  Cl  Cl3  1  0.00000000  0.00000000  0.00000000  1
