# generated using pymatgen
data_GdHoSeO2
_symmetry_space_group_name_H-M   'P 1'
_cell_length_a   3.89467788
_cell_length_b   3.89467788
_cell_length_c   7.20659208
_cell_angle_alpha   90.00000000
_cell_angle_beta   90.00000000
_cell_angle_gamma   120.00000000
_symmetry_Int_Tables_number   1
_chemical_formula_structural   GdHoSeO2
_chemical_formula_sum   'Gd1 Ho1 Se1 O2'
_cell_volume   94.66809967
_cell_formula_units_Z   1
loop_
 _symmetry_equiv_pos_site_id
 _symmetry_equiv_pos_as_xyz
  1  'x, y, z'
loop_
 _atom_site_type_symbol
 _atom_site_label
 _atom_site_symmetry_multiplicity
 _atom_site_fract_x
 _atom_site_fract_y
 _atom_site_fract_z
 _atom_site_occupancy
  Ho  Ho0  1  0.66666668  0.33333333  0.69446699  1
  Gd  Gd1  1  0.33333333  0.66666667  0.30553300  1
  Se  Se2  1  0.00000000  0.00000000  0.00000000  1
  O  O3  1  0.66666668  0.33333333  0.38053100  1
  O  O4  1  0.33333333  0.66666667  0.61946899  1
