# generated using pymatgen
data_Li2V3CrO7
_symmetry_space_group_name_H-M   'P 1'
_cell_length_a   4.97367096
_cell_length_b   5.98758602
_cell_length_c   6.03937912
_cell_angle_alpha   60.28328705
_cell_angle_beta   71.16114044
_cell_angle_gamma   90.00000000
_symmetry_Int_Tables_number   1
_chemical_formula_structural   Li2V3CrO7
_chemical_formula_sum   'Li2 V3 Cr1 O7'
_cell_volume   145.00329282
_cell_formula_units_Z   1
loop_
 _symmetry_equiv_pos_site_id
 _symmetry_equiv_pos_as_xyz
  1  'x, y, z'
loop_
 _atom_site_type_symbol
 _atom_site_label
 _atom_site_symmetry_multiplicity
 _atom_site_fract_x
 _atom_site_fract_y
 _atom_site_fract_z
 _atom_site_occupancy
  Li  Li0  1  0.34465200  0.27665100  0.44669801  1
  Li  Li1  1  0.65534799  0.72334899  0.55330203  1
  V  V2  1  0.50000000  0.00000000  -0.00000000  1
  V  V3  1  0.99999999  0.73223499  1.00000003  1
  V  V4  1  0.99999999  0.26776500  1.00000002  1
  Cr  Cr5  1  0.92554899  0.60600899  0.78798203  1
  O  O6  1  0.07445100  0.39399099  0.21201801  1
  O  O7  1  0.92095599  0.10837600  0.78324801  1
  O  O8  1  0.07904399  0.89162399  0.21675203  1
  O  O9  1  0.59183200  0.11043100  0.23007001  1
  O  O10  1  0.59183199  0.65949899  0.23007002  1
  O  O11  1  0.40816799  0.34050099  0.76993002  1
  O  O12  1  0.40816799  0.88956899  0.76993004  1
