# generated using pymatgen
data_Hf2MgScBH7
_symmetry_space_group_name_H-M   'P 1'
_cell_length_a   4.89815903
_cell_length_b   4.89815903
_cell_length_c   4.89815903
_cell_angle_alpha   90.00000000
_cell_angle_beta   90.00000000
_cell_angle_gamma   90.00000000
_symmetry_Int_Tables_number   1
_chemical_formula_structural   Hf2MgScBH7
_chemical_formula_sum   'Hf2 Mg1 Sc1 B1 H7'
_cell_volume   117.51644454
_cell_formula_units_Z   1
loop_
 _symmetry_equiv_pos_site_id
 _symmetry_equiv_pos_as_xyz
  1  'x, y, z'
loop_
 _atom_site_type_symbol
 _atom_site_label
 _atom_site_symmetry_multiplicity
 _atom_site_fract_x
 _atom_site_fract_y
 _atom_site_fract_z
 _atom_site_occupancy
  Mg  Mg0  1  -0.00000000  0.50000000  0.50000000  1
  Sc  Sc1  1  0.50000000  0.50000000  0.00000000  1
  Hf  Hf2  1  0.50000000  0.00000000  0.50000000  1
  Hf  Hf3  1  0.00000000  0.00000000  0.00000000  1
  H  H4  1  0.41121200  0.08878800  0.91121199  1
  B  B5  1  0.08878800  0.91121199  0.41121200  1
  H  H6  1  0.91121199  0.41121200  0.08878800  1
  H  H7  1  0.58878800  0.58878800  0.58878800  1
  H  H8  1  0.41121200  0.41121200  0.41121200  1
  H  H9  1  0.08878800  0.58878800  0.91121199  1
  H  H10  1  0.91121199  0.08878800  0.58878800  1
  H  H11  1  0.58878800  0.91121199  0.08878800  1
