# generated using pymatgen
data_BaLiLa2YTiGaTe7
_symmetry_space_group_name_H-M   'P 1'
_cell_length_a   4.78004599
_cell_length_b   9.23988056
_cell_length_c   16.13242149
_cell_angle_alpha   90.00000000
_cell_angle_beta   97.11473846
_cell_angle_gamma   90.00000000
_symmetry_Int_Tables_number   1
_chemical_formula_structural   BaLiLa2YTiGaTe7
_chemical_formula_sum   'Ba1 Li1 La2 Y1 Ti1 Ga1 Te7'
_cell_volume   707.03519405
_cell_formula_units_Z   1
loop_
 _symmetry_equiv_pos_site_id
 _symmetry_equiv_pos_as_xyz
  1  'x, y, z'
loop_
 _atom_site_type_symbol
 _atom_site_label
 _atom_site_symmetry_multiplicity
 _atom_site_fract_x
 _atom_site_fract_y
 _atom_site_fract_z
 _atom_site_occupancy
  La  La0  1  0.56439100  0.50000002  0.73822097  1
  Ba  Ba1  1  0.41725400  0.00000000  0.23281699  1
  Ti  Ti2  1  0.53414800  0.19798801  0.67613297  1
  La  La3  1  0.53414800  0.80201204  0.67613297  1
  Y  Y4  1  0.13519300  0.00000000  0.86301297  1
  Li  Li5  1  0.81377600  0.18040701  0.11756199  1
  Ga  Ga6  1  0.81377600  0.81959304  0.11756199  1
  Te  Te7  1  0.88646200  0.00000000  0.37848998  1
  Te  Te8  1  0.01038000  0.50000002  0.61066698  1
  Te  Te9  1  0.12575600  0.67472103  0.86553197  1
  Te  Te10  1  0.12575600  0.32527902  0.86553197  1
  Te  Te11  1  0.80695200  0.50000002  0.12439099  1
  Te  Te12  1  0.61600300  0.65054403  0.36592399  1
  Te  Te13  1  0.61600300  0.34945602  0.36592399  1
