# generated using pymatgen
data_Be3AlZn3BP3N5
_symmetry_space_group_name_H-M   'P 1'
_cell_length_a   3.04374790
_cell_length_b   3.04374886
_cell_length_c   24.94070625
_cell_angle_alpha   90.00000000
_cell_angle_beta   90.00000000
_cell_angle_gamma   119.99999237
_symmetry_Int_Tables_number   1
_chemical_formula_structural   Be3AlZn3BP3N5
_chemical_formula_sum   'Be3 Al1 Zn3 B1 P3 N5'
_cell_volume   200.10452379
_cell_formula_units_Z   1
loop_
 _symmetry_equiv_pos_site_id
 _symmetry_equiv_pos_as_xyz
  1  'x, y, z'
loop_
 _atom_site_type_symbol
 _atom_site_label
 _atom_site_symmetry_multiplicity
 _atom_site_fract_x
 _atom_site_fract_y
 _atom_site_fract_z
 _atom_site_occupancy
  Zn  Zn0  1  0.33333336  0.66666666  0.12499900  1
  Zn  Zn1  1  0.66666669  0.33333333  0.87500099  1
  Al  Al2  1  0.66666669  0.33333333  0.62499899  1
  Zn  Zn3  1  0.33333336  0.66666666  0.37500100  1
  Be  Be4  1  0.00000000  0.00000000  0.00000000  1
  Be  Be5  1  0.00000000  0.00000000  0.49999999  1
  Be  Be6  1  0.66666669  0.33333333  0.25000000  1
  P  P7  1  0.33333336  0.66666666  0.74999999  1
  P  P8  1  0.00000000  0.00000000  0.08437700  1
  B  B9  1  0.00000000  0.00000000  0.91562299  1
  N  N10  1  0.00000000  0.00000000  0.58437699  1
  P  P11  1  0.00000000  0.00000000  0.41562300  1
  N  N12  1  0.66666669  0.33333333  0.16561400  1
  N  N13  1  0.33333336  0.66666666  0.83438599  1
  N  N14  1  0.33333336  0.66666666  0.66561399  1
  N  N15  1  0.66666669  0.33333333  0.33438600  1
