# generated using pymatgen
data_CaCd(AgTe)2
_symmetry_space_group_name_H-M   'P 1'
_cell_length_a   4.32052612
_cell_length_b   4.32052565
_cell_length_c   10.83392334
_cell_angle_alpha   90.00000000
_cell_angle_beta   90.00000000
_cell_angle_gamma   120.00000000
_symmetry_Int_Tables_number   1
_chemical_formula_structural   CaCd(AgTe)2
_chemical_formula_sum   'Ca1 Cd1 Ag2 Te2'
_cell_volume   175.14172090
_cell_formula_units_Z   1
loop_
 _symmetry_equiv_pos_site_id
 _symmetry_equiv_pos_as_xyz
  1  'x, y, z'
loop_
 _atom_site_type_symbol
 _atom_site_label
 _atom_site_symmetry_multiplicity
 _atom_site_fract_x
 _atom_site_fract_y
 _atom_site_fract_z
 _atom_site_occupancy
  Ca  Ca0  1  0.00000000  0.00000000  0.99379697  1
  Cd  Cd1  1  0.33333330  0.66666667  0.13534600  1
  Ag  Ag2  1  0.33333330  0.66666667  0.68668198  1
  Ag  Ag3  1  0.66666664  0.33333334  0.34577599  1
  Te  Te4  1  0.66666664  0.33333334  0.83963297  1
  Te  Te5  1  0.00000000  0.00000000  0.49876698  1
