# generated using pymatgen
data_NaYO4
_symmetry_space_group_name_H-M   'P 1'
_cell_length_a   5.19798374
_cell_length_b   5.19798374
_cell_length_c   7.35419321
_cell_angle_alpha   90.00000000
_cell_angle_beta   90.00000000
_cell_angle_gamma   93.01534271
_symmetry_Int_Tables_number   1
_chemical_formula_structural   NaYO4
_chemical_formula_sum   'Na2 Y2 O8'
_cell_volume   198.42809592
_cell_formula_units_Z   2
loop_
 _symmetry_equiv_pos_site_id
 _symmetry_equiv_pos_as_xyz
  1  'x, y, z'
loop_
 _atom_site_type_symbol
 _atom_site_label
 _atom_site_symmetry_multiplicity
 _atom_site_fract_x
 _atom_site_fract_y
 _atom_site_fract_z
 _atom_site_occupancy
  Na  Na0  1  0.00000000  0.00000000  0.00000000  1
  Na  Na1  1  0.00000000  0.00000000  0.49999999  1
  Y  Y2  1  0.54021800  0.45978199  0.24999999  1
  Y  Y3  1  0.45978201  0.54021798  0.74999998  1
  O  O4  1  0.68884299  0.31115699  0.05801900  1
  O  O5  1  0.68884299  0.31115699  0.44198099  1
  O  O6  1  0.31115702  0.68884298  0.94198097  1
  O  O7  1  0.31115702  0.68884298  0.55801898  1
  O  O8  1  0.75576102  0.82333797  0.74999998  1
  O  O9  1  0.17666201  0.24423899  0.74999998  1
  O  O10  1  0.82333801  0.75576098  0.24999999  1
  O  O11  1  0.24423900  0.17666199  0.24999999  1
