# generated using pymatgen
data_LaO2
_symmetry_space_group_name_H-M   'P 1'
_cell_length_a   3.71145391
_cell_length_b   3.72209597
_cell_length_c   12.24991608
_cell_angle_alpha   90.00000000
_cell_angle_beta   90.00000000
_cell_angle_gamma   90.00000000
_symmetry_Int_Tables_number   1
_chemical_formula_structural   LaO2
_chemical_formula_sum   'La4 O8'
_cell_volume   169.22508930
_cell_formula_units_Z   4
loop_
 _symmetry_equiv_pos_site_id
 _symmetry_equiv_pos_as_xyz
  1  'x, y, z'
loop_
 _atom_site_type_symbol
 _atom_site_label
 _atom_site_symmetry_multiplicity
 _atom_site_fract_x
 _atom_site_fract_y
 _atom_site_fract_z
 _atom_site_occupancy
  La  La0  1  0.25000001  0.26407600  0.07843700  1
  La  La1  1  0.75000002  0.76407601  0.42156300  1
  La  La2  1  0.25000001  0.23592400  0.57843700  1
  La  La3  1  0.75000002  0.73592401  0.92156299  1
  O  O4  1  0.25000001  0.77968101  0.25014300  1
  O  O5  1  0.75000002  0.27968100  0.24985700  1
  O  O6  1  0.25000001  0.72031901  0.75014300  1
  O  O7  1  0.75000002  0.22031900  0.74985700  1
  O  O8  1  0.75000002  0.76430101  0.12312900  1
  O  O9  1  0.25000001  0.26430100  0.37687100  1
  O  O10  1  0.75000002  0.73569901  0.62312900  1
  O  O11  1  0.25000001  0.23569900  0.87687099  1
