# generated using pymatgen
data_TaTi2CoN8
_symmetry_space_group_name_H-M   'P 1'
_cell_length_a   3.99738407
_cell_length_b   6.58787632
_cell_length_c   6.71416950
_cell_angle_alpha   106.82209778
_cell_angle_beta   107.31847382
_cell_angle_gamma   90.00000000
_symmetry_Int_Tables_number   1
_chemical_formula_structural   TaTi2CoN8
_chemical_formula_sum   'Ta1 Ti2 Co1 N8'
_cell_volume   160.85415084
_cell_formula_units_Z   1
loop_
 _symmetry_equiv_pos_site_id
 _symmetry_equiv_pos_as_xyz
  1  'x, y, z'
loop_
 _atom_site_type_symbol
 _atom_site_label
 _atom_site_symmetry_multiplicity
 _atom_site_fract_x
 _atom_site_fract_y
 _atom_site_fract_z
 _atom_site_occupancy
  Ta  Ta0  1  0.19810199  0.80194699  0.39620397  1
  Co  Co1  1  0.80189799  0.19805300  0.60379602  1
  Ti  Ti2  1  0.11023200  0.20633600  0.22046400  1
  Ti  Ti3  1  0.88976798  0.79366399  0.77953599  1
  N  N4  1  0.05606099  0.87526099  0.11212195  1
  N  N5  1  0.13916099  0.50169499  0.27832198  1
  N  N6  1  0.74906498  0.84365099  0.49812998  1
  N  N7  1  0.62382499  0.20037200  0.24765001  1
  N  N8  1  0.37617498  0.79962799  0.75234998  1
  N  N9  1  0.25093500  0.15634900  0.50187001  1
  N  N10  1  0.86083898  0.49830499  0.72167801  1
  N  N11  1  0.94393899  0.12473900  0.88787804  1
