# generated using pymatgen
data_BaYbMgZrScGaTc2SnGe
_symmetry_space_group_name_H-M   'P 1'
_cell_length_a   6.69045353
_cell_length_b   6.69045353
_cell_length_c   6.69045353
_cell_angle_alpha   60.00000000
_cell_angle_beta   60.00000000
_cell_angle_gamma   60.00000000
_symmetry_Int_Tables_number   1
_chemical_formula_structural   BaYbMgZrScGaTc2SnGe
_chemical_formula_sum   'Ba1 Yb1 Mg1 Zr1 Sc1 Ga1 Tc2 Sn1 Ge1'
_cell_volume   211.76377862
_cell_formula_units_Z   1
loop_
 _symmetry_equiv_pos_site_id
 _symmetry_equiv_pos_as_xyz
  1  'x, y, z'
loop_
 _atom_site_type_symbol
 _atom_site_label
 _atom_site_symmetry_multiplicity
 _atom_site_fract_x
 _atom_site_fract_y
 _atom_site_fract_z
 _atom_site_occupancy
  Sc  Sc0  1  0.25000000  0.25000000  0.25000000  1
  Ba  Ba1  1  0.74999999  0.74999999  0.74999999  1
  Yb  Yb2  1  0.00000000  0.00000000  0.00000000  1
  Mg  Mg3  1  0.49999999  0.49999999  0.49999999  1
  Ga  Ga4  1  0.27742300  0.72257699  0.27742300  1
  Zr  Zr5  1  0.27742300  0.27742300  0.72257699  1
  Tc  Tc6  1  0.72257699  0.27742300  0.72257699  1
  Sn  Sn7  1  0.27742300  0.72257699  0.72257699  1
  Ge  Ge8  1  0.72257699  0.27742300  0.27742300  1
  Tc  Tc9  1  0.72257699  0.72257699  0.27742300  1
