# generated using pymatgen
data_ZnFeF5
_symmetry_space_group_name_H-M   'P 1'
_cell_length_a   3.86277795
_cell_length_b   3.86754799
_cell_length_c   6.67563629
_cell_angle_alpha   90.00000000
_cell_angle_beta   79.31976318
_cell_angle_gamma   90.00000000
_symmetry_Int_Tables_number   1
_chemical_formula_structural   ZnFeF5
_chemical_formula_sum   'Zn1 Fe1 F5'
_cell_volume   98.00287493
_cell_formula_units_Z   1
loop_
 _symmetry_equiv_pos_site_id
 _symmetry_equiv_pos_as_xyz
  1  'x, y, z'
loop_
 _atom_site_type_symbol
 _atom_site_label
 _atom_site_symmetry_multiplicity
 _atom_site_fract_x
 _atom_site_fract_y
 _atom_site_fract_z
 _atom_site_occupancy
  Zn  Zn0  1  0.67300301  0.00000000  0.21140800  1
  Fe  Fe1  1  0.32699701  0.00000000  0.78859202  1
  F  F2  1  0.72530201  0.50000000  0.21737500  1
  F  F3  1  0.27469800  0.50000000  0.78262502  1
  F  F4  1  0.21638600  0.00000000  0.12428600  1
  F  F5  1  0.78361401  0.00000000  0.87571402  1
  F  F6  1  0.50000001  0.00000000  0.50000001  1
