# generated using pymatgen
data_Rb2Li3FeO4
_symmetry_space_group_name_H-M   'P 1'
_cell_length_a   4.98808813
_cell_length_b   8.04280567
_cell_length_c   8.04280567
_cell_angle_alpha   76.06320953
_cell_angle_beta   71.93496704
_cell_angle_gamma   71.93496704
_symmetry_Int_Tables_number   1
_chemical_formula_structural   Rb2Li3FeO4
_chemical_formula_sum   'Rb4 Li6 Fe2 O8'
_cell_volume   287.87471261
_cell_formula_units_Z   2
loop_
 _symmetry_equiv_pos_site_id
 _symmetry_equiv_pos_as_xyz
  1  'x, y, z'
loop_
 _atom_site_type_symbol
 _atom_site_label
 _atom_site_symmetry_multiplicity
 _atom_site_fract_x
 _atom_site_fract_y
 _atom_site_fract_z
 _atom_site_occupancy
  Rb  Rb0  1  0.76283698  0.12808200  0.87191800  1
  Rb  Rb1  1  0.23716298  0.87191802  0.12808198  1
  Rb  Rb2  1  0.73716297  0.62808202  0.37191798  1
  Rb  Rb3  1  0.26283699  0.37191801  0.62808200  1
  Li  Li4  1  0.24999997  0.99004703  0.50995298  1
  Li  Li5  1  0.74999999  0.00995300  0.49004700  1
  Li  Li6  1  0.24999998  0.50995301  0.99004700  1
  Li  Li7  1  0.74999997  0.49004701  0.00995298  1
  Li  Li8  1  0.24999998  0.75000002  0.74999999  1
  Li  Li9  1  0.74999998  0.25000001  0.24999999  1
  Fe  Fe10  1  0.74999997  0.75000002  0.74999998  1
  Fe  Fe11  1  0.24999999  0.25000001  0.24999999  1
  O  O12  1  0.06264398  0.78905002  0.55237699  1
  O  O13  1  0.93735598  0.21095001  0.44762299  1
  O  O14  1  0.59592898  0.55237601  0.78904999  1
  O  O15  1  0.43735597  0.94762303  0.71094998  1
  O  O16  1  0.40407098  0.44762401  0.21094999  1
  O  O17  1  0.56264399  0.05237700  0.28905000  1
  O  O18  1  0.90407097  0.71095102  0.94762299  1
  O  O19  1  0.09592899  0.28904901  0.05237699  1
