# generated using pymatgen
data_Se2IClO3F13
_symmetry_space_group_name_H-M   'P 1'
_cell_length_a   5.26265907
_cell_length_b   6.01755381
_cell_length_c   9.51785755
_cell_angle_alpha   93.24877167
_cell_angle_beta   90.00000000
_cell_angle_gamma   90.00000000
_symmetry_Int_Tables_number   1
_chemical_formula_structural   Se2IClO3F13
_chemical_formula_sum   'Se2 I1 Cl1 O3 F13'
_cell_volume   300.93028534
_cell_formula_units_Z   1
loop_
 _symmetry_equiv_pos_site_id
 _symmetry_equiv_pos_as_xyz
  1  'x, y, z'
loop_
 _atom_site_type_symbol
 _atom_site_label
 _atom_site_symmetry_multiplicity
 _atom_site_fract_x
 _atom_site_fract_y
 _atom_site_fract_z
 _atom_site_occupancy
  I  I0  1  0.91672999  0.67007402  0.36231700  1
  Se  Se1  1  0.08327000  0.32992601  0.63768298  1
  Se  Se2  1  0.58326999  0.67007402  0.86231698  1
  Cl  Cl3  1  0.41672999  0.32992601  0.13768300  1
  O  O4  1  0.83472099  0.78738703  0.94983398  1
  O  O5  1  0.28021200  0.45890602  0.28816400  1
  F  F6  1  0.71978799  0.54109402  0.71183598  1
  F  F7  1  0.41500199  0.88882603  0.80577499  1
  O  O8  1  0.66527899  0.78738703  0.44983399  1
  F  F9  1  0.78021199  0.54109402  0.21183600  1
  F  F10  1  0.16527900  0.21261301  0.05016600  1
  F  F11  1  0.58499799  0.11117400  0.19422500  1
  F  F12  1  0.33472100  0.21261301  0.55016599  1
  F  F13  1  0.08499800  0.88882603  0.30577500  1
  F  F14  1  0.21978800  0.45890602  0.78816398  1
  F  F15  1  0.91500199  0.11117400  0.69422498  1
  F  F16  1  0.36657199  0.64943402  0.04209700  1
  F  F17  1  0.63342799  0.35056601  0.95790298  1
  F  F18  1  0.86657199  0.35056601  0.45790299  1
  F  F19  1  0.13342800  0.64943402  0.54209699  1
