# generated using pymatgen
data_Li2MgNi3F12
_symmetry_space_group_name_H-M   'P 1'
_cell_length_a   3.08018303
_cell_length_b   6.56585979
_cell_length_c   10.41153049
_cell_angle_alpha   108.37993622
_cell_angle_beta   90.00000000
_cell_angle_gamma   90.00000000
_symmetry_Int_Tables_number   1
_chemical_formula_structural   Li2MgNi3F12
_chemical_formula_sum   'Li2 Mg1 Ni3 F12'
_cell_volume   199.82173813
_cell_formula_units_Z   1
loop_
 _symmetry_equiv_pos_site_id
 _symmetry_equiv_pos_as_xyz
  1  'x, y, z'
loop_
 _atom_site_type_symbol
 _atom_site_label
 _atom_site_symmetry_multiplicity
 _atom_site_fract_x
 _atom_site_fract_y
 _atom_site_fract_z
 _atom_site_occupancy
  Li  Li0  1  0.00000000  0.16049500  0.32099001  1
  Li  Li1  1  0.50000000  0.00000000  0.00000000  1
  Mg  Mg2  1  0.50000000  0.65975002  0.31950001  1
  Ni  Ni3  1  0.99999999  0.50000001  1.00000002  1
  Ni  Ni4  1  0.99999999  0.83950502  0.67901002  1
  Ni  Ni5  1  0.50000000  0.34025001  0.68050002  1
  F  F6  1  0.50000000  0.09698600  0.19397200  1
  F  F7  1  0.00000000  0.85957403  0.33647501  1
  F  F8  1  0.99999999  0.47690101  0.33647501  1
  F  F9  1  0.00000000  0.14042600  0.66352502  1
  F  F10  1  0.50000000  0.56557902  0.13115800  1
  F  F11  1  0.50000000  0.90301403  0.80602802  1
  F  F12  1  0.50000000  0.43442101  0.86884202  1
  F  F13  1  0.00000000  0.52309902  0.66352502  1
  F  F14  1  0.00000000  0.80043902  -0.00000000  1
  F  F15  1  0.50000000  0.76697802  0.53395601  1
  F  F16  1  0.00000000  0.19956101  1.00000003  1
  F  F17  1  0.50000000  0.23302201  0.46604401  1
