# generated using pymatgen
data_BaYbThMgScTa2TcSbC
_symmetry_space_group_name_H-M   'P 1'
_cell_length_a   6.60019112
_cell_length_b   6.60019112
_cell_length_c   6.60019112
_cell_angle_alpha   60.00000000
_cell_angle_beta   60.00000000
_cell_angle_gamma   60.00000000
_symmetry_Int_Tables_number   1
_chemical_formula_structural   BaYbThMgScTa2TcSbC
_chemical_formula_sum   'Ba1 Yb1 Th1 Mg1 Sc1 Ta2 Tc1 Sb1 C1'
_cell_volume   203.30803173
_cell_formula_units_Z   1
loop_
 _symmetry_equiv_pos_site_id
 _symmetry_equiv_pos_as_xyz
  1  'x, y, z'
loop_
 _atom_site_type_symbol
 _atom_site_label
 _atom_site_symmetry_multiplicity
 _atom_site_fract_x
 _atom_site_fract_y
 _atom_site_fract_z
 _atom_site_occupancy
  Sc  Sc0  1  0.25000001  0.25000001  0.25000001  1
  Ba  Ba1  1  0.75000002  0.75000002  0.75000002  1
  Yb  Yb2  1  0.50000001  0.50000001  0.50000001  1
  Mg  Mg3  1  0.00000000  0.00000000  0.00000000  1
  Ta  Ta4  1  0.21875300  0.78124702  0.21875300  1
  Th  Th5  1  0.21875300  0.21875300  0.78124702  1
  C  C6  1  0.78124702  0.21875300  0.78124702  1
  Ta  Ta7  1  0.21875300  0.78124702  0.78124702  1
  Sb  Sb8  1  0.78124702  0.21875300  0.21875300  1
  Tc  Tc9  1  0.78124702  0.78124702  0.21875300  1
