# generated using pymatgen
data_Rb2CuI3
_symmetry_space_group_name_H-M   'P 1'
_cell_length_a   7.67593193
_cell_length_b   8.52599049
_cell_length_c   9.75287628
_cell_angle_alpha   73.03930664
_cell_angle_beta   66.82621002
_cell_angle_gamma   63.24675751
_symmetry_Int_Tables_number   1
_chemical_formula_structural   Rb2CuI3
_chemical_formula_sum   'Rb4 Cu2 I6'
_cell_volume   518.83641874
_cell_formula_units_Z   2
loop_
 _symmetry_equiv_pos_site_id
 _symmetry_equiv_pos_as_xyz
  1  'x, y, z'
loop_
 _atom_site_type_symbol
 _atom_site_label
 _atom_site_symmetry_multiplicity
 _atom_site_fract_x
 _atom_site_fract_y
 _atom_site_fract_z
 _atom_site_occupancy
  Rb  Rb0  1  0.31106500  0.06003100  0.31783901  1
  Rb  Rb1  1  0.68893497  0.93996902  0.68216106  1
  Rb  Rb2  1  0.08616398  0.69729802  0.13037403  1
  Rb  Rb3  1  0.91383599  0.30270201  0.86962605  1
  Cu  Cu4  1  0.37925899  0.55492501  0.68655704  1
  Cu  Cu5  1  0.62074099  0.44507501  0.31344304  1
  I  I6  1  0.38751999  0.31620001  0.90876003  1
  I  I7  1  0.61247998  0.68380002  0.09124005  1
  I  I8  1  0.19985098  0.87434202  0.72595604  1
  I  I9  1  0.80014899  0.12565800  0.27404403  1
  I  I10  1  0.24561999  0.50000001  0.50000003  1
  I  I11  1  0.75437998  0.50000001  0.50000005  1
