# generated using pymatgen
data_Li2DyYMgSb3
_symmetry_space_group_name_H-M   'P 1'
_cell_length_a   5.79997396
_cell_length_b   5.79997396
_cell_length_c   7.37932205
_cell_angle_alpha   113.14056396
_cell_angle_beta   113.14056396
_cell_angle_gamma   90.00000000
_symmetry_Int_Tables_number   1
_chemical_formula_structural   Li2DyYMgSb3
_chemical_formula_sum   'Li2 Dy1 Y1 Mg1 Sb3'
_cell_volume   206.36946656
_cell_formula_units_Z   1
loop_
 _symmetry_equiv_pos_site_id
 _symmetry_equiv_pos_as_xyz
  1  'x, y, z'
loop_
 _atom_site_type_symbol
 _atom_site_label
 _atom_site_symmetry_multiplicity
 _atom_site_fract_x
 _atom_site_fract_y
 _atom_site_fract_z
 _atom_site_occupancy
  Li  Li0  1  0.00000000  0.00000000  0.00000000  1
  Li  Li1  1  0.74999998  0.24999999  0.49999995  1
  Dy  Dy2  1  0.24999996  0.74999998  0.49999994  1
  Y  Y3  1  0.49999997  0.49999999  -0.00000005  1
  Mg  Mg4  1  0.48498795  0.98498798  0.96997592  1
  Sb  Sb5  1  0.01501197  0.51501199  0.03002397  1
  Sb  Sb6  1  0.73498795  0.73498798  0.46997593  1
  Sb  Sb7  1  0.26501198  0.26501199  0.53002397  1
