# generated using pymatgen
data_Ga3Si
_symmetry_space_group_name_H-M   'P 1'
_cell_length_a   4.26578999
_cell_length_b   4.26579046
_cell_length_c   4.96726799
_cell_angle_alpha   90.00000000
_cell_angle_beta   90.00000000
_cell_angle_gamma   120.00000000
_symmetry_Int_Tables_number   1
_chemical_formula_structural   Ga3Si
_chemical_formula_sum   'Ga3 Si1'
_cell_volume   78.27935027
_cell_formula_units_Z   1
loop_
 _symmetry_equiv_pos_site_id
 _symmetry_equiv_pos_as_xyz
  1  'x, y, z'
loop_
 _atom_site_type_symbol
 _atom_site_label
 _atom_site_symmetry_multiplicity
 _atom_site_fract_x
 _atom_site_fract_y
 _atom_site_fract_z
 _atom_site_occupancy
  Ga  Ga0  1  0.66666669  0.33333334  0.00460100  1
  Ga  Ga1  1  0.00000000  0.00000000  0.45804900  1
  Si  Si2  1  0.33333338  0.66666668  0.56129600  1
  Ga  Ga3  1  0.00000000  0.00000000  0.10525200  1
