# generated using pymatgen
data_TaTi3Zn2SnAsSe12
_symmetry_space_group_name_H-M   'P 1'
_cell_length_a   3.71703696
_cell_length_b   9.50240040
_cell_length_c   14.26097298
_cell_angle_alpha   90.00000000
_cell_angle_beta   90.00000000
_cell_angle_gamma   90.00000000
_symmetry_Int_Tables_number   1
_chemical_formula_structural   TaTi3Zn2SnAsSe12
_chemical_formula_sum   'Ta1 Ti3 Zn2 Sn1 As1 Se12'
_cell_volume   503.70859658
_cell_formula_units_Z   1
loop_
 _symmetry_equiv_pos_site_id
 _symmetry_equiv_pos_as_xyz
  1  'x, y, z'
loop_
 _atom_site_type_symbol
 _atom_site_label
 _atom_site_symmetry_multiplicity
 _atom_site_fract_x
 _atom_site_fract_y
 _atom_site_fract_z
 _atom_site_occupancy
  Ta  Ta0  1  0.75000001  0.34458299  0.45085100  1
  Ti  Ti1  1  0.25000000  0.65541697  0.54914900  1
  Ti  Ti2  1  0.75000001  0.84458296  0.04914900  1
  Ti  Ti3  1  0.25000000  0.15541699  0.95085100  1
  Zn  Zn4  1  0.75000001  0.94361396  0.66620600  1
  Zn  Zn5  1  0.25000000  0.05638600  0.33379400  1
  As  As6  1  0.75000001  0.44361398  0.83379400  1
  Sn  Sn7  1  0.25000000  0.55638598  0.16620600  1
  Se  Se8  1  0.25000000  0.01394500  0.10447800  1
  Se  Se9  1  0.75000001  0.98605496  0.89552200  1
  Se  Se10  1  0.25000000  0.51394498  0.39552200  1
  Se  Se11  1  0.75000001  0.48605498  0.60447800  1
  Se  Se12  1  0.25000000  0.17990299  0.50553000  1
  Se  Se13  1  0.75000001  0.82009697  0.49447000  1
  Se  Se14  1  0.25000000  0.67990297  0.99447000  1
  Se  Se15  1  0.75000001  0.32009699  0.00553000  1
  Se  Se16  1  0.75000001  0.23815499  0.28838100  1
  Se  Se17  1  0.25000000  0.76184497  0.71161900  1
  Se  Se18  1  0.75000001  0.73815497  0.21161900  1
  Se  Se19  1  0.25000000  0.26184499  0.78838100  1
