# generated using pymatgen
data_Na6HfSbF12
_symmetry_space_group_name_H-M   'P 1'
_cell_length_a   5.77583313
_cell_length_b   5.94735098
_cell_length_c   8.34444237
_cell_angle_alpha   90.00000000
_cell_angle_beta   89.51239777
_cell_angle_gamma   90.00000000
_symmetry_Int_Tables_number   1
_chemical_formula_structural   Na6HfSbF12
_chemical_formula_sum   'Na6 Hf1 Sb1 F12'
_cell_volume   286.62878242
_cell_formula_units_Z   1
loop_
 _symmetry_equiv_pos_site_id
 _symmetry_equiv_pos_as_xyz
  1  'x, y, z'
loop_
 _atom_site_type_symbol
 _atom_site_label
 _atom_site_symmetry_multiplicity
 _atom_site_fract_x
 _atom_site_fract_y
 _atom_site_fract_z
 _atom_site_occupancy
  Na  Na0  1  0.51128799  0.55170900  0.25279501  1
  Na  Na1  1  0.01128800  0.94829100  0.75279498  1
  Na  Na2  1  0.48871199  0.44829100  0.74720500  1
  Na  Na3  1  0.98871198  0.05170900  0.24720503  1
  Na  Na4  1  -0.00000000  0.50000000  0.49999999  1
  Na  Na5  1  0.49999999  1.00000000  0.00000002  1
  Sb  Sb6  1  0.49999999  0.00000000  0.50000001  1
  Hf  Hf7  1  -0.00000000  0.50000000  0.99999998  1
  F  F8  1  0.78595098  0.82783400  0.43787302  1
  F  F9  1  0.28595099  0.67216600  0.93787299  1
  F  F10  1  0.21404900  0.17216600  0.56212699  1
  F  F11  1  0.71404898  0.32783400  0.06212703  1
  F  F12  1  0.84017098  0.78962000  0.06464903  1
  F  F13  1  0.34017099  0.71038000  0.56464900  1
  F  F14  1  0.15982900  0.21038000  0.93535098  1
  F  F15  1  0.65982898  0.28962000  0.43535101  1
  F  F16  1  0.37948099  0.94664500  0.27453601  1
  F  F17  1  0.87948098  0.55335500  0.77453601  1
  F  F18  1  0.62051899  0.05335500  0.72546401  1
  F  F19  1  0.12051900  0.44664500  0.22546400  1
