# generated using pymatgen
data_TmZr(HO2)2
_symmetry_space_group_name_H-M   'P 1'
_cell_length_a   3.32960606
_cell_length_b   4.63825083
_cell_length_c   5.37678099
_cell_angle_alpha   90.00000000
_cell_angle_beta   90.00000000
_cell_angle_gamma   90.00000000
_symmetry_Int_Tables_number   1
_chemical_formula_structural   TmZr(HO2)2
_chemical_formula_sum   'Tm1 Zr1 H2 O4'
_cell_volume   83.03657550
_cell_formula_units_Z   1
loop_
 _symmetry_equiv_pos_site_id
 _symmetry_equiv_pos_as_xyz
  1  'x, y, z'
loop_
 _atom_site_type_symbol
 _atom_site_label
 _atom_site_symmetry_multiplicity
 _atom_site_fract_x
 _atom_site_fract_y
 _atom_site_fract_z
 _atom_site_occupancy
  Tm  Tm0  1  -0.00000000  0.73125903  0.99910900  1
  Zr  Zr1  1  0.49999999  0.26874101  0.49910900  1
  H  H2  1  -0.00000000  0.79582103  0.48082900  1
  H  H3  1  0.49999999  0.20417901  0.98082900  1
  O  O4  1  -0.00000000  0.52408502  0.63568000  1
  O  O5  1  0.49999999  0.47591502  0.13568000  1
  O  O6  1  -0.00000000  0.97898904  0.36638200  1
  O  O7  1  0.49999999  0.02101100  0.86638200  1
