# generated using pymatgen
data_SrLiSi
_symmetry_space_group_name_H-M   'P 1'
_cell_length_a   4.26115990
_cell_length_b   4.26115942
_cell_length_c   5.25952721
_cell_angle_alpha   90.00000000
_cell_angle_beta   90.00000000
_cell_angle_gamma   120.00000763
_symmetry_Int_Tables_number   1
_chemical_formula_structural   SrLiSi
_chemical_formula_sum   'Sr1 Li1 Si1'
_cell_volume   82.70521935
_cell_formula_units_Z   1
loop_
 _symmetry_equiv_pos_site_id
 _symmetry_equiv_pos_as_xyz
  1  'x, y, z'
loop_
 _atom_site_type_symbol
 _atom_site_label
 _atom_site_symmetry_multiplicity
 _atom_site_fract_x
 _atom_site_fract_y
 _atom_site_fract_z
 _atom_site_occupancy
  Sr  Sr0  1  0.00000000  0.00000000  0.00000000  1
  Li  Li1  1  0.66666670  0.33333333  0.49999998  1
  Si  Si2  1  0.33333337  0.66666666  0.49999998  1
