# generated using pymatgen
data_TiVCrFeCuAs(Se2S)4
_symmetry_space_group_name_H-M   'P 1'
_cell_length_a   6.82548809
_cell_length_b   6.88021708
_cell_length_c   6.98117208
_cell_angle_alpha   80.58835602
_cell_angle_beta   70.75092316
_cell_angle_gamma   60.26278687
_symmetry_Int_Tables_number   1
_chemical_formula_structural   TiVCrFeCuAs(Se2S)4
_chemical_formula_sum   'Ti1 V1 Cr1 Fe1 Cu1 As1 Se8 S4'
_cell_volume   268.75351797
_cell_formula_units_Z   1
loop_
 _symmetry_equiv_pos_site_id
 _symmetry_equiv_pos_as_xyz
  1  'x, y, z'
loop_
 _atom_site_type_symbol
 _atom_site_label
 _atom_site_symmetry_multiplicity
 _atom_site_fract_x
 _atom_site_fract_y
 _atom_site_fract_z
 _atom_site_occupancy
  Cu  Cu0  1  0.91881498  0.16237000  0.25000002  1
  V  V1  1  0.24300598  0.51398799  0.25000004  1
  Fe  Fe2  1  0.08118498  0.83762999  0.75000006  1
  Ti  Ti3  1  0.75699398  0.48601199  0.75000004  1
  Cr  Cr4  1  0.59272997  0.81453999  0.25000006  1
  As  As5  1  0.40726999  0.18546000  0.75000002  1
  Se  Se6  1  0.31515199  0.15438300  0.11580301  1
  Se  Se7  1  0.93313796  0.83710899  0.12866006  1
  Se  Se8  1  0.77024698  0.16289100  0.62866002  1
  S  S9  1  0.62865598  0.51035099  0.12593704  1
  Se  Se10  1  0.06686199  0.16289100  0.87134001  1
  Se  Se11  1  0.46953497  0.84561699  0.61580306  1
  Se  Se12  1  0.68484797  0.84561699  0.88419706  1
  Se  Se13  1  0.13900699  0.48964899  0.62593703  1
  S  S14  1  0.53046499  0.15438300  0.38419702  1
  Se  Se15  1  0.37134398  0.48964899  0.87406304  1
  S  S16  1  0.22975298  0.83710899  0.37134006  1
  S  S17  1  0.86099297  0.51035099  0.37406304  1
