# generated using pymatgen
data_AlCo2Cu2SCl10
_symmetry_space_group_name_H-M   'P 1'
_cell_length_a   6.52372217
_cell_length_b   6.52372217
_cell_length_c   6.52372217
_cell_angle_alpha   90.00000000
_cell_angle_beta   90.00000000
_cell_angle_gamma   90.00000000
_symmetry_Int_Tables_number   1
_chemical_formula_structural   AlCo2Cu2SCl10
_chemical_formula_sum   'Al1 Co2 Cu2 S1 Cl10'
_cell_volume   277.64277208
_cell_formula_units_Z   1
loop_
 _symmetry_equiv_pos_site_id
 _symmetry_equiv_pos_as_xyz
  1  'x, y, z'
loop_
 _atom_site_type_symbol
 _atom_site_label
 _atom_site_symmetry_multiplicity
 _atom_site_fract_x
 _atom_site_fract_y
 _atom_site_fract_z
 _atom_site_occupancy
  Co  Co0  1  0.61918598  0.88081398  0.11918600  1
  Al  Al1  1  0.88081398  0.11918600  0.61918598  1
  Cu  Cu2  1  0.11918600  0.61918598  0.88081398  1
  Cu  Cu3  1  0.38081399  0.38081399  0.38081399  1
  S  S4  1  0.38081399  0.11918600  0.88081398  1
  Co  Co5  1  0.11918600  0.88081398  0.38081399  1
  Cl  Cl6  1  0.88081398  0.38081399  0.11918600  1
  Cl  Cl7  1  0.61918598  0.61918598  0.61918598  1
  Cl  Cl8  1  0.15717000  0.34282999  0.65716998  1
  Cl  Cl9  1  0.34282999  0.65716998  0.15717000  1
  Cl  Cl10  1  0.65716998  0.15717000  0.34282999  1
  Cl  Cl11  1  0.84282998  0.84282998  0.84282998  1
  Cl  Cl12  1  0.84282998  0.65716998  0.34282999  1
  Cl  Cl13  1  0.65716998  0.34282999  0.84282998  1
  Cl  Cl14  1  0.34282999  0.84282998  0.65716998  1
  Cl  Cl15  1  0.15717000  0.15717000  0.15717000  1
