# generated using pymatgen
data_K2HfRhO6
_symmetry_space_group_name_H-M   'P 1'
_cell_length_a   5.99657011
_cell_length_b   6.01680136
_cell_length_c   5.99657011
_cell_angle_alpha   119.88883209
_cell_angle_beta   90.00000000
_cell_angle_gamma   119.88883209
_symmetry_Int_Tables_number   1
_chemical_formula_structural   K2HfRhO6
_chemical_formula_sum   'K2 Hf1 Rh1 O6'
_cell_volume   153.50039194
_cell_formula_units_Z   1
loop_
 _symmetry_equiv_pos_site_id
 _symmetry_equiv_pos_as_xyz
  1  'x, y, z'
loop_
 _atom_site_type_symbol
 _atom_site_label
 _atom_site_symmetry_multiplicity
 _atom_site_fract_x
 _atom_site_fract_y
 _atom_site_fract_z
 _atom_site_occupancy
  K  K0  1  0.25000000  0.50000002  0.74999999  1
  K  K1  1  0.74999999  0.50000002  0.25000000  1
  Rh  Rh2  1  0.00000000  0.00000000  0.00000000  1
  Hf  Hf3  1  0.49999999  0.00000000  0.49999999  1
  O  O4  1  0.25000000  0.50000002  0.25000000  1
  O  O5  1  0.74999999  0.50000002  0.74999999  1
  O  O6  1  0.77278700  0.99999903  0.72721200  1
  O  O7  1  0.22721300  0.00000100  0.27278800  1
  O  O8  1  0.27278700  0.00000000  0.77278699  1
  O  O9  1  0.72721299  0.00000000  0.22721300  1
