# generated using pymatgen
data_La2Bi2PbSO2
_symmetry_space_group_name_H-M   'P 1'
_cell_length_a   4.41294289
_cell_length_b   4.41294289
_cell_length_c   9.52703762
_cell_angle_alpha   90.00000000
_cell_angle_beta   90.00000000
_cell_angle_gamma   90.00000000
_symmetry_Int_Tables_number   1
_chemical_formula_structural   La2Bi2PbSO2
_chemical_formula_sum   'La2 Bi2 Pb1 S1 O2'
_cell_volume   185.53014910
_cell_formula_units_Z   1
loop_
 _symmetry_equiv_pos_site_id
 _symmetry_equiv_pos_as_xyz
  1  'x, y, z'
loop_
 _atom_site_type_symbol
 _atom_site_label
 _atom_site_symmetry_multiplicity
 _atom_site_fract_x
 _atom_site_fract_y
 _atom_site_fract_z
 _atom_site_occupancy
  La  La0  1  -0.00000000  0.50000001  0.83959603  1
  La  La1  1  0.50000001  0.00000000  0.16040401  1
  Bi  Bi2  1  0.50000001  0.50000001  0.50000002  1
  Bi  Bi3  1  0.00000000  0.00000000  0.50000002  1
  S  S4  1  -0.00000000  0.50000001  0.31920601  1
  Pb  Pb5  1  0.50000001  0.00000000  0.68079403  1
  O  O6  1  0.50000001  0.50000001  0.00000000  1
  O  O7  1  0.00000000  0.00000000  0.00000000  1
