# generated using pymatgen
data_TiO2
_symmetry_space_group_name_H-M   'P 1'
_cell_length_a   4.70218897
_cell_length_b   4.71147394
_cell_length_c   9.29649067
_cell_angle_alpha   89.99755096
_cell_angle_beta   89.99999237
_cell_angle_gamma   90.01599884
_symmetry_Int_Tables_number   1
_chemical_formula_structural   TiO2
_chemical_formula_sum   'Ti6 O12'
_cell_volume   205.95668462
_cell_formula_units_Z   6
loop_
 _symmetry_equiv_pos_site_id
 _symmetry_equiv_pos_as_xyz
  1  'x, y, z'
loop_
 _atom_site_type_symbol
 _atom_site_label
 _atom_site_symmetry_multiplicity
 _atom_site_fract_x
 _atom_site_fract_y
 _atom_site_fract_z
 _atom_site_occupancy
  Ti  Ti0  1  0.01058100  0.01249900  0.99998804  1
  Ti  Ti1  1  0.49419204  0.49805801  0.83691402  1
  Ti  Ti2  1  0.49418504  0.49812601  0.16311900  1
  Ti  Ti3  1  0.51072304  0.48745301  0.50001501  1
  Ti  Ti4  1  0.99418402  0.00192400  0.33674100  1
  Ti  Ti5  1  0.99422102  0.00189600  0.66324501  1
  O  O6  1  0.80399103  0.18995600  0.50000101  1
  O  O7  1  0.30401602  0.31000101  0.99997003  1
  O  O8  1  0.70278406  0.70571302  0.99999702  1
  O  O9  1  0.20313505  0.79429702  0.49999901  1
  O  O10  1  0.80251103  0.19780500  0.83334502  1
  O  O11  1  0.80244803  0.19769100  0.16668199  1
  O  O12  1  0.30242502  0.30223901  0.66648202  1
  O  O13  1  0.30242102  0.30224501  0.33352301  1
  O  O14  1  0.69455706  0.69306302  0.66864401  1
  O  O15  1  0.69456306  0.69306602  0.33135300  1
  O  O16  1  0.19452305  0.80704402  0.16882900  1
  O  O17  1  0.19454405  0.80692402  0.83115402  1
