# generated using pymatgen
data_KLiZn(HgO2)2
_symmetry_space_group_name_H-M   'P 1'
_cell_length_a   6.63717604
_cell_length_b   6.96227217
_cell_length_c   6.96227217
_cell_angle_alpha   90.00000000
_cell_angle_beta   90.00000000
_cell_angle_gamma   90.00000000
_symmetry_Int_Tables_number   1
_chemical_formula_structural   KLiZn(HgO2)2
_chemical_formula_sum   'K2 Li2 Zn2 Hg4 O8'
_cell_volume   321.72538534
_cell_formula_units_Z   2
loop_
 _symmetry_equiv_pos_site_id
 _symmetry_equiv_pos_as_xyz
  1  'x, y, z'
loop_
 _atom_site_type_symbol
 _atom_site_label
 _atom_site_symmetry_multiplicity
 _atom_site_fract_x
 _atom_site_fract_y
 _atom_site_fract_z
 _atom_site_occupancy
  K  K0  1  0.00000000  0.00000000  0.00000000  1
  K  K1  1  0.99999999  0.49999999  0.49999999  1
  Li  Li2  1  0.50000000  0.74999998  0.24999999  1
  Zn  Zn3  1  0.50000000  0.24999999  0.74999998  1
  Li  Li4  1  0.50000000  0.74999998  0.74999998  1
  Zn  Zn5  1  0.50000000  0.24999999  0.24999999  1
  Hg  Hg6  1  0.75944300  0.49999999  0.00000000  1
  Hg  Hg7  1  0.24055700  0.49999999  0.00000000  1
  Hg  Hg8  1  0.24055700  0.00000000  0.49999999  1
  Hg  Hg9  1  0.75944300  0.00000000  0.49999999  1
  O  O10  1  0.77157800  0.78911998  0.28911999  1
  O  O11  1  0.22842200  0.71087998  0.21087999  1
  O  O12  1  0.77157800  0.21087999  0.71087998  1
  O  O13  1  0.22842200  0.28911999  0.78911998  1
  O  O14  1  0.77157800  0.28911999  0.21087999  1
  O  O15  1  0.22842200  0.78911998  0.71087998  1
  O  O16  1  0.22842200  0.21087999  0.28911999  1
  O  O17  1  0.77157800  0.71087998  0.78911998  1
