# generated using pymatgen
data_CsAs2P3WSe8
_symmetry_space_group_name_H-M   'P 1'
_cell_length_a   6.96670294
_cell_length_b   8.14256859
_cell_length_c   9.53380966
_cell_angle_alpha   108.22884369
_cell_angle_beta   92.89387512
_cell_angle_gamma   108.64865112
_symmetry_Int_Tables_number   1
_chemical_formula_structural   CsAs2P3WSe8
_chemical_formula_sum   'Cs1 As2 P3 W1 Se8'
_cell_volume   479.85672809
_cell_formula_units_Z   1
loop_
 _symmetry_equiv_pos_site_id
 _symmetry_equiv_pos_as_xyz
  1  'x, y, z'
loop_
 _atom_site_type_symbol
 _atom_site_label
 _atom_site_symmetry_multiplicity
 _atom_site_fract_x
 _atom_site_fract_y
 _atom_site_fract_z
 _atom_site_occupancy
  W  W0  1  0.11108801  0.45748099  0.74617303  1
  Cs  Cs1  1  0.88891202  0.54251899  0.25382705  1
  P  P2  1  0.74289103  0.83843599  0.74091006  1
  P  P3  1  0.25710901  0.16156400  0.25909002  1
  P  P4  1  0.33279701  0.08211000  0.88330904  1
  As  As5  1  0.50000001  0.00000000  0.50000004  1
  As  As6  1  0.66720303  0.91788999  0.11669104  1
  Se  Se7  1  0.92639401  0.13597100  0.33954606  1
  Se  Se8  1  0.33707701  0.35416099  0.10671302  1
  Se  Se9  1  0.49874701  0.29190800  0.49641404  1
  Se  Se10  1  0.72046501  0.13432000  0.88127406  1
  Se  Se11  1  0.50125302  0.70809199  0.50358604  1
  Se  Se12  1  0.27953502  0.86567999  0.11872602  1
  Se  Se13  1  0.07360602  0.86402899  0.66045403  1
  Se  Se14  1  0.66292302  0.64583899  0.89328706  1
