# generated using pymatgen
data_ZnInGaSe4
_symmetry_space_group_name_H-M   'P 1'
_cell_length_a   5.65995216
_cell_length_b   5.65995216
_cell_length_c   6.93893576
_cell_angle_alpha   114.06922150
_cell_angle_beta   114.06922150
_cell_angle_gamma   90.00000000
_symmetry_Int_Tables_number   1
_chemical_formula_structural   ZnInGaSe4
_chemical_formula_sum   'Zn1 In1 Ga1 Se4'
_cell_volume   181.58906402
_cell_formula_units_Z   1
loop_
 _symmetry_equiv_pos_site_id
 _symmetry_equiv_pos_as_xyz
  1  'x, y, z'
loop_
 _atom_site_type_symbol
 _atom_site_label
 _atom_site_symmetry_multiplicity
 _atom_site_fract_x
 _atom_site_fract_y
 _atom_site_fract_z
 _atom_site_occupancy
  Ga  Ga0  1  0.74999997  0.24999999  0.49999999  1
  Zn  Zn1  1  0.24999997  0.74999997  0.49999999  1
  In  In2  1  0.49999997  0.49999998  1.00000000  1
  Se  Se3  1  0.10011898  0.64114597  0.74549799  1
  Se  Se4  1  0.64537897  0.10435200  0.74549800  1
  Se  Se5  1  0.35885398  0.35462099  0.25450199  1
  Se  Se6  1  0.89564795  0.89988096  0.25450197  1
