# generated using pymatgen
data_ReMo6SeS8
_symmetry_space_group_name_H-M   'P 1'
_cell_length_a   6.70666409
_cell_length_b   6.70672417
_cell_length_c   6.72212458
_cell_angle_alpha   98.49433899
_cell_angle_beta   95.37876892
_cell_angle_gamma   97.44552612
_symmetry_Int_Tables_number   1
_chemical_formula_structural   ReMo6SeS8
_chemical_formula_sum   'Re1 Mo6 Se1 S8'
_cell_volume   294.55053183
_cell_formula_units_Z   1
loop_
 _symmetry_equiv_pos_site_id
 _symmetry_equiv_pos_as_xyz
  1  'x, y, z'
loop_
 _atom_site_type_symbol
 _atom_site_label
 _atom_site_symmetry_multiplicity
 _atom_site_fract_x
 _atom_site_fract_y
 _atom_site_fract_z
 _atom_site_occupancy
  Mo  Mo0  1  0.07045003  0.82249399  0.09948405  1
  Re  Re1  1  0.92955002  0.17750600  0.90051603  1
  Mo  Mo2  1  0.59698303  0.77117499  0.46485706  1
  Mo  Mo3  1  0.23292302  0.53782199  0.40882504  1
  Mo  Mo4  1  0.46094603  0.60166699  0.76893204  1
  Mo  Mo5  1  0.53905402  0.39833300  0.23106804  1
  Mo  Mo6  1  0.76707703  0.46217799  0.59117505  1
  Se  Se7  1  0.40301701  0.22882500  0.53514302  1
  S  S8  1  0.29358503  0.86801199  0.62746606  1
  S  S9  1  0.39476403  0.70392199  0.13968405  1
  S  S10  1  0.80176204  0.80580799  0.80877406  1
  S  S11  1  0.86783403  0.61397899  0.29412006  1
  S  S12  1  0.13216601  0.38602100  0.70588002  1
  S  S13  1  0.19823801  0.19419200  0.19122602  1
  S  S14  1  0.60523602  0.29607800  0.86031603  1
  S  S15  1  0.70641501  0.13198800  0.37253403  1
