# generated using pymatgen
data_NaVO3
_symmetry_space_group_name_H-M   'P 1'
_cell_length_a   5.39518976
_cell_length_b   6.50183916
_cell_length_c   7.18464613
_cell_angle_alpha   90.00000000
_cell_angle_beta   90.00000000
_cell_angle_gamma   90.00000000
_symmetry_Int_Tables_number   1
_chemical_formula_structural   NaVO3
_chemical_formula_sum   'Na4 V4 O12'
_cell_volume   252.02773061
_cell_formula_units_Z   4
loop_
 _symmetry_equiv_pos_site_id
 _symmetry_equiv_pos_as_xyz
  1  'x, y, z'
loop_
 _atom_site_type_symbol
 _atom_site_label
 _atom_site_symmetry_multiplicity
 _atom_site_fract_x
 _atom_site_fract_y
 _atom_site_fract_z
 _atom_site_occupancy
  Na  Na0  1  0.97386704  0.89569298  0.74999999  1
  Na  Na1  1  0.02613300  0.10430700  0.25000000  1
  Na  Na2  1  0.47386702  0.60430699  0.25000000  1
  Na  Na3  1  0.52613302  0.39569299  0.74999999  1
  V  V4  1  0.50000002  0.00000000  0.49999999  1
  V  V5  1  -0.00000000  0.49999999  0.49999999  1
  V  V6  1  0.50000002  0.00000000  0.00000000  1
  V  V7  1  -0.00000000  0.49999999  0.00000000  1
  O  O8  1  0.10916500  0.53723099  0.74999999  1
  O  O9  1  0.21540401  0.84428498  0.04548500  1
  O  O10  1  0.21540401  0.84428498  0.45451499  1
  O  O11  1  0.28459601  0.34428499  0.04548500  1
  O  O12  1  0.28459601  0.34428499  0.45451499  1
  O  O13  1  0.39083502  0.03723100  0.74999999  1
  O  O14  1  0.60916503  0.96276898  0.25000000  1
  O  O15  1  0.71540403  0.65571498  0.54548499  1
  O  O16  1  0.71540403  0.65571498  0.95451498  1
  O  O17  1  0.78459603  0.15571500  0.54548499  1
  O  O18  1  0.78459603  0.15571500  0.95451498  1
  O  O19  1  0.89083504  0.46276899  0.25000000  1
