# generated using pymatgen
data_LiHfCrCoO8
_symmetry_space_group_name_H-M   'P 1'
_cell_length_a   4.97458172
_cell_length_b   4.97562838
_cell_length_c   6.68647432
_cell_angle_alpha   90.00081635
_cell_angle_beta   90.00389099
_cell_angle_gamma   112.69004822
_symmetry_Int_Tables_number   1
_chemical_formula_structural   LiHfCrCoO8
_chemical_formula_sum   'Li1 Hf1 Cr1 Co1 O8'
_cell_volume   152.69244107
_cell_formula_units_Z   1
loop_
 _symmetry_equiv_pos_site_id
 _symmetry_equiv_pos_as_xyz
  1  'x, y, z'
loop_
 _atom_site_type_symbol
 _atom_site_label
 _atom_site_symmetry_multiplicity
 _atom_site_fract_x
 _atom_site_fract_y
 _atom_site_fract_z
 _atom_site_occupancy
  Li  Li0  1  0.00000000  0.00000000  0.50000000  1
  Hf  Hf1  1  0.00000000  0.00000000  0.00000000  1
  Cr  Cr2  1  0.65152004  0.34853202  0.25006297  1
  Co  Co3  1  0.34848005  0.65146704  0.74993698  1
  O  O4  1  0.75875104  0.24131001  0.46039197  1
  O  O5  1  0.24124805  0.75869004  0.53960798  1
  O  O6  1  0.75864204  0.24151201  0.03966997  1
  O  O7  1  0.24135705  0.75848804  0.96032998  1
  O  O8  1  0.22016902  0.28030202  0.74979299  1
  O  O9  1  0.77983207  0.71969704  0.25020696  1
  O  O10  1  0.71996807  0.78032604  0.74984396  1
  O  O11  1  0.28003302  0.21967401  0.25015599  1
