# generated using pymatgen
data_Na2Mn2V(CuO4)3
_symmetry_space_group_name_H-M   'P 1'
_cell_length_a   5.91184568
_cell_length_b   6.95554018
_cell_length_c   6.95554018
_cell_angle_alpha   83.22737885
_cell_angle_beta   75.30011749
_cell_angle_gamma   75.30011749
_symmetry_Int_Tables_number   1
_chemical_formula_structural   Na2Mn2V(CuO4)3
_chemical_formula_sum   'Na2 Mn2 V1 Cu3 O12'
_cell_volume   267.15697527
_cell_formula_units_Z   1
loop_
 _symmetry_equiv_pos_site_id
 _symmetry_equiv_pos_as_xyz
  1  'x, y, z'
loop_
 _atom_site_type_symbol
 _atom_site_label
 _atom_site_symmetry_multiplicity
 _atom_site_fract_x
 _atom_site_fract_y
 _atom_site_fract_z
 _atom_site_occupancy
  Na  Na0  1  0.25000001  0.28646799  0.71353198  1
  Na  Na1  1  0.75000004  0.71353198  0.28646798  1
  Mn  Mn2  1  0.25000002  0.91204098  0.08795898  1
  Mn  Mn3  1  0.75000003  0.08795900  0.91204098  1
  Cu  Cu4  1  0.74433903  0.61995299  0.80394397  1
  Cu  Cu5  1  0.75566103  0.19605600  0.38004699  1
  Cu  Cu6  1  0.24433902  0.80394398  0.61995297  1
  V  V7  1  0.25566101  0.38004699  0.19605599  1
  O  O8  1  0.35580002  0.21028600  0.02135500  1
  O  O9  1  0.46517102  0.35405099  0.35585999  1
  O  O10  1  0.29689702  0.90738898  0.38807397  1
  O  O11  1  0.14420002  0.97864498  0.78971396  1
  O  O12  1  0.20310302  0.61192599  0.09261098  1
  O  O13  1  0.96517104  0.35585999  0.35405099  1
  O  O14  1  0.64420003  0.78971398  0.97864496  1
  O  O15  1  0.53482903  0.64594898  0.64413997  1
  O  O16  1  0.70310302  0.09261100  0.61192599  1
  O  O17  1  0.85580003  0.02135500  0.21028600  1
  O  O18  1  0.79689703  0.38807399  0.90738898  1
  O  O19  1  0.03482901  0.64413998  0.64594897  1
