# generated using pymatgen
data_Ca2MgScAlGa2SnGeC
_symmetry_space_group_name_H-M   'P 1'
_cell_length_a   6.63690710
_cell_length_b   6.63690710
_cell_length_c   6.63690710
_cell_angle_alpha   60.00000000
_cell_angle_beta   60.00000000
_cell_angle_gamma   60.00000000
_symmetry_Int_Tables_number   1
_chemical_formula_structural   Ca2MgScAlGa2SnGeC
_chemical_formula_sum   'Ca2 Mg1 Sc1 Al1 Ga2 Sn1 Ge1 C1'
_cell_volume   206.71986765
_cell_formula_units_Z   1
loop_
 _symmetry_equiv_pos_site_id
 _symmetry_equiv_pos_as_xyz
  1  'x, y, z'
loop_
 _atom_site_type_symbol
 _atom_site_label
 _atom_site_symmetry_multiplicity
 _atom_site_fract_x
 _atom_site_fract_y
 _atom_site_fract_z
 _atom_site_occupancy
  Sc  Sc0  1  0.25000000  0.25000000  0.25000000  1
  Ca  Ca1  1  0.75000000  0.75000000  0.75000000  1
  Ca  Ca2  1  0.50000000  0.50000000  0.50000000  1
  Mg  Mg3  1  0.00000000  0.00000000  0.00000000  1
  Ga  Ga4  1  0.22008000  0.77992000  0.22008000  1
  Ge  Ge5  1  0.22008000  0.22008000  0.77992000  1
  Ga  Ga6  1  0.77992000  0.22008000  0.77992000  1
  Sn  Sn7  1  0.22008000  0.77992000  0.77992000  1
  Al  Al8  1  0.77992000  0.22008000  0.22008000  1
  C  C9  1  0.77992000  0.77992000  0.22008000  1
