# generated using pymatgen
data_BaSr(SeO4)2
_symmetry_space_group_name_H-M   'P 1'
_cell_length_a   5.63302612
_cell_length_b   5.63519716
_cell_length_c   7.70742464
_cell_angle_alpha   110.38240051
_cell_angle_beta   110.93857574
_cell_angle_gamma   90.02036285
_symmetry_Int_Tables_number   1
_chemical_formula_structural   BaSr(SeO4)2
_chemical_formula_sum   'Ba1 Sr1 Se2 O8'
_cell_volume   212.00728233
_cell_formula_units_Z   1
loop_
 _symmetry_equiv_pos_site_id
 _symmetry_equiv_pos_as_xyz
  1  'x, y, z'
loop_
 _atom_site_type_symbol
 _atom_site_label
 _atom_site_symmetry_multiplicity
 _atom_site_fract_x
 _atom_site_fract_y
 _atom_site_fract_z
 _atom_site_occupancy
  Sr  Sr0  1  0.75191299  0.25302101  0.50143403  1
  Ba  Ba1  1  0.50471998  0.50121801  0.00161701  1
  Se  Se2  1  0.25095797  0.74167502  0.49727600  1
  Se  Se3  1  0.99168397  0.99667902  0.99729803  1
  O  O4  1  0.40471598  0.58783601  0.63693101  1
  O  O5  1  0.84007600  0.15060900  0.85686104  1
  O  O6  1  0.01171398  0.70977502  0.86008499  1
  O  O7  1  0.40068797  0.76036202  0.35588400  1
  O  O8  1  0.96044198  0.59237001  0.36071403  1
  O  O9  1  0.83920397  0.98053002  0.13762902  1
  O  O10  1  0.23127800  0.06149700  0.64734001  1
  O  O11  1  0.31260699  0.16442600  0.14693001  1
