# generated using pymatgen
data_Rb5B(SbS6)2
_symmetry_space_group_name_H-M   'P 1'
_cell_length_a   7.77369499
_cell_length_b   8.86961365
_cell_length_c   9.82996178
_cell_angle_alpha   90.00000000
_cell_angle_beta   90.00000000
_cell_angle_gamma   106.03916931
_symmetry_Int_Tables_number   1
_chemical_formula_structural   Rb5B(SbS6)2
_chemical_formula_sum   'Rb5 B1 Sb2 S12'
_cell_volume   651.38900176
_cell_formula_units_Z   1
loop_
 _symmetry_equiv_pos_site_id
 _symmetry_equiv_pos_as_xyz
  1  'x, y, z'
loop_
 _atom_site_type_symbol
 _atom_site_label
 _atom_site_symmetry_multiplicity
 _atom_site_fract_x
 _atom_site_fract_y
 _atom_site_fract_z
 _atom_site_occupancy
  Rb  Rb0  1  0.60339001  0.47966103  0.33609201  1
  Rb  Rb1  1  0.89661001  0.52033903  0.83609202  1
  Rb  Rb2  1  0.39661001  0.52033903  0.66390802  1
  Rb  Rb3  1  0.10339001  0.47966103  0.16390800  1
  Rb  Rb4  1  0.24401401  0.99720406  0.13876100  1
  B  B5  1  0.25598600  0.00279600  0.63876101  1
  Sb  Sb6  1  0.75598600  0.00279600  0.86123902  1
  Sb  Sb7  1  0.74401401  0.99720406  0.36123901  1
  S  S8  1  0.97754901  0.35982702  0.53537301  1
  S  S9  1  0.47754900  0.35982702  0.96462702  1
  S  S10  1  0.02245101  0.64017304  0.46462701  1
  S  S11  1  0.52245101  0.64017304  0.03537300  1
  S  S12  1  0.33333334  0.75596104  0.40026501  1
  S  S13  1  0.83598701  0.76428204  0.60022801  1
  S  S14  1  0.16401300  0.23571801  0.39977201  1
  S  S15  1  0.33598701  0.76428204  0.89977202  1
  S  S16  1  0.16671300  0.24403901  0.90026502  1
  S  S17  1  0.66671300  0.24403901  0.59973501  1
  S  S18  1  0.83328701  0.75596104  0.09973500  1
  S  S19  1  0.66401300  0.23571801  0.10022800  1
