# generated using pymatgen
data_NaSmMgWO6
_symmetry_space_group_name_H-M   'P 1'
_cell_length_a   5.49467897
_cell_length_b   5.56400919
_cell_length_c   7.82454395
_cell_angle_alpha   90.00000000
_cell_angle_beta   90.00826263
_cell_angle_gamma   90.00000000
_symmetry_Int_Tables_number   1
_chemical_formula_structural   NaSmMgWO6
_chemical_formula_sum   'Na2 Sm2 Mg2 W2 O12'
_cell_volume   239.21543173
_cell_formula_units_Z   2
loop_
 _symmetry_equiv_pos_site_id
 _symmetry_equiv_pos_as_xyz
  1  'x, y, z'
loop_
 _atom_site_type_symbol
 _atom_site_label
 _atom_site_symmetry_multiplicity
 _atom_site_fract_x
 _atom_site_fract_y
 _atom_site_fract_z
 _atom_site_occupancy
  Na  Na0  1  0.00830400  0.04010800  0.25034600  1
  Na  Na1  1  0.49169600  0.54010798  0.24965402  1
  Sm  Sm2  1  0.50830400  0.45989198  0.75034603  1
  Sm  Sm3  1  0.99169600  0.95989197  0.74965405  1
  Mg  Mg4  1  -0.00000000  0.49999998  0.50000001  1
  Mg  Mg5  1  0.50000000  0.99999997  0.00000002  1
  W  W6  1  -0.00000000  0.49999998  1.00000002  1
  W  W7  1  0.50000000  0.00000000  0.50000003  1
  O  O8  1  0.21081000  0.80435997  0.45408101  1
  O  O9  1  0.28919000  0.30435999  0.04591901  1
  O  O10  1  0.78919000  0.19563999  0.54591904  1
  O  O11  1  0.71081000  0.69563998  0.95408104  1
  O  O12  1  0.30864500  0.28757199  0.45170502  1
  O  O13  1  0.19135500  0.78757197  0.04829501  1
  O  O14  1  0.69135500  0.71242798  0.54829503  1
  O  O15  1  0.80864500  0.21242799  0.95170504  1
  O  O16  1  0.90876100  0.47282098  0.24096003  1
  O  O17  1  0.59123900  0.97282097  0.25904002  1
  O  O18  1  0.09123900  0.52717898  0.75904002  1
  O  O19  1  0.40876100  0.02717900  0.74096003  1
