# generated using pymatgen
data_Al2GaGeAs4
_symmetry_space_group_name_H-M   'P 1'
_cell_length_a   5.70660019
_cell_length_b   5.70660019
_cell_length_c   6.96912050
_cell_angle_alpha   114.16842651
_cell_angle_beta   114.16842651
_cell_angle_gamma   90.00000000
_symmetry_Int_Tables_number   1
_chemical_formula_structural   Al2GaGeAs4
_chemical_formula_sum   'Al2 Ga1 Ge1 As4'
_cell_volume   185.03847115
_cell_formula_units_Z   1
loop_
 _symmetry_equiv_pos_site_id
 _symmetry_equiv_pos_as_xyz
  1  'x, y, z'
loop_
 _atom_site_type_symbol
 _atom_site_label
 _atom_site_symmetry_multiplicity
 _atom_site_fract_x
 _atom_site_fract_y
 _atom_site_fract_z
 _atom_site_occupancy
  Al  Al0  1  0.74999994  0.24999998  0.49999995  1
  Al  Al1  1  0.24999994  0.74999995  0.49999994  1
  Ga  Ga2  1  0.49999994  0.49999997  -0.00000006  1
  Ge  Ge3  1  0.00000000  0.00000000  0.00000000  1
  As  As4  1  0.12589396  0.62840196  0.75429595  1
  As  As5  1  0.87410590  0.87410594  0.24570390  1
  As  As6  1  0.62840196  0.12589399  0.75429596  1
  As  As7  1  0.37159796  0.37159797  0.24570396  1
