# generated using pymatgen
data_BaTb2PdO5
_symmetry_space_group_name_H-M   'P 1'
_cell_length_a   5.96272087
_cell_length_b   6.68901920
_cell_length_c   6.68901920
_cell_angle_alpha   90.00000000
_cell_angle_beta   90.00000000
_cell_angle_gamma   90.00000000
_symmetry_Int_Tables_number   1
_chemical_formula_structural   BaTb2PdO5
_chemical_formula_sum   'Ba2 Tb4 Pd2 O10'
_cell_volume   266.78988816
_cell_formula_units_Z   2
loop_
 _symmetry_equiv_pos_site_id
 _symmetry_equiv_pos_as_xyz
  1  'x, y, z'
loop_
 _atom_site_type_symbol
 _atom_site_label
 _atom_site_symmetry_multiplicity
 _atom_site_fract_x
 _atom_site_fract_y
 _atom_site_fract_z
 _atom_site_occupancy
  Ba  Ba0  1  0.00000000  0.00000000  0.00000000  1
  Ba  Ba1  1  1.00000002  0.49999998  0.49999998  1
  Tb  Tb2  1  0.50000001  0.82450297  0.67549698  1
  Tb  Tb3  1  0.50000001  0.67549698  0.17549699  1
  Tb  Tb4  1  0.50000001  0.32450299  0.82450297  1
  Tb  Tb5  1  0.50000001  0.17549699  0.32450299  1
  Pd  Pd6  1  1.00000002  0.49999998  0.00000000  1
  Pd  Pd7  1  1.00000002  0.00000000  0.49999998  1
  O  O8  1  0.50000001  0.49999998  0.49999998  1
  O  O9  1  0.50000001  0.00000000  0.00000000  1
  O  O10  1  0.25805101  0.13994300  0.63994298  1
  O  O11  1  0.25805101  0.86005697  0.36005699  1
  O  O12  1  0.25805101  0.36005699  0.13994300  1
  O  O13  1  0.25805101  0.63994298  0.86005697  1
  O  O14  1  0.74194902  0.13994300  0.63994298  1
  O  O15  1  0.74194902  0.63994298  0.86005697  1
  O  O16  1  0.74194902  0.86005697  0.36005699  1
  O  O17  1  0.74194902  0.36005699  0.13994300  1
