# generated using pymatgen
data_K4HgPbAuS11
_symmetry_space_group_name_H-M   'P 1'
_cell_length_a   6.17399788
_cell_length_b   6.26350117
_cell_length_c   11.91229630
_cell_angle_alpha   90.00000000
_cell_angle_beta   90.00000000
_cell_angle_gamma   105.71212006
_symmetry_Int_Tables_number   1
_chemical_formula_structural   K4HgPbAuS11
_chemical_formula_sum   'K4 Hg1 Pb1 Au1 S11'
_cell_volume   443.44579462
_cell_formula_units_Z   1
loop_
 _symmetry_equiv_pos_site_id
 _symmetry_equiv_pos_as_xyz
  1  'x, y, z'
loop_
 _atom_site_type_symbol
 _atom_site_label
 _atom_site_symmetry_multiplicity
 _atom_site_fract_x
 _atom_site_fract_y
 _atom_site_fract_z
 _atom_site_occupancy
  K  K0  1  0.89706698  0.68491298  0.83347898  1
  K  K1  1  0.60293296  0.81508697  0.33347899  1
  K  K2  1  0.10293298  0.31508699  0.16652100  1
  K  K3  1  0.39706700  0.18491299  0.66652098  1
  Pb  Pb4  1  -0.00000003  0.49999998  0.49999999  1
  Hg  Hg5  1  0.49999995  0.99999996  0.00000000  1
  Au  Au6  1  0.64442897  0.71197997  0.59973999  1
  S  S7  1  0.85557097  0.78801997  0.09974000  1
  S  S8  1  0.35557099  0.28801999  0.40025999  1
  S  S9  1  0.14442899  0.21197999  0.90025998  1
  S  S10  1  0.35927797  0.56062998  0.87087698  1
  S  S11  1  0.14072195  0.93936997  0.37087699  1
  S  S12  1  0.64072199  0.43936998  0.12912300  1
  S  S13  1  0.85927801  0.06063000  0.62912298  1
  S  S14  1  0.32841397  0.66624798  0.69525898  1
  S  S15  1  0.17158595  0.83375197  0.19525900  1
  S  S16  1  0.67158599  0.33375199  0.30474099  1
  S  S17  1  0.82841401  0.16624799  0.80474098  1
