# generated using pymatgen
data_Ba4MoRuO5F9
_symmetry_space_group_name_H-M   'P 1'
_cell_length_a   7.32897949
_cell_length_b   7.47990084
_cell_length_c   7.47990084
_cell_angle_alpha   78.24439240
_cell_angle_beta   62.51077652
_cell_angle_gamma   62.51077652
_symmetry_Int_Tables_number   1
_chemical_formula_structural   Ba4MoRuO5F9
_chemical_formula_sum   'Ba4 Mo1 Ru1 O5 F9'
_cell_volume   322.66183478
_cell_formula_units_Z   1
loop_
 _symmetry_equiv_pos_site_id
 _symmetry_equiv_pos_as_xyz
  1  'x, y, z'
loop_
 _atom_site_type_symbol
 _atom_site_label
 _atom_site_symmetry_multiplicity
 _atom_site_fract_x
 _atom_site_fract_y
 _atom_site_fract_z
 _atom_site_occupancy
  Ba  Ba0  1  0.15622101  0.17719800  0.41924798  1
  Ba  Ba1  1  0.50068101  0.17328200  0.82742998  1
  Ba  Ba2  1  0.00068104  0.82742998  0.17328193  1
  Ba  Ba3  1  0.65622103  0.41924799  0.17719797  1
  Ru  Ru4  1  0.08620304  0.68009599  0.66723593  1
  Mo  Mo5  1  0.58620304  0.66723599  0.68009594  1
  O  O6  1  0.36429703  0.60641199  0.73121094  1
  O  O7  1  0.86429704  0.73121098  0.60641194  1
  F  F8  1  0.10812701  0.15555600  0.07302899  1
  O  O9  1  0.76400903  0.57338899  0.39916296  1
  F  F10  1  0.94935204  0.60502199  0.94160395  1
  O  O11  1  0.76450603  0.39742099  0.76150297  1
  O  O12  1  0.97986706  0.94798698  0.76099092  1
  F  F13  1  0.28363703  0.44565299  0.15476896  1
  F  F14  1  0.78363701  0.15476900  0.44565299  1
  F  F15  1  0.44935205  0.94160398  0.60502192  1
  F  F16  1  0.26450604  0.76150298  0.39742093  1
  F  F17  1  0.26400902  0.39916299  0.57338896  1
  F  F18  1  0.60812701  0.07302900  0.15555600  1
  F  F19  1  0.47986704  0.76099098  0.94798693  1
