# generated using pymatgen
data_NaIn3AgS7
_symmetry_space_group_name_H-M   'P 1'
_cell_length_a   6.40794897
_cell_length_b   6.40794897
_cell_length_c   6.40794897
_cell_angle_alpha   90.00000000
_cell_angle_beta   90.00000000
_cell_angle_gamma   90.00000000
_symmetry_Int_Tables_number   1
_chemical_formula_structural   NaIn3AgS7
_chemical_formula_sum   'Na1 In3 Ag1 S7'
_cell_volume   263.12198321
_cell_formula_units_Z   1
loop_
 _symmetry_equiv_pos_site_id
 _symmetry_equiv_pos_as_xyz
  1  'x, y, z'
loop_
 _atom_site_type_symbol
 _atom_site_label
 _atom_site_symmetry_multiplicity
 _atom_site_fract_x
 _atom_site_fract_y
 _atom_site_fract_z
 _atom_site_occupancy
  Na  Na0  1  0.50000000  0.50000000  0.00000000  1
  In  In1  1  0.50000000  0.00000000  0.50000000  1
  In  In2  1  -0.00000000  0.50000000  0.50000000  1
  In  In3  1  0.00000000  0.00000000  0.00000000  1
  S  S4  1  0.09417400  0.90582600  0.40582600  1
  Ag  Ag5  1  0.90582600  0.40582600  0.09417400  1
  S  S6  1  0.40582600  0.09417400  0.90582600  1
  S  S7  1  0.59417400  0.59417400  0.59417400  1
  S  S8  1  0.90582600  0.09417400  0.59417400  1
  S  S9  1  0.09417400  0.59417400  0.90582600  1
  S  S10  1  0.59417400  0.90582600  0.09417400  1
  S  S11  1  0.40582600  0.40582600  0.40582600  1
