# generated using pymatgen
data_MgAlH4
_symmetry_space_group_name_H-M   'P 1'
_cell_length_a   4.87042618
_cell_length_b   4.92332077
_cell_length_c   6.17322206
_cell_angle_alpha   90.00000000
_cell_angle_beta   90.00000000
_cell_angle_gamma   90.00000000
_symmetry_Int_Tables_number   1
_chemical_formula_structural   MgAlH4
_chemical_formula_sum   'Mg2 Al2 H8'
_cell_volume   148.02565697
_cell_formula_units_Z   2
loop_
 _symmetry_equiv_pos_site_id
 _symmetry_equiv_pos_as_xyz
  1  'x, y, z'
loop_
 _atom_site_type_symbol
 _atom_site_label
 _atom_site_symmetry_multiplicity
 _atom_site_fract_x
 _atom_site_fract_y
 _atom_site_fract_z
 _atom_site_occupancy
  Mg  Mg0  1  0.02744200  0.90174304  0.00000000  1
  Mg  Mg1  1  0.52744198  0.09825700  0.49999999  1
  Al  Al2  1  0.47810298  0.34180102  0.00000000  1
  Al  Al3  1  0.97810296  0.65819903  0.49999999  1
  H  H4  1  0.38501299  0.66505503  0.00000000  1
  H  H5  1  0.81646397  0.30249701  0.00000000  1
  H  H6  1  0.33245099  0.17523401  0.21250100  1
  H  H7  1  0.83245097  0.82476604  0.28749900  1
  H  H8  1  0.31646399  0.69750303  0.49999999  1
  H  H9  1  0.88501297  0.33494502  0.49999999  1
  H  H10  1  0.83245097  0.82476604  0.71250099  1
  H  H11  1  0.33245099  0.17523401  0.78749899  1
