# generated using pymatgen
data_LiMgIN2
_symmetry_space_group_name_H-M   'P 1'
_cell_length_a   3.78732991
_cell_length_b   3.78733087
_cell_length_c   6.58903217
_cell_angle_alpha   90.00000000
_cell_angle_beta   90.00000000
_cell_angle_gamma   119.99999237
_symmetry_Int_Tables_number   1
_chemical_formula_structural   LiMgIN2
_chemical_formula_sum   'Li1 Mg1 I1 N2'
_cell_volume   81.84999900
_cell_formula_units_Z   1
loop_
 _symmetry_equiv_pos_site_id
 _symmetry_equiv_pos_as_xyz
  1  'x, y, z'
loop_
 _atom_site_type_symbol
 _atom_site_label
 _atom_site_symmetry_multiplicity
 _atom_site_fract_x
 _atom_site_fract_y
 _atom_site_fract_z
 _atom_site_occupancy
  Li  Li0  1  0.33333334  0.66666667  0.28271899  1
  Mg  Mg1  1  0.66666668  0.33333333  0.71728098  1
  I  I2  1  0.00000000  0.00000000  0.00000000  1
  N  N3  1  0.33333334  0.66666667  0.62944498  1
  N  N4  1  0.66666668  0.33333333  0.37055499  1
