# generated using pymatgen
data_Rb5Tl2In2SbTe4
_symmetry_space_group_name_H-M   'P 1'
_cell_length_a   8.10429573
_cell_length_b   8.68309402
_cell_length_c   11.30045128
_cell_angle_alpha   90.00000000
_cell_angle_beta   110.47891235
_cell_angle_gamma   90.00000000
_symmetry_Int_Tables_number   1
_chemical_formula_structural   Rb5Tl2In2SbTe4
_chemical_formula_sum   'Rb5 Tl2 In2 Sb1 Te4'
_cell_volume   744.95995124
_cell_formula_units_Z   1
loop_
 _symmetry_equiv_pos_site_id
 _symmetry_equiv_pos_as_xyz
  1  'x, y, z'
loop_
 _atom_site_type_symbol
 _atom_site_label
 _atom_site_symmetry_multiplicity
 _atom_site_fract_x
 _atom_site_fract_y
 _atom_site_fract_z
 _atom_site_occupancy
  Rb  Rb0  1  0.69063903  0.25000000  0.40846100  1
  Rb  Rb1  1  0.30936101  0.75000000  0.59153899  1
  Rb  Rb2  1  0.80818104  0.25000000  0.96744798  1
  Rb  Rb3  1  0.19181901  0.75000000  0.03255200  1
  Sb  Sb4  1  0.81375304  0.75000000  0.22312501  1
  Rb  Rb5  1  0.18624701  0.25000000  0.77687498  1
  Tl  Tl6  1  0.03798900  0.00908200  0.28536299  1
  Tl  Tl7  1  0.96201104  0.50908200  0.71463699  1
  In  In8  1  0.96201104  0.99091800  0.71463699  1
  In  In9  1  0.03798900  0.49091800  0.28536299  1
  Te  Te10  1  0.35781802  0.25000000  0.04431201  1
  Te  Te11  1  0.64218203  0.75000000  0.95568798  1
  Te  Te12  1  0.42269502  0.25000000  0.64531499  1
  Te  Te13  1  0.57730503  0.75000000  0.35468500  1
