# generated using pymatgen
data_Na2LiAsO4
_symmetry_space_group_name_H-M   'P 1'
_cell_length_a   5.09410381
_cell_length_b   5.09410381
_cell_length_c   5.98183298
_cell_angle_alpha   115.20117950
_cell_angle_beta   115.20117950
_cell_angle_gamma   90.00000000
_symmetry_Int_Tables_number   1
_chemical_formula_structural   Na2LiAsO4
_chemical_formula_sum   'Na2 Li1 As1 O4'
_cell_volume   123.92908977
_cell_formula_units_Z   1
loop_
 _symmetry_equiv_pos_site_id
 _symmetry_equiv_pos_as_xyz
  1  'x, y, z'
loop_
 _atom_site_type_symbol
 _atom_site_label
 _atom_site_symmetry_multiplicity
 _atom_site_fract_x
 _atom_site_fract_y
 _atom_site_fract_z
 _atom_site_occupancy
  Na  Na0  1  0.50000002  0.50000002  0.00000000  1
  Na  Na1  1  0.75000003  0.25000001  0.50000000  1
  Li  Li2  1  0.25000001  0.75000003  0.50000000  1
  As  As3  1  0.00000000  0.00000000  0.00000000  1
  O  O4  1  0.69575103  0.69575103  0.79007899  1
  O  O5  1  0.30424901  0.90567203  0.20992100  1
  O  O6  1  0.90567203  0.30424901  0.20992100  1
  O  O7  1  0.09432800  0.09432800  0.79007899  1
