# generated using pymatgen
data_Rb3VGeO5
_symmetry_space_group_name_H-M   'P 1'
_cell_length_a   7.31024551
_cell_length_b   8.40082264
_cell_length_c   9.39240551
_cell_angle_alpha   63.43494415
_cell_angle_beta   67.32842255
_cell_angle_gamma   73.30384827
_symmetry_Int_Tables_number   1
_chemical_formula_structural   Rb3VGeO5
_chemical_formula_sum   'Rb6 V2 Ge2 O10'
_cell_volume   471.40966228
_cell_formula_units_Z   2
loop_
 _symmetry_equiv_pos_site_id
 _symmetry_equiv_pos_as_xyz
  1  'x, y, z'
loop_
 _atom_site_type_symbol
 _atom_site_label
 _atom_site_symmetry_multiplicity
 _atom_site_fract_x
 _atom_site_fract_y
 _atom_site_fract_z
 _atom_site_occupancy
  Rb  Rb0  1  0.68746703  0.16406699  0.32813299  1
  Rb  Rb1  1  0.68746706  0.66406698  0.32813298  1
  Rb  Rb2  1  0.68746704  0.41406698  0.82813301  1
  Rb  Rb3  1  0.68746707  0.91406697  0.82813300  1
  Rb  Rb4  1  0.31253306  0.83593297  0.67186700  1
  Rb  Rb5  1  0.31253303  0.33593299  0.67186701  1
  Ge  Ge6  1  0.31253301  0.08593300  0.17186700  1
  Ge  Ge7  1  0.31253304  0.58593298  0.17186699  1
  V  V8  1  0.00000005  0.74999997  0.50000001  1
  V  V9  1  0.00000003  0.49999998  -0.00000001  1
  O  O10  1  0.00000002  0.24999999  0.50000002  1
  O  O11  1  0.00000000  0.00000000  0.00000000  1
  O  O12  1  0.74261507  0.78217297  0.56434599  1
  O  O13  1  0.74261504  0.28217299  0.56434600  1
  O  O14  1  0.74261502  0.03217300  0.06434599  1
  O  O15  1  0.74261505  0.53217298  0.06434598  1
  O  O16  1  0.25738502  0.21782699  0.43565401  1
  O  O17  1  0.25738505  0.71782697  0.43565400  1
  O  O18  1  0.25738504  0.46782698  0.93565402  1
  O  O19  1  0.25738507  0.96782696  0.93565401  1
