# generated using pymatgen
data_Li2CoCl4
_symmetry_space_group_name_H-M   'P 1'
_cell_length_a   6.94991207
_cell_length_b   6.99774027
_cell_length_c   6.99774027
_cell_angle_alpha   61.66917801
_cell_angle_beta   60.22583771
_cell_angle_gamma   60.22583771
_symmetry_Int_Tables_number   1
_chemical_formula_structural   Li2CoCl4
_chemical_formula_sum   'Li4 Co2 Cl8'
_cell_volume   244.38406416
_cell_formula_units_Z   2
loop_
 _symmetry_equiv_pos_site_id
 _symmetry_equiv_pos_as_xyz
  1  'x, y, z'
loop_
 _atom_site_type_symbol
 _atom_site_label
 _atom_site_symmetry_multiplicity
 _atom_site_fract_x
 _atom_site_fract_y
 _atom_site_fract_z
 _atom_site_occupancy
  Li  Li0  1  0.50000000  1.00000000  -0.00000001  1
  Li  Li1  1  0.50000000  0.50000000  0.50000000  1
  Li  Li2  1  0.87339999  0.37660000  0.87660000  1
  Li  Li3  1  0.12660000  0.62340000  0.12340000  1
  Co  Co4  1  0.49999999  0.00000000  0.50000000  1
  Co  Co5  1  0.99999999  1.00000000  0.50000000  1
  Cl  Cl6  1  0.72907399  0.75564300  0.25564300  1
  Cl  Cl7  1  0.25696100  0.22360700  0.26247000  1
  Cl  Cl8  1  0.25964000  0.75564400  0.25564300  1
  Cl  Cl9  1  0.25696200  0.76246900  0.72360700  1
  Cl  Cl10  1  0.74303799  0.23753100  0.27639300  1
  Cl  Cl11  1  0.74303899  0.77639300  0.73753000  1
  Cl  Cl12  1  0.74035999  0.24435600  0.74435700  1
  Cl  Cl13  1  0.27092600  0.24435700  0.74435700  1
