# generated using pymatgen
data_Tl2Ag2Se4S
_symmetry_space_group_name_H-M   'P 1'
_cell_length_a   4.49314785
_cell_length_b   9.37836838
_cell_length_c   12.06446171
_cell_angle_alpha   107.78235626
_cell_angle_beta   90.00000000
_cell_angle_gamma   103.85989380
_symmetry_Int_Tables_number   1
_chemical_formula_structural   Tl2Ag2Se4S
_chemical_formula_sum   'Tl4 Ag4 Se8 S2'
_cell_volume   468.52016777
_cell_formula_units_Z   2
loop_
 _symmetry_equiv_pos_site_id
 _symmetry_equiv_pos_as_xyz
  1  'x, y, z'
loop_
 _atom_site_type_symbol
 _atom_site_label
 _atom_site_symmetry_multiplicity
 _atom_site_fract_x
 _atom_site_fract_y
 _atom_site_fract_z
 _atom_site_occupancy
  Tl  Tl0  1  0.81393406  0.62786804  0.65583903  1
  Tl  Tl1  1  0.18606602  0.37213203  0.34416102  1
  Tl  Tl2  1  0.33626104  0.67252205  0.16146103  1
  Tl  Tl3  1  0.66373904  0.32747802  0.83853902  1
  Ag  Ag4  1  0.59080103  0.18160201  0.51626801  1
  Ag  Ag5  1  0.00769200  0.01538400  0.87747800  1
  Ag  Ag6  1  0.01784900  0.03569800  0.62973200  1
  Ag  Ag7  1  0.58947903  0.17895801  0.08796301  1
  Se  Se8  1  0.40919905  0.81839806  0.48373204  1
  Se  Se9  1  0.41052105  0.82104206  0.91203704  1
  Se  Se10  1  0.98215108  0.96430207  0.37026805  1
  Se  Se11  1  0.99230808  0.98461607  0.12252205  1
  Se  Se12  1  0.85498806  0.70997605  0.95990904  1
  Se  Se13  1  0.16165602  0.32331202  0.61622402  1
  Se  Se14  1  0.46586606  0.93173206  0.72260105  1
  Se  Se15  1  0.83834406  0.67668805  0.38377603  1
  S  S16  1  0.53413402  0.06826800  0.27739900  1
  S  S17  1  0.14501202  0.29002402  0.04009101  1
