# generated using pymatgen
data_SiP(H3O5)2
_symmetry_space_group_name_H-M   'P 1'
_cell_length_a   5.20734596
_cell_length_b   5.95490789
_cell_length_c   8.75201702
_cell_angle_alpha   109.48320007
_cell_angle_beta   107.30715179
_cell_angle_gamma   90.00000000
_symmetry_Int_Tables_number   1
_chemical_formula_structural   SiP(H3O5)2
_chemical_formula_sum   'Si1 P1 H6 O10'
_cell_volume   242.78047648
_cell_formula_units_Z   1
loop_
 _symmetry_equiv_pos_site_id
 _symmetry_equiv_pos_as_xyz
  1  'x, y, z'
loop_
 _atom_site_type_symbol
 _atom_site_label
 _atom_site_symmetry_multiplicity
 _atom_site_fract_x
 _atom_site_fract_y
 _atom_site_fract_z
 _atom_site_occupancy
  Si  Si0  1  0.55603500  0.49779199  0.19164300  1
  H  H1  1  0.36439200  0.50220799  0.80835701  1
  H  H2  1  0.85985400  0.80685498  0.80880701  1
  P  P3  1  0.05104700  0.19314500  0.19119300  1
  H  H4  1  0.46821100  0.87073798  0.32289800  1
  H  H5  1  0.14531300  0.12926200  0.67710201  1
  H  H6  1  0.76641100  0.86778298  0.55430100  1
  H  H7  1  0.21211000  0.13221700  0.44569901  1
  O  O8  1  0.50294300  0.49999999  -0.00000001  1
  O  O9  1  0.94132201  0.00000000  0.00000000  1
  O  O10  1  0.28586600  0.37912399  0.20138900  1
  O  O11  1  0.08447700  0.62087599  0.79861101  1
  O  O12  1  0.56999700  0.65344898  0.76150201  1
  O  O13  1  0.80849500  0.34655099  0.23849800  1
  O  O14  1  0.62033200  0.77065898  0.33521900  1
  O  O15  1  0.28511300  0.22934099  0.66478101  1
  O  O16  1  0.85284300  0.95320698  0.67890500  1
  O  O17  1  0.17393800  0.04679300  0.32109501  1
