# generated using pymatgen
data_USn2BiF16
_symmetry_space_group_name_H-M   'P 1'
_cell_length_a   5.65932989
_cell_length_b   5.70632505
_cell_length_c   8.09868813
_cell_angle_alpha   90.00000000
_cell_angle_beta   74.08860016
_cell_angle_gamma   90.00000000
_symmetry_Int_Tables_number   1
_chemical_formula_structural   USn2BiF16
_chemical_formula_sum   'U1 Sn2 Bi1 F16'
_cell_volume   251.51844504
_cell_formula_units_Z   1
loop_
 _symmetry_equiv_pos_site_id
 _symmetry_equiv_pos_as_xyz
  1  'x, y, z'
loop_
 _atom_site_type_symbol
 _atom_site_label
 _atom_site_symmetry_multiplicity
 _atom_site_fract_x
 _atom_site_fract_y
 _atom_site_fract_z
 _atom_site_occupancy
  U  U0  1  0.78847301  0.33255700  0.66985899  1
  Bi  Bi1  1  0.21152700  0.83255699  0.83014097  1
  Sn  Sn2  1  0.21152700  0.66744299  0.33014099  1
  Sn  Sn3  1  0.78847301  0.16744300  0.16985900  1
  F  F4  1  0.14107400  0.34373000  0.47902698  1
  F  F5  1  0.85892601  0.84372999  0.02097301  1
  F  F6  1  0.85892601  0.65626999  0.52097299  1
  F  F7  1  0.14107400  0.15627000  0.97902697  1
  F  F8  1  0.00411700  0.54046799  0.79201497  1
  F  F9  1  0.99588301  0.04046800  0.70798499  1
  F  F10  1  0.99588301  0.45953200  0.20798501  1
  F  F11  1  0.00411700  0.95953199  0.29201499  1
  F  F12  1  0.48308601  0.54069899  0.76568398  1
  F  F13  1  0.51691401  0.04069900  0.73431598  1
  F  F14  1  0.51691401  0.45930100  0.23431600  1
  F  F15  1  0.48308601  0.95930099  0.26568400  1
  F  F16  1  0.68560401  0.24176300  0.45262699  1
  F  F17  1  0.31439600  0.74176299  0.04737300  1
  F  F18  1  0.31439600  0.75823699  0.54737298  1
  F  F19  1  0.68560401  0.25823700  0.95262697  1
