# generated using pymatgen
data_Sr4Ca(BiO4)3
_symmetry_space_group_name_H-M   'P 1'
_cell_length_a   5.95210838
_cell_length_b   6.11993122
_cell_length_c   8.49302864
_cell_angle_alpha   90.00000000
_cell_angle_beta   90.71253204
_cell_angle_gamma   90.00000000
_symmetry_Int_Tables_number   1
_chemical_formula_structural   Sr4Ca(BiO4)3
_chemical_formula_sum   'Sr4 Ca1 Bi3 O12'
_cell_volume   309.34733361
_cell_formula_units_Z   1
loop_
 _symmetry_equiv_pos_site_id
 _symmetry_equiv_pos_as_xyz
  1  'x, y, z'
loop_
 _atom_site_type_symbol
 _atom_site_label
 _atom_site_symmetry_multiplicity
 _atom_site_fract_x
 _atom_site_fract_y
 _atom_site_fract_z
 _atom_site_occupancy
  Sr  Sr0  1  0.51307100  0.54686398  0.24404098  1
  Sr  Sr1  1  0.01307100  0.95313597  0.74404102  1
  Sr  Sr2  1  0.48692900  0.45313598  0.75595900  1
  Sr  Sr3  1  0.98692900  0.04686400  0.25595896  1
  Ca  Ca4  1  -0.00000000  0.49999998  1.00000003  1
  Bi  Bi5  1  0.50000000  0.99999996  0.49999999  1
  Bi  Bi6  1  -0.00000000  0.49999998  0.50000001  1
  Bi  Bi7  1  0.50000000  0.99999996  1.00000000  1
  O  O8  1  0.39823100  0.95407197  0.26600899  1
  O  O9  1  0.89823100  0.54592798  0.76600898  1
  O  O10  1  0.60176900  0.04592800  0.73399099  1
  O  O11  1  0.10176900  0.45407198  0.23399100  1
  O  O12  1  0.78572900  0.81145097  0.45624698  1
  O  O13  1  0.28572900  0.68854898  0.95624701  1
  O  O14  1  0.21427100  0.18854899  0.54375300  1
  O  O15  1  0.71427100  0.31145099  0.04375297  1
  O  O16  1  0.31345300  0.72254397  0.56295800  1
  O  O17  1  0.81345300  0.77745597  0.06295797  1
  O  O18  1  0.68654700  0.27745599  0.43704198  1
  O  O19  1  0.18654700  0.22254399  0.93704202  1
