# generated using pymatgen
data_Li2CrCu2Se3
_symmetry_space_group_name_H-M   'P 1'
_cell_length_a   4.08085489
_cell_length_b   4.08085489
_cell_length_c   10.23309422
_cell_angle_alpha   90.00000000
_cell_angle_beta   90.00000000
_cell_angle_gamma   90.00000000
_symmetry_Int_Tables_number   1
_chemical_formula_structural   Li2CrCu2Se3
_chemical_formula_sum   'Li2 Cr1 Cu2 Se3'
_cell_volume   170.41557232
_cell_formula_units_Z   1
loop_
 _symmetry_equiv_pos_site_id
 _symmetry_equiv_pos_as_xyz
  1  'x, y, z'
loop_
 _atom_site_type_symbol
 _atom_site_label
 _atom_site_symmetry_multiplicity
 _atom_site_fract_x
 _atom_site_fract_y
 _atom_site_fract_z
 _atom_site_occupancy
  Li  Li0  1  0.00000000  0.00000000  0.49999999  1
  Li  Li1  1  -0.00000000  0.50000001  0.15606700  1
  Cr  Cr2  1  -0.00000000  0.50000001  0.84393298  1
  Cu  Cu3  1  0.50000001  0.00000000  0.84393298  1
  Cu  Cu4  1  0.50000001  0.00000000  0.15606700  1
  Se  Se5  1  0.00000000  0.00000000  0.00000000  1
  Se  Se6  1  0.50000001  0.50000001  0.28392399  1
  Se  Se7  1  0.50000001  0.50000001  0.71607598  1
