# generated using pymatgen
data_BaH4O3
_symmetry_space_group_name_H-M   'P 1'
_cell_length_a   4.22436810
_cell_length_b   6.46479797
_cell_length_c   7.21609163
_cell_angle_alpha   110.22354126
_cell_angle_beta   90.00000000
_cell_angle_gamma   90.00000000
_symmetry_Int_Tables_number   1
_chemical_formula_structural   BaH4O3
_chemical_formula_sum   'Ba2 H8 O6'
_cell_volume   184.92009359
_cell_formula_units_Z   2
loop_
 _symmetry_equiv_pos_site_id
 _symmetry_equiv_pos_as_xyz
  1  'x, y, z'
loop_
 _atom_site_type_symbol
 _atom_site_label
 _atom_site_symmetry_multiplicity
 _atom_site_fract_x
 _atom_site_fract_y
 _atom_site_fract_z
 _atom_site_occupancy
  Ba  Ba0  1  0.74999998  0.14614700  0.28083799  1
  Ba  Ba1  1  0.24999999  0.85385299  0.71916194  1
  H  H2  1  0.24999999  0.34667100  0.05637898  1
  H  H3  1  0.74999998  0.65332899  0.94361995  1
  H  H4  1  0.24999999  0.77252299  0.16471896  1
  H  H5  1  0.74999998  0.22747700  0.83528097  1
  H  H6  1  0.43910799  0.31607600  0.66046197  1
  H  H7  1  0.06089200  0.31607600  0.66046197  1
  H  H8  1  0.56089199  0.68392399  0.33953796  1
  H  H9  1  0.93910798  0.68392399  0.33953796  1
  O  O10  1  0.24999999  0.38637900  0.61890097  1
  O  O11  1  0.74999998  0.61362099  0.38109896  1
  O  O12  1  0.24999999  0.20154400  0.06770099  1
  O  O13  1  0.74999998  0.79845599  0.93229894  1
  O  O14  1  0.24999999  0.82824099  0.30856396  1
  O  O15  1  0.74999998  0.17175900  0.69143597  1
