# generated using pymatgen
data_K2ErCu(AgSe2)4
_symmetry_space_group_name_H-M   'P 1'
_cell_length_a   4.04505777
_cell_length_b   7.26076126
_cell_length_c   14.44453144
_cell_angle_alpha   90.00000000
_cell_angle_beta   90.00000000
_cell_angle_gamma   106.17404175
_symmetry_Int_Tables_number   1
_chemical_formula_structural   K2ErCu(AgSe2)4
_chemical_formula_sum   'K2 Er1 Cu1 Ag4 Se8'
_cell_volume   407.44738366
_cell_formula_units_Z   1
loop_
 _symmetry_equiv_pos_site_id
 _symmetry_equiv_pos_as_xyz
  1  'x, y, z'
loop_
 _atom_site_type_symbol
 _atom_site_label
 _atom_site_symmetry_multiplicity
 _atom_site_fract_x
 _atom_site_fract_y
 _atom_site_fract_z
 _atom_site_occupancy
  K  K0  1  0.11175999  0.22351999  0.00626700  1
  K  K1  1  0.88823998  0.77647997  0.50626698  1
  Cu  Cu2  1  0.14653798  0.29307599  0.47525899  1
  Er  Er3  1  0.85346198  0.70692398  0.97525897  1
  Ag  Ag4  1  0.34907395  0.69814798  0.79554998  1
  Ag  Ag5  1  0.65092601  0.30185199  0.29554999  1
  Ag  Ag6  1  0.38234295  0.76468597  0.17885799  1
  Ag  Ag7  1  0.61765701  0.23531399  0.67885798  1
  Se  Se8  1  0.98285596  0.96571197  0.72570798  1
  Se  Se9  1  0.01714400  0.03428800  0.22570799  1
  Se  Se10  1  0.57124302  0.14248600  0.49801198  1
  Se  Se11  1  0.73209600  0.46419198  0.86148097  1
  Se  Se12  1  0.25176597  0.50353198  0.63316598  1
  Se  Se13  1  0.42875694  0.85751397  0.99801197  1
  Se  Se14  1  0.74823400  0.49646798  0.13316600  1
  Se  Se15  1  0.26790396  0.53580798  0.36148099  1
