# generated using pymatgen
data_AsPOs
_symmetry_space_group_name_H-M   'P 1'
_cell_length_a   2.96155596
_cell_length_b   5.32735777
_cell_length_c   6.10365868
_cell_angle_alpha   91.92362976
_cell_angle_beta   90.00000000
_cell_angle_gamma   90.00000000
_symmetry_Int_Tables_number   1
_chemical_formula_structural   AsPOs
_chemical_formula_sum   'As2 P2 Os2'
_cell_volume   96.24479093
_cell_formula_units_Z   2
loop_
 _symmetry_equiv_pos_site_id
 _symmetry_equiv_pos_as_xyz
  1  'x, y, z'
loop_
 _atom_site_type_symbol
 _atom_site_label
 _atom_site_symmetry_multiplicity
 _atom_site_fract_x
 _atom_site_fract_y
 _atom_site_fract_z
 _atom_site_occupancy
  As  As0  1  0.50000001  0.67125399  0.13672396  1
  As  As1  1  0.50000001  0.32874600  0.86327595  1
  P  P2  1  -0.00000000  0.16338300  0.37315198  1
  P  P3  1  -0.00000000  0.83661699  0.62684794  1
  Os  Os4  1  0.50000001  0.49999999  0.49999996  1
  Os  Os5  1  0.00000000  0.00000000  0.00000000  1
