# generated using pymatgen
data_Tb3Er5O12
_symmetry_space_group_name_H-M   'P 1'
_cell_length_a   5.67835522
_cell_length_b   6.09561014
_cell_length_c   8.20360756
_cell_angle_alpha   90.00000000
_cell_angle_beta   90.00000000
_cell_angle_gamma   90.00000000
_symmetry_Int_Tables_number   1
_chemical_formula_structural   Tb3Er5O12
_chemical_formula_sum   'Tb3 Er5 O12'
_cell_volume   283.95179371
_cell_formula_units_Z   1
loop_
 _symmetry_equiv_pos_site_id
 _symmetry_equiv_pos_as_xyz
  1  'x, y, z'
loop_
 _atom_site_type_symbol
 _atom_site_label
 _atom_site_symmetry_multiplicity
 _atom_site_fract_x
 _atom_site_fract_y
 _atom_site_fract_z
 _atom_site_occupancy
  Tb  Tb0  1  0.49999998  0.00000000  0.50000003  1
  Tb  Tb1  1  0.49999998  0.00000000  0.00000000  1
  Er  Er2  1  -0.00000000  0.49999999  0.00000000  1
  Er  Er3  1  -0.00000000  0.49999999  0.50000003  1
  Er  Er4  1  0.01210100  0.95481398  0.25000001  1
  Tb  Tb5  1  0.98789896  0.04518600  0.75000004  1
  Er  Er6  1  0.48789898  0.45481399  0.25000001  1
  Er  Er7  1  0.51210098  0.54518599  0.75000004  1
  O  O8  1  0.36682399  0.95044598  0.75000004  1
  O  O9  1  0.86682397  0.54955399  0.25000001  1
  O  O10  1  0.17212499  0.18397600  0.05841600  1
  O  O11  1  0.82787497  0.81602398  0.94158405  1
  O  O12  1  0.32787499  0.68397598  0.44158402  1
  O  O13  1  0.63317598  0.04955400  0.25000001  1
  O  O14  1  0.17212499  0.18397600  0.44158402  1
  O  O15  1  0.67212497  0.31602399  0.55841603  1
  O  O16  1  0.32787499  0.68397598  0.05841600  1
  O  O17  1  0.13317599  0.45044599  0.75000004  1
  O  O18  1  0.82787497  0.81602398  0.55841603  1
  O  O19  1  0.67212497  0.31602399  0.94158405  1
