# generated using pymatgen
data_LiCoO2
_symmetry_space_group_name_H-M   'P 1'
_cell_length_a   2.91095591
_cell_length_b   5.09681225
_cell_length_c   9.83004093
_cell_angle_alpha   79.56640625
_cell_angle_beta   88.42784882
_cell_angle_gamma   89.70569611
_symmetry_Int_Tables_number   1
_chemical_formula_structural   LiCoO2
_chemical_formula_sum   'Li4 Co4 O8'
_cell_volume   143.37887920
_cell_formula_units_Z   4
loop_
 _symmetry_equiv_pos_site_id
 _symmetry_equiv_pos_as_xyz
  1  'x, y, z'
loop_
 _atom_site_type_symbol
 _atom_site_label
 _atom_site_symmetry_multiplicity
 _atom_site_fract_x
 _atom_site_fract_y
 _atom_site_fract_z
 _atom_site_occupancy
  Li  Li0  1  0.00000000  0.00000000  0.00000000  1
  Li  Li1  1  0.49892800  0.74749299  0.24186103  1
  Li  Li2  1  -0.00000001  0.49999999  0.50000003  1
  Li  Li3  1  0.50107201  0.25250700  0.75813903  1
  Co  Co4  1  0.50000001  0.49999999  0.00000002  1
  Co  Co5  1  0.00505699  0.73183499  0.75968604  1
  Co  Co6  1  0.99494303  0.26816500  0.24031402  1
  Co  Co7  1  0.50000002  0.00000000  0.50000001  1
  O  O8  1  0.49453800  0.86047999  0.86012705  1
  O  O9  1  0.00502899  0.59989399  0.13573402  1
  O  O10  1  0.48345001  0.36217600  0.36237702  1
  O  O11  1  0.03080700  0.10061900  0.62118502  1
  O  O12  1  0.50546201  0.13952000  0.13987301  1
  O  O13  1  0.96919301  0.89938099  0.37881505  1
  O  O14  1  0.51655000  0.63782399  0.63762304  1
  O  O15  1  0.99497102  0.40010599  0.86426604  1
