# generated using pymatgen
data_CuRhF6
_symmetry_space_group_name_H-M   'P 1'
_cell_length_a   5.11073446
_cell_length_b   5.11073446
_cell_length_c   5.47260284
_cell_angle_alpha   62.16426086
_cell_angle_beta   62.16426086
_cell_angle_gamma   59.99999619
_symmetry_Int_Tables_number   1
_chemical_formula_structural   CuRhF6
_chemical_formula_sum   'Cu1 Rh1 F6'
_cell_volume   104.25659903
_cell_formula_units_Z   1
loop_
 _symmetry_equiv_pos_site_id
 _symmetry_equiv_pos_as_xyz
  1  'x, y, z'
loop_
 _atom_site_type_symbol
 _atom_site_label
 _atom_site_symmetry_multiplicity
 _atom_site_fract_x
 _atom_site_fract_y
 _atom_site_fract_z
 _atom_site_occupancy
  Cu  Cu0  1  0.49999999  0.49999998  0.49999997  1
  Rh  Rh1  1  0.00000000  0.00000000  0.00000000  1
  F  F2  1  0.24090900  0.89569897  0.24624597  1
  F  F3  1  0.61714598  0.24090899  0.24624598  1
  F  F4  1  0.10430100  0.38285399  0.75375397  1
  F  F5  1  0.38285399  0.75909098  0.75375396  1
  F  F6  1  0.75909098  0.10430100  0.75375397  1
  F  F7  1  0.89569898  0.61714598  0.24624596  1
