# generated using pymatgen
data_TiSbTeMoWI8F5
_symmetry_space_group_name_H-M   'P 1'
_cell_length_a   7.43582201
_cell_length_b   7.70189524
_cell_length_c   16.75924683
_cell_angle_alpha   101.59680176
_cell_angle_beta   90.00000000
_cell_angle_gamma   90.00000000
_symmetry_Int_Tables_number   1
_chemical_formula_structural   TiSbTeMoWI8F5
_chemical_formula_sum   'Ti1 Sb1 Te1 Mo1 W1 I8 F5'
_cell_volume   940.20784106
_cell_formula_units_Z   1
loop_
 _symmetry_equiv_pos_site_id
 _symmetry_equiv_pos_as_xyz
  1  'x, y, z'
loop_
 _atom_site_type_symbol
 _atom_site_label
 _atom_site_symmetry_multiplicity
 _atom_site_fract_x
 _atom_site_fract_y
 _atom_site_fract_z
 _atom_site_occupancy
  Ti  Ti0  1  0.49601700  0.51977898  0.80722798  1
  W  W1  1  0.50398300  0.01977900  0.30722799  1
  Te  Te2  1  0.09775500  0.65132298  0.65448698  1
  Sb  Sb3  1  0.90224500  0.15132300  0.15448700  1
  F  F4  1  0.84045600  0.50294798  0.81542498  1
  Mo  Mo5  1  0.15954400  0.00294800  0.31542499  1
  I  I6  1  0.35295100  0.41821299  0.93164997  1
  I  I7  1  0.64704900  0.91821297  0.43164999  1
  I  I8  1  0.37399100  0.31842099  0.67383198  1
  I  I9  1  0.62600900  0.81842097  0.17383200  1
  I  I10  1  0.37480300  0.83783497  0.80710298  1
  I  I11  1  0.62519700  0.33783499  0.30710299  1
  I  I12  1  0.33371700  0.75990198  0.54396898  1
  I  I13  1  0.66628300  0.25990199  0.04396900  1
  F  F14  1  0.88626800  0.95399397  0.68100498  1
  F  F15  1  0.11373200  0.45399399  0.18100499  1
  F  F16  1  0.88904500  0.42723399  0.54125098  1
  F  F17  1  0.11095500  0.92723397  0.04125100  1
