# generated using pymatgen
data_Na4ZnHgF8
_symmetry_space_group_name_H-M   'P 1'
_cell_length_a   3.88359690
_cell_length_b   3.88359690
_cell_length_c   14.96807480
_cell_angle_alpha   90.00000000
_cell_angle_beta   90.00000000
_cell_angle_gamma   90.00000000
_symmetry_Int_Tables_number   1
_chemical_formula_structural   Na4ZnHgF8
_chemical_formula_sum   'Na4 Zn1 Hg1 F8'
_cell_volume   225.75336663
_cell_formula_units_Z   1
loop_
 _symmetry_equiv_pos_site_id
 _symmetry_equiv_pos_as_xyz
  1  'x, y, z'
loop_
 _atom_site_type_symbol
 _atom_site_label
 _atom_site_symmetry_multiplicity
 _atom_site_fract_x
 _atom_site_fract_y
 _atom_site_fract_z
 _atom_site_occupancy
  Na  Na0  1  0.50000001  0.50000001  0.79825301  1
  Na  Na1  1  0.50000001  0.50000001  0.19491800  1
  Na  Na2  1  0.00000000  0.00000000  0.36542800  1
  Na  Na3  1  0.00000000  0.00000000  0.62903601  1
  Zn  Zn4  1  0.00000000  0.00000000  0.00432600  1
  Hg  Hg5  1  0.50000001  0.50000001  0.47162801  1
  F  F6  1  0.50000001  0.00000000  0.71689001  1
  F  F7  1  -0.00000000  0.50000001  0.71689001  1
  F  F8  1  0.50000001  0.00000000  0.28511600  1
  F  F9  1  -0.00000000  0.50000001  0.28511600  1
  F  F10  1  0.00000000  0.00000000  0.87857601  1
  F  F11  1  0.00000000  0.00000000  0.13716800  1
  F  F12  1  0.50000001  0.00000000  0.00832900  1
  F  F13  1  -0.00000000  0.50000001  0.00832900  1
