# generated using pymatgen
data_ZrTi3N8
_symmetry_space_group_name_H-M   'P 1'
_cell_length_a   5.13195705
_cell_length_b   5.15922022
_cell_length_c   5.34938908
_cell_angle_alpha   90.00000000
_cell_angle_beta   90.00000000
_cell_angle_gamma   90.00000000
_symmetry_Int_Tables_number   1
_chemical_formula_structural   ZrTi3N8
_chemical_formula_sum   'Zr1 Ti3 N8'
_cell_volume   141.63522142
_cell_formula_units_Z   1
loop_
 _symmetry_equiv_pos_site_id
 _symmetry_equiv_pos_as_xyz
  1  'x, y, z'
loop_
 _atom_site_type_symbol
 _atom_site_label
 _atom_site_symmetry_multiplicity
 _atom_site_fract_x
 _atom_site_fract_y
 _atom_site_fract_z
 _atom_site_occupancy
  Zr  Zr0  1  0.73367199  0.74854397  0.03042200  1
  Ti  Ti1  1  0.26632800  0.74854397  0.53042199  1
  Ti  Ti2  1  0.26632800  0.24854399  0.96957799  1
  Ti  Ti3  1  0.73367199  0.24854399  0.46957799  1
  N  N4  1  0.46355000  0.50156398  0.22901400  1
  N  N5  1  0.93307999  0.60589197  0.36395999  1
  N  N6  1  0.06692000  0.60589197  0.86395999  1
  N  N7  1  0.53644999  0.50156398  0.72901399  1
  N  N8  1  0.93307999  0.10589200  0.13604000  1
  N  N9  1  0.53644999  0.00156400  0.77098599  1
  N  N10  1  0.06692000  0.10589200  0.63603999  1
  N  N11  1  0.46355000  0.00156400  0.27098600  1
