# generated using pymatgen
data_MgAl5Ga3Si2NiCl7
_symmetry_space_group_name_H-M   'P 1'
_cell_length_a   9.34505177
_cell_length_b   9.34505177
_cell_length_c   9.34505177
_cell_angle_alpha   106.77182770
_cell_angle_beta   106.77182770
_cell_angle_gamma   106.77183533
_symmetry_Int_Tables_number   1
_chemical_formula_structural   MgAl5Ga3Si2NiCl7
_chemical_formula_sum   'Mg1 Al5 Ga3 Si2 Ni1 Cl7'
_cell_volume   683.84488061
_cell_formula_units_Z   1
loop_
 _symmetry_equiv_pos_site_id
 _symmetry_equiv_pos_as_xyz
  1  'x, y, z'
loop_
 _atom_site_type_symbol
 _atom_site_label
 _atom_site_symmetry_multiplicity
 _atom_site_fract_x
 _atom_site_fract_y
 _atom_site_fract_z
 _atom_site_occupancy
  Mg  Mg0  1  0.02458999  0.08471499  0.26249300  1
  Al  Al1  1  0.08471498  0.26249298  0.02458997  1
  Al  Al2  1  0.26249299  0.02459000  0.08471498  1
  Al  Al3  1  0.97540991  0.91528494  0.73750689  1
  Ga  Ga4  1  0.91528493  0.73750695  0.97540991  1
  Al  Al5  1  0.73750692  0.97540994  0.91528490  1
  Ni  Ni6  1  0.00000000  0.00000000  0.00000000  1
  Al  Al7  1  0.86064094  0.56450497  0.63799892  1
  Ga  Ga8  1  0.63799793  0.86064095  0.56450491  1
  Ga  Ga9  1  0.43549496  0.36200098  0.13935895  1
  Si  Si10  1  0.13935897  0.43549497  0.36200097  1
  Si  Si11  1  0.36200098  0.13935899  0.43549498  1
  Cl  Cl12  1  0.56450495  0.63799896  0.86064094  1
  Cl  Cl13  1  0.07801499  0.22362499  0.69620899  1
  Cl  Cl14  1  0.22362496  0.69620896  0.07801493  1
  Cl  Cl15  1  0.69620897  0.07801500  0.22362496  1
  Cl  Cl16  1  0.92198492  0.77637495  0.30379089  1
  Cl  Cl17  1  0.77637495  0.30379098  0.92198495  1
  Cl  Cl18  1  0.30379094  0.92198494  0.77637493  1
