# generated using pymatgen
data_Na4Mg3ZnF12
_symmetry_space_group_name_H-M   'P 1'
_cell_length_a   5.32099724
_cell_length_b   5.60395002
_cell_length_c   7.65955496
_cell_angle_alpha   90.00000000
_cell_angle_beta   90.00000000
_cell_angle_gamma   90.00000000
_symmetry_Int_Tables_number   1
_chemical_formula_structural   Na4Mg3ZnF12
_chemical_formula_sum   'Na4 Mg3 Zn1 F12'
_cell_volume   228.39722539
_cell_formula_units_Z   1
loop_
 _symmetry_equiv_pos_site_id
 _symmetry_equiv_pos_as_xyz
  1  'x, y, z'
loop_
 _atom_site_type_symbol
 _atom_site_label
 _atom_site_symmetry_multiplicity
 _atom_site_fract_x
 _atom_site_fract_y
 _atom_site_fract_z
 _atom_site_occupancy
  Na  Na0  1  0.01905800  0.06618400  0.75000000  1
  Na  Na1  1  0.48094198  0.56618400  0.75000000  1
  Na  Na2  1  0.51905798  0.43381600  0.25000000  1
  Na  Na3  1  0.98094196  0.93381600  0.25000000  1
  Mg  Mg4  1  -0.00000000  0.50000000  0.50000000  1
  Mg  Mg5  1  0.49999998  0.00000000  0.50000000  1
  Zn  Zn6  1  0.49999998  0.00000000  -0.00000000  1
  Mg  Mg7  1  -0.00000000  0.50000000  0.00000000  1
  F  F8  1  0.10878500  0.53742000  0.25000000  1
  F  F9  1  0.19643099  0.80198700  0.55595400  1
  F  F10  1  0.19643099  0.80198700  0.94404601  1
  F  F11  1  0.30356899  0.30198700  0.94404601  1
  F  F12  1  0.30356899  0.30198700  0.55595400  1
  F  F13  1  0.39121498  0.03742000  0.25000000  1
  F  F14  1  0.60878497  0.96258000  0.75000000  1
  F  F15  1  0.69643097  0.69801300  0.05595400  1
  F  F16  1  0.69643097  0.69801300  0.44404600  1
  F  F17  1  0.80356896  0.19801300  0.44404600  1
  F  F18  1  0.80356896  0.19801300  0.05595400  1
  F  F19  1  0.89121496  0.46258000  0.75000000  1
