# generated using pymatgen
data_RbReO4
_symmetry_space_group_name_H-M   'P 1'
_cell_length_a   6.05308390
_cell_length_b   6.05308390
_cell_length_c   7.93252230
_cell_angle_alpha   112.42885590
_cell_angle_beta   112.42885590
_cell_angle_gamma   90.00000000
_symmetry_Int_Tables_number   1
_chemical_formula_structural   RbReO4
_chemical_formula_sum   'Rb2 Re2 O8'
_cell_volume   244.70628014
_cell_formula_units_Z   2
loop_
 _symmetry_equiv_pos_site_id
 _symmetry_equiv_pos_as_xyz
  1  'x, y, z'
loop_
 _atom_site_type_symbol
 _atom_site_label
 _atom_site_symmetry_multiplicity
 _atom_site_fract_x
 _atom_site_fract_y
 _atom_site_fract_z
 _atom_site_occupancy
  Rb  Rb0  1  0.75000004  0.25000001  0.50000004  1
  Rb  Rb1  1  0.00000000  0.00000000  0.00000000  1
  Re  Re2  1  0.25000005  0.75000004  0.50000005  1
  Re  Re3  1  0.50000005  0.50000002  0.00000006  1
  O  O4  1  0.29457806  0.88796404  0.34821706  1
  O  O5  1  0.63796404  0.30363901  0.84821703  1
  O  O6  1  0.21025304  0.54457803  0.84821702  1
  O  O7  1  0.05363903  0.46025302  0.34821702  1
  O  O8  1  0.69636107  0.78974704  0.15178308  1
  O  O9  1  0.53974706  0.70542203  0.65178305  1
  O  O10  1  0.11203606  0.94636105  0.65178305  1
  O  O11  1  0.45542204  0.36203602  0.15178304  1
