# generated using pymatgen
data_AlSb2SCl14
_symmetry_space_group_name_H-M   'P 1'
_cell_length_a   9.01997757
_cell_length_b   9.01997757
_cell_length_c   9.01997757
_cell_angle_alpha   90.43804932
_cell_angle_beta   119.74741364
_cell_angle_gamma   119.74741364
_symmetry_Int_Tables_number   1
_chemical_formula_structural   AlSb2SCl14
_chemical_formula_sum   'Al1 Sb2 S1 Cl14'
_cell_volume   520.88583847
_cell_formula_units_Z   1
loop_
 _symmetry_equiv_pos_site_id
 _symmetry_equiv_pos_as_xyz
  1  'x, y, z'
loop_
 _atom_site_type_symbol
 _atom_site_label
 _atom_site_symmetry_multiplicity
 _atom_site_fract_x
 _atom_site_fract_y
 _atom_site_fract_z
 _atom_site_occupancy
  Al  Al0  1  0.49999996  0.24894398  0.74894395  1
  Sb  Sb1  1  0.99999992  0.49640397  0.49640394  1
  S  S2  1  0.49999993  0.74894395  0.24894395  1
  Sb  Sb3  1  -0.00000000  0.00054300  0.00054300  1
  Cl  Cl4  1  -0.00000002  0.32633298  0.32633298  1
  Cl  Cl5  1  0.29008198  0.16410599  0.80273296  1
  Cl  Cl6  1  0.63862692  0.80273195  0.51265094  1
  Cl  Cl7  1  0.36137293  0.87402394  0.16410495  1
  Cl  Cl8  1  0.70991794  0.51264997  0.87402293  1
  Cl  Cl9  1  0.63829096  0.12356999  0.83383895  1
  Cl  Cl10  1  0.71026892  0.83383895  0.19554794  1
  Cl  Cl11  1  0.28973096  0.48527897  0.12356897  1
  Cl  Cl12  1  0.36170897  0.19554699  0.48527897  1
  Cl  Cl13  1  0.32442895  0.60914196  0.70818594  1
  Cl  Cl14  1  0.09904395  0.70818696  0.38375696  1
  Cl  Cl15  1  0.90095594  0.28471298  0.60914195  1
  Cl  Cl16  1  0.67557095  0.38375698  0.28471396  1
  Cl  Cl17  1  0.99999991  0.66658696  0.66658693  1
