# generated using pymatgen
data_NaPrScWO6
_symmetry_space_group_name_H-M   'P 1'
_cell_length_a   5.69240427
_cell_length_b   5.69240427
_cell_length_c   8.13016701
_cell_angle_alpha   89.72470856
_cell_angle_beta   89.72470856
_cell_angle_gamma   90.65402222
_symmetry_Int_Tables_number   1
_chemical_formula_structural   NaPrScWO6
_chemical_formula_sum   'Na2 Pr2 Sc2 W2 O12'
_cell_volume   263.42227851
_cell_formula_units_Z   2
loop_
 _symmetry_equiv_pos_site_id
 _symmetry_equiv_pos_as_xyz
  1  'x, y, z'
loop_
 _atom_site_type_symbol
 _atom_site_label
 _atom_site_symmetry_multiplicity
 _atom_site_fract_x
 _atom_site_fract_y
 _atom_site_fract_z
 _atom_site_occupancy
  Na  Na0  1  0.73545399  0.26454599  0.00000002  1
  Na  Na1  1  0.26454600  0.73545398  0.00000002  1
  Pr  Pr2  1  0.74242999  0.25756999  0.50000001  1
  Pr  Pr3  1  0.25757000  0.74242998  0.50000001  1
  Sc  Sc4  1  0.75571699  0.75571698  0.24690602  1
  Sc  Sc5  1  0.24428300  0.24428299  0.75309399  1
  W  W6  1  0.74787899  0.74787898  0.76330101  1
  W  W7  1  0.25212100  0.25212099  0.23669900  1
  O  O8  1  0.49815499  0.00988000  0.27870200  1
  O  O9  1  0.00988001  0.49815499  0.27870200  1
  O  O10  1  0.50184500  0.99011998  0.72129801  1
  O  O11  1  0.99011998  0.50184499  0.72129801  1
  O  O12  1  0.80335299  0.80335298  0.99169701  1
  O  O13  1  0.19664700  0.19664700  0.00830301  1
  O  O14  1  0.00847100  0.00847100  0.31888099  1
  O  O15  1  0.99152899  0.99152898  0.68111902  1
  O  O16  1  0.68530999  0.68530998  0.49976801  1
  O  O17  1  0.31469000  0.31468999  0.50023200  1
  O  O18  1  0.49651099  0.49651099  0.20475001  1
  O  O19  1  0.50348899  0.50348899  0.79525000  1
