# generated using pymatgen
data_Mg2AlN
_symmetry_space_group_name_H-M   'P 1'
_cell_length_a   3.51332402
_cell_length_b   4.65136719
_cell_length_c   5.91724777
_cell_angle_alpha   92.18703461
_cell_angle_beta   107.26980591
_cell_angle_gamma   90.00000000
_symmetry_Int_Tables_number   1
_chemical_formula_structural   Mg2AlN
_chemical_formula_sum   'Mg2 Al1 N1'
_cell_volume   92.26506801
_cell_formula_units_Z   1
loop_
 _symmetry_equiv_pos_site_id
 _symmetry_equiv_pos_as_xyz
  1  'x, y, z'
loop_
 _atom_site_type_symbol
 _atom_site_label
 _atom_site_symmetry_multiplicity
 _atom_site_fract_x
 _atom_site_fract_y
 _atom_site_fract_z
 _atom_site_occupancy
  Mg  Mg0  1  0.60565701  0.41768099  0.21131402  1
  Mg  Mg1  1  0.39434301  0.58231899  0.78868600  1
  Al  Al2  1  0.90530201  0.92713398  0.81060401  1
  N  N3  1  0.09469800  0.07286600  0.18939600  1
