# generated using pymatgen
data_Li2ScMn2InO8
_symmetry_space_group_name_H-M   'P 1'
_cell_length_a   5.33548212
_cell_length_b   5.33549452
_cell_length_c   6.43836880
_cell_angle_alpha   90.00021362
_cell_angle_beta   90.00038147
_cell_angle_gamma   67.44873047
_symmetry_Int_Tables_number   1
_chemical_formula_structural   Li2ScMn2InO8
_chemical_formula_sum   'Li2 Sc1 Mn2 In1 O8'
_cell_volume   169.26936653
_cell_formula_units_Z   1
loop_
 _symmetry_equiv_pos_site_id
 _symmetry_equiv_pos_as_xyz
  1  'x, y, z'
loop_
 _atom_site_type_symbol
 _atom_site_label
 _atom_site_symmetry_multiplicity
 _atom_site_fract_x
 _atom_site_fract_y
 _atom_site_fract_z
 _atom_site_occupancy
  Li  Li0  1  0.99999596  0.00000300  0.49999800  1
  Li  Li1  1  0.00000006  0.99999798  0.99999804  1
  Mn  Mn2  1  0.36093401  0.36093299  0.75000202  1
  Sc  Sc3  1  0.63906701  0.63906499  0.24999900  1
  Mn  Mn4  1  0.67628001  0.67628499  0.74999902  1
  In  In5  1  0.32371501  0.32371599  0.24999901  1
  O  O6  1  0.24710800  0.24710599  0.97042803  1
  O  O7  1  0.75289701  0.75289298  0.47042801  1
  O  O8  1  0.75289501  0.75289498  0.02957500  1
  O  O9  1  0.24710500  0.24710599  0.52957202  1
  O  O10  1  0.72555299  0.23352799  0.75000202  1
  O  O11  1  0.27444903  0.76647298  0.25000001  1
  O  O12  1  0.23352803  0.72555198  0.75000203  1
  O  O13  1  0.76647299  0.27444799  0.24999900  1
