# generated using pymatgen
data_TlCuTeI3(ClF)2
_symmetry_space_group_name_H-M   'P 1'
_cell_length_a   7.28467798
_cell_length_b   7.60863972
_cell_length_c   7.84336090
_cell_angle_alpha   72.85092163
_cell_angle_beta   62.32957458
_cell_angle_gamma   61.39875412
_symmetry_Int_Tables_number   1
_chemical_formula_structural   TlCuTeI3(ClF)2
_chemical_formula_sum   'Tl1 Cu1 Te1 I3 Cl2 F2'
_cell_volume   336.55472112
_cell_formula_units_Z   1
loop_
 _symmetry_equiv_pos_site_id
 _symmetry_equiv_pos_as_xyz
  1  'x, y, z'
loop_
 _atom_site_type_symbol
 _atom_site_label
 _atom_site_symmetry_multiplicity
 _atom_site_fract_x
 _atom_site_fract_y
 _atom_site_fract_z
 _atom_site_occupancy
  Tl  Tl0  1  0.78352500  1.00000002  -0.00000006  1
  Te  Te1  1  0.21647500  0.00000000  0.00000000  1
  Cu  Cu2  1  0.79593900  0.23718900  0.17093299  1
  I  I3  1  0.20406100  0.76281101  0.82906696  1
  F  F4  1  0.73269000  0.75891801  0.29487596  1
  F  F5  1  0.78648400  0.24108200  0.70512400  1
  I  I6  1  0.26731000  0.24108200  0.70512400  1
  I  I7  1  0.21351600  0.75891801  0.29487595  1
  Cl  Cl8  1  0.32469200  0.20371100  0.14690499  1
  Cl  Cl9  1  0.67530800  0.79628901  0.85309496  1
