# generated using pymatgen
data_YbZnS2
_symmetry_space_group_name_H-M   'P 1'
_cell_length_a   5.58511877
_cell_length_b   5.58511877
_cell_length_c   6.76699591
_cell_angle_alpha   65.65101624
_cell_angle_beta   65.65101624
_cell_angle_gamma   89.88864899
_symmetry_Int_Tables_number   1
_chemical_formula_structural   YbZnS2
_chemical_formula_sum   'Yb2 Zn2 S4'
_cell_volume   171.57659593
_cell_formula_units_Z   2
loop_
 _symmetry_equiv_pos_site_id
 _symmetry_equiv_pos_as_xyz
  1  'x, y, z'
loop_
 _atom_site_type_symbol
 _atom_site_label
 _atom_site_symmetry_multiplicity
 _atom_site_fract_x
 _atom_site_fract_y
 _atom_site_fract_z
 _atom_site_occupancy
  Yb  Yb0  1  0.13012695  0.86987299  0.75000001  1
  Yb  Yb1  1  0.86987300  0.13012700  0.25000000  1
  Zn  Zn2  1  0.39020497  0.60979500  0.25000001  1
  Zn  Zn3  1  0.60979498  0.39020500  0.75000000  1
  S  S4  1  0.84130197  0.63697000  0.24533901  1
  S  S5  1  0.36302999  0.15869800  0.25466100  1
  S  S6  1  0.15869798  0.36303000  0.75466100  1
  S  S7  1  0.63696996  0.84130199  0.74533901  1
