# generated using pymatgen
data_KNa4CrSiAsP6
_symmetry_space_group_name_H-M   'P 1'
_cell_length_a   6.71891308
_cell_length_b   6.74221420
_cell_length_c   8.72688770
_cell_angle_alpha   90.00000000
_cell_angle_beta   72.41857147
_cell_angle_gamma   90.00000000
_symmetry_Int_Tables_number   1
_chemical_formula_structural   KNa4CrSiAsP6
_chemical_formula_sum   'K1 Na4 Cr1 Si1 As1 P6'
_cell_volume   376.86461982
_cell_formula_units_Z   1
loop_
 _symmetry_equiv_pos_site_id
 _symmetry_equiv_pos_as_xyz
  1  'x, y, z'
loop_
 _atom_site_type_symbol
 _atom_site_label
 _atom_site_symmetry_multiplicity
 _atom_site_fract_x
 _atom_site_fract_y
 _atom_site_fract_z
 _atom_site_occupancy
  Na  Na0  1  0.72845299  0.51487398  0.06556202  1
  K  K1  1  0.27154699  0.01487400  0.93443804  1
  Na  Na2  1  0.23239000  0.99985797  0.44565202  1
  Na  Na3  1  0.76760998  0.49985798  0.55434804  1
  Na  Na4  1  0.21658100  0.52583998  0.68729103  1
  Si  Si5  1  0.78341898  0.02584000  0.31270903  1
  Cr  Cr6  1  0.01983800  0.27001899  0.26759001  1
  As  As7  1  0.41444899  0.52860798  0.84790304  1
  P  P8  1  0.98614698  0.75681698  0.27968503  1
  P  P9  1  0.40899799  0.56482398  0.42927602  1
  P  P10  1  0.58555099  0.02860800  0.15209702  1
  P  P11  1  0.01385300  0.25681699  0.72031502  1
  P  P12  1  0.98016198  0.77001898  0.73241005  1
  P  P13  1  0.59100199  0.06482400  0.57072403  1
