# generated using pymatgen
data_Li2Fe(WO4)3
_symmetry_space_group_name_H-M   'P 1'
_cell_length_a   5.43192291
_cell_length_b   5.50279188
_cell_length_c   9.10741615
_cell_angle_alpha   107.07263947
_cell_angle_beta   90.00000000
_cell_angle_gamma   90.00000000
_symmetry_Int_Tables_number   1
_chemical_formula_structural   Li2Fe(WO4)3
_chemical_formula_sum   'Li2 Fe1 W3 O12'
_cell_volume   260.23126138
_cell_formula_units_Z   1
loop_
 _symmetry_equiv_pos_site_id
 _symmetry_equiv_pos_as_xyz
  1  'x, y, z'
loop_
 _atom_site_type_symbol
 _atom_site_label
 _atom_site_symmetry_multiplicity
 _atom_site_fract_x
 _atom_site_fract_y
 _atom_site_fract_z
 _atom_site_occupancy
  Li  Li0  1  0.31254001  0.00147500  0.41609501  1
  Li  Li1  1  0.81254001  0.99852504  0.58390506  1
  Fe  Fe2  1  0.61182201  0.76379103  0.03283003  1
  W  W3  1  0.11182200  0.23620901  0.96717004  1
  W  W4  1  0.38240101  0.62624003  0.66128705  1
  W  W5  1  0.88240101  0.37376002  0.33871303  1
  O  O6  1  0.98677102  0.65020203  0.49240204  1
  O  O7  1  0.48625901  0.85767504  0.21834304  1
  O  O8  1  0.65622301  0.64349903  0.78615705  1
  O  O9  1  0.96772502  0.11832900  0.41792202  1
  O  O10  1  0.83157101  0.02067300  0.04583300  1
  O  O11  1  0.33157101  0.97932704  0.95416707  1
  O  O12  1  0.15622300  0.35650101  0.21384302  1
  O  O13  1  0.48677101  0.34979801  0.50759803  1
  O  O14  1  0.32080801  0.48806202  0.95728205  1
  O  O15  1  0.46772501  0.88167104  0.58207805  1
  O  O16  1  0.82080801  0.51193802  0.04271802  1
  O  O17  1  0.98625902  0.14232501  0.78165703  1
