# generated using pymatgen
data_LiMgScTiN4
_symmetry_space_group_name_H-M   'P 1'
_cell_length_a   5.41264915
_cell_length_b   5.41264915
_cell_length_c   5.64064169
_cell_angle_alpha   116.08066559
_cell_angle_beta   116.08066559
_cell_angle_gamma   91.07836151
_symmetry_Int_Tables_number   1
_chemical_formula_structural   LiMgScTiN4
_chemical_formula_sum   'Li1 Mg1 Sc1 Ti1 N4'
_cell_volume   128.62247035
_cell_formula_units_Z   1
loop_
 _symmetry_equiv_pos_site_id
 _symmetry_equiv_pos_as_xyz
  1  'x, y, z'
loop_
 _atom_site_type_symbol
 _atom_site_label
 _atom_site_symmetry_multiplicity
 _atom_site_fract_x
 _atom_site_fract_y
 _atom_site_fract_z
 _atom_site_occupancy
  Mg  Mg0  1  0.37688296  0.62311699  0.74999999  1
  Li  Li1  1  0.62311698  0.37688300  0.24999999  1
  Sc  Sc2  1  0.89205400  0.10794600  0.75000002  1
  Ti  Ti3  1  0.10794593  0.89205399  0.24999997  1
  N  N4  1  0.25957099  0.14358300  0.74733102  1
  N  N5  1  0.14358298  0.25957100  0.24733100  1
  N  N6  1  0.85641695  0.74042899  0.75266899  1
  N  N7  1  0.74042894  0.85641699  0.25266897  1
