# generated using pymatgen
data_KCaCO4
_symmetry_space_group_name_H-M   'P 1'
_cell_length_a   4.86527205
_cell_length_b   5.37484407
_cell_length_c   5.37484455
_cell_angle_alpha   60.00000381
_cell_angle_beta   90.00000000
_cell_angle_gamma   90.00000000
_symmetry_Int_Tables_number   1
_chemical_formula_structural   KCaCO4
_chemical_formula_sum   'K1 Ca1 C1 O4'
_cell_volume   121.72213342
_cell_formula_units_Z   1
loop_
 _symmetry_equiv_pos_site_id
 _symmetry_equiv_pos_as_xyz
  1  'x, y, z'
loop_
 _atom_site_type_symbol
 _atom_site_label
 _atom_site_symmetry_multiplicity
 _atom_site_fract_x
 _atom_site_fract_y
 _atom_site_fract_z
 _atom_site_occupancy
  K  K0  1  0.00000000  0.66666665  0.66666667  1
  Ca  Ca1  1  0.50000000  0.00000000  0.00000000  1
  C  C2  1  0.50000000  0.33333333  0.33333333  1
  O  O3  1  0.50000000  0.05329700  0.47335099  1
  O  O4  1  0.50000000  0.47335199  0.05329601  1
  O  O5  1  0.50000000  0.47335199  0.47335100  1
  O  O6  1  0.00000000  0.00000000  0.00000000  1
