# generated using pymatgen
data_Er2InCu2
_symmetry_space_group_name_H-M   'P 1'
_cell_length_a   3.61683297
_cell_length_b   7.56436110
_cell_length_c   7.56436110
_cell_angle_alpha   90.00000000
_cell_angle_beta   90.00000000
_cell_angle_gamma   90.00000000
_symmetry_Int_Tables_number   1
_chemical_formula_structural   Er2InCu2
_chemical_formula_sum   'Er4 In2 Cu4'
_cell_volume   206.95358682
_cell_formula_units_Z   2
loop_
 _symmetry_equiv_pos_site_id
 _symmetry_equiv_pos_as_xyz
  1  'x, y, z'
loop_
 _atom_site_type_symbol
 _atom_site_label
 _atom_site_symmetry_multiplicity
 _atom_site_fract_x
 _atom_site_fract_y
 _atom_site_fract_z
 _atom_site_occupancy
  Er  Er0  1  0.50000000  0.67744499  0.17744500  1
  Er  Er1  1  0.50000000  0.32255500  0.82255499  1
  Er  Er2  1  0.50000000  0.17744500  0.32255500  1
  Er  Er3  1  0.50000000  0.82255499  0.67744499  1
  In  In4  1  0.00000000  0.00000000  0.00000000  1
  In  In5  1  0.00000000  0.49999999  0.49999999  1
  Cu  Cu6  1  0.00000000  0.11696300  0.61696299  1
  Cu  Cu7  1  0.00000000  0.88303699  0.38303700  1
  Cu  Cu8  1  0.00000000  0.61696299  0.88303699  1
  Cu  Cu9  1  0.00000000  0.38303700  0.11696300  1
