# generated using pymatgen
data_LiFeF2
_symmetry_space_group_name_H-M   'P 1'
_cell_length_a   3.46772218
_cell_length_b   5.45452023
_cell_length_c   5.90235567
_cell_angle_alpha   90.00025177
_cell_angle_beta   89.98013306
_cell_angle_gamma   89.99990082
_symmetry_Int_Tables_number   1
_chemical_formula_structural   LiFeF2
_chemical_formula_sum   'Li2 Fe2 F4'
_cell_volume   111.64163869
_cell_formula_units_Z   2
loop_
 _symmetry_equiv_pos_site_id
 _symmetry_equiv_pos_as_xyz
  1  'x, y, z'
loop_
 _atom_site_type_symbol
 _atom_site_label
 _atom_site_symmetry_multiplicity
 _atom_site_fract_x
 _atom_site_fract_y
 _atom_site_fract_z
 _atom_site_occupancy
  Li  Li0  1  0.49990401  0.49841698  0.17039997  1
  Li  Li1  1  0.50009501  0.99842996  0.82960497  1
  Fe  Fe2  1  0.99978201  0.49837098  0.67046897  1
  Fe  Fe3  1  0.00021901  0.99836296  0.32952096  1
  F  F4  1  0.00005400  0.11514800  0.66557402  1
  F  F5  1  0.50008600  0.11520000  0.16561099  1
  F  F6  1  0.49991501  0.61520297  0.83439199  1
  F  F7  1  0.99994701  0.61514697  0.33442696  1
