# generated using pymatgen
data_La4Co9P7
_symmetry_space_group_name_H-M   'P 1'
_cell_length_a   3.93850899
_cell_length_b   8.23695946
_cell_length_c   9.80272579
_cell_angle_alpha   90.00000000
_cell_angle_beta   90.00000000
_cell_angle_gamma   90.00000000
_symmetry_Int_Tables_number   1
_chemical_formula_structural   La4Co9P7
_chemical_formula_sum   'La4 Co9 P7'
_cell_volume   318.01354909
_cell_formula_units_Z   1
loop_
 _symmetry_equiv_pos_site_id
 _symmetry_equiv_pos_as_xyz
  1  'x, y, z'
loop_
 _atom_site_type_symbol
 _atom_site_label
 _atom_site_symmetry_multiplicity
 _atom_site_fract_x
 _atom_site_fract_y
 _atom_site_fract_z
 _atom_site_occupancy
  La  La0  1  0.25000000  0.25989999  0.66958301  1
  La  La1  1  0.75000000  0.74009996  0.33041701  1
  La  La2  1  0.25000000  0.75989996  0.83041702  1
  La  La3  1  0.75000000  0.24009999  0.16958300  1
  Co  Co4  1  0.75000000  0.08261400  0.45151101  1
  Co  Co5  1  0.25000000  0.91738595  0.54848901  1
  Co  Co6  1  0.75000000  0.58261397  0.04848900  1
  Co  Co7  1  0.25000000  0.41738598  0.95151102  1
  Co  Co8  1  0.25000000  0.95231895  0.12360200  1
  Co  Co9  1  0.75000000  0.04768100  0.87639802  1
  Co  Co10  1  0.25000000  0.45231897  0.37639801  1
  Co  Co11  1  0.75000000  0.54768097  0.62360201  1
  P  P12  1  0.25000000  0.14333299  0.95087802  1
  Co  Co13  1  0.75000000  0.85666695  0.04912200  1
  P  P14  1  0.25000000  0.64333296  0.54912201  1
  P  P15  1  0.75000000  0.35666698  0.45087801  1
  P  P16  1  0.25000000  0.53092097  0.16106500  1
  P  P17  1  0.75000000  0.46907897  0.83893502  1
  P  P18  1  0.25000000  0.03092100  0.33893501  1
  P  P19  1  0.75000000  0.96907895  0.66106501  1
