# generated using pymatgen
data_AlW2
_symmetry_space_group_name_H-M   'P 1'
_cell_length_a   2.65286589
_cell_length_b   3.65621996
_cell_length_c   4.47834730
_cell_angle_alpha   114.09249115
_cell_angle_beta   107.22879028
_cell_angle_gamma   90.00000000
_symmetry_Int_Tables_number   1
_chemical_formula_structural   AlW2
_chemical_formula_sum   'Al1 W2'
_cell_volume   37.50843830
_cell_formula_units_Z   1
loop_
 _symmetry_equiv_pos_site_id
 _symmetry_equiv_pos_as_xyz
  1  'x, y, z'
loop_
 _atom_site_type_symbol
 _atom_site_label
 _atom_site_symmetry_multiplicity
 _atom_site_fract_x
 _atom_site_fract_y
 _atom_site_fract_z
 _atom_site_occupancy
  Al  Al0  1  0.33110300  0.33110300  0.66220598  1
  W  W1  1  0.66889699  0.66889699  0.33779396  1
  W  W2  1  0.00000000  0.00000000  0.00000000  1
