# generated using pymatgen
data_LaIn2Rh
_symmetry_space_group_name_H-M   'P 1'
_cell_length_a   4.37192011
_cell_length_b   5.89175701
_cell_length_c   7.63432503
_cell_angle_alpha   90.00000000
_cell_angle_beta   90.00000000
_cell_angle_gamma   111.77854156
_symmetry_Int_Tables_number   1
_chemical_formula_structural   LaIn2Rh
_chemical_formula_sum   'La2 In4 Rh2'
_cell_volume   182.61144370
_cell_formula_units_Z   2
loop_
 _symmetry_equiv_pos_site_id
 _symmetry_equiv_pos_as_xyz
  1  'x, y, z'
loop_
 _atom_site_type_symbol
 _atom_site_label
 _atom_site_symmetry_multiplicity
 _atom_site_fract_x
 _atom_site_fract_y
 _atom_site_fract_z
 _atom_site_occupancy
  La  La0  1  0.06636700  0.13273400  0.25000000  1
  La  La1  1  0.93363300  0.86726601  0.75000000  1
  In  In2  1  0.35511901  0.71023801  0.04706400  1
  In  In3  1  0.64488099  0.28976200  0.95293600  1
  In  In4  1  0.64488099  0.28976200  0.54706400  1
  In  In5  1  0.35511901  0.71023801  0.45293600  1
  Rh  Rh6  1  0.78877000  0.57754000  0.25000000  1
  Rh  Rh7  1  0.21123001  0.42246000  0.75000000  1
