# generated using pymatgen
data_Hf3Ga13
_symmetry_space_group_name_H-M   'P 1'
_cell_length_a   3.98149395
_cell_length_b   3.98149395
_cell_length_c   17.19284630
_cell_angle_alpha   90.00000000
_cell_angle_beta   90.00000000
_cell_angle_gamma   90.00000000
_symmetry_Int_Tables_number   1
_chemical_formula_structural   Hf3Ga13
_chemical_formula_sum   'Hf3 Ga13'
_cell_volume   272.54605547
_cell_formula_units_Z   1
loop_
 _symmetry_equiv_pos_site_id
 _symmetry_equiv_pos_as_xyz
  1  'x, y, z'
loop_
 _atom_site_type_symbol
 _atom_site_label
 _atom_site_symmetry_multiplicity
 _atom_site_fract_x
 _atom_site_fract_y
 _atom_site_fract_z
 _atom_site_occupancy
  Hf  Hf0  1  0.00000000  0.00000000  0.88109104  1
  Hf  Hf1  1  0.00000000  0.00000000  0.12310001  1
  Hf  Hf2  1  0.50000001  0.50000001  0.61648003  1
  Ga  Ga3  1  0.50000001  0.50000001  0.38139502  1
  Ga  Ga4  1  0.50000001  0.00000000  0.00122700  1
  Ga  Ga5  1  0.00000000  0.50000001  0.49661902  1
  Ga  Ga6  1  0.00000000  0.50000001  0.00122700  1
  Ga  Ga7  1  0.50000001  0.00000000  0.49661902  1
  Ga  Ga8  1  0.50000001  0.50000001  0.12423301  1
  Ga  Ga9  1  0.00000000  0.00000000  0.62368503  1
  Ga  Ga10  1  0.00000000  0.00000000  0.37397102  1
  Ga  Ga11  1  0.50000001  0.50000001  0.87468204  1
  Ga  Ga12  1  0.00000000  0.50000001  0.25379101  1
  Ga  Ga13  1  0.50000001  0.00000000  0.74904503  1
  Ga  Ga14  1  0.50000001  0.00000000  0.25379101  1
  Ga  Ga15  1  0.00000000  0.50000001  0.74904503  1
