# generated using pymatgen
data_LaCrSb3
_symmetry_space_group_name_H-M   'P 1'
_cell_length_a   6.14434481
_cell_length_b   6.27985811
_cell_length_c   12.93642712
_cell_angle_alpha   90.00000000
_cell_angle_beta   90.00000000
_cell_angle_gamma   90.00000000
_symmetry_Int_Tables_number   1
_chemical_formula_structural   LaCrSb3
_chemical_formula_sum   'La4 Cr4 Sb12'
_cell_volume   499.15997781
_cell_formula_units_Z   4
loop_
 _symmetry_equiv_pos_site_id
 _symmetry_equiv_pos_as_xyz
  1  'x, y, z'
loop_
 _atom_site_type_symbol
 _atom_site_label
 _atom_site_symmetry_multiplicity
 _atom_site_fract_x
 _atom_site_fract_y
 _atom_site_fract_z
 _atom_site_occupancy
  La  La0  1  0.25000001  0.50341599  0.30774500  1
  La  La1  1  0.75000002  0.49658399  0.69225499  1
  La  La2  1  0.25000001  0.00341600  0.69225499  1
  La  La3  1  0.75000002  0.99658398  0.30774500  1
  Cr  Cr4  1  0.00000000  0.74999999  0.90582299  1
  Cr  Cr5  1  0.00000000  0.25000000  0.09417700  1
  Cr  Cr6  1  0.50000002  0.25000000  0.09417700  1
  Cr  Cr7  1  0.50000002  0.74999999  0.90582299  1
  Sb  Sb8  1  0.00000000  0.74999999  0.50113800  1
  Sb  Sb9  1  0.00000000  0.25000000  0.49886200  1
  Sb  Sb10  1  0.50000002  0.25000000  0.49886200  1
  Sb  Sb11  1  0.50000002  0.74999999  0.50113800  1
  Sb  Sb12  1  0.25000001  0.59944599  0.06271900  1
  Sb  Sb13  1  0.75000002  0.40055399  0.93728099  1
  Sb  Sb14  1  0.25000001  0.09944600  0.93728099  1
  Sb  Sb15  1  0.75000002  0.90055398  0.06271900  1
  Sb  Sb16  1  0.25000001  0.00205600  0.22629400  1
  Sb  Sb17  1  0.75000002  0.99794398  0.77370599  1
  Sb  Sb18  1  0.25000001  0.50205599  0.77370599  1
  Sb  Sb19  1  0.75000002  0.49794399  0.22629400  1
