# generated using pymatgen
data_RbVCl3
_symmetry_space_group_name_H-M   'P 1'
_cell_length_a   5.87114191
_cell_length_b   6.98788023
_cell_length_c   6.98787928
_cell_angle_alpha   120.00000000
_cell_angle_beta   90.00000000
_cell_angle_gamma   90.00000000
_symmetry_Int_Tables_number   1
_chemical_formula_structural   RbVCl3
_chemical_formula_sum   'Rb2 V2 Cl6'
_cell_volume   248.28132568
_cell_formula_units_Z   2
loop_
 _symmetry_equiv_pos_site_id
 _symmetry_equiv_pos_as_xyz
  1  'x, y, z'
loop_
 _atom_site_type_symbol
 _atom_site_label
 _atom_site_symmetry_multiplicity
 _atom_site_fract_x
 _atom_site_fract_y
 _atom_site_fract_z
 _atom_site_occupancy
  Rb  Rb0  1  0.25000000  0.33333331  0.66666667  1
  Rb  Rb1  1  0.75000001  0.66666663  0.33333331  1
  V  V2  1  0.00000000  0.00000000  0.00000000  1
  V  V3  1  0.50000001  0.00000000  -0.00000000  1
  Cl  Cl4  1  0.25000000  0.84057595  0.68115198  1
  Cl  Cl5  1  0.25000000  0.31884798  0.15942399  1
  Cl  Cl6  1  0.75000001  0.15942399  0.84057602  1
  Cl  Cl7  1  0.75000001  0.15942399  0.31884800  1
  Cl  Cl8  1  0.25000000  0.84057595  0.15942396  1
  Cl  Cl9  1  0.75000001  0.68115196  0.84057599  1
