# generated using pymatgen
data_Ta3Ni4P5
_symmetry_space_group_name_H-M   'P 1'
_cell_length_a   3.57908392
_cell_length_b   5.93455791
_cell_length_c   6.71124315
_cell_angle_alpha   90.79188538
_cell_angle_beta   90.00000000
_cell_angle_gamma   90.00000000
_symmetry_Int_Tables_number   1
_chemical_formula_structural   Ta3Ni4P5
_chemical_formula_sum   'Ta3 Ni4 P5'
_cell_volume   142.53507447
_cell_formula_units_Z   1
loop_
 _symmetry_equiv_pos_site_id
 _symmetry_equiv_pos_as_xyz
  1  'x, y, z'
loop_
 _atom_site_type_symbol
 _atom_site_label
 _atom_site_symmetry_multiplicity
 _atom_site_fract_x
 _atom_site_fract_y
 _atom_site_fract_z
 _atom_site_occupancy
  Ta  Ta0  1  -0.00000000  0.02090000  0.31694799  1
  Ta  Ta1  1  0.50000001  0.47630501  0.82809199  1
  Ta  Ta2  1  0.50000001  0.97159901  0.67750001  1
  Ni  Ni3  1  -0.00000000  0.64509301  0.55802400  1
  Ni  Ni4  1  0.00000000  0.14957000  0.94166098  1
  Ni  Ni5  1  0.50000001  0.35700401  0.43859700  1
  Ni  Ni6  1  0.50000001  0.85426401  0.06205802  1
  P  P7  1  -0.00000000  0.53199601  0.17437201  1
  P  P8  1  0.00000000  0.27150500  0.62230799  1
  P  P9  1  0.00000000  0.77129801  0.88786000  1
  P  P10  1  0.50000001  0.71593801  0.36605201  1
  P  P11  1  0.50000001  0.23452800  0.12652800  1
