# generated using pymatgen
data_Er2Ni7
_symmetry_space_group_name_H-M   'P 1'
_cell_length_a   4.90395880
_cell_length_b   4.90395880
_cell_length_c   12.29268742
_cell_angle_alpha   78.49423981
_cell_angle_beta   78.49423981
_cell_angle_gamma   60.00000381
_symmetry_Int_Tables_number   1
_chemical_formula_structural   Er2Ni7
_chemical_formula_sum   'Er4 Ni14'
_cell_volume   249.13504925
_cell_formula_units_Z   2
loop_
 _symmetry_equiv_pos_site_id
 _symmetry_equiv_pos_as_xyz
  1  'x, y, z'
loop_
 _atom_site_type_symbol
 _atom_site_label
 _atom_site_symmetry_multiplicity
 _atom_site_fract_x
 _atom_site_fract_y
 _atom_site_fract_z
 _atom_site_occupancy
  Er  Er0  1  0.05186000  0.05186000  0.84442100  1
  Er  Er1  1  0.94814001  0.94813998  0.15557902  1
  Er  Er2  1  0.14814800  0.14814800  0.55555600  1
  Er  Er3  1  0.85185201  0.85185199  0.44444302  1
  Ni  Ni4  1  0.50000001  0.49999999  0.50000001  1
  Ni  Ni5  1  0.27810800  0.27810800  0.16567601  1
  Ni  Ni6  1  0.72189201  0.72189199  0.83432401  1
  Ni  Ni7  1  0.38889000  0.38888999  0.83332901  1
  Ni  Ni8  1  0.61111001  0.61110999  0.16667101  1
  Ni  Ni9  1  0.50000002  0.00000000  0.00000000  1
  Ni  Ni10  1  -0.00000001  0.49999999  0.00000001  1
  Ni  Ni11  1  0.50000001  0.49999999  0.00000001  1
  Ni  Ni12  1  0.61118801  0.61118799  0.66910401  1
  Ni  Ni13  1  0.61118802  0.10851900  0.66910401  1
  Ni  Ni14  1  0.10851899  0.61118799  0.66910401  1
  Ni  Ni15  1  0.38881200  0.38881199  0.33089601  1
  Ni  Ni16  1  0.38881199  0.89148098  0.33089602  1
  Ni  Ni17  1  0.89148102  0.38881199  0.33089601  1
