# generated using pymatgen
data_Tc5Os2PtSe9Br
_symmetry_space_group_name_H-M   'P 1'
_cell_length_a   8.62061310
_cell_length_b   8.62061310
_cell_length_c   8.62061310
_cell_angle_alpha   108.12969208
_cell_angle_beta   108.12969208
_cell_angle_gamma   108.12969208
_symmetry_Int_Tables_number   1
_chemical_formula_structural   Tc5Os2PtSe9Br
_chemical_formula_sum   'Tc5 Os2 Pt1 Se9 Br1'
_cell_volume   516.20808785
_cell_formula_units_Z   1
loop_
 _symmetry_equiv_pos_site_id
 _symmetry_equiv_pos_as_xyz
  1  'x, y, z'
loop_
 _atom_site_type_symbol
 _atom_site_label
 _atom_site_symmetry_multiplicity
 _atom_site_fract_x
 _atom_site_fract_y
 _atom_site_fract_z
 _atom_site_occupancy
  Tc  Tc0  1  0.07103101  0.07103100  0.31221001  1
  Tc  Tc1  1  0.07103102  0.31221002  0.07103101  1
  Tc  Tc2  1  0.31221001  0.07103100  0.07103101  1
  Tc  Tc3  1  0.68779007  0.92896905  0.92896906  1
  Pt  Pt4  1  0.92896908  0.92896905  0.68779006  1
  Tc  Tc5  1  0.92896907  0.68779004  0.92896906  1
  Se  Se6  1  0.76477103  0.00000000  0.23522901  1
  Os  Os7  1  0.00000001  0.23522901  0.76477103  1
  Os  Os8  1  0.23522904  0.76477104  0.00000002  1
  Br  Br9  1  0.23522901  0.00000000  0.76477102  1
  Se  Se10  1  0.00000003  0.76477104  0.23522903  1
  Se  Se11  1  0.76477104  0.23522901  0.00000001  1
  Se  Se12  1  0.62611806  0.86252105  0.62611805  1
  Se  Se13  1  0.62611805  0.62611804  0.86252105  1
  Se  Se14  1  0.86252106  0.62611804  0.62611804  1
  Se  Se15  1  0.13747902  0.37388202  0.37388202  1
  Se  Se16  1  0.37388202  0.13747901  0.37388202  1
  Se  Se17  1  0.37388203  0.37388202  0.13747902  1
