# generated using pymatgen
data_ErNiGe
_symmetry_space_group_name_H-M   'P 1'
_cell_length_a   4.15275192
_cell_length_b   6.62327385
_cell_length_c   7.46483612
_cell_angle_alpha   90.00000000
_cell_angle_beta   90.00000000
_cell_angle_gamma   90.00000000
_symmetry_Int_Tables_number   1
_chemical_formula_structural   ErNiGe
_chemical_formula_sum   'Er4 Ni4 Ge4'
_cell_volume   205.31892316
_cell_formula_units_Z   4
loop_
 _symmetry_equiv_pos_site_id
 _symmetry_equiv_pos_as_xyz
  1  'x, y, z'
loop_
 _atom_site_type_symbol
 _atom_site_label
 _atom_site_symmetry_multiplicity
 _atom_site_fract_x
 _atom_site_fract_y
 _atom_site_fract_z
 _atom_site_occupancy
  Er  Er0  1  0.25000000  0.35241201  0.49352399  1
  Er  Er1  1  0.25000000  0.14758800  0.99352398  1
  Er  Er2  1  0.75000001  0.64758801  0.50647599  1
  Er  Er3  1  0.75000001  0.85241202  0.00647600  1
  Ni  Ni4  1  0.25000000  0.88421802  0.30263400  1
  Ni  Ni5  1  0.25000000  0.61578201  0.80263399  1
  Ni  Ni6  1  0.75000001  0.11578200  0.69736599  1
  Ni  Ni7  1  0.75000001  0.38421801  0.19736600  1
  Ge  Ge8  1  0.25000000  0.93279702  0.63018999  1
  Ge  Ge9  1  0.25000000  0.56720301  0.13019000  1
  Ge  Ge10  1  0.75000001  0.06720300  0.36980999  1
  Ge  Ge11  1  0.75000001  0.43279701  0.86980999  1
