# generated using pymatgen
data_Cs2CoSiS4
_symmetry_space_group_name_H-M   'P 1'
_cell_length_a   5.45218277
_cell_length_b   6.68242359
_cell_length_c   6.69702911
_cell_angle_alpha   116.07857513
_cell_angle_beta   101.02191925
_cell_angle_gamma   101.88592529
_symmetry_Int_Tables_number   1
_chemical_formula_structural   Cs2CoSiS4
_chemical_formula_sum   'Cs2 Co1 Si1 S4'
_cell_volume   203.14306135
_cell_formula_units_Z   1
loop_
 _symmetry_equiv_pos_site_id
 _symmetry_equiv_pos_as_xyz
  1  'x, y, z'
loop_
 _atom_site_type_symbol
 _atom_site_label
 _atom_site_symmetry_multiplicity
 _atom_site_fract_x
 _atom_site_fract_y
 _atom_site_fract_z
 _atom_site_occupancy
  Cs  Cs0  1  0.24475199  0.36073101  0.64035001  1
  Cs  Cs1  1  0.74468397  0.63409002  0.35116705  1
  Si  Si2  1  0.24877999  0.99637904  0.00941207  1
  Co  Co3  1  0.75691697  0.00616700  0.00267502  1
  S  S4  1  0.40125198  0.91438304  0.68599005  1
  S  S5  1  0.10440200  0.29699401  0.09458202  1
  S  S6  1  0.59782098  0.08553800  0.29495001  1
  S  S7  1  0.90139197  0.70571703  0.92087404  1
