# generated using pymatgen
data_LaSb3
_symmetry_space_group_name_H-M   'P 1'
_cell_length_a   4.65636396
_cell_length_b   4.65636444
_cell_length_c   23.78258514
_cell_angle_alpha   90.00000000
_cell_angle_beta   90.00000000
_cell_angle_gamma   120.00000000
_symmetry_Int_Tables_number   1
_chemical_formula_structural   LaSb3
_chemical_formula_sum   'La4 Sb12'
_cell_volume   446.56386245
_cell_formula_units_Z   4
loop_
 _symmetry_equiv_pos_site_id
 _symmetry_equiv_pos_as_xyz
  1  'x, y, z'
loop_
 _atom_site_type_symbol
 _atom_site_label
 _atom_site_symmetry_multiplicity
 _atom_site_fract_x
 _atom_site_fract_y
 _atom_site_fract_z
 _atom_site_occupancy
  La  La0  1  0.33333338  0.66666668  0.07478800  1
  La  La1  1  0.66666669  0.33333334  0.92521203  1
  La  La2  1  0.66666669  0.33333334  0.57478802  1
  La  La3  1  0.33333338  0.66666668  0.42521202  1
  Sb  Sb4  1  0.66666669  0.33333334  0.75000003  1
  Sb  Sb5  1  0.33333338  0.66666668  0.25000001  1
  Sb  Sb6  1  0.66666669  0.33333334  0.34691401  1
  Sb  Sb7  1  0.00000000  0.00000000  0.50000002  1
  Sb  Sb8  1  0.33333338  0.66666668  0.65308602  1
  Sb  Sb9  1  0.66666669  0.33333334  0.15308601  1
  Sb  Sb10  1  0.33333338  0.66666668  0.84691403  1
  Sb  Sb11  1  0.00000000  0.00000000  0.00000000  1
  Sb  Sb12  1  0.00000000  0.00000000  0.18706001  1
  Sb  Sb13  1  0.00000000  0.00000000  0.81294003  1
  Sb  Sb14  1  0.00000000  0.00000000  0.68706002  1
  Sb  Sb15  1  0.00000000  0.00000000  0.31294001  1
