# generated using pymatgen
data_TlFeF3
_symmetry_space_group_name_H-M   'P 1'
_cell_length_a   4.60990810
_cell_length_b   4.63933802
_cell_length_c   5.30034876
_cell_angle_alpha   83.31825256
_cell_angle_beta   85.56058502
_cell_angle_gamma   89.56276703
_symmetry_Int_Tables_number   1
_chemical_formula_structural   TlFeF3
_chemical_formula_sum   'Tl1 Fe1 F3'
_cell_volume   112.25028792
_cell_formula_units_Z   1
loop_
 _symmetry_equiv_pos_site_id
 _symmetry_equiv_pos_as_xyz
  1  'x, y, z'
loop_
 _atom_site_type_symbol
 _atom_site_label
 _atom_site_symmetry_multiplicity
 _atom_site_fract_x
 _atom_site_fract_y
 _atom_site_fract_z
 _atom_site_occupancy
  Tl  Tl0  1  0.97639594  0.96615501  0.92031408  1
  Fe  Fe1  1  0.50741797  0.51470100  0.49055305  1
  F  F2  1  0.02453498  0.50298300  0.56884505  1
  F  F3  1  0.48806197  0.48658700  0.88897005  1
  F  F4  1  0.50358899  0.03957300  0.57131602  1
