# generated using pymatgen
data_Sm10EuAl5
_symmetry_space_group_name_H-M   'P 1'
_cell_length_a   6.88373280
_cell_length_b   8.87973785
_cell_length_c   8.87973881
_cell_angle_alpha   60.00000381
_cell_angle_beta   90.00000000
_cell_angle_gamma   90.00000000
_symmetry_Int_Tables_number   1
_chemical_formula_structural   Sm10EuAl5
_chemical_formula_sum   'Sm10 Eu1 Al5'
_cell_volume   470.06183185
_cell_formula_units_Z   1
loop_
 _symmetry_equiv_pos_site_id
 _symmetry_equiv_pos_as_xyz
  1  'x, y, z'
loop_
 _atom_site_type_symbol
 _atom_site_label
 _atom_site_symmetry_multiplicity
 _atom_site_fract_x
 _atom_site_fract_y
 _atom_site_fract_z
 _atom_site_occupancy
  Sm  Sm0  1  0.00000000  0.66666668  0.66666669  1
  Sm  Sm1  1  0.00000000  0.33333334  0.33333334  1
  Sm  Sm2  1  0.50000001  0.33333334  0.33333334  1
  Sm  Sm3  1  0.50000001  0.66666668  0.66666669  1
  Sm  Sm4  1  0.25000001  0.25534201  1.00000004  1
  Sm  Sm5  1  0.25000001  0.00000000  0.74465803  1
  Sm  Sm6  1  0.25000001  0.74465802  0.25534200  1
  Sm  Sm7  1  0.75000002  0.74465802  -0.00000001  1
  Sm  Sm8  1  0.75000002  0.00000000  0.25534201  1
  Sm  Sm9  1  0.75000002  0.25534201  0.74465803  1
  Eu  Eu10  1  0.25000001  0.61024201  -0.00000001  1
  Al  Al11  1  0.25000001  0.00000000  0.38975801  1
  Al  Al12  1  0.25000001  0.38975801  0.61024202  1
  Al  Al13  1  0.75000002  0.38975801  -0.00000000  1
  Al  Al14  1  0.75000002  0.00000000  0.61024202  1
  Al  Al15  1  0.75000002  0.61024201  0.38975801  1
