# generated using pymatgen
data_KLaAsS4
_symmetry_space_group_name_H-M   'P 1'
_cell_length_a   6.64313507
_cell_length_b   6.73294306
_cell_length_c   8.79158592
_cell_angle_alpha   90.00000000
_cell_angle_beta   72.68683624
_cell_angle_gamma   90.00000000
_symmetry_Int_Tables_number   1
_chemical_formula_structural   KLaAsS4
_chemical_formula_sum   'K2 La2 As2 S8'
_cell_volume   375.41250793
_cell_formula_units_Z   2
loop_
 _symmetry_equiv_pos_site_id
 _symmetry_equiv_pos_as_xyz
  1  'x, y, z'
loop_
 _atom_site_type_symbol
 _atom_site_label
 _atom_site_symmetry_multiplicity
 _atom_site_fract_x
 _atom_site_fract_y
 _atom_site_fract_z
 _atom_site_occupancy
  K  K0  1  0.77142900  0.02474500  0.43393599  1
  K  K1  1  0.22857100  0.52474500  0.56606401  1
  La  La2  1  0.26727500  0.50890900  0.05268100  1
  La  La3  1  0.73272500  0.00890900  0.94731901  1
  As  As4  1  0.71416100  0.53780800  0.18394799  1
  As  As5  1  0.28583900  0.03780800  0.81605201  1
  S  S6  1  0.90648200  0.53882000  0.33566599  1
  S  S7  1  0.48860400  0.77227199  0.22967899  1
  S  S8  1  0.52437600  0.27653800  0.21537899  1
  S  S9  1  0.10187200  0.07390900  0.05961500  1
  S  S10  1  0.89812800  0.57390900  0.94038500  1
  S  S11  1  0.47562400  0.77653799  0.78462101  1
  S  S12  1  0.51139600  0.27227200  0.77032101  1
  S  S13  1  0.09351800  0.03882000  0.66433401  1
