# generated using pymatgen
data_Re
_symmetry_space_group_name_H-M   'P 1'
_cell_length_a   4.26588821
_cell_length_b   5.27407408
_cell_length_c   5.27407408
_cell_angle_alpha   120.00000000
_cell_angle_beta   90.00000000
_cell_angle_gamma   90.00000000
_symmetry_Int_Tables_number   1
_chemical_formula_structural   Re
_chemical_formula_sum   Re8
_cell_volume   102.76200123
_cell_formula_units_Z   8
loop_
 _symmetry_equiv_pos_site_id
 _symmetry_equiv_pos_as_xyz
  1  'x, y, z'
loop_
 _atom_site_type_symbol
 _atom_site_label
 _atom_site_symmetry_multiplicity
 _atom_site_fract_x
 _atom_site_fract_y
 _atom_site_fract_z
 _atom_site_occupancy
  Re  Re0  1  0.74999996  0.83640798  0.16359199  1
  Re  Re1  1  0.74999996  0.32718399  0.16359199  1
  Re  Re2  1  0.74999996  0.83640798  0.67281598  1
  Re  Re3  1  0.24999999  0.16359200  0.83640798  1
  Re  Re4  1  0.24999999  0.67281599  0.83640797  1
  Re  Re5  1  0.24999999  0.16359200  0.32718399  1
  Re  Re6  1  0.24999999  0.66666665  0.33333332  1
  Re  Re7  1  0.74999996  0.33333333  0.66666665  1
