# generated using pymatgen
data_MnO2
_symmetry_space_group_name_H-M   'P 1'
_cell_length_a   3.54151511
_cell_length_b   5.77732277
_cell_length_c   6.70668602
_cell_angle_alpha   90.00000000
_cell_angle_beta   90.00000000
_cell_angle_gamma   90.00000000
_symmetry_Int_Tables_number   1
_chemical_formula_structural   MnO2
_chemical_formula_sum   'Mn4 O8'
_cell_volume   137.22198764
_cell_formula_units_Z   4
loop_
 _symmetry_equiv_pos_site_id
 _symmetry_equiv_pos_as_xyz
  1  'x, y, z'
loop_
 _atom_site_type_symbol
 _atom_site_label
 _atom_site_symmetry_multiplicity
 _atom_site_fract_x
 _atom_site_fract_y
 _atom_site_fract_z
 _atom_site_occupancy
  Mn  Mn0  1  0.74999998  0.23941101  0.61159000  1
  Mn  Mn1  1  0.74999998  0.73941103  0.88841000  1
  Mn  Mn2  1  0.24999999  0.26058901  0.11159000  1
  Mn  Mn3  1  0.24999999  0.76058903  0.38841000  1
  O  O4  1  0.74999998  0.85243203  0.57156900  1
  O  O5  1  0.24999999  0.52704902  0.68270000  1
  O  O6  1  0.24999999  0.02704900  0.81730000  1
  O  O7  1  0.74999998  0.35243201  0.92843100  1
  O  O8  1  0.24999999  0.64756803  0.07156900  1
  O  O9  1  0.74999998  0.97295104  0.18270000  1
  O  O10  1  0.74999998  0.47295102  0.31730000  1
  O  O11  1  0.24999999  0.14756801  0.42843100  1
