# generated using pymatgen
data_Li2Ni2GeF11
_symmetry_space_group_name_H-M   'P 1'
_cell_length_a   6.39851856
_cell_length_b   6.39851856
_cell_length_c   6.39851856
_cell_angle_alpha   60.00000000
_cell_angle_beta   60.00000000
_cell_angle_gamma   60.00000000
_symmetry_Int_Tables_number   1
_chemical_formula_structural   Li2Ni2GeF11
_chemical_formula_sum   'Li2 Ni2 Ge1 F11'
_cell_volume   185.23510879
_cell_formula_units_Z   1
loop_
 _symmetry_equiv_pos_site_id
 _symmetry_equiv_pos_as_xyz
  1  'x, y, z'
loop_
 _atom_site_type_symbol
 _atom_site_label
 _atom_site_symmetry_multiplicity
 _atom_site_fract_x
 _atom_site_fract_y
 _atom_site_fract_z
 _atom_site_occupancy
  Li  Li0  1  0.87500003  0.87500003  0.37500001  1
  Li  Li1  1  0.87500003  0.87500003  0.87500003  1
  Ni  Ni2  1  0.87500003  0.37500001  0.87500003  1
  Ge  Ge3  1  0.37500001  0.87500003  0.87500003  1
  Ni  Ni4  1  0.80373002  0.80373002  0.19627001  1
  F  F5  1  0.19627001  0.19627001  0.80373002  1
  F  F6  1  0.80373002  0.19627001  0.19627001  1
  F  F7  1  0.19627001  0.80373002  0.80373002  1
  F  F8  1  0.80373002  0.19627001  0.80373002  1
  F  F9  1  0.19627001  0.80373002  0.19627001  1
  F  F10  1  0.94627003  0.94627003  0.55373002  1
  F  F11  1  0.55373002  0.55373002  0.94627003  1
  F  F12  1  0.94627003  0.55373002  0.55373002  1
  F  F13  1  0.55373002  0.94627003  0.94627003  1
  F  F14  1  0.94627003  0.55373002  0.94627003  1
  F  F15  1  0.55373002  0.94627003  0.55373002  1
