# generated using pymatgen
data_PrGa2SiPt
_symmetry_space_group_name_H-M   'P 1'
_cell_length_a   4.26174021
_cell_length_b   4.26174021
_cell_length_c   6.14090395
_cell_angle_alpha   110.30369568
_cell_angle_beta   110.30369568
_cell_angle_gamma   90.00000000
_symmetry_Int_Tables_number   1
_chemical_formula_structural   PrGa2SiPt
_chemical_formula_sum   'Pr1 Ga2 Si1 Pt1'
_cell_volume   97.18085813
_cell_formula_units_Z   1
loop_
 _symmetry_equiv_pos_site_id
 _symmetry_equiv_pos_as_xyz
  1  'x, y, z'
loop_
 _atom_site_type_symbol
 _atom_site_label
 _atom_site_symmetry_multiplicity
 _atom_site_fract_x
 _atom_site_fract_y
 _atom_site_fract_z
 _atom_site_occupancy
  Pr  Pr0  1  0.99926595  0.99926595  0.99853200  1
  Si  Si1  1  0.40661998  0.40661998  0.81324000  1
  Ga  Ga2  1  0.24882999  0.74882996  0.49766000  1
  Ga  Ga3  1  0.74882996  0.24882999  0.49766000  1
  Pt  Pt4  1  0.63245297  0.63245297  0.26490600  1
