# generated using pymatgen
data_MnNiP
_symmetry_space_group_name_H-M   'P 1'
_cell_length_a   3.55657291
_cell_length_b   6.04928589
_cell_length_c   6.94422007
_cell_angle_alpha   90.00000000
_cell_angle_beta   90.00000000
_cell_angle_gamma   90.00000000
_symmetry_Int_Tables_number   1
_chemical_formula_structural   MnNiP
_chemical_formula_sum   'Mn4 Ni4 P4'
_cell_volume   149.40299438
_cell_formula_units_Z   4
loop_
 _symmetry_equiv_pos_site_id
 _symmetry_equiv_pos_as_xyz
  1  'x, y, z'
loop_
 _atom_site_type_symbol
 _atom_site_label
 _atom_site_symmetry_multiplicity
 _atom_site_fract_x
 _atom_site_fract_y
 _atom_site_fract_z
 _atom_site_occupancy
  Mn  Mn0  1  0.75000002  0.97279302  0.17418000  1
  Mn  Mn1  1  0.75000002  0.47279301  0.32582000  1
  Mn  Mn2  1  0.25000001  0.02720700  0.82581999  1
  Mn  Mn3  1  0.25000001  0.52720701  0.67417999  1
  Ni  Ni4  1  0.75000002  0.85276202  0.56308899  1
  Ni  Ni5  1  0.75000002  0.35276201  0.93691099  1
  Ni  Ni6  1  0.25000001  0.14723800  0.43691100  1
  Ni  Ni7  1  0.25000001  0.64723801  0.06308900  1
  P  P8  1  0.75000002  0.23074300  0.62441799  1
  P  P9  1  0.75000002  0.73074301  0.87558199  1
  P  P10  1  0.25000001  0.76925701  0.37558200  1
  P  P11  1  0.25000001  0.26925700  0.12441800  1
