# generated using pymatgen
data_CaMg
_symmetry_space_group_name_H-M   'P 1'
_cell_length_a   5.71978378
_cell_length_b   6.14221430
_cell_length_c   6.14221430
_cell_angle_alpha   77.47914124
_cell_angle_beta   62.25012970
_cell_angle_gamma   62.25012970
_symmetry_Int_Tables_number   1
_chemical_formula_structural   CaMg
_chemical_formula_sum   'Ca3 Mg3'
_cell_volume   169.00711328
_cell_formula_units_Z   3
loop_
 _symmetry_equiv_pos_site_id
 _symmetry_equiv_pos_as_xyz
  1  'x, y, z'
loop_
 _atom_site_type_symbol
 _atom_site_label
 _atom_site_symmetry_multiplicity
 _atom_site_fract_x
 _atom_site_fract_y
 _atom_site_fract_z
 _atom_site_occupancy
  Ca  Ca0  1  0.34194704  0.81610598  0.50000001  1
  Ca  Ca1  1  0.15805302  0.49999999  0.18389401  1
  Ca  Ca2  1  0.84194704  0.49999999  0.81610602  1
  Mg  Mg3  1  0.65805302  0.18389399  0.50000002  1
  Mg  Mg4  1  0.75000002  0.00000000  0.00000003  1
  Mg  Mg5  1  0.25000001  0.00000000  0.00000001  1
