# generated using pymatgen
data_Mn
_symmetry_space_group_name_H-M   'P 1'
_cell_length_a   4.14051962
_cell_length_b   4.14051962
_cell_length_c   22.77400780
_cell_angle_alpha   90.00000000
_cell_angle_beta   90.00000000
_cell_angle_gamma   90.59822845
_symmetry_Int_Tables_number   1
_chemical_formula_structural   Mn
_chemical_formula_sum   Mn4
_cell_volume   390.41409252
_cell_formula_units_Z   4
loop_
 _symmetry_equiv_pos_site_id
 _symmetry_equiv_pos_as_xyz
  1  'x, y, z'
loop_
 _atom_site_type_symbol
 _atom_site_label
 _atom_site_symmetry_multiplicity
 _atom_site_fract_x
 _atom_site_fract_y
 _atom_site_fract_z
 _atom_site_occupancy
  Mn  Mn0  1  0.25100000  0.24899999  0.56444498  1
  Mn  Mn1  1  0.75099999  0.74899997  0.43555498  1
  Mn  Mn2  1  0.71499999  0.78499997  0.54853998  1
  Mn  Mn3  1  0.21500000  0.28499999  0.45145998  1
