# generated using pymatgen
data_Mn3O5F
_symmetry_space_group_name_H-M   'P 1'
_cell_length_a   4.78262377
_cell_length_b   5.79360008
_cell_length_c   8.08691120
_cell_angle_alpha   92.17327118
_cell_angle_beta   90.00000000
_cell_angle_gamma   90.00000000
_symmetry_Int_Tables_number   1
_chemical_formula_structural   Mn3O5F
_chemical_formula_sum   'Mn6 O10 F2'
_cell_volume   223.91588910
_cell_formula_units_Z   2
loop_
 _symmetry_equiv_pos_site_id
 _symmetry_equiv_pos_as_xyz
  1  'x, y, z'
loop_
 _atom_site_type_symbol
 _atom_site_label
 _atom_site_symmetry_multiplicity
 _atom_site_fract_x
 _atom_site_fract_y
 _atom_site_fract_z
 _atom_site_occupancy
  Mn  Mn0  1  0.51415802  0.58596299  0.33306398  1
  Mn  Mn1  1  0.49226202  0.25381400  0.98594595  1
  Mn  Mn2  1  0.47882502  0.93759699  0.67436696  1
  Mn  Mn3  1  0.97882505  0.06240300  0.32563298  1
  Mn  Mn4  1  0.01415800  0.41403699  0.66693596  1
  Mn  Mn5  1  0.99226205  0.74618599  0.01405400  1
  O  O6  1  0.80953804  0.79449599  0.24620998  1
  O  O7  1  0.30953802  0.20550400  0.75378996  1
  O  O8  1  0.79110204  0.10993200  0.55050197  1
  O  O9  1  0.80480304  0.45418899  0.89901295  1
  O  O10  1  0.71246803  0.94569199  0.88401195  1
  O  O11  1  0.70857003  0.27815100  0.22814899  1
  O  O12  1  0.68827203  0.63337799  0.58370197  1
  O  O13  1  0.29110201  0.89006799  0.44949797  1
  O  O14  1  0.30480301  0.54581099  0.10098699  1
  F  F15  1  0.20857001  0.72184899  0.77185096  1
  O  O16  1  0.18827201  0.36662199  0.41629798  1
  F  F17  1  0.21246801  0.05430800  0.11598799  1
