# generated using pymatgen
data_Sr2ScNbO6
_symmetry_space_group_name_H-M   'P 1'
_cell_length_a   5.73483610
_cell_length_b   5.76193190
_cell_length_c   8.12641144
_cell_angle_alpha   90.00000000
_cell_angle_beta   90.01840210
_cell_angle_gamma   90.00000000
_symmetry_Int_Tables_number   1
_chemical_formula_structural   Sr2ScNbO6
_chemical_formula_sum   'Sr4 Sc2 Nb2 O12'
_cell_volume   268.52697264
_cell_formula_units_Z   2
loop_
 _symmetry_equiv_pos_site_id
 _symmetry_equiv_pos_as_xyz
  1  'x, y, z'
loop_
 _atom_site_type_symbol
 _atom_site_label
 _atom_site_symmetry_multiplicity
 _atom_site_fract_x
 _atom_site_fract_y
 _atom_site_fract_z
 _atom_site_occupancy
  Sr  Sr0  1  0.99556998  0.47566901  0.24868700  1
  Sr  Sr1  1  0.00443000  0.52433101  0.75131300  1
  Sr  Sr2  1  0.50442999  0.97566902  0.25131300  1
  Sr  Sr3  1  0.49556999  0.02433100  0.74868700  1
  Sc  Sc4  1  0.00000000  0.00000000  0.00000000  1
  Sc  Sc5  1  0.49999999  0.50000001  0.50000000  1
  Nb  Nb6  1  0.99999998  1.00000002  0.50000000  1
  Nb  Nb7  1  0.49999999  0.50000001  1.00000000  1
  O  O8  1  0.05877700  0.01159800  0.25683800  1
  O  O9  1  0.94122298  0.98840202  0.74316200  1
  O  O10  1  0.44122299  0.51159801  0.24316200  1
  O  O11  1  0.55877699  0.48840201  0.75683800  1
  O  O12  1  0.77333799  0.71302001  0.03010000  1
  O  O13  1  0.22666200  0.28698001  0.96990000  1
  O  O14  1  0.72666199  0.21302000  0.46990000  1
  O  O15  1  0.27333800  0.78698001  0.53010000  1
  O  O16  1  0.71292499  0.22682900  0.03149500  1
  O  O17  1  0.28707499  0.77317101  0.96850500  1
  O  O18  1  0.78707499  0.72682901  0.46850500  1
  O  O19  1  0.21292500  0.27317100  0.53149500  1
