# generated using pymatgen
data_InSnS3
_symmetry_space_group_name_H-M   'P 1'
_cell_length_a   3.85485005
_cell_length_b   9.06626034
_cell_length_c   14.43281460
_cell_angle_alpha   90.00000000
_cell_angle_beta   90.00000000
_cell_angle_gamma   90.00000000
_symmetry_Int_Tables_number   1
_chemical_formula_structural   InSnS3
_chemical_formula_sum   'In4 Sn4 S12'
_cell_volume   504.41350760
_cell_formula_units_Z   4
loop_
 _symmetry_equiv_pos_site_id
 _symmetry_equiv_pos_as_xyz
  1  'x, y, z'
loop_
 _atom_site_type_symbol
 _atom_site_label
 _atom_site_symmetry_multiplicity
 _atom_site_fract_x
 _atom_site_fract_y
 _atom_site_fract_z
 _atom_site_occupancy
  In  In0  1  0.25000000  0.16374799  0.94893903  1
  In  In1  1  0.25000000  0.66374798  0.55106102  1
  In  In2  1  0.74999999  0.83625197  0.05106100  1
  In  In3  1  0.74999999  0.33625199  0.44893901  1
  Sn  Sn4  1  0.74999999  0.48907598  0.83115702  1
  Sn  Sn5  1  0.74999999  0.98907596  0.66884302  1
  Sn  Sn6  1  0.25000000  0.51092398  0.16884300  1
  Sn  Sn7  1  0.25000000  0.01092400  0.33115701  1
  S  S8  1  0.74999999  0.98168796  0.89657602  1
  S  S9  1  0.74999999  0.48168798  0.60342402  1
  S  S10  1  0.25000000  0.01831200  0.10342400  1
  S  S11  1  0.25000000  0.51831198  0.39657601  1
  S  S12  1  0.74999999  0.33521099  0.00518400  1
  S  S13  1  0.74999999  0.83521097  0.49481601  1
  S  S14  1  0.25000000  0.66478898  0.99481603  1
  S  S15  1  0.25000000  0.16478899  0.50518401  1
  S  S16  1  0.25000000  0.27953499  0.79033402  1
  S  S17  1  0.25000000  0.77953497  0.70966602  1
  S  S18  1  0.74999999  0.72046497  0.20966601  1
  S  S19  1  0.74999999  0.22046499  0.29033401  1
