# generated using pymatgen
data_TlNi2(SeO4)3
_symmetry_space_group_name_H-M   'P 1'
_cell_length_a   5.94275618
_cell_length_b   5.96634007
_cell_length_c   7.83032894
_cell_angle_alpha   67.68877411
_cell_angle_beta   67.69911957
_cell_angle_gamma   60.13067627
_symmetry_Int_Tables_number   1
_chemical_formula_structural   TlNi2(SeO4)3
_chemical_formula_sum   'Tl1 Ni2 Se3 O12'
_cell_volume   216.36775972
_cell_formula_units_Z   1
loop_
 _symmetry_equiv_pos_site_id
 _symmetry_equiv_pos_as_xyz
  1  'x, y, z'
loop_
 _atom_site_type_symbol
 _atom_site_label
 _atom_site_symmetry_multiplicity
 _atom_site_fract_x
 _atom_site_fract_y
 _atom_site_fract_z
 _atom_site_occupancy
  Tl  Tl0  1  0.00000001  0.50000001  0.50000000  1
  Ni  Ni1  1  0.58283898  0.08932900  0.74499401  1
  Ni  Ni2  1  0.41716101  0.91067102  0.25500601  1
  Se  Se3  1  0.00000000  0.00000000  0.00000000  1
  Se  Se4  1  0.00000001  0.50000001  0.00000000  1
  Se  Se5  1  0.49999999  0.50000001  0.00000001  1
  O  O6  1  0.26583201  0.74502501  0.72331001  1
  O  O7  1  0.73416798  0.25497500  0.27669001  1
  O  O8  1  0.22985100  0.22325500  0.82405300  1
  O  O9  1  0.72284098  0.22325500  0.82405301  1
  O  O10  1  0.77014899  0.77674501  0.17594702  1
  O  O11  1  0.27715901  0.77674501  0.17594701  1
  O  O12  1  0.72398499  0.73703201  0.81499802  1
  O  O13  1  0.27601500  0.26296801  0.18500201  1
  O  O14  1  0.34505801  0.81389902  0.49598601  1
  O  O15  1  0.65494198  0.18610100  0.50401401  1
  O  O16  1  0.21257701  0.70952301  0.86532301  1
  O  O17  1  0.78742298  0.29047701  0.13467701  1
