# generated using pymatgen
data_Li3V3OF11
_symmetry_space_group_name_H-M   'P 1'
_cell_length_a   4.72781181
_cell_length_b   5.72318125
_cell_length_c   7.92406511
_cell_angle_alpha   85.91259766
_cell_angle_beta   89.39205170
_cell_angle_gamma   88.10527802
_symmetry_Int_Tables_number   1
_chemical_formula_structural   Li3V3OF11
_chemical_formula_sum   'Li3 V3 O1 F11'
_cell_volume   213.74072509
_cell_formula_units_Z   1
loop_
 _symmetry_equiv_pos_site_id
 _symmetry_equiv_pos_as_xyz
  1  'x, y, z'
loop_
 _atom_site_type_symbol
 _atom_site_label
 _atom_site_symmetry_multiplicity
 _atom_site_fract_x
 _atom_site_fract_y
 _atom_site_fract_z
 _atom_site_occupancy
  Li  Li0  1  0.47225100  0.49145498  0.98527896  1
  Li  Li1  1  0.53964202  0.15936599  0.34719598  1
  Li  Li2  1  0.49984899  0.83324097  0.66866996  1
  V  V3  1  0.01196398  0.67188698  0.30845898  1
  V  V4  1  0.97323603  0.33928799  0.68130496  1
  V  V5  1  0.98742204  0.00460500  0.01234998  1
  O  O6  1  0.81378800  0.95783097  0.23359496  1
  F  F7  1  0.79747602  0.29382399  0.91229796  1
  F  F8  1  0.69130902  0.11992500  0.57548997  1
  F  F9  1  0.31442200  0.54566498  0.75909997  1
  F  F10  1  0.19539499  0.71101098  0.09168098  1
  F  F11  1  0.80650701  0.63436798  0.53438896  1
  F  F12  1  0.70987500  0.79848697  0.88222095  1
  F  F13  1  0.67939001  0.47147198  0.21788197  1
  F  F14  1  0.29918698  0.86477497  0.44800697  1
  F  F15  1  0.31251501  0.19373199  0.12519599  1
  F  F16  1  0.19517200  0.37179499  0.42497498  1
  F  F17  1  0.20060001  0.03727200  0.79190498  1
