# generated using pymatgen
data_LiMnF2
_symmetry_space_group_name_H-M   'P 1'
_cell_length_a   3.02950764
_cell_length_b   3.02950764
_cell_length_c   6.49316454
_cell_angle_alpha   76.50949097
_cell_angle_beta   76.50949097
_cell_angle_gamma   60.00000763
_symmetry_Int_Tables_number   1
_chemical_formula_structural   LiMnF2
_chemical_formula_sum   'Li1 Mn1 F2'
_cell_volume   49.70196965
_cell_formula_units_Z   1
loop_
 _symmetry_equiv_pos_site_id
 _symmetry_equiv_pos_as_xyz
  1  'x, y, z'
loop_
 _atom_site_type_symbol
 _atom_site_label
 _atom_site_symmetry_multiplicity
 _atom_site_fract_x
 _atom_site_fract_y
 _atom_site_fract_z
 _atom_site_occupancy
  Li  Li0  1  0.50000000  0.50000000  0.50000004  1
  Mn  Mn1  1  0.00000000  0.00000000  0.00000000  1
  F  F2  1  0.88799400  0.88799400  0.33601805  1
  F  F3  1  0.11200600  0.11200600  0.66398202  1
