# generated using pymatgen
data_CsPdBr3
_symmetry_space_group_name_H-M   'P 1'
_cell_length_a   7.69693184
_cell_length_b   7.73955870
_cell_length_c   7.69693184
_cell_angle_alpha   119.81797791
_cell_angle_beta   90.00000000
_cell_angle_gamma   119.81797791
_symmetry_Int_Tables_number   1
_chemical_formula_structural   CsPdBr3
_chemical_formula_sum   'Cs2 Pd2 Br6'
_cell_volume   325.99338927
_cell_formula_units_Z   2
loop_
 _symmetry_equiv_pos_site_id
 _symmetry_equiv_pos_as_xyz
  1  'x, y, z'
loop_
 _atom_site_type_symbol
 _atom_site_label
 _atom_site_symmetry_multiplicity
 _atom_site_fract_x
 _atom_site_fract_y
 _atom_site_fract_z
 _atom_site_occupancy
  Cs  Cs0  1  0.25000004  0.50000004  0.75000005  1
  Cs  Cs1  1  0.75000005  0.50000004  0.25000004  1
  Pd  Pd2  1  0.00000000  0.00000000  0.00000000  1
  Pd  Pd3  1  0.50000001  0.00000000  0.50000001  1
  Br  Br4  1  0.28271008  0.99999908  0.21728908  1
  Br  Br5  1  0.71729001  0.00000100  0.78271102  1
  Br  Br6  1  0.78271010  1.00000008  0.28271009  1
  Br  Br7  1  0.21729000  0.00000000  0.71729001  1
  Br  Br8  1  0.75000005  0.50000004  0.75000005  1
  Br  Br9  1  0.25000004  0.50000004  0.25000004  1
