# generated using pymatgen
data_EuZn2(AgAs)2
_symmetry_space_group_name_H-M   'P 1'
_cell_length_a   4.28296995
_cell_length_b   4.28296995
_cell_length_c   8.77912235
_cell_angle_alpha   75.88143921
_cell_angle_beta   75.88143921
_cell_angle_gamma   59.99999619
_symmetry_Int_Tables_number   1
_chemical_formula_structural   EuZn2(AgAs)2
_chemical_formula_sum   'Eu1 Zn2 Ag2 As2'
_cell_volume   133.82046261
_cell_formula_units_Z   1
loop_
 _symmetry_equiv_pos_site_id
 _symmetry_equiv_pos_as_xyz
  1  'x, y, z'
loop_
 _atom_site_type_symbol
 _atom_site_label
 _atom_site_symmetry_multiplicity
 _atom_site_fract_x
 _atom_site_fract_y
 _atom_site_fract_z
 _atom_site_occupancy
  Eu  Eu0  1  0.00000000  0.00000000  0.00000000  1
  Zn  Zn1  1  0.14250900  0.14250901  0.57247301  1
  Zn  Zn2  1  0.85749101  0.85749105  0.42752703  1
  Ag  Ag3  1  0.44943300  0.44943303  0.65170102  1
  Ag  Ag4  1  0.55056700  0.55056703  0.34829902  1
  As  As5  1  0.24937000  0.24937001  0.25189001  1
  As  As6  1  0.75063001  0.75063004  0.74811003  1
