# generated using pymatgen
data_Co3NiS3
_symmetry_space_group_name_H-M   'P 1'
_cell_length_a   5.31052446
_cell_length_b   5.31052446
_cell_length_c   5.48997593
_cell_angle_alpha   61.07551575
_cell_angle_beta   61.07551575
_cell_angle_gamma   59.99999619
_symmetry_Int_Tables_number   1
_chemical_formula_structural   Co3NiS3
_chemical_formula_sum   'Co3 Ni1 S3'
_cell_volume   111.22496301
_cell_formula_units_Z   1
loop_
 _symmetry_equiv_pos_site_id
 _symmetry_equiv_pos_as_xyz
  1  'x, y, z'
loop_
 _atom_site_type_symbol
 _atom_site_label
 _atom_site_symmetry_multiplicity
 _atom_site_fract_x
 _atom_site_fract_y
 _atom_site_fract_z
 _atom_site_occupancy
  Ni  Ni0  1  0.49999997  0.49999998  0.50000002  1
  Co  Co1  1  0.49999997  0.49999998  0.00000000  1
  Co  Co2  1  0.49999998  0.00000000  0.00000000  1
  Co  Co3  1  -0.00000001  0.49999998  0.00000000  1
  S  S4  1  0.00000000  0.00000000  0.00000000  1
  S  S5  1  0.77855695  0.77855697  0.66432902  1
  S  S6  1  0.22144299  0.22144299  0.33567101  1
