# generated using pymatgen
data_K3NaFeCu2F8
_symmetry_space_group_name_H-M   'P 1'
_cell_length_a   6.61166620
_cell_length_b   6.80998468
_cell_length_c   6.80998468
_cell_angle_alpha   76.36998749
_cell_angle_beta   60.95875168
_cell_angle_gamma   60.95875168
_symmetry_Int_Tables_number   1
_chemical_formula_structural   K3NaFeCu2F8
_chemical_formula_sum   'K3 Na1 Fe1 Cu2 F8'
_cell_volume   234.36610156
_cell_formula_units_Z   1
loop_
 _symmetry_equiv_pos_site_id
 _symmetry_equiv_pos_as_xyz
  1  'x, y, z'
loop_
 _atom_site_type_symbol
 _atom_site_label
 _atom_site_symmetry_multiplicity
 _atom_site_fract_x
 _atom_site_fract_y
 _atom_site_fract_z
 _atom_site_occupancy
  K  K0  1  0.72141599  0.55716800  -0.00000005  1
  K  K1  1  0.27858400  0.44283200  0.99999995  1
  K  K2  1  0.27858400  0.99999999  0.44283192  1
  Na  Na3  1  0.72141600  0.99999999  0.55716791  1
  Fe  Fe4  1  0.00000000  0.00000000  0.00000000  1
  Cu  Cu5  1  0.25000000  0.50000000  0.49999995  1
  Cu  Cu6  1  0.74999999  0.50000000  0.49999994  1
  F  F7  1  0.01587801  0.74457000  0.74456894  1
  F  F8  1  0.50501799  0.25543000  0.25542997  1
  F  F9  1  0.23955300  0.25543000  0.74456897  1
  F  F10  1  0.23955200  0.74457000  0.25542994  1
  F  F11  1  0.76044699  0.74457000  0.25543093  1
  F  F12  1  0.76044799  0.25543000  0.74456995  1
  F  F13  1  0.98412198  0.25543000  0.25543096  1
  F  F14  1  0.49498200  0.74457000  0.74456993  1
