# generated using pymatgen
data_Al2MoW
_symmetry_space_group_name_H-M   'P 1'
_cell_length_a   4.00668812
_cell_length_b   4.46169949
_cell_length_c   4.00668812
_cell_angle_alpha   63.31987000
_cell_angle_beta   90.00000000
_cell_angle_gamma   116.68013000
_symmetry_Int_Tables_number   1
_chemical_formula_structural   Al2MoW
_chemical_formula_sum   'Al2 Mo1 W1'
_cell_volume   55.33234671
_cell_formula_units_Z   1
loop_
 _symmetry_equiv_pos_site_id
 _symmetry_equiv_pos_as_xyz
  1  'x, y, z'
loop_
 _atom_site_type_symbol
 _atom_site_label
 _atom_site_symmetry_multiplicity
 _atom_site_fract_x
 _atom_site_fract_y
 _atom_site_fract_z
 _atom_site_occupancy
  Al  Al0  1  0.00000000  0.00000000  0.00000000  1
  Al  Al1  1  0.74999997  0.50000001  0.74999999  1
  Mo  Mo2  1  0.24999999  0.50000001  0.25000000  1
  W  W3  1  0.49999999  0.00000000  0.49999999  1
