# generated using pymatgen
data_Li4VCrF14
_symmetry_space_group_name_H-M   'P 1'
_cell_length_a   3.80474091
_cell_length_b   9.19883537
_cell_length_c   9.19883633
_cell_angle_alpha   87.54879761
_cell_angle_beta   78.06478119
_cell_angle_gamma   78.06478882
_symmetry_Int_Tables_number   1
_chemical_formula_structural   Li4VCrF14
_chemical_formula_sum   'Li4 V1 Cr1 F14'
_cell_volume   308.18236979
_cell_formula_units_Z   1
loop_
 _symmetry_equiv_pos_site_id
 _symmetry_equiv_pos_as_xyz
  1  'x, y, z'
loop_
 _atom_site_type_symbol
 _atom_site_label
 _atom_site_symmetry_multiplicity
 _atom_site_fract_x
 _atom_site_fract_y
 _atom_site_fract_z
 _atom_site_occupancy
  Li  Li0  1  0.03214602  0.32476801  0.61093898  1
  Li  Li1  1  0.96785406  0.67523202  0.38906101  1
  Li  Li2  1  0.35691504  0.61093902  0.67523199  1
  Li  Li3  1  0.64308504  0.38906101  0.32476800  1
  V  V4  1  0.32953101  0.02096200  0.31997699  1
  Cr  Cr5  1  0.67046907  0.97903803  0.68002301  1
  F  F6  1  0.35049203  0.31997701  0.97903797  1
  F  F7  1  0.64950805  0.68002302  0.02096203  1
  F  F8  1  0.89630405  0.57422902  0.63316299  1
  F  F9  1  0.10369603  0.42577101  0.36683700  1
  F  F10  1  0.47053305  0.63316302  0.42577100  1
  F  F11  1  0.52946703  0.36683701  0.57422899  1
  F  F12  1  0.95300704  0.28877901  0.80520697  1
  F  F13  1  0.04699304  0.71122102  0.19479302  1
  F  F14  1  0.24178605  0.80520702  0.71122100  1
  F  F15  1  0.75821403  0.19479301  0.28877899  1
  F  F16  1  0.16308001  0.12598000  0.54785998  1
  F  F17  1  0.83692007  0.87402002  0.45214001  1
  F  F18  1  0.28906004  0.54786002  0.87401998  1
  F  F19  1  0.71094004  0.45214001  0.12598001  1
