# generated using pymatgen
data_Er5Sn3
_symmetry_space_group_name_H-M   'P 1'
_cell_length_a   6.48181581
_cell_length_b   8.82268047
_cell_length_c   8.82268047
_cell_angle_alpha   120.00000000
_cell_angle_beta   90.00000000
_cell_angle_gamma   90.00000000
_symmetry_Int_Tables_number   1
_chemical_formula_structural   Er5Sn3
_chemical_formula_sum   'Er10 Sn6'
_cell_volume   436.94665557
_cell_formula_units_Z   2
loop_
 _symmetry_equiv_pos_site_id
 _symmetry_equiv_pos_as_xyz
  1  'x, y, z'
loop_
 _atom_site_type_symbol
 _atom_site_label
 _atom_site_symmetry_multiplicity
 _atom_site_fract_x
 _atom_site_fract_y
 _atom_site_fract_z
 _atom_site_occupancy
  Er  Er0  1  -0.00000000  0.66666665  0.33333339  1
  Er  Er1  1  0.50000001  0.33333333  0.66666672  1
  Er  Er2  1  -0.00000000  0.33333333  0.66666672  1
  Er  Er3  1  0.50000001  0.66666665  0.33333339  1
  Er  Er4  1  0.25000001  0.27606399  0.27606403  1
  Er  Er5  1  0.75000002  0.27606399  0.00000002  1
  Er  Er6  1  0.75000002  0.99999998  0.27606408  1
  Er  Er7  1  0.25000001  0.99999998  0.72393610  1
  Er  Er8  1  0.25000001  0.72393598  0.00000005  1
  Er  Er9  1  0.75000002  0.72393598  0.72393608  1
  Sn  Sn10  1  0.25000001  0.61581599  0.61581607  1
  Sn  Sn11  1  0.75000002  0.61581599  0.00000004  1
  Sn  Sn12  1  0.75000002  0.99999998  0.61581609  1
  Sn  Sn13  1  0.25000001  0.99999998  0.38418408  1
  Sn  Sn14  1  0.25000001  0.38418399  1.00000007  1
  Sn  Sn15  1  0.75000002  0.38418399  0.38418404  1
