# generated using pymatgen
data_TlSeO3
_symmetry_space_group_name_H-M   'P 1'
_cell_length_a   5.37268019
_cell_length_b   5.78657103
_cell_length_c   10.91278362
_cell_angle_alpha   90.00000000
_cell_angle_beta   90.00000000
_cell_angle_gamma   90.00000000
_symmetry_Int_Tables_number   1
_chemical_formula_structural   TlSeO3
_chemical_formula_sum   'Tl4 Se4 O12'
_cell_volume   339.27184608
_cell_formula_units_Z   4
loop_
 _symmetry_equiv_pos_site_id
 _symmetry_equiv_pos_as_xyz
  1  'x, y, z'
loop_
 _atom_site_type_symbol
 _atom_site_label
 _atom_site_symmetry_multiplicity
 _atom_site_fract_x
 _atom_site_fract_y
 _atom_site_fract_z
 _atom_site_occupancy
  Tl  Tl0  1  0.05769200  0.75000000  0.89478003  1
  Tl  Tl1  1  0.05769200  0.25000000  0.60522002  1
  Tl  Tl2  1  0.94230797  0.25000000  0.10522000  1
  Tl  Tl3  1  0.94230797  0.75000000  0.39478001  1
  Se  Se4  1  0.48232598  0.75000000  0.16120301  1
  Se  Se5  1  0.48232598  0.25000000  0.33879701  1
  Se  Se6  1  0.51767398  0.25000000  0.83879703  1
  Se  Se7  1  0.51767398  0.75000000  0.66120302  1
  O  O8  1  0.38194399  0.75000000  0.52373802  1
  O  O9  1  0.38194399  0.25000000  0.97626203  1
  O  O10  1  0.61805598  0.25000000  0.47626202  1
  O  O11  1  0.61805598  0.75000000  0.02373800  1
  O  O12  1  0.82971697  0.75000000  0.64726602  1
  O  O13  1  0.82971697  0.25000000  0.85273403  1
  O  O14  1  0.17028299  0.25000000  0.35273401  1
  O  O15  1  0.17028299  0.75000000  0.14726601  1
  O  O16  1  0.59029998  0.00000000  0.25000001  1
  O  O17  1  0.40969999  0.50000000  0.75000003  1
  O  O18  1  0.40969999  0.00000000  0.75000003  1
  O  O19  1  0.59029998  0.50000000  0.25000001  1
