# generated using pymatgen
data_K2NaNbF6
_symmetry_space_group_name_H-M   'P 1'
_cell_length_a   6.07244921
_cell_length_b   6.08252764
_cell_length_c   8.59388447
_cell_angle_alpha   89.88395691
_cell_angle_beta   90.00000000
_cell_angle_gamma   90.00000000
_symmetry_Int_Tables_number   1
_chemical_formula_structural   K2NaNbF6
_chemical_formula_sum   'K4 Na2 Nb2 F12'
_cell_volume   317.42169178
_cell_formula_units_Z   2
loop_
 _symmetry_equiv_pos_site_id
 _symmetry_equiv_pos_as_xyz
  1  'x, y, z'
loop_
 _atom_site_type_symbol
 _atom_site_label
 _atom_site_symmetry_multiplicity
 _atom_site_fract_x
 _atom_site_fract_y
 _atom_site_fract_z
 _atom_site_occupancy
  K  K0  1  0.51610498  0.99668096  0.74965004  1
  K  K1  1  0.48389498  0.00331900  0.25035001  1
  K  K2  1  0.01610500  0.50331898  0.75035004  1
  K  K3  1  0.98389497  0.49668098  0.24965001  1
  Na  Na4  1  0.00000000  0.00000000  0.00000000  1
  Na  Na5  1  0.49999998  0.49999998  0.50000003  1
  Nb  Nb6  1  0.00000000  0.00000000  0.50000003  1
  Nb  Nb7  1  0.49999998  0.49999998  0.00000000  1
  F  F8  1  0.99280397  0.04571200  0.72830304  1
  F  F9  1  0.00719600  0.95428797  0.27169702  1
  F  F10  1  0.49280398  0.45428798  0.77169704  1
  F  F11  1  0.50719598  0.54571198  0.22830301  1
  F  F12  1  0.29308799  0.75105797  0.97605505  1
  F  F13  1  0.70691198  0.24894199  0.02394500  1
  F  F14  1  0.79308797  0.74894197  0.52394503  1
  F  F15  1  0.20691199  0.25105799  0.47605503  1
  F  F16  1  0.75104197  0.70662697  0.97513605  1
  F  F17  1  0.24895799  0.29337299  0.02486400  1
  F  F18  1  0.25104199  0.79337297  0.52486403  1
  F  F19  1  0.74895797  0.20662699  0.47513603  1
