# generated using pymatgen
data_LiVP2O7
_symmetry_space_group_name_H-M   'P 1'
_cell_length_a   4.57663584
_cell_length_b   5.29908752
_cell_length_c   5.62399530
_cell_angle_alpha   103.49983215
_cell_angle_beta   98.60713196
_cell_angle_gamma   99.22003937
_symmetry_Int_Tables_number   1
_chemical_formula_structural   LiVP2O7
_chemical_formula_sum   'Li1 V1 P2 O7'
_cell_volume   128.40082148
_cell_formula_units_Z   1
loop_
 _symmetry_equiv_pos_site_id
 _symmetry_equiv_pos_as_xyz
  1  'x, y, z'
loop_
 _atom_site_type_symbol
 _atom_site_label
 _atom_site_symmetry_multiplicity
 _atom_site_fract_x
 _atom_site_fract_y
 _atom_site_fract_z
 _atom_site_occupancy
  Li  Li0  1  0.51896102  0.17589401  0.79824202  1
  V  V1  1  0.48103901  0.82410602  0.20175800  1
  P  P2  1  0.09120800  0.28721001  0.28853900  1
  P  P3  1  0.90879203  0.71279002  0.71146103  1
  O  O4  1  0.78818803  0.12009600  0.13093803  1
  O  O5  1  0.27355101  0.43971101  0.14089900  1
  O  O6  1  0.27734901  0.12442800  0.42059501  1
  O  O7  1  -0.00000000  0.50000001  0.49999999  1
  O  O8  1  0.21181200  0.87990403  0.86906200  1
  O  O9  1  0.72644903  0.56028902  0.85910102  1
  O  O10  1  0.72265102  0.87557203  0.57940501  1
