# generated using pymatgen
data_HfSnPt2
_symmetry_space_group_name_H-M   'P 1'
_cell_length_a   3.01303411
_cell_length_b   4.63862610
_cell_length_c   4.93573713
_cell_angle_alpha   90.00000000
_cell_angle_beta   90.00000000
_cell_angle_gamma   90.00000000
_symmetry_Int_Tables_number   1
_chemical_formula_structural   HfSnPt2
_chemical_formula_sum   'Hf1 Sn1 Pt2'
_cell_volume   68.98353359
_cell_formula_units_Z   1
loop_
 _symmetry_equiv_pos_site_id
 _symmetry_equiv_pos_as_xyz
  1  'x, y, z'
loop_
 _atom_site_type_symbol
 _atom_site_label
 _atom_site_symmetry_multiplicity
 _atom_site_fract_x
 _atom_site_fract_y
 _atom_site_fract_z
 _atom_site_occupancy
  Hf  Hf0  1  0.00000000  0.74999998  0.31297199  1
  Sn  Sn1  1  0.00000000  0.24999999  0.68702798  1
  Pt  Pt2  1  0.49999998  0.74999998  0.81880498  1
  Pt  Pt3  1  0.49999998  0.24999999  0.18119500  1
