# generated using pymatgen
data_La10InGe5
_symmetry_space_group_name_H-M   'P 1'
_cell_length_a   6.82089615
_cell_length_b   8.99282169
_cell_length_c   8.99282265
_cell_angle_alpha   60.00000381
_cell_angle_beta   90.00000000
_cell_angle_gamma   90.00000000
_symmetry_Int_Tables_number   1
_chemical_formula_structural   La10InGe5
_chemical_formula_sum   'La10 In1 Ge5'
_cell_volume   477.70974047
_cell_formula_units_Z   1
loop_
 _symmetry_equiv_pos_site_id
 _symmetry_equiv_pos_as_xyz
  1  'x, y, z'
loop_
 _atom_site_type_symbol
 _atom_site_label
 _atom_site_symmetry_multiplicity
 _atom_site_fract_x
 _atom_site_fract_y
 _atom_site_fract_z
 _atom_site_occupancy
  La  La0  1  0.49999999  0.66666668  0.66666668  1
  La  La1  1  0.49999999  0.33333334  0.33333334  1
  La  La2  1  0.00000000  0.33333334  0.33333334  1
  La  La3  1  0.00000000  0.66666668  0.66666668  1
  La  La4  1  0.74999998  0.25172000  0.00000001  1
  La  La5  1  0.74999998  0.00000000  0.74828000  1
  La  La6  1  0.74999998  0.74828001  0.25172002  1
  La  La7  1  0.24999999  0.74828001  0.00000002  1
  La  La8  1  0.24999999  0.00000000  0.25172000  1
  La  La9  1  0.24999999  0.25172000  0.74828000  1
  In  In10  1  0.74999998  0.60927401  1.00000001  1
  Ge  Ge11  1  0.74999998  0.00000000  0.39072600  1
  Ge  Ge12  1  0.74999998  0.39072601  0.60927401  1
  Ge  Ge13  1  0.24999999  0.39072601  1.00000001  1
  Ge  Ge14  1  0.24999999  0.00000000  0.60927400  1
  Ge  Ge15  1  0.24999999  0.60927401  0.39072602  1
