# generated using pymatgen
data_Nb10Ga3Sn5
_symmetry_space_group_name_H-M   'P 1'
_cell_length_a   5.53806114
_cell_length_b   8.22546959
_cell_length_c   8.22546959
_cell_angle_alpha   120.00000000
_cell_angle_beta   90.00000000
_cell_angle_gamma   90.00000000
_symmetry_Int_Tables_number   1
_chemical_formula_structural   Nb10Ga3Sn5
_chemical_formula_sum   'Nb10 Ga3 Sn5'
_cell_volume   324.49632299
_cell_formula_units_Z   1
loop_
 _symmetry_equiv_pos_site_id
 _symmetry_equiv_pos_as_xyz
  1  'x, y, z'
loop_
 _atom_site_type_symbol
 _atom_site_label
 _atom_site_symmetry_multiplicity
 _atom_site_fract_x
 _atom_site_fract_y
 _atom_site_fract_z
 _atom_site_occupancy
  Nb  Nb0  1  0.24999999  0.73008504  0.73008504  1
  Nb  Nb1  1  0.74999998  0.26991501  0.26991501  1
  Nb  Nb2  1  0.24999999  0.00000000  0.26991501  1
  Nb  Nb3  1  0.74999998  1.00000005  0.73008504  1
  Nb  Nb4  1  0.24999999  0.26991501  1.00000005  1
  Nb  Nb5  1  0.74999998  0.73008504  1.00000005  1
  Nb  Nb6  1  0.49999999  0.66666670  0.33333335  1
  Nb  Nb7  1  0.49999999  0.33333335  0.66666670  1
  Nb  Nb8  1  0.99999997  0.33333335  0.66666670  1
  Nb  Nb9  1  -0.00000000  0.66666670  0.33333335  1
  Ga  Ga10  1  0.49999999  0.00000000  -0.00000000  1
  Ga  Ga11  1  0.00000000  0.00000000  0.00000000  1
  Sn  Sn12  1  0.24999999  0.38234602  0.38234602  1
  Sn  Sn13  1  0.74999998  0.61765403  0.61765403  1
  Ga  Ga14  1  0.24999999  1.00000005  0.61765403  1
  Sn  Sn15  1  0.74999998  1.00000005  0.38234602  1
  Sn  Sn16  1  0.24999999  0.61765403  1.00000005  1
  Sn  Sn17  1  0.74999998  0.38234602  1.00000005  1
