# generated using pymatgen
data_Th3As4
_symmetry_space_group_name_H-M   'P 1'
_cell_length_a   7.71829224
_cell_length_b   7.71829224
_cell_length_c   7.71829224
_cell_angle_alpha   109.47122192
_cell_angle_beta   109.47122192
_cell_angle_gamma   109.47122192
_symmetry_Int_Tables_number   1
_chemical_formula_structural   Th3As4
_chemical_formula_sum   'Th6 As8'
_cell_volume   353.94985846
_cell_formula_units_Z   2
loop_
 _symmetry_equiv_pos_site_id
 _symmetry_equiv_pos_as_xyz
  1  'x, y, z'
loop_
 _atom_site_type_symbol
 _atom_site_label
 _atom_site_symmetry_multiplicity
 _atom_site_fract_x
 _atom_site_fract_y
 _atom_site_fract_z
 _atom_site_occupancy
  Th  Th0  1  0.12500001  0.25000000  0.37500001  1
  Th  Th1  1  0.75000003  0.62500001  0.87500003  1
  Th  Th2  1  0.37500004  0.75000001  0.12500005  1
  Th  Th3  1  0.87500000  0.12500000  0.75000001  1
  Th  Th4  1  0.62500001  0.37500001  0.25000003  1
  Th  Th5  1  0.25000005  0.87500001  0.62500004  1
  As  As6  1  0.34860702  0.34860701  0.84860701  1
  As  As7  1  0.50000000  0.15139300  0.50000001  1
  As  As8  1  0.00000003  0.50000001  0.65139301  1
  As  As9  1  0.50000003  0.65139301  0.50000004  1
  As  As10  1  0.15139300  0.00000000  0.00000000  1
  As  As11  1  0.65139299  0.00000000  0.00000002  1
  As  As12  1  1.00000002  0.50000001  0.15139305  1
  As  As13  1  0.84860704  0.84860701  0.34860706  1
