# generated using pymatgen
data_SmGaAu
_symmetry_space_group_name_H-M   'P 1'
_cell_length_a   4.51327610
_cell_length_b   5.79735518
_cell_length_c   5.80860090
_cell_angle_alpha   78.80857849
_cell_angle_beta   67.13883972
_cell_angle_gamma   67.09197235
_symmetry_Int_Tables_number   1
_chemical_formula_structural   SmGaAu
_chemical_formula_sum   'Sm2 Ga2 Au2'
_cell_volume   128.83429889
_cell_formula_units_Z   2
loop_
 _symmetry_equiv_pos_site_id
 _symmetry_equiv_pos_as_xyz
  1  'x, y, z'
loop_
 _atom_site_type_symbol
 _atom_site_label
 _atom_site_symmetry_multiplicity
 _atom_site_fract_x
 _atom_site_fract_y
 _atom_site_fract_z
 _atom_site_occupancy
  Sm  Sm0  1  0.45857099  0.29186901  0.79098897  1
  Sm  Sm1  1  0.54174599  0.70812602  0.20838198  1
  Ga  Ga2  1  0.83479098  0.72149202  0.60892597  1
  Ga  Ga3  1  0.16105700  0.28360601  0.39427998  1
  Au  Au4  1  0.16493300  0.89011503  0.78001895  1
  Au  Au5  1  0.83890098  0.10479400  0.21740400  1
