# generated using pymatgen
data_Li3Si4BiO12
_symmetry_space_group_name_H-M   'P 1'
_cell_length_a   5.36694956
_cell_length_b   6.75970411
_cell_length_c   6.75970411
_cell_angle_alpha   81.85455322
_cell_angle_beta   72.92769623
_cell_angle_gamma   72.92769623
_symmetry_Int_Tables_number   1
_chemical_formula_structural   Li3Si4BiO12
_chemical_formula_sum   'Li3 Si4 Bi1 O12'
_cell_volume   223.68518835
_cell_formula_units_Z   1
loop_
 _symmetry_equiv_pos_site_id
 _symmetry_equiv_pos_as_xyz
  1  'x, y, z'
loop_
 _atom_site_type_symbol
 _atom_site_label
 _atom_site_symmetry_multiplicity
 _atom_site_fract_x
 _atom_site_fract_y
 _atom_site_fract_z
 _atom_site_occupancy
  Li  Li0  1  0.74999997  0.26109600  0.73890394  1
  Li  Li1  1  0.74999993  0.89915499  0.10084495  1
  Bi  Bi2  1  0.24999995  0.73890399  0.26109597  1
  Li  Li3  1  0.24999999  0.10084500  0.89915496  1
  Si  Si4  1  0.19855698  0.20264500  0.38085798  1
  Si  Si5  1  0.30144296  0.61914199  0.79735495  1
  Si  Si6  1  0.69855696  0.38085799  0.20264496  1
  Si  Si7  1  0.80144294  0.79735499  0.61914193  1
  O  O8  1  0.37434097  0.37978099  0.31449697  1
  O  O9  1  0.87434096  0.31449700  0.37978095  1
  O  O10  1  0.65620495  0.62369499  0.13561096  1
  O  O11  1  0.84379493  0.86438899  0.37630494  1
  O  O12  1  0.62565895  0.62021899  0.68550294  1
  O  O13  1  0.33416599  0.02570500  0.21116498  1
  O  O14  1  0.12565896  0.68550299  0.62021896  1
  O  O15  1  0.66583393  0.97429499  0.78883493  1
  O  O16  1  0.15620499  0.13561100  0.62369497  1
  O  O17  1  0.34379497  0.37630499  0.86438895  1
  O  O18  1  0.83416597  0.21116500  0.02570496  1
  O  O19  1  0.16583395  0.78883499  0.97429495  1
