# generated using pymatgen
data_BaCdSn3
_symmetry_space_group_name_H-M   'P 1'
_cell_length_a   5.05986214
_cell_length_b   5.05986214
_cell_length_c   7.10352135
_cell_angle_alpha   110.86404419
_cell_angle_beta   110.86404419
_cell_angle_gamma   90.00000000
_symmetry_Int_Tables_number   1
_chemical_formula_structural   BaCdSn3
_chemical_formula_sum   'Ba1 Cd1 Sn3'
_cell_volume   157.11268935
_cell_formula_units_Z   1
loop_
 _symmetry_equiv_pos_site_id
 _symmetry_equiv_pos_as_xyz
  1  'x, y, z'
loop_
 _atom_site_type_symbol
 _atom_site_label
 _atom_site_symmetry_multiplicity
 _atom_site_fract_x
 _atom_site_fract_y
 _atom_site_fract_z
 _atom_site_occupancy
  Ba  Ba0  1  0.00000000  0.00000000  0.00000000  1
  Cd  Cd1  1  0.74999998  0.24999999  0.50000001  1
  Sn  Sn2  1  0.61666999  0.61666999  0.23334001  1
  Sn  Sn3  1  0.38332999  0.38332999  0.76666001  1
  Sn  Sn4  1  0.25000000  0.74999998  0.50000001  1
