# generated using pymatgen
data_Sr8BrO9
_symmetry_space_group_name_H-M   'P 1'
_cell_length_a   3.82746196
_cell_length_b   6.59596586
_cell_length_c   14.70670795
_cell_angle_alpha   90.00000000
_cell_angle_beta   90.00000000
_cell_angle_gamma   90.00000000
_symmetry_Int_Tables_number   1
_chemical_formula_structural   Sr8BrO9
_chemical_formula_sum   'Sr8 Br1 O9'
_cell_volume   371.28273141
_cell_formula_units_Z   1
loop_
 _symmetry_equiv_pos_site_id
 _symmetry_equiv_pos_as_xyz
  1  'x, y, z'
loop_
 _atom_site_type_symbol
 _atom_site_label
 _atom_site_symmetry_multiplicity
 _atom_site_fract_x
 _atom_site_fract_y
 _atom_site_fract_z
 _atom_site_occupancy
  Sr  Sr0  1  0.50000001  0.71343901  0.93649300  1
  Sr  Sr1  1  0.50000001  0.28656101  0.06350700  1
  Sr  Sr2  1  1.00000001  0.21343900  0.56350700  1
  Sr  Sr3  1  0.00000000  0.78656102  0.43649300  1
  Sr  Sr4  1  0.50000001  0.78526502  0.65547700  1
  Sr  Sr5  1  0.50000001  0.21473500  0.34452300  1
  Sr  Sr6  1  0.00000000  0.28526501  0.84452300  1
  Sr  Sr7  1  0.00000000  0.71473501  0.15547700  1
  Br  Br8  1  0.50000001  0.50000001  0.50000000  1
  O  O9  1  0.00000000  0.00000000  0.00000000  1
  O  O10  1  0.50000001  0.79782902  0.29759100  1
  O  O11  1  0.50000001  0.20217100  0.70240900  1
  O  O12  1  0.00000000  0.29782901  0.20240900  1
  O  O13  1  0.00000000  0.70217101  0.79759100  1
  O  O14  1  0.50000001  0.62353701  0.08388500  1
  O  O15  1  0.50000001  0.37646301  0.91611500  1
  O  O16  1  0.00000000  0.12353700  0.41611500  1
  O  O17  1  0.00000000  0.87646302  0.58388500  1
