# generated using pymatgen
data_Li6MnVF12
_symmetry_space_group_name_H-M   'P 1'
_cell_length_a   6.20844793
_cell_length_b   6.20844793
_cell_length_c   6.20844793
_cell_angle_alpha   90.00000000
_cell_angle_beta   90.00000000
_cell_angle_gamma   90.00000000
_symmetry_Int_Tables_number   1
_chemical_formula_structural   Li6MnVF12
_chemical_formula_sum   'Li6 Mn1 V1 F12'
_cell_volume   239.30354370
_cell_formula_units_Z   1
loop_
 _symmetry_equiv_pos_site_id
 _symmetry_equiv_pos_as_xyz
  1  'x, y, z'
loop_
 _atom_site_type_symbol
 _atom_site_label
 _atom_site_symmetry_multiplicity
 _atom_site_fract_x
 _atom_site_fract_y
 _atom_site_fract_z
 _atom_site_occupancy
  Li  Li0  1  0.08972300  0.08972300  0.08972300  1
  Li  Li1  1  0.41027700  0.91027701  0.58972301  1
  Li  Li2  1  0.58972301  0.41027700  0.91027701  1
  Li  Li3  1  0.91027701  0.58972301  0.41027700  1
  Li  Li4  1  0.14131800  0.64131801  0.85868201  1
  Li  Li5  1  0.35868200  0.35868200  0.35868200  1
  Mn  Mn6  1  0.64131801  0.85868201  0.14131800  1
  V  V7  1  0.85868201  0.14131800  0.64131801  1
  F  F8  1  0.51770501  0.23212100  0.63109601  1
  F  F9  1  0.48229501  0.73212101  0.86890401  1
  F  F10  1  0.26787900  0.36890400  0.01770500  1
  F  F11  1  0.63109601  0.51770501  0.23212100  1
  F  F12  1  0.86890401  0.48229501  0.73212101  1
  F  F13  1  0.23212100  0.63109601  0.51770501  1
  F  F14  1  0.01770500  0.26787900  0.36890400  1
  F  F15  1  0.98229501  0.76787901  0.13109600  1
  F  F16  1  0.76787901  0.13109600  0.98229501  1
  F  F17  1  0.13109600  0.98229501  0.76787901  1
  F  F18  1  0.36890400  0.01770500  0.26787900  1
  F  F19  1  0.73212101  0.86890401  0.48229501  1
