# generated using pymatgen
data_TbGeAu2
_symmetry_space_group_name_H-M   'P 1'
_cell_length_a   4.33417797
_cell_length_b   5.68358994
_cell_length_c   7.38187408
_cell_angle_alpha   90.00000000
_cell_angle_beta   90.00000000
_cell_angle_gamma   112.41353607
_symmetry_Int_Tables_number   1
_chemical_formula_structural   TbGeAu2
_chemical_formula_sum   'Tb2 Ge2 Au4'
_cell_volume   168.10566392
_cell_formula_units_Z   2
loop_
 _symmetry_equiv_pos_site_id
 _symmetry_equiv_pos_as_xyz
  1  'x, y, z'
loop_
 _atom_site_type_symbol
 _atom_site_label
 _atom_site_symmetry_multiplicity
 _atom_site_fract_x
 _atom_site_fract_y
 _atom_site_fract_z
 _atom_site_occupancy
  Tb  Tb0  1  0.06799001  0.13598001  0.25000000  1
  Tb  Tb1  1  0.93201005  0.86402005  0.74999999  1
  Au  Au2  1  0.35671304  0.71342604  0.04907700  1
  Au  Au3  1  0.64328702  0.28657402  0.95092299  1
  Au  Au4  1  0.64328702  0.28657402  0.54907699  1
  Au  Au5  1  0.35671304  0.71342604  0.45092299  1
  Ge  Ge6  1  0.78713204  0.57426403  0.25000000  1
  Ge  Ge7  1  0.21286803  0.42573602  0.74999999  1
