# generated using pymatgen
data_BaGa2
_symmetry_space_group_name_H-M   'P 1'
_cell_length_a   4.47347736
_cell_length_b   4.47347689
_cell_length_c   5.11251879
_cell_angle_alpha   90.00022888
_cell_angle_beta   90.00022888
_cell_angle_gamma   119.99338531
_symmetry_Int_Tables_number   1
_chemical_formula_structural   BaGa2
_chemical_formula_sum   'Ba1 Ga2'
_cell_volume   88.61044837
_cell_formula_units_Z   1
loop_
 _symmetry_equiv_pos_site_id
 _symmetry_equiv_pos_as_xyz
  1  'x, y, z'
loop_
 _atom_site_type_symbol
 _atom_site_label
 _atom_site_symmetry_multiplicity
 _atom_site_fract_x
 _atom_site_fract_y
 _atom_site_fract_z
 _atom_site_occupancy
  Ba  Ba0  1  0.99999955  0.99999953  0.99678622  1
  Ga  Ga1  1  0.66673575  0.33340242  0.48760699  1
  Ga  Ga2  1  0.33337106  0.66666667  0.48760699  1
