# generated using pymatgen
data_CsGa4WO8
_symmetry_space_group_name_H-M   'P 1'
_cell_length_a   5.75783634
_cell_length_b   5.75783634
_cell_length_c   5.75783634
_cell_angle_alpha   60.00000000
_cell_angle_beta   60.00000000
_cell_angle_gamma   60.00000000
_symmetry_Int_Tables_number   1
_chemical_formula_structural   CsGa4WO8
_chemical_formula_sum   'Cs1 Ga4 W1 O8'
_cell_volume   134.97798848
_cell_formula_units_Z   1
loop_
 _symmetry_equiv_pos_site_id
 _symmetry_equiv_pos_as_xyz
  1  'x, y, z'
loop_
 _atom_site_type_symbol
 _atom_site_label
 _atom_site_symmetry_multiplicity
 _atom_site_fract_x
 _atom_site_fract_y
 _atom_site_fract_z
 _atom_site_occupancy
  W  W0  1  0.24999999  0.24999999  0.24999999  1
  O  O1  1  0.49999999  0.49999999  0.49999999  1
  O  O2  1  0.37499999  0.87499997  0.87499997  1
  O  O3  1  0.87499997  0.37499999  0.87499997  1
  Cs  Cs4  1  0.87499997  0.87499997  0.87499997  1
  O  O5  1  0.87499997  0.87499997  0.37499999  1
  Ga  Ga6  1  0.63828798  0.63828898  0.08513400  1
  Ga  Ga7  1  0.08513300  0.63828898  0.63828898  1
  O  O8  1  0.11171200  0.11171100  0.66486598  1
  O  O9  1  0.11171200  0.66486598  0.11171100  1
  O  O10  1  0.66486698  0.11171100  0.11171100  1
  O  O11  1  0.11171200  0.11171100  0.11171100  1
  Ga  Ga12  1  0.63828798  0.08513400  0.63828898  1
  Ga  Ga13  1  0.63828798  0.63828898  0.63828898  1
