# generated using pymatgen
data_NaLi3(OsO4)2
_symmetry_space_group_name_H-M   'P 1'
_cell_length_a   5.90976810
_cell_length_b   5.90976810
_cell_length_c   5.90976810
_cell_angle_alpha   85.90522766
_cell_angle_beta   62.33528137
_cell_angle_gamma   117.66471863
_symmetry_Int_Tables_number   1
_chemical_formula_structural   NaLi3(OsO4)2
_chemical_formula_sum   'Na1 Li3 Os2 O8'
_cell_volume   150.68271262
_cell_formula_units_Z   1
loop_
 _symmetry_equiv_pos_site_id
 _symmetry_equiv_pos_as_xyz
  1  'x, y, z'
loop_
 _atom_site_type_symbol
 _atom_site_label
 _atom_site_symmetry_multiplicity
 _atom_site_fract_x
 _atom_site_fract_y
 _atom_site_fract_z
 _atom_site_occupancy
  Os  Os0  1  0.49999995  0.74999996  0.75000005  1
  Li  Li1  1  -0.00000003  0.49999998  0.50000003  1
  Os  Os2  1  0.24999999  0.12499999  0.12500001  1
  Li  Li3  1  0.74999995  0.62499997  0.12500005  1
  Na  Na4  1  0.74999998  0.12499999  0.12500001  1
  Li  Li5  1  0.24999999  0.12499999  0.62500000  1
  O  O6  1  0.31551995  0.90772296  0.30296607  1
  O  O7  1  0.21068998  0.30296599  0.38151302  1
  O  O8  1  0.78930996  0.40779598  0.90772402  1
  O  O9  1  0.81551994  0.86848596  0.84220406  1
  O  O10  1  0.71068994  0.84220396  0.34227606  1
  O  O11  1  0.28930994  0.94703395  0.86848706  1
  O  O12  1  0.68447997  0.38151398  0.40779602  1
  O  O13  1  0.18447998  0.34227698  0.94703401  1
