# generated using pymatgen
data_Tb(BP)2
_symmetry_space_group_name_H-M   'P 1'
_cell_length_a   5.00929213
_cell_length_b   5.00929213
_cell_length_c   6.09385252
_cell_angle_alpha   102.94394684
_cell_angle_beta   104.44831848
_cell_angle_gamma   115.08595276
_symmetry_Int_Tables_number   1
_chemical_formula_structural   Tb(BP)2
_chemical_formula_sum   'Tb2 B4 P4'
_cell_volume   124.26701767
_cell_formula_units_Z   2
loop_
 _symmetry_equiv_pos_site_id
 _symmetry_equiv_pos_as_xyz
  1  'x, y, z'
loop_
 _atom_site_type_symbol
 _atom_site_label
 _atom_site_symmetry_multiplicity
 _atom_site_fract_x
 _atom_site_fract_y
 _atom_site_fract_z
 _atom_site_occupancy
  Tb  Tb0  1  0.62995698  0.87995700  0.74999998  1
  Tb  Tb1  1  0.37004301  0.12004300  0.25000001  1
  B  B2  1  0.98006902  0.53168500  0.69996701  1
  B  B3  1  0.33171800  0.28010200  0.80003299  1
  B  B4  1  0.01993097  0.46831500  0.30003298  1
  B  B5  1  0.66828199  0.71989800  0.19996700  1
  P  P6  1  0.02728795  0.84646200  0.52337796  1
  P  P7  1  0.82308401  0.50391000  0.97662200  1
  P  P8  1  0.97271204  0.15353800  0.47662203  1
  P  P9  1  0.17691598  0.49609000  0.02337799  1
