# generated using pymatgen
data_Ba2Sb3H2O10F
_symmetry_space_group_name_H-M   'P 1'
_cell_length_a   5.73761511
_cell_length_b   5.73761511
_cell_length_c   5.73761511
_cell_angle_alpha   94.81232452
_cell_angle_beta   94.81232452
_cell_angle_gamma   94.81233978
_symmetry_Int_Tables_number   1
_chemical_formula_structural   Ba2Sb3H2O10F
_chemical_formula_sum   'Ba2 Sb3 H2 O10 F1'
_cell_volume   186.76618258
_cell_formula_units_Z   1
loop_
 _symmetry_equiv_pos_site_id
 _symmetry_equiv_pos_as_xyz
  1  'x, y, z'
loop_
 _atom_site_type_symbol
 _atom_site_label
 _atom_site_symmetry_multiplicity
 _atom_site_fract_x
 _atom_site_fract_y
 _atom_site_fract_z
 _atom_site_occupancy
  Ba  Ba0  1  0.00000000  0.00000000  0.00000000  1
  F  F1  1  0.33031200  0.33031200  0.33031200  1
  Ba  Ba2  1  0.66968800  0.66968800  0.66968800  1
  O  O3  1  0.00000000  0.00000000  0.50000001  1
  O  O4  1  -0.00000000  0.50000000  -0.00000001  1
  O  O5  1  0.50000000  0.00000000  -0.00000001  1
  O  O6  1  0.80422800  0.30674000  0.30673999  1
  O  O7  1  0.30674000  0.30674000  0.80422801  1
  O  O8  1  0.30674000  0.80422801  0.30673999  1
  O  O9  1  0.19577200  0.69326001  0.69326001  1
  O  O10  1  0.69326000  0.69326001  0.19577199  1
  O  O11  1  0.69326000  0.19577200  0.69326001  1
  Sb  Sb12  1  0.62449400  0.37550600  -0.00000001  1
  Sb  Sb13  1  0.37550600  0.00000000  0.62449401  1
  O  O14  1  -0.00000000  0.62449400  0.37550600  1
  H  H15  1  0.62449400  0.00000000  0.37550600  1
  Sb  Sb16  1  -0.00000000  0.37550600  0.62449401  1
  H  H17  1  0.37550600  0.62449400  1.00000001  1
