# generated using pymatgen
data_Nd2Ge9Pt2
_symmetry_space_group_name_H-M   'P 1'
_cell_length_a   4.34033203
_cell_length_b   4.34033203
_cell_length_c   13.46279526
_cell_angle_alpha   99.27639771
_cell_angle_beta   99.27639771
_cell_angle_gamma   90.00000000
_symmetry_Int_Tables_number   1
_chemical_formula_structural   Nd2Ge9Pt2
_chemical_formula_sum   'Nd2 Ge9 Pt2'
_cell_volume   246.94053727
_cell_formula_units_Z   1
loop_
 _symmetry_equiv_pos_site_id
 _symmetry_equiv_pos_as_xyz
  1  'x, y, z'
loop_
 _atom_site_type_symbol
 _atom_site_label
 _atom_site_symmetry_multiplicity
 _atom_site_fract_x
 _atom_site_fract_y
 _atom_site_fract_z
 _atom_site_occupancy
  Nd  Nd0  1  0.64219799  0.64219800  0.28439599  1
  Nd  Nd1  1  0.35780200  0.35780200  0.71560398  1
  Ge  Ge2  1  0.80388499  0.80388499  0.60776999  1
  Ge  Ge3  1  0.25000000  0.74999999  0.49999999  1
  Ge  Ge4  1  0.74999999  0.25000000  0.49999999  1
  Ge  Ge5  1  0.45081900  0.95081899  0.90163798  1
  Ge  Ge6  1  0.95081899  0.45081900  0.90163798  1
  Ge  Ge7  1  0.54918100  0.04918100  0.09836200  1
  Ge  Ge8  1  0.04918100  0.54918100  0.09836200  1
  Ge  Ge9  1  0.10423600  0.10423600  0.20847200  1
  Pt  Pt10  1  0.89576399  0.89576399  0.79152798  1
  Pt  Pt11  1  0.19611500  0.19611500  0.39222999  1
  Ge  Ge12  1  0.50000000  0.50000000  -0.00000000  1
