# generated using pymatgen
data_Mg2CoBN4
_symmetry_space_group_name_H-M   'P 1'
_cell_length_a   3.60049200
_cell_length_b   4.91745090
_cell_length_c   7.83922720
_cell_angle_alpha   90.00000000
_cell_angle_beta   90.00000000
_cell_angle_gamma   90.00000000
_symmetry_Int_Tables_number   1
_chemical_formula_structural   Mg2CoBN4
_chemical_formula_sum   'Mg4 Co2 B2 N8'
_cell_volume   138.79541973
_cell_formula_units_Z   2
loop_
 _symmetry_equiv_pos_site_id
 _symmetry_equiv_pos_as_xyz
  1  'x, y, z'
loop_
 _atom_site_type_symbol
 _atom_site_label
 _atom_site_symmetry_multiplicity
 _atom_site_fract_x
 _atom_site_fract_y
 _atom_site_fract_z
 _atom_site_occupancy
  Mg  Mg0  1  0.25000000  0.03573700  0.60181698  1
  Mg  Mg1  1  0.25000000  0.46426301  0.10181700  1
  Mg  Mg2  1  0.75000000  0.96426302  0.39818299  1
  Mg  Mg3  1  0.75000000  0.53573701  0.89818298  1
  Co  Co4  1  0.25000000  0.59000601  0.70227498  1
  N  N5  1  0.25000000  0.90999402  0.20227499  1
  Co  Co6  1  0.75000000  0.40999401  0.29772499  1
  N  N7  1  0.75000000  0.09000600  0.79772498  1
  B  B8  1  0.25000000  0.10691900  0.92153798  1
  N  N9  1  0.25000000  0.39308101  0.42153799  1
  B  B10  1  0.75000000  0.89308102  0.07846200  1
  N  N11  1  0.75000000  0.60691901  0.57846199  1
  N  N12  1  0.25000000  0.28583201  0.85249598  1
  N  N13  1  0.25000000  0.21416800  0.35249599  1
  N  N14  1  0.75000000  0.71416801  0.14750400  1
  N  N15  1  0.75000000  0.78583202  0.64750398  1
