# generated using pymatgen
data_BaH2
_symmetry_space_group_name_H-M   'P 1'
_cell_length_a   3.82934809
_cell_length_b   4.22672558
_cell_length_c   10.11130238
_cell_angle_alpha   97.50733185
_cell_angle_beta   90.00000000
_cell_angle_gamma   116.93582916
_symmetry_Int_Tables_number   1
_chemical_formula_structural   BaH2
_chemical_formula_sum   'Ba3 H6'
_cell_volume   144.32773481
_cell_formula_units_Z   3
loop_
 _symmetry_equiv_pos_site_id
 _symmetry_equiv_pos_as_xyz
  1  'x, y, z'
loop_
 _atom_site_type_symbol
 _atom_site_label
 _atom_site_symmetry_multiplicity
 _atom_site_fract_x
 _atom_site_fract_y
 _atom_site_fract_z
 _atom_site_occupancy
  Ba  Ba0  1  0.66543700  0.33087401  0.67038103  1
  Ba  Ba1  1  0.33456303  0.66912603  0.32961901  1
  Ba  Ba2  1  0.00000000  0.00000000  0.00000000  1
  H  H3  1  0.26374402  0.52748802  0.88105604  1
  H  H4  1  0.93360702  0.86721403  0.53458302  1
  H  H5  1  0.59957600  0.19915201  0.18314301  1
  H  H6  1  0.73625601  0.47251202  0.11894400  1
  H  H7  1  0.40042403  0.80084803  0.81685703  1
  H  H8  1  0.06639301  0.13278600  0.46541702  1
