# generated using pymatgen
data_V5OF12
_symmetry_space_group_name_H-M   'P 1'
_cell_length_a   4.67097092
_cell_length_b   5.61875772
_cell_length_c   7.72329950
_cell_angle_alpha   85.77223206
_cell_angle_beta   88.94258118
_cell_angle_gamma   88.14897919
_symmetry_Int_Tables_number   1
_chemical_formula_structural   V5OF12
_chemical_formula_sum   'V5 O1 F12'
_cell_volume   202.01509080
_cell_formula_units_Z   1
loop_
 _symmetry_equiv_pos_site_id
 _symmetry_equiv_pos_as_xyz
  1  'x, y, z'
loop_
 _atom_site_type_symbol
 _atom_site_label
 _atom_site_symmetry_multiplicity
 _atom_site_fract_x
 _atom_site_fract_y
 _atom_site_fract_z
 _atom_site_occupancy
  V  V0  1  0.50048497  0.50063601  0.99957705  1
  V  V1  1  0.53703895  0.84256102  0.65785506  1
  V  V2  1  0.47835200  0.17027100  0.34813102  1
  V  V3  1  0.00803498  0.32810101  0.68628503  1
  V  V4  1  0.98505897  0.66071102  0.31932405  1
  F  F5  1  0.98638195  0.99642803  0.99051708  1
  F  F6  1  0.80672601  0.04545400  0.77039503  1
  F  F7  1  0.80648996  0.70825002  0.09097405  1
  O  O8  1  0.69532597  0.53887201  0.76529205  1
  F  F9  1  0.69364695  0.87221802  0.42808906  1
  F  F10  1  0.30132300  0.12284400  0.57368302  1
  F  F11  1  0.30662497  0.46537501  0.23548503  1
  F  F12  1  0.18341598  0.29266201  0.90434603  1
  F  F13  1  0.81658299  0.35719601  0.45410404  1
  F  F14  1  0.69695100  0.19486701  0.12356702  1
  F  F15  1  0.30981595  0.80849802  0.87905206  1
  F  F16  1  0.18904196  0.62530502  0.56224704  1
  F  F17  1  0.19870294  0.96974703  0.21107705  1
