# generated using pymatgen
data_BaHo3Ga16
_symmetry_space_group_name_H-M   'P 1'
_cell_length_a   6.11115599
_cell_length_b   8.56296921
_cell_length_c   8.56296921
_cell_angle_alpha   73.66133881
_cell_angle_beta   69.09397125
_cell_angle_gamma   69.09397125
_symmetry_Int_Tables_number   1
_chemical_formula_structural   BaHo3Ga16
_chemical_formula_sum   'Ba1 Ho3 Ga16'
_cell_volume   384.90437352
_cell_formula_units_Z   1
loop_
 _symmetry_equiv_pos_site_id
 _symmetry_equiv_pos_as_xyz
  1  'x, y, z'
loop_
 _atom_site_type_symbol
 _atom_site_label
 _atom_site_symmetry_multiplicity
 _atom_site_fract_x
 _atom_site_fract_y
 _atom_site_fract_z
 _atom_site_occupancy
  Ba  Ba0  1  0.13261400  0.09940300  0.63536898  1
  Ho  Ho1  1  0.86738599  0.90059698  0.36463098  1
  Ho  Ho2  1  0.36738600  0.36463099  0.90059697  1
  Ho  Ho3  1  0.63261399  0.63536899  0.09940299  1
  Ga  Ga4  1  0.75000001  0.00000000  -0.00000001  1
  Ga  Ga5  1  0.24999998  0.99999998  -0.00000000  1
  Ga  Ga6  1  0.47491100  0.27508899  0.27508899  1
  Ga  Ga7  1  0.02508898  0.72491098  0.72491098  1
  Ga  Ga8  1  0.52508899  0.72491098  0.72491098  1
  Ga  Ga9  1  0.97491100  0.27508899  0.27508898  1
  Ga  Ga10  1  0.39959999  0.75767998  0.44311999  1
  Ga  Ga11  1  0.89960000  0.44311999  0.75767997  1
  Ga  Ga12  1  0.10039999  0.55687999  0.24231999  1
  Ga  Ga13  1  0.60040000  0.24231999  0.55687998  1
  Ga  Ga14  1  0.86012700  0.24807799  0.03166799  1
  Ga  Ga15  1  0.24999999  0.49999999  0.49999998  1
  Ga  Ga16  1  0.36012600  0.03166800  0.24807899  1
  Ga  Ga17  1  0.63987398  0.96833198  0.75192097  1
  Ga  Ga18  1  0.13987298  0.75192198  0.96833197  1
  Ga  Ga19  1  0.75000000  0.49999999  0.49999998  1
