# generated using pymatgen
data_Ga2O3
_symmetry_space_group_name_H-M   'P 1'
_cell_length_a   2.91098595
_cell_length_b   3.70988393
_cell_length_c   5.19904661
_cell_angle_alpha   110.90288544
_cell_angle_beta   106.25744629
_cell_angle_gamma   90.00000000
_symmetry_Int_Tables_number   1
_chemical_formula_structural   Ga2O3
_chemical_formula_sum   'Ga2 O3'
_cell_volume   50.04085362
_cell_formula_units_Z   1
loop_
 _symmetry_equiv_pos_site_id
 _symmetry_equiv_pos_as_xyz
  1  'x, y, z'
loop_
 _atom_site_type_symbol
 _atom_site_label
 _atom_site_symmetry_multiplicity
 _atom_site_fract_x
 _atom_site_fract_y
 _atom_site_fract_z
 _atom_site_occupancy
  O  O0  1  0.29035098  0.79035102  0.58070197  1
  O  O1  1  0.70964900  0.20964900  0.41929796  1
  O  O2  1  -0.00000001  0.50000001  -0.00000000  1
  Ga  Ga3  1  0.35562299  0.35562301  0.71124597  1
  Ga  Ga4  1  0.64437698  0.64437701  0.28875397  1
