# generated using pymatgen
data_CsNb5S8
_symmetry_space_group_name_H-M   'P 1'
_cell_length_a   3.48443604
_cell_length_b   9.24011898
_cell_length_c   9.31861019
_cell_angle_alpha   103.00835419
_cell_angle_beta   100.77548981
_cell_angle_gamma   90.00000000
_symmetry_Int_Tables_number   1
_chemical_formula_structural   CsNb5S8
_chemical_formula_sum   'Cs1 Nb5 S8'
_cell_volume   286.89583291
_cell_formula_units_Z   1
loop_
 _symmetry_equiv_pos_site_id
 _symmetry_equiv_pos_as_xyz
  1  'x, y, z'
loop_
 _atom_site_type_symbol
 _atom_site_label
 _atom_site_symmetry_multiplicity
 _atom_site_fract_x
 _atom_site_fract_y
 _atom_site_fract_z
 _atom_site_occupancy
  Cs  Cs0  1  0.00000000  0.00000000  0.00000000  1
  Nb  Nb1  1  0.14519997  0.49700600  0.29039997  1
  Nb  Nb2  1  0.79289797  0.16605800  0.58579597  1
  Nb  Nb3  1  0.20710195  0.83394200  0.41420395  1
  Nb  Nb4  1  0.49999996  0.50000000  -0.00000004  1
  Nb  Nb5  1  0.85479995  0.50299400  0.70959995  1
  S  S6  1  0.66428293  0.99589700  0.32856593  1
  S  S7  1  0.25959397  0.35044200  0.51918797  1
  S  S8  1  0.06960796  0.68028800  0.13921596  1
  S  S9  1  0.74040595  0.64955800  0.48081195  1
  S  S10  1  0.93039196  0.31971200  0.86078396  1
  S  S11  1  0.58671697  0.32003300  0.17343397  1
  S  S12  1  0.33571699  0.00410300  0.67143399  1
  S  S13  1  0.41328295  0.67996700  0.82656595  1
