# generated using pymatgen
data_Ho4MgGa12Co
_symmetry_space_group_name_H-M   'P 1'
_cell_length_a   5.26525307
_cell_length_b   5.30499315
_cell_length_c   12.78839588
_cell_angle_alpha   89.96972656
_cell_angle_beta   89.48980713
_cell_angle_gamma   61.10856247
_symmetry_Int_Tables_number   1
_chemical_formula_structural   Ho4MgGa12Co
_chemical_formula_sum   'Ho4 Mg1 Ga12 Co1'
_cell_volume   312.73268391
_cell_formula_units_Z   1
loop_
 _symmetry_equiv_pos_site_id
 _symmetry_equiv_pos_as_xyz
  1  'x, y, z'
loop_
 _atom_site_type_symbol
 _atom_site_label
 _atom_site_symmetry_multiplicity
 _atom_site_fract_x
 _atom_site_fract_y
 _atom_site_fract_z
 _atom_site_occupancy
  Mg  Mg0  1  0.33734701  0.34210500  0.08550600  1
  Ho  Ho1  1  0.99670704  0.00806100  0.74438899  1
  Ga  Ga2  1  0.66353102  0.67583800  0.41356199  1
  Ho  Ho3  1  0.33646901  0.32416200  0.33643799  1
  Ho  Ho4  1  0.00329299  0.99193900  0.00561100  1
  Ho  Ho5  1  0.66265302  0.65789500  0.66449398  1
  Ga  Ga6  1  0.50000002  0.00000000  0.87499998  1
  Ga  Ga7  1  0.16330400  0.66857100  0.53980798  1
  Ga  Ga8  1  0.83669603  0.33142900  0.21019200  1
  Ga  Ga9  1  -0.00000000  0.50000000  0.87499998  1
  Ga  Ga10  1  0.66508602  0.16580700  0.54055999  1
  Ga  Ga11  1  0.33491401  0.83419300  0.20943999  1
  Co  Co12  1  0.34701501  0.32448600  0.70187198  1
  Ga  Ga13  1  0.00000000  0.00000000  0.37499999  1
  Ga  Ga14  1  0.65298502  0.67551400  0.04812800  1
  Ga  Ga15  1  0.50000001  0.50000000  0.87499998  1
  Ga  Ga16  1  0.16797700  0.16497900  0.54111399  1
  Ga  Ga17  1  0.83202302  0.83502100  0.20888600  1
