# generated using pymatgen
data_CsHO2
_symmetry_space_group_name_H-M   'P 1'
_cell_length_a   5.71395016
_cell_length_b   5.71395016
_cell_length_c   5.71395016
_cell_angle_alpha   100.80387878
_cell_angle_beta   113.97112274
_cell_angle_gamma   113.97112274
_symmetry_Int_Tables_number   1
_chemical_formula_structural   CsHO2
_chemical_formula_sum   'Cs2 H2 O4'
_cell_volume   141.19992283
_cell_formula_units_Z   2
loop_
 _symmetry_equiv_pos_site_id
 _symmetry_equiv_pos_as_xyz
  1  'x, y, z'
loop_
 _atom_site_type_symbol
 _atom_site_label
 _atom_site_symmetry_multiplicity
 _atom_site_fract_x
 _atom_site_fract_y
 _atom_site_fract_z
 _atom_site_occupancy
  Cs  Cs0  1  0.00000011  0.75000007  0.75000009  1
  Cs  Cs1  1  0.00000004  0.25000002  0.25000003  1
  H  H2  1  0.50000017  1.00000009  0.50000015  1
  H  H3  1  0.50000009  0.50000005  1.00000010  1
  O  O4  1  0.23022614  0.86511308  0.36511311  1
  O  O5  1  0.76977405  0.13488701  0.63488707  1
  O  O6  1  0.50000007  0.36511303  0.13488707  1
  O  O7  1  0.50000011  0.63488706  0.86511311  1
