# generated using pymatgen
data_CsAgGeS4
_symmetry_space_group_name_H-M   'P 1'
_cell_length_a   6.64454222
_cell_length_b   6.80092621
_cell_length_c   9.29523468
_cell_angle_alpha   108.52885437
_cell_angle_beta   90.00000000
_cell_angle_gamma   90.00000000
_symmetry_Int_Tables_number   1
_chemical_formula_structural   CsAgGeS4
_chemical_formula_sum   'Cs2 Ag2 Ge2 S8'
_cell_volume   398.26929869
_cell_formula_units_Z   2
loop_
 _symmetry_equiv_pos_site_id
 _symmetry_equiv_pos_as_xyz
  1  'x, y, z'
loop_
 _atom_site_type_symbol
 _atom_site_label
 _atom_site_symmetry_multiplicity
 _atom_site_fract_x
 _atom_site_fract_y
 _atom_site_fract_z
 _atom_site_occupancy
  Cs  Cs0  1  0.24957499  0.76788397  0.56385497  1
  Cs  Cs1  1  0.74957498  0.23211599  0.43614498  1
  Ag  Ag2  1  0.23345099  0.73402898  0.05247599  1
  Ag  Ag3  1  0.73345098  0.26597099  0.94752395  1
  Ge  Ge4  1  0.26384999  0.27983699  0.17298899  1
  Ge  Ge5  1  0.76384998  0.72016298  0.82701095  1
  S  S6  1  0.25415799  0.09096300  0.32583698  1
  S  S7  1  0.75415798  0.90903697  0.67416296  1
  S  S8  1  0.50810098  0.51869298  0.21743699  1
  S  S9  1  0.00810100  0.48130698  0.78256296  1
  S  S10  1  0.49836698  0.50866598  0.79702996  1
  S  S11  1  0.99836697  0.49133398  0.20296999  1
  S  S12  1  0.31559899  0.07524600  0.93615695  1
  S  S13  1  0.81559897  0.92475397  0.06384299  1
