# generated using pymatgen
data_CsGaS
_symmetry_space_group_name_H-M   'P 1'
_cell_length_a   8.62061310
_cell_length_b   8.62061310
_cell_length_c   8.62061310
_cell_angle_alpha   108.12969208
_cell_angle_beta   108.12969208
_cell_angle_gamma   108.12969208
_symmetry_Int_Tables_number   1
_chemical_formula_structural   CsGaS
_chemical_formula_sum   'Cs6 Ga6 S6'
_cell_volume   516.20808785
_cell_formula_units_Z   6
loop_
 _symmetry_equiv_pos_site_id
 _symmetry_equiv_pos_as_xyz
  1  'x, y, z'
loop_
 _atom_site_type_symbol
 _atom_site_label
 _atom_site_symmetry_multiplicity
 _atom_site_fract_x
 _atom_site_fract_y
 _atom_site_fract_z
 _atom_site_occupancy
  S  S0  1  0.07103101  0.07103100  0.31221001  1
  S  S1  1  0.07103102  0.31221002  0.07103101  1
  S  S2  1  0.31221001  0.07103100  0.07103101  1
  S  S3  1  0.68779007  0.92896905  0.92896906  1
  S  S4  1  0.92896908  0.92896905  0.68779006  1
  S  S5  1  0.92896907  0.68779004  0.92896906  1
  Cs  Cs6  1  0.76477103  0.00000000  0.23522901  1
  Cs  Cs7  1  0.00000001  0.23522901  0.76477103  1
  Cs  Cs8  1  0.23522904  0.76477104  0.00000002  1
  Cs  Cs9  1  0.23522901  0.00000000  0.76477102  1
  Cs  Cs10  1  0.00000003  0.76477104  0.23522903  1
  Cs  Cs11  1  0.76477104  0.23522901  0.00000001  1
  Ga  Ga12  1  0.62611806  0.86252105  0.62611805  1
  Ga  Ga13  1  0.62611805  0.62611804  0.86252105  1
  Ga  Ga14  1  0.86252106  0.62611804  0.62611804  1
  Ga  Ga15  1  0.13747902  0.37388202  0.37388202  1
  Ga  Ga16  1  0.37388202  0.13747901  0.37388202  1
  Ga  Ga17  1  0.37388203  0.37388202  0.13747902  1
