# generated using pymatgen
data_KBaSc4F14
_symmetry_space_group_name_H-M   'P 1'
_cell_length_a   5.65469313
_cell_length_b   5.69262791
_cell_length_c   8.00222015
_cell_angle_alpha   90.00000000
_cell_angle_beta   90.00000000
_cell_angle_gamma   90.00000000
_symmetry_Int_Tables_number   1
_chemical_formula_structural   KBaSc4F14
_chemical_formula_sum   'K1 Ba1 Sc4 F14'
_cell_volume   257.59197807
_cell_formula_units_Z   1
loop_
 _symmetry_equiv_pos_site_id
 _symmetry_equiv_pos_as_xyz
  1  'x, y, z'
loop_
 _atom_site_type_symbol
 _atom_site_label
 _atom_site_symmetry_multiplicity
 _atom_site_fract_x
 _atom_site_fract_y
 _atom_site_fract_z
 _atom_site_occupancy
  Ba  Ba0  1  0.01767600  0.99799502  0.25000000  1
  F  F1  1  0.98232398  0.00200500  0.74999999  1
  K  K2  1  0.51767599  0.50200501  0.25000000  1
  F  F3  1  0.48232399  0.49799501  0.74999999  1
  Sc  Sc4  1  0.49999999  0.00000000  0.00000000  1
  Sc  Sc5  1  0.00000000  0.50000001  0.49999999  1
  Sc  Sc6  1  0.00000000  0.50000001  0.00000000  1
  Sc  Sc7  1  0.49999999  0.00000000  0.49999999  1
  F  F8  1  0.72735698  0.27073400  0.96952098  1
  F  F9  1  0.77264298  0.77073401  0.46952099  1
  F  F10  1  0.77264298  0.77073401  0.03047900  1
  F  F11  1  0.72735698  0.27073400  0.53047899  1
  F  F12  1  0.22735699  0.22926600  0.96952098  1
  F  F13  1  0.27264299  0.72926601  0.46952099  1
  F  F14  1  0.00510500  0.55866101  0.74999999  1
  F  F15  1  0.99489498  0.44133901  0.25000000  1
  F  F16  1  0.49489499  0.05866100  0.25000000  1
  F  F17  1  0.27264299  0.72926601  0.03047900  1
  F  F18  1  0.22735699  0.22926600  0.53047899  1
  F  F19  1  0.50510499  0.94133902  0.74999999  1
