# generated using pymatgen
data_Ga(AgCl3)3
_symmetry_space_group_name_H-M   'P 1'
_cell_length_a   7.49635029
_cell_length_b   7.49635029
_cell_length_c   7.49635029
_cell_angle_alpha   60.00000000
_cell_angle_beta   60.00000000
_cell_angle_gamma   60.00000000
_symmetry_Int_Tables_number   1
_chemical_formula_structural   Ga(AgCl3)3
_chemical_formula_sum   'Ga1 Ag3 Cl9'
_cell_volume   297.87538603
_cell_formula_units_Z   1
loop_
 _symmetry_equiv_pos_site_id
 _symmetry_equiv_pos_as_xyz
  1  'x, y, z'
loop_
 _atom_site_type_symbol
 _atom_site_label
 _atom_site_symmetry_multiplicity
 _atom_site_fract_x
 _atom_site_fract_y
 _atom_site_fract_z
 _atom_site_occupancy
  Ga  Ga0  1  0.49999999  0.49999999  0.49999999  1
  Ag  Ag1  1  0.36449699  0.87850098  0.87850098  1
  Cl  Cl2  1  0.87849998  0.87850098  0.87850098  1
  Ag  Ag3  1  0.87849998  0.87850098  0.36449799  1
  Ag  Ag4  1  0.87849998  0.36449799  0.87850098  1
  Cl  Cl5  1  0.62707399  0.62707299  0.62707299  1
  Cl  Cl6  1  0.62707399  0.11878000  0.62707299  1
  Cl  Cl7  1  0.62707399  0.62707299  0.11878000  1
  Cl  Cl8  1  0.62832699  0.12389100  0.12389100  1
  Cl  Cl9  1  0.11878100  0.62707299  0.62707299  1
  Cl  Cl10  1  0.12389000  0.12389100  0.12389100  1
  Cl  Cl11  1  0.12389000  0.12389100  0.62832799  1
  Cl  Cl12  1  0.12389000  0.62832799  0.12389100  1
