# generated using pymatgen
data_PPd
_symmetry_space_group_name_H-M   'P 1'
_cell_length_a   3.10984898
_cell_length_b   3.18286204
_cell_length_c   4.55085611
_cell_angle_alpha   69.53107452
_cell_angle_beta   90.00000000
_cell_angle_gamma   90.00000000
_symmetry_Int_Tables_number   1
_chemical_formula_structural   PPd
_chemical_formula_sum   'P2 Pd2'
_cell_volume   42.20130068
_cell_formula_units_Z   2
loop_
 _symmetry_equiv_pos_site_id
 _symmetry_equiv_pos_as_xyz
  1  'x, y, z'
loop_
 _atom_site_type_symbol
 _atom_site_label
 _atom_site_symmetry_multiplicity
 _atom_site_fract_x
 _atom_site_fract_y
 _atom_site_fract_z
 _atom_site_occupancy
  P  P0  1  0.25000000  0.56060000  0.87879994  1
  P  P1  1  0.75000001  0.43940000  0.12119998  1
  Pd  Pd2  1  0.25000000  0.85528901  0.28942195  1
  Pd  Pd3  1  0.75000001  0.14471100  0.71057796  1
