# generated using pymatgen
data_Cs2BaLa4I9
_symmetry_space_group_name_H-M   'P 1'
_cell_length_a   8.87535572
_cell_length_b   10.09628105
_cell_length_c   8.87535572
_cell_angle_alpha   63.92572403
_cell_angle_beta   90.00000000
_cell_angle_gamma   116.07427216
_symmetry_Int_Tables_number   1
_chemical_formula_structural   Cs2BaLa4I9
_chemical_formula_sum   'Cs2 Ba1 La4 I9'
_cell_volume   622.99051808
_cell_formula_units_Z   1
loop_
 _symmetry_equiv_pos_site_id
 _symmetry_equiv_pos_as_xyz
  1  'x, y, z'
loop_
 _atom_site_type_symbol
 _atom_site_label
 _atom_site_symmetry_multiplicity
 _atom_site_fract_x
 _atom_site_fract_y
 _atom_site_fract_z
 _atom_site_occupancy
  Cs  Cs0  1  0.24999998  0.49999998  0.75000001  1
  Cs  Cs1  1  0.75000000  0.49999998  0.25000000  1
  La  La2  1  0.66680102  0.00000000  0.16680101  1
  La  La3  1  0.33319901  0.00000000  0.83319903  1
  La  La4  1  0.16680096  0.99999995  0.33319899  1
  La  La5  1  0.83319898  0.99999995  0.66680100  1
  Ba  Ba6  1  0.00000000  0.00000000  0.00000000  1
  I  I7  1  0.50000002  0.00000000  0.50000002  1
  I  I8  1  0.29716100  0.27274199  0.52441901  1
  I  I9  1  0.70283899  0.72725797  0.47558100  1
  I  I10  1  0.97558102  0.27274199  0.20283900  1
  I  I11  1  0.79716101  0.27274199  0.70283902  1
  I  I12  1  0.52441898  0.72725797  0.97558102  1
  I  I13  1  0.02441896  0.72725797  0.79716101  1
  I  I14  1  0.20283897  0.72725797  0.29716100  1
  I  I15  1  0.47558100  0.27274199  0.02441900  1
