# generated using pymatgen
data_Ho4Ge5Rh
_symmetry_space_group_name_H-M   'P 1'
_cell_length_a   4.22241402
_cell_length_b   5.70417690
_cell_length_c   9.12261868
_cell_angle_alpha   82.37337494
_cell_angle_beta   76.61898804
_cell_angle_gamma   68.27722931
_symmetry_Int_Tables_number   1
_chemical_formula_structural   Ho4Ge5Rh
_chemical_formula_sum   'Ho4 Ge5 Rh1'
_cell_volume   198.30775571
_cell_formula_units_Z   1
loop_
 _symmetry_equiv_pos_site_id
 _symmetry_equiv_pos_as_xyz
  1  'x, y, z'
loop_
 _atom_site_type_symbol
 _atom_site_label
 _atom_site_symmetry_multiplicity
 _atom_site_fract_x
 _atom_site_fract_y
 _atom_site_fract_z
 _atom_site_occupancy
  Ho  Ho0  1  0.00195898  0.67172701  0.32435501  1
  Ho  Ho1  1  0.18498697  0.73888301  0.89114301  1
  Ho  Ho2  1  0.99804097  0.32827300  0.67564502  1
  Ho  Ho3  1  0.81501298  0.26111700  0.10885702  1
  Ge  Ge4  1  0.35919697  0.71616301  0.56544301  1
  Ge  Ge5  1  0.48852499  0.14336100  0.87958900  1
  Ge  Ge6  1  0.64080298  0.28383700  0.43455701  1
  Ge  Ge7  1  0.51147496  0.85663901  0.12041103  1
  Ge  Ge8  1  0.72589196  0.92110501  0.62711102  1
  Rh  Rh9  1  0.27410799  0.07889500  0.37288900  1
