# generated using pymatgen
data_WSe
_symmetry_space_group_name_H-M   'P 1'
_cell_length_a   4.35200977
_cell_length_b   5.95210600
_cell_length_c   7.36962605
_cell_angle_alpha   113.81763458
_cell_angle_beta   107.17353058
_cell_angle_gamma   90.00000000
_symmetry_Int_Tables_number   1
_chemical_formula_structural   WSe
_chemical_formula_sum   'W3 Se3'
_cell_volume   165.29576353
_cell_formula_units_Z   3
loop_
 _symmetry_equiv_pos_site_id
 _symmetry_equiv_pos_as_xyz
  1  'x, y, z'
loop_
 _atom_site_type_symbol
 _atom_site_label
 _atom_site_symmetry_multiplicity
 _atom_site_fract_x
 _atom_site_fract_y
 _atom_site_fract_z
 _atom_site_occupancy
  Se  Se0  1  0.16762702  0.90434001  0.33525401  1
  Se  Se1  1  0.83237306  0.56908600  0.66474600  1
  Se  Se2  1  0.50000003  0.26058500  0.00000001  1
  W  W3  1  0.32670402  0.33308700  0.65340799  1
  W  W4  1  0.67329605  0.67967900  0.34659201  1
  W  W5  1  1.00000007  0.98022301  1.00000000  1
