# generated using pymatgen
data_TaOs3
_symmetry_space_group_name_H-M   'P 1'
_cell_length_a   4.42146921
_cell_length_b   4.42146921
_cell_length_c   4.42146921
_cell_angle_alpha   60.00000000
_cell_angle_beta   60.00000000
_cell_angle_gamma   60.00000000
_symmetry_Int_Tables_number   1
_chemical_formula_structural   TaOs3
_chemical_formula_sum   'Ta1 Os3'
_cell_volume   61.12020719
_cell_formula_units_Z   1
loop_
 _symmetry_equiv_pos_site_id
 _symmetry_equiv_pos_as_xyz
  1  'x, y, z'
loop_
 _atom_site_type_symbol
 _atom_site_label
 _atom_site_symmetry_multiplicity
 _atom_site_fract_x
 _atom_site_fract_y
 _atom_site_fract_z
 _atom_site_occupancy
  Os  Os0  1  0.75000003  0.75000003  0.75000003  1
  Os  Os1  1  0.25000001  0.25000001  0.25000001  1
  Os  Os2  1  0.00000000  0.00000000  0.00000000  1
  Ta  Ta3  1  0.50000002  0.50000002  0.50000002  1
