# generated using pymatgen
data_Ba2GaSe4
_symmetry_space_group_name_H-M   'P 1'
_cell_length_a   7.24100399
_cell_length_b   7.24316788
_cell_length_c   9.03994083
_cell_angle_alpha   90.00000000
_cell_angle_beta   113.60948181
_cell_angle_gamma   90.00000000
_symmetry_Int_Tables_number   1
_chemical_formula_structural   Ba2GaSe4
_chemical_formula_sum   'Ba4 Ga2 Se8'
_cell_volume   434.43913112
_cell_formula_units_Z   2
loop_
 _symmetry_equiv_pos_site_id
 _symmetry_equiv_pos_as_xyz
  1  'x, y, z'
loop_
 _atom_site_type_symbol
 _atom_site_label
 _atom_site_symmetry_multiplicity
 _atom_site_fract_x
 _atom_site_fract_y
 _atom_site_fract_z
 _atom_site_occupancy
  Ba  Ba0  1  0.86387802  0.50000001  0.72775604  1
  Ba  Ba1  1  0.36387801  1.00000002  0.72775602  1
  Ba  Ba2  1  0.13937800  0.50000001  0.27875601  1
  Ba  Ba3  1  0.63937801  1.00000002  0.27875603  1
  Ga  Ga4  1  0.49653501  0.50000001  0.99307002  1
  Ga  Ga5  1  0.99653502  0.00000000  0.99307004  1
  Se  Se6  1  0.65544302  0.50000001  0.31088603  1
  Se  Se7  1  0.15544300  0.00000000  0.31088601  1
  Se  Se8  1  0.34818001  0.50000001  0.69636002  1
  Se  Se9  1  0.84818002  0.00000000  0.69636004  1
  Se  Se10  1  0.73975902  0.73980301  0.99658503  1
  Se  Se11  1  0.25682601  0.26019700  0.99658501  1
  Se  Se12  1  0.75682602  0.23980300  0.99658503  1
  Se  Se13  1  0.23975901  0.76019701  0.99658501  1
