# generated using pymatgen
data_Ga3CoS6
_symmetry_space_group_name_H-M   'P 1'
_cell_length_a   5.70557165
_cell_length_b   5.70557165
_cell_length_c   6.01484060
_cell_angle_alpha   61.68678665
_cell_angle_beta   61.68678665
_cell_angle_gamma   60.00000000
_symmetry_Int_Tables_number   1
_chemical_formula_structural   Ga3CoS6
_chemical_formula_sum   'Ga3 Co1 S6'
_cell_volume   141.88022752
_cell_formula_units_Z   1
loop_
 _symmetry_equiv_pos_site_id
 _symmetry_equiv_pos_as_xyz
  1  'x, y, z'
loop_
 _atom_site_type_symbol
 _atom_site_label
 _atom_site_symmetry_multiplicity
 _atom_site_fract_x
 _atom_site_fract_y
 _atom_site_fract_z
 _atom_site_occupancy
  Ga  Ga0  1  0.85136299  0.85136304  0.44591105  1
  Co  Co1  1  0.14863700  0.14863701  0.55408902  1
  Ga  Ga2  1  0.63694899  0.63694903  0.08915303  1
  Ga  Ga3  1  0.36305100  0.36305102  0.91084704  1
  S  S4  1  0.97710701  0.55337703  0.26326103  1
  S  S5  1  0.44662298  0.79374504  0.73673905  1
  S  S6  1  0.79374502  0.02289300  0.73673903  1
  S  S7  1  0.20625496  0.97710705  0.26326104  1
  S  S8  1  0.55337701  0.20625501  0.26326102  1
  S  S9  1  0.02289298  0.44662302  0.73673903  1
