# generated using pymatgen
data_K3BaMg4F12
_symmetry_space_group_name_H-M   'P 1'
_cell_length_a   5.73044205
_cell_length_b   5.74053955
_cell_length_c   8.17919731
_cell_angle_alpha   90.00000000
_cell_angle_beta   90.00000000
_cell_angle_gamma   90.82938385
_symmetry_Int_Tables_number   1
_chemical_formula_structural   K3BaMg4F12
_chemical_formula_sum   'K3 Ba1 Mg4 F12'
_cell_volume   269.03328886
_cell_formula_units_Z   1
loop_
 _symmetry_equiv_pos_site_id
 _symmetry_equiv_pos_as_xyz
  1  'x, y, z'
loop_
 _atom_site_type_symbol
 _atom_site_label
 _atom_site_symmetry_multiplicity
 _atom_site_fract_x
 _atom_site_fract_y
 _atom_site_fract_z
 _atom_site_occupancy
  Ba  Ba0  1  0.00709603  0.99420198  -0.00000000  1
  K  K1  1  0.50726001  0.48895699  0.99999996  1
  K  K2  1  0.48772001  0.49110899  0.49999998  1
  K  K3  1  0.98449002  0.99535298  0.49999998  1
  Mg  Mg4  1  0.50585502  0.98667598  0.75785997  1
  Mg  Mg5  1  0.50585502  0.98667598  0.24213999  1
  Mg  Mg6  1  0.99253401  0.50224199  0.74111797  1
  Mg  Mg7  1  0.99253401  0.50224199  0.25888199  1
  F  F8  1  0.99814600  0.46097399  0.49999998  1
  F  F9  1  0.72942201  0.73026098  0.73641497  1
  F  F10  1  0.72942201  0.73026098  0.26358499  1
  F  F11  1  0.48293802  0.96944998  0.99999996  1
  F  F12  1  0.50842700  0.05018100  0.49999998  1
  F  F13  1  0.77585300  0.22772799  0.22592099  1
  F  F14  1  0.77585300  0.22772799  0.77407897  1
  F  F15  1  0.27796701  0.28162899  0.76537997  1
  F  F16  1  0.27796701  0.28162899  0.23461999  1
  F  F17  1  0.01350801  0.53535099  0.99999996  1
  F  F18  1  0.22475102  0.77889198  0.72519197  1
  F  F19  1  0.22475102  0.77889198  0.27480799  1
