# generated using pymatgen
data_Cs2P2O5F
_symmetry_space_group_name_H-M   'P 1'
_cell_length_a   5.21269798
_cell_length_b   6.15097523
_cell_length_c   7.78312778
_cell_angle_alpha   90.00000000
_cell_angle_beta   108.86508942
_cell_angle_gamma   90.00000000
_symmetry_Int_Tables_number   1
_chemical_formula_structural   Cs2P2O5F
_chemical_formula_sum   'Cs2 P2 O5 F1'
_cell_volume   236.14651044
_cell_formula_units_Z   1
loop_
 _symmetry_equiv_pos_site_id
 _symmetry_equiv_pos_as_xyz
  1  'x, y, z'
loop_
 _atom_site_type_symbol
 _atom_site_label
 _atom_site_symmetry_multiplicity
 _atom_site_fract_x
 _atom_site_fract_y
 _atom_site_fract_z
 _atom_site_occupancy
  Cs  Cs0  1  0.64592799  0.24999999  0.28745598  1
  Cs  Cs1  1  0.35407199  0.74999997  0.71254400  1
  P  P2  1  0.95169699  0.24999999  0.82239998  1
  P  P3  1  0.04830300  0.74999997  0.17760000  1
  O  O4  1  0.84922899  0.05286900  0.70501998  1
  O  O5  1  0.84922899  0.44713098  0.70501998  1
  O  O6  1  0.74370799  0.74999997  0.12756398  1
  F  F7  1  0.25629200  0.24999999  0.87243601  1
  O  O8  1  0.15077100  0.55286898  0.29498000  1
  O  O9  1  0.15077100  0.94713096  0.29498000  1
