# generated using pymatgen
data_CaGaO3
_symmetry_space_group_name_H-M   'P 1'
_cell_length_a   5.42584133
_cell_length_b   5.54370213
_cell_length_c   7.73231316
_cell_angle_alpha   90.00003815
_cell_angle_beta   90.02866364
_cell_angle_gamma   89.99997711
_symmetry_Int_Tables_number   1
_chemical_formula_structural   CaGaO3
_chemical_formula_sum   'Ca4 Ga4 O12'
_cell_volume   232.58213688
_cell_formula_units_Z   4
loop_
 _symmetry_equiv_pos_site_id
 _symmetry_equiv_pos_as_xyz
  1  'x, y, z'
loop_
 _atom_site_type_symbol
 _atom_site_label
 _atom_site_symmetry_multiplicity
 _atom_site_fract_x
 _atom_site_fract_y
 _atom_site_fract_z
 _atom_site_occupancy
  Ca  Ca0  1  0.50941797  0.54645299  0.25013200  1
  Ca  Ca1  1  0.00941697  0.95354698  0.75013304  1
  Ga  Ga2  1  0.99973495  0.50102199  0.49946399  1
  Ga  Ga3  1  0.49973495  0.99897998  0.99946303  1
  Ga  Ga4  1  0.00018598  0.50256299  0.00075802  1
  Ga  Ga5  1  0.50018595  0.99743498  0.50075602  1
  Ca  Ca6  1  0.99269897  0.04850600  0.24926197  1
  Ca  Ca7  1  0.49269797  0.45149399  0.74926201  1
  O  O8  1  0.78972995  0.79791998  0.04061200  1
  O  O9  1  0.71005297  0.29814599  0.45956299  1
  O  O10  1  0.20022399  0.21209700  0.54177901  1
  O  O11  1  0.30014697  0.71126098  0.95847702  1
  O  O12  1  0.21005399  0.20185400  0.95956301  1
  O  O13  1  0.28972997  0.70207998  0.54061402  1
  O  O14  1  0.80014895  0.78873898  0.45847701  1
  O  O15  1  0.70022497  0.28790099  0.04177799  1
  O  O16  1  0.41865395  0.97669298  0.24516202  1
  O  O17  1  0.07915498  0.47942099  0.25479202  1
  O  O18  1  0.57915398  0.02057800  0.75479099  1
  O  O19  1  0.91865196  0.52330699  0.74516300  1
