# generated using pymatgen
data_MoO2
_symmetry_space_group_name_H-M   'P 1'
_cell_length_a   4.76250887
_cell_length_b   4.76250887
_cell_length_c   9.43747044
_cell_angle_alpha   90.00000000
_cell_angle_beta   90.00000000
_cell_angle_gamma   90.00000000
_symmetry_Int_Tables_number   1
_chemical_formula_structural   MoO2
_chemical_formula_sum   'Mo6 O12'
_cell_volume   214.05589820
_cell_formula_units_Z   6
loop_
 _symmetry_equiv_pos_site_id
 _symmetry_equiv_pos_as_xyz
  1  'x, y, z'
loop_
 _atom_site_type_symbol
 _atom_site_label
 _atom_site_symmetry_multiplicity
 _atom_site_fract_x
 _atom_site_fract_y
 _atom_site_fract_z
 _atom_site_occupancy
  Mo  Mo0  1  0.50000001  0.50000001  0.49933798  1
  Mo  Mo1  1  0.00000000  0.00000000  0.99933795  1
  Mo  Mo2  1  0.50000001  0.50000001  0.16908199  1
  Mo  Mo3  1  0.00000000  0.00000000  0.66908197  1
  Mo  Mo4  1  0.50000001  0.50000001  0.83246596  1
  Mo  Mo5  1  0.00000000  0.00000000  0.33246598  1
  O  O6  1  0.19345701  0.80654302  0.49649598  1
  O  O7  1  0.80654302  0.19345701  0.49649598  1
  O  O8  1  0.30654301  0.30654301  0.99649595  1
  O  O9  1  0.69345702  0.69345702  0.99649595  1
  O  O10  1  0.19391701  0.80608302  0.16888799  1
  O  O11  1  0.80608302  0.19391701  0.16888799  1
  O  O12  1  0.30608301  0.30608301  0.66888797  1
  O  O13  1  0.69391702  0.69391702  0.66888797  1
  O  O14  1  0.80015202  0.19984801  0.83417296  1
  O  O15  1  0.19984801  0.80015202  0.83417296  1
  O  O16  1  0.69984802  0.69984802  0.33417298  1
  O  O17  1  0.30015201  0.30015201  0.33417298  1
