# generated using pymatgen
data_Ge
_symmetry_space_group_name_H-M   'P 1'
_cell_length_a   3.85894704
_cell_length_b   7.79802895
_cell_length_c   11.37985134
_cell_angle_alpha   90.00000000
_cell_angle_beta   90.00000000
_cell_angle_gamma   90.00000000
_symmetry_Int_Tables_number   1
_chemical_formula_structural   Ge
_chemical_formula_sum   Ge16
_cell_volume   342.44454299
_cell_formula_units_Z   16
loop_
 _symmetry_equiv_pos_site_id
 _symmetry_equiv_pos_as_xyz
  1  'x, y, z'
loop_
 _atom_site_type_symbol
 _atom_site_label
 _atom_site_symmetry_multiplicity
 _atom_site_fract_x
 _atom_site_fract_y
 _atom_site_fract_z
 _atom_site_occupancy
  Ge  Ge0  1  0.49999999  0.53611700  0.82742998  1
  Ge  Ge1  1  0.49999999  0.96388301  0.32742999  1
  Ge  Ge2  1  0.49999999  0.46388300  0.17256999  1
  Ge  Ge3  1  0.49999999  0.03611700  0.67256998  1
  Ge  Ge4  1  0.00000000  0.00000000  0.00000000  1
  Ge  Ge5  1  0.00000000  0.50000000  0.49999999  1
  Ge  Ge6  1  0.00000000  0.82857301  0.80350498  1
  Ge  Ge7  1  0.00000000  0.00000000  0.49999999  1
  Ge  Ge8  1  0.00000000  0.17142700  0.19649499  1
  Ge  Ge9  1  0.00000000  0.32857300  0.69649498  1
  Ge  Ge10  1  0.49999999  0.82625801  0.09320300  1
  Ge  Ge11  1  0.49999999  0.32625800  0.40679699  1
  Ge  Ge12  1  0.00000000  0.67142700  0.30350499  1
  Ge  Ge13  1  0.49999999  0.17374200  0.90679697  1
  Ge  Ge14  1  0.00000000  0.50000000  0.00000000  1
  Ge  Ge15  1  0.49999999  0.67374200  0.59320298  1
