# generated using pymatgen
data_BaNa3(MoO3)4
_symmetry_space_group_name_H-M   'P 1'
_cell_length_a   6.28829718
_cell_length_b   7.65557098
_cell_length_c   7.65557098
_cell_angle_alpha   86.90638733
_cell_angle_beta   77.39251709
_cell_angle_gamma   77.39251709
_symmetry_Int_Tables_number   1
_chemical_formula_structural   BaNa3(MoO3)4
_chemical_formula_sum   'Ba1 Na3 Mo4 O12'
_cell_volume   350.97715068
_cell_formula_units_Z   1
loop_
 _symmetry_equiv_pos_site_id
 _symmetry_equiv_pos_as_xyz
  1  'x, y, z'
loop_
 _atom_site_type_symbol
 _atom_site_label
 _atom_site_symmetry_multiplicity
 _atom_site_fract_x
 _atom_site_fract_y
 _atom_site_fract_z
 _atom_site_occupancy
  Ba  Ba0  1  0.74999999  0.31356399  0.68643602  1
  Na  Na1  1  0.75000003  0.90798797  0.09201201  1
  Na  Na2  1  0.25000000  0.09201200  0.90798799  1
  Na  Na3  1  0.25000004  0.68643598  0.31356399  1
  Mo  Mo4  1  0.74650299  0.37516899  0.20412402  1
  Mo  Mo5  1  0.75349702  0.79587598  0.62483101  1
  Mo  Mo6  1  0.24650300  0.20412399  0.37516900  1
  Mo  Mo7  1  0.25349704  0.62483098  0.79587598  1
  O  O8  1  0.33377899  0.01428200  0.23212001  1
  O  O9  1  0.33214101  0.40320399  0.86753799  1
  O  O10  1  0.01693505  0.64199998  0.66969897  1
  O  O11  1  0.83214103  0.86753798  0.40320401  1
  O  O12  1  0.66785901  0.59679598  0.13246201  1
  O  O13  1  0.66622104  0.98571797  0.76787999  1
  O  O14  1  0.83377898  0.23211999  0.01428203  1
  O  O15  1  0.51693503  0.66969898  0.64200000  1
  O  O16  1  0.48306500  0.33030099  0.35800001  1
  O  O17  1  0.16622105  0.76787998  0.98571797  1
  O  O18  1  0.16785900  0.13246200  0.59679599  1
  O  O19  1  0.98306498  0.35799999  0.33030103  1
