# generated using pymatgen
data_Te11Mo2
_symmetry_space_group_name_H-M   'P 1'
_cell_length_a   4.19190216
_cell_length_b   4.19190216
_cell_length_c   23.98712158
_cell_angle_alpha   84.98721313
_cell_angle_beta   84.98721313
_cell_angle_gamma   59.99999237
_symmetry_Int_Tables_number   1
_chemical_formula_structural   Te11Mo2
_chemical_formula_sum   'Te11 Mo2'
_cell_volume   363.16931273
_cell_formula_units_Z   1
loop_
 _symmetry_equiv_pos_site_id
 _symmetry_equiv_pos_as_xyz
  1  'x, y, z'
loop_
 _atom_site_type_symbol
 _atom_site_label
 _atom_site_symmetry_multiplicity
 _atom_site_fract_x
 _atom_site_fract_y
 _atom_site_fract_z
 _atom_site_occupancy
  Te  Te0  1  0.92535402  0.92535406  0.22393801  1
  Te  Te1  1  0.69142801  0.69142805  0.92571600  1
  Te  Te2  1  0.30857201  0.30857202  0.07428400  1
  Te  Te3  1  0.07464600  0.07464601  0.77606199  1
  Te  Te4  1  0.85474601  0.85474606  0.43576200  1
  Te  Te5  1  0.23540900  0.23540902  0.29377300  1
  Te  Te6  1  0.76459101  0.76459105  0.70622700  1
  Te  Te7  1  0.14525400  0.14525401  0.56423799  1
  Te  Te8  1  0.00000000  0.00000000  0.00000000  1
  Mo  Mo9  1  0.38210001  0.38210003  0.85369999  1
  Te  Te10  1  0.61790001  0.61790004  0.14630001  1
  Mo  Mo11  1  0.45786801  0.45786803  0.62639600  1
  Te  Te12  1  0.54213201  0.54213204  0.37360400  1
