# generated using pymatgen
data_CsHg2Se5
_symmetry_space_group_name_H-M   'P 1'
_cell_length_a   8.23678780
_cell_length_b   8.23678780
_cell_length_c   9.69879246
_cell_angle_alpha   115.12722015
_cell_angle_beta   115.12722015
_cell_angle_gamma   90.00000000
_symmetry_Int_Tables_number   1
_chemical_formula_structural   CsHg2Se5
_chemical_formula_sum   'Cs2 Hg4 Se10'
_cell_volume   526.15384241
_cell_formula_units_Z   2
loop_
 _symmetry_equiv_pos_site_id
 _symmetry_equiv_pos_as_xyz
  1  'x, y, z'
loop_
 _atom_site_type_symbol
 _atom_site_label
 _atom_site_symmetry_multiplicity
 _atom_site_fract_x
 _atom_site_fract_y
 _atom_site_fract_z
 _atom_site_occupancy
  Cs  Cs0  1  0.75000008  0.75000005  0.50000011  1
  Cs  Cs1  1  0.25000003  0.25000002  0.50000005  1
  Hg  Hg2  1  0.68183608  0.81816405  1.00000013  1
  Hg  Hg3  1  0.18183605  0.68183604  0.00000006  1
  Hg  Hg4  1  0.81816406  0.31816402  0.00000006  1
  Hg  Hg5  1  0.31816403  0.18183601  1.00000007  1
  Se  Se6  1  0.95701210  0.78642605  0.24343811  1
  Se  Se7  1  0.71357407  0.54298803  0.75656210  1
  Se  Se8  1  0.04298802  0.21357401  0.75656205  1
  Se  Se9  1  0.54298803  0.04298800  0.75656206  1
  Se  Se10  1  0.21357405  0.71357405  0.75656209  1
  Se  Se11  1  0.45701208  0.95701206  0.24343810  1
  Se  Se12  1  0.00000000  0.00000000  0.00000000  1
  Se  Se13  1  0.50000006  0.50000003  1.00000010  1
  Se  Se14  1  0.28642604  0.45701203  0.24343806  1
  Se  Se15  1  0.78642606  0.28642602  0.24343807  1
