# generated using pymatgen
data_SrBiO3
_symmetry_space_group_name_H-M   'P 1'
_cell_length_a   5.84709120
_cell_length_b   5.91232777
_cell_length_c   8.29829502
_cell_angle_alpha   90.00000000
_cell_angle_beta   90.00000000
_cell_angle_gamma   90.00000000
_symmetry_Int_Tables_number   1
_chemical_formula_structural   SrBiO3
_chemical_formula_sum   'Sr4 Bi4 O12'
_cell_volume   286.87139205
_cell_formula_units_Z   4
loop_
 _symmetry_equiv_pos_site_id
 _symmetry_equiv_pos_as_xyz
  1  'x, y, z'
loop_
 _atom_site_type_symbol
 _atom_site_label
 _atom_site_symmetry_multiplicity
 _atom_site_fract_x
 _atom_site_fract_y
 _atom_site_fract_z
 _atom_site_occupancy
  Sr  Sr0  1  0.00734200  0.53296302  0.25000000  1
  Sr  Sr1  1  0.50734198  0.96703704  0.75000000  1
  Sr  Sr2  1  0.49265798  0.03296300  0.25000000  1
  Sr  Sr3  1  0.99265797  0.46703702  0.75000000  1
  Bi  Bi4  1  0.00000000  0.00000000  0.00000000  1
  Bi  Bi5  1  0.49999998  0.50000002  0.00000000  1
  Bi  Bi6  1  0.49999998  0.50000002  0.50000000  1
  Bi  Bi7  1  0.00000000  0.00000000  0.50000000  1
  O  O8  1  0.21272499  0.28690401  0.45912400  1
  O  O9  1  0.71272498  0.21309601  0.54087600  1
  O  O10  1  0.28727499  0.78690403  0.04087600  1
  O  O11  1  0.78727497  0.71309603  0.95912400  1
  O  O12  1  0.78727497  0.71309603  0.54087600  1
  O  O13  1  0.28727499  0.78690403  0.45912400  1
  O  O14  1  0.71272498  0.21309601  0.95912400  1
  O  O15  1  0.21272499  0.28690401  0.04087600  1
  O  O16  1  0.92260697  0.97891604  0.25000000  1
  O  O17  1  0.42260699  0.52108402  0.75000000  1
  O  O18  1  0.57739298  0.47891602  0.25000000  1
  O  O19  1  0.07739300  0.02108400  0.75000000  1
