# generated using pymatgen
data_Ho2Ge
_symmetry_space_group_name_H-M   'P 1'
_cell_length_a   3.94341302
_cell_length_b   3.99532604
_cell_length_c   17.74687958
_cell_angle_alpha   90.00000000
_cell_angle_beta   90.00000000
_cell_angle_gamma   90.00000000
_symmetry_Int_Tables_number   1
_chemical_formula_structural   Ho2Ge
_chemical_formula_sum   'Ho8 Ge4'
_cell_volume   279.60600502
_cell_formula_units_Z   4
loop_
 _symmetry_equiv_pos_site_id
 _symmetry_equiv_pos_as_xyz
  1  'x, y, z'
loop_
 _atom_site_type_symbol
 _atom_site_label
 _atom_site_symmetry_multiplicity
 _atom_site_fract_x
 _atom_site_fract_y
 _atom_site_fract_z
 _atom_site_occupancy
  Ge  Ge0  1  0.25000000  0.21917900  0.85442097  1
  Ge  Ge1  1  0.25000000  0.28082100  0.35442099  1
  Ge  Ge2  1  0.75000000  0.78082099  0.14557900  1
  Ge  Ge3  1  0.75000000  0.71917899  0.64557898  1
  Ho  Ho4  1  0.75000000  0.20583800  0.50216998  1
  Ho  Ho5  1  0.75000000  0.29416200  0.00217000  1
  Ho  Ho6  1  0.25000000  0.79416199  0.49782998  1
  Ho  Ho7  1  0.25000000  0.70583799  0.99782997  1
  Ho  Ho8  1  0.25000000  0.21954600  0.68647698  1
  Ho  Ho9  1  0.25000000  0.28045400  0.18647699  1
  Ho  Ho10  1  0.75000000  0.78045399  0.31352299  1
  Ho  Ho11  1  0.75000000  0.71954599  0.81352297  1
