# generated using pymatgen
data_Cs2Se7
_symmetry_space_group_name_H-M   'P 1'
_cell_length_a   6.03400707
_cell_length_b   6.03400707
_cell_length_c   13.53368664
_cell_angle_alpha   90.00000000
_cell_angle_beta   90.00000000
_cell_angle_gamma   90.00000000
_symmetry_Int_Tables_number   1
_chemical_formula_structural   Cs2Se7
_chemical_formula_sum   'Cs4 Se14'
_cell_volume   492.75126316
_cell_formula_units_Z   2
loop_
 _symmetry_equiv_pos_site_id
 _symmetry_equiv_pos_as_xyz
  1  'x, y, z'
loop_
 _atom_site_type_symbol
 _atom_site_label
 _atom_site_symmetry_multiplicity
 _atom_site_fract_x
 _atom_site_fract_y
 _atom_site_fract_z
 _atom_site_occupancy
  Cs  Cs0  1  0.26082400  0.26082400  0.00000000  1
  Cs  Cs1  1  0.73917599  0.73917599  0.00000000  1
  Cs  Cs2  1  0.73917599  0.26082400  0.50000001  1
  Cs  Cs3  1  0.26082400  0.73917599  0.50000001  1
  Se  Se4  1  0.00000000  0.00000000  0.25000001  1
  Se  Se5  1  0.00000000  0.00000000  0.75000002  1
  Se  Se6  1  -0.00000000  0.49999999  0.25000001  1
  Se  Se7  1  -0.00000000  0.49999999  0.75000002  1
  Se  Se8  1  0.49999999  0.00000000  0.75000002  1
  Se  Se9  1  0.49999999  0.00000000  0.25000001  1
  Se  Se10  1  0.21542100  0.21542100  0.35358801  1
  Se  Se11  1  0.78457899  0.78457899  0.64641202  1
  Se  Se12  1  0.78457899  0.78457899  0.35358801  1
  Se  Se13  1  0.78457899  0.21542100  0.85358802  1
  Se  Se14  1  0.78457899  0.21542100  0.14641200  1
  Se  Se15  1  0.21542100  0.21542100  0.64641202  1
  Se  Se16  1  0.21542100  0.78457899  0.14641200  1
  Se  Se17  1  0.21542100  0.78457899  0.85358802  1
