# generated using pymatgen
data_Ga8P
_symmetry_space_group_name_H-M   'P 1'
_cell_length_a   5.63445997
_cell_length_b   7.95418978
_cell_length_c   7.95418930
_cell_angle_alpha   120.00000000
_cell_angle_beta   90.00000000
_cell_angle_gamma   90.00000000
_symmetry_Int_Tables_number   1
_chemical_formula_structural   Ga8P
_chemical_formula_sum   'Ga16 P2'
_cell_volume   308.72713358
_cell_formula_units_Z   2
loop_
 _symmetry_equiv_pos_site_id
 _symmetry_equiv_pos_as_xyz
  1  'x, y, z'
loop_
 _atom_site_type_symbol
 _atom_site_label
 _atom_site_symmetry_multiplicity
 _atom_site_fract_x
 _atom_site_fract_y
 _atom_site_fract_z
 _atom_site_occupancy
  Ga  Ga0  1  0.25000000  0.76590800  0.76590798  1
  Ga  Ga1  1  0.75000000  0.23409200  0.23409199  1
  Ga  Ga2  1  0.25000000  0.00000000  0.23409200  1
  Ga  Ga3  1  0.75000000  0.00000000  0.76590802  1
  Ga  Ga4  1  0.25000000  0.23409200  -0.00000001  1
  Ga  Ga5  1  0.75000000  0.76590800  -0.00000003  1
  Ga  Ga6  1  0.50000000  0.66666667  0.33333331  1
  Ga  Ga7  1  0.50000000  0.33333334  0.66666667  1
  Ga  Ga8  1  1.00000000  0.33333334  0.66666667  1
  Ga  Ga9  1  -0.00000000  0.66666667  0.33333331  1
  Ga  Ga10  1  0.25000000  0.40384100  0.40384099  1
  Ga  Ga11  1  0.75000000  0.59615900  0.59615899  1
  Ga  Ga12  1  0.25000000  0.00000000  0.59615901  1
  Ga  Ga13  1  0.75000000  0.00000000  0.40384101  1
  Ga  Ga14  1  0.25000000  0.59615900  -0.00000003  1
  Ga  Ga15  1  0.75000000  0.40384100  -0.00000002  1
  P  P16  1  0.50000000  0.00000000  -0.00000000  1
  P  P17  1  0.00000000  0.00000000  0.00000000  1
