# generated using pymatgen
data_Cs5Mo3Cl9O
_symmetry_space_group_name_H-M   'P 1'
_cell_length_a   7.19153023
_cell_length_b   8.72378826
_cell_length_c   9.66825581
_cell_angle_alpha   90.00000000
_cell_angle_beta   111.83374023
_cell_angle_gamma   90.00000000
_symmetry_Int_Tables_number   1
_chemical_formula_structural   Cs5Mo3Cl9O
_chemical_formula_sum   'Cs5 Mo3 Cl9 O1'
_cell_volume   563.05064326
_cell_formula_units_Z   1
loop_
 _symmetry_equiv_pos_site_id
 _symmetry_equiv_pos_as_xyz
  1  'x, y, z'
loop_
 _atom_site_type_symbol
 _atom_site_label
 _atom_site_symmetry_multiplicity
 _atom_site_fract_x
 _atom_site_fract_y
 _atom_site_fract_z
 _atom_site_occupancy
  Cs  Cs0  1  0.52825098  0.74999998  0.05650200  1
  Cs  Cs1  1  0.47174899  0.24999999  0.94349804  1
  Cs  Cs2  1  0.24104299  0.74999998  0.48208602  1
  Cs  Cs3  1  0.75895698  0.24999999  0.51791403  1
  Mo  Mo4  1  0.89027797  0.74999998  0.78055604  1
  Mo  Mo5  1  0.10972200  0.24999999  0.21944401  1
  Cl  Cl6  1  0.75591598  0.74999998  0.51183203  1
  Cl  Cl7  1  0.24408399  0.24999999  0.48816802  1
  Cl  Cl8  1  0.65182498  0.55777898  0.77043504  1
  Cl  Cl9  1  0.88138997  0.44222099  0.22956501  1
  Cl  Cl10  1  0.65182498  0.94222097  0.77043504  1
  Cl  Cl11  1  0.88138997  0.05777900  0.22956501  1
  Cl  Cl12  1  0.34817499  0.44222099  0.22956501  1
  Cl  Cl13  1  0.11861000  0.55777898  0.77043504  1
  Cl  Cl14  1  0.34817499  0.05777900  0.22956501  1
  Cs  Cs15  1  0.11861000  0.94222097  0.77043504  1
  Mo  Mo16  1  0.99103597  0.74999998  0.98207205  1
  O  O17  1  0.00896400  0.24999999  0.01792800  1
