# generated using pymatgen
data_Ga
_symmetry_space_group_name_H-M   'P 1'
_cell_length_a   3.83577704
_cell_length_b   3.83577704
_cell_length_c   8.49633312
_cell_angle_alpha   90.00000000
_cell_angle_beta   90.00000000
_cell_angle_gamma   90.00000000
_symmetry_Int_Tables_number   1
_chemical_formula_structural   Ga
_chemical_formula_sum   Ga8
_cell_volume   125.00812558
_cell_formula_units_Z   8
loop_
 _symmetry_equiv_pos_site_id
 _symmetry_equiv_pos_as_xyz
  1  'x, y, z'
loop_
 _atom_site_type_symbol
 _atom_site_label
 _atom_site_symmetry_multiplicity
 _atom_site_fract_x
 _atom_site_fract_y
 _atom_site_fract_z
 _atom_site_occupancy
  Ga  Ga0  1  0.49999999  0.49999999  0.49999999  1
  Ga  Ga1  1  0.49999999  0.49999999  0.00000000  1
  Ga  Ga2  1  0.00000000  0.00000000  0.49999999  1
  Ga  Ga3  1  0.00000000  0.49999999  0.24578600  1
  Ga  Ga4  1  0.49999999  0.00000000  0.75421399  1
  Ga  Ga5  1  0.49999999  0.00000000  0.24578600  1
  Ga  Ga6  1  0.00000000  0.49999999  0.75421399  1
  Ga  Ga7  1  0.00000000  0.00000000  0.00000000  1
