# generated using pymatgen
data_BaGe
_symmetry_space_group_name_H-M   'P 1'
_cell_length_a   4.60035515
_cell_length_b   6.39020777
_cell_length_c   8.68975258
_cell_angle_alpha   90.00000000
_cell_angle_beta   90.00000000
_cell_angle_gamma   90.00000000
_symmetry_Int_Tables_number   1
_chemical_formula_structural   BaGe
_chemical_formula_sum   'Ba4 Ge4'
_cell_volume   255.45461351
_cell_formula_units_Z   4
loop_
 _symmetry_equiv_pos_site_id
 _symmetry_equiv_pos_as_xyz
  1  'x, y, z'
loop_
 _atom_site_type_symbol
 _atom_site_label
 _atom_site_symmetry_multiplicity
 _atom_site_fract_x
 _atom_site_fract_y
 _atom_site_fract_z
 _atom_site_occupancy
  Ba  Ba0  1  0.74999998  0.88348903  0.82161804  1
  Ba  Ba1  1  0.24999999  0.11651100  0.17838201  1
  Ba  Ba2  1  0.24999999  0.38348901  0.67838203  1
  Ba  Ba3  1  0.74999998  0.61651102  0.32161802  1
  Ge  Ge4  1  0.74999998  0.10125900  0.47210602  1
  Ge  Ge5  1  0.24999999  0.89874103  0.52789403  1
  Ge  Ge6  1  0.24999999  0.60125902  0.02789400  1
  Ge  Ge7  1  0.74999998  0.39874101  0.97210605  1
