# generated using pymatgen
data_Na3Mo3O8
_symmetry_space_group_name_H-M   'P 1'
_cell_length_a   6.56267500
_cell_length_b   6.56267500
_cell_length_c   6.56267500
_cell_angle_alpha   60.00000000
_cell_angle_beta   60.00000000
_cell_angle_gamma   60.00000000
_symmetry_Int_Tables_number   1
_chemical_formula_structural   Na3Mo3O8
_chemical_formula_sum   'Na3 Mo3 O8'
_cell_volume   199.86083354
_cell_formula_units_Z   1
loop_
 _symmetry_equiv_pos_site_id
 _symmetry_equiv_pos_as_xyz
  1  'x, y, z'
loop_
 _atom_site_type_symbol
 _atom_site_label
 _atom_site_symmetry_multiplicity
 _atom_site_fract_x
 _atom_site_fract_y
 _atom_site_fract_z
 _atom_site_occupancy
  Na  Na0  1  0.37500000  0.87500000  0.87500000  1
  Na  Na1  1  0.87500000  0.87500000  0.37500000  1
  Na  Na2  1  0.87500000  0.37500000  0.87500000  1
  Mo  Mo3  1  0.87500000  0.87500000  0.87500000  1
  Mo  Mo4  1  0.50000000  0.50000000  0.50000000  1
  Mo  Mo5  1  0.25000000  0.25000000  0.25000000  1
  O  O6  1  0.13655000  0.13655100  0.13655100  1
  O  O7  1  0.61345000  0.15965200  0.61344900  1
  O  O8  1  0.15965300  0.61344900  0.61344900  1
  O  O9  1  0.61345000  0.61344900  0.15965200  1
  O  O10  1  0.59034700  0.13655100  0.13655100  1
  O  O11  1  0.13655000  0.13655100  0.59034800  1
  O  O12  1  0.61345000  0.61344900  0.61344900  1
  O  O13  1  0.13655000  0.59034800  0.13655100  1
