# generated using pymatgen
data_K3FeF10
_symmetry_space_group_name_H-M   'P 1'
_cell_length_a   5.45315933
_cell_length_b   5.45336056
_cell_length_c   6.94756365
_cell_angle_alpha   66.90730286
_cell_angle_beta   89.94763947
_cell_angle_gamma   89.88115692
_symmetry_Int_Tables_number   1
_chemical_formula_structural   K3FeF10
_chemical_formula_sum   'K3 Fe1 F10'
_cell_volume   190.05143766
_cell_formula_units_Z   1
loop_
 _symmetry_equiv_pos_site_id
 _symmetry_equiv_pos_as_xyz
  1  'x, y, z'
loop_
 _atom_site_type_symbol
 _atom_site_label
 _atom_site_symmetry_multiplicity
 _atom_site_fract_x
 _atom_site_fract_y
 _atom_site_fract_z
 _atom_site_occupancy
  F  F0  1  0.00000198  0.64237798  0.71526500  1
  K  K1  1  0.50000401  0.14233200  0.71531798  1
  K  K2  1  0.50001199  0.85704698  0.28587797  1
  K  K3  1  0.99998702  0.35721899  0.28556395  1
  F  F4  1  0.50000400  0.50376399  0.99243098  1
  Fe  Fe5  1  0.00000200  0.00360300  0.99277100  1
  F  F6  1  0.99997301  0.83321198  0.33359295  1
  F  F7  1  0.50000701  0.33333332  0.33333331  1
  F  F8  1  0.49998899  0.67377998  0.65241397  1
  F  F9  1  0.00002299  0.17390900  0.65221500  1
  F  F10  1  0.25763000  0.25324799  0.01021799  1
  F  F11  1  0.74234000  0.73654898  0.01020796  1
  F  F12  1  0.24194298  0.75261498  0.01036198  1
  F  F13  1  0.75808402  0.23700499  0.01036696  1
