# generated using pymatgen
data_Bi2O3
_symmetry_space_group_name_H-M   'P 1'
_cell_length_a   3.41134095
_cell_length_b   5.84791183
_cell_length_c   8.29417610
_cell_angle_alpha   90.00000000
_cell_angle_beta   90.00000000
_cell_angle_gamma   102.41082001
_symmetry_Int_Tables_number   1
_chemical_formula_structural   Bi2O3
_chemical_formula_sum   'Bi4 O6'
_cell_volume   161.59578073
_cell_formula_units_Z   2
loop_
 _symmetry_equiv_pos_site_id
 _symmetry_equiv_pos_as_xyz
  1  'x, y, z'
loop_
 _atom_site_type_symbol
 _atom_site_label
 _atom_site_symmetry_multiplicity
 _atom_site_fract_x
 _atom_site_fract_y
 _atom_site_fract_z
 _atom_site_occupancy
  Bi  Bi0  1  -0.00000000  0.00000000  0.49999999  1
  Bi  Bi1  1  0.00000000  0.00000000  0.00000000  1
  Bi  Bi2  1  0.36062597  0.54892299  0.25000000  1
  Bi  Bi3  1  0.63937398  0.45107699  0.74999999  1
  O  O4  1  0.94131396  0.84719298  0.25000000  1
  O  O5  1  0.05868599  0.15280700  0.74999999  1
  O  O6  1  0.59295299  0.24887599  0.46382399  1
  O  O7  1  0.40704696  0.75112398  0.96382399  1
  O  O8  1  0.40704696  0.75112398  0.53617599  1
  O  O9  1  0.59295299  0.24887599  0.03617600  1
