# generated using pymatgen
data_HfGa15
_symmetry_space_group_name_H-M   'P 1'
_cell_length_a   5.49760199
_cell_length_b   7.96150780
_cell_length_c   7.96150780
_cell_angle_alpha   120.00000000
_cell_angle_beta   90.00000000
_cell_angle_gamma   90.00000000
_symmetry_Int_Tables_number   1
_chemical_formula_structural   HfGa15
_chemical_formula_sum   'Hf1 Ga15'
_cell_volume   301.78286410
_cell_formula_units_Z   1
loop_
 _symmetry_equiv_pos_site_id
 _symmetry_equiv_pos_as_xyz
  1  'x, y, z'
loop_
 _atom_site_type_symbol
 _atom_site_label
 _atom_site_symmetry_multiplicity
 _atom_site_fract_x
 _atom_site_fract_y
 _atom_site_fract_z
 _atom_site_occupancy
  Hf  Hf0  1  0.75000000  0.75717901  0.75717899  1
  Ga  Ga1  1  0.25000000  0.75717901  -0.00000001  1
  Ga  Ga2  1  0.25000000  0.00000000  0.75717900  1
  Ga  Ga3  1  0.75000000  0.00000000  0.24282100  1
  Ga  Ga4  1  0.75000000  0.24282100  -0.00000000  1
  Ga  Ga5  1  0.25000000  0.24282100  0.24282100  1
  Ga  Ga6  1  -0.00000000  0.33333334  0.66666667  1
  Ga  Ga7  1  0.50000000  0.66666668  0.33333333  1
  Ga  Ga8  1  0.50000000  0.33333334  0.66666667  1
  Ga  Ga9  1  -0.00000000  0.66666668  0.33333333  1
  Ga  Ga10  1  0.75000000  0.40150101  0.40150100  1
  Ga  Ga11  1  0.25000000  0.59849901  0.59849900  1
  Ga  Ga12  1  0.75000000  0.00000000  0.59849900  1
  Ga  Ga13  1  0.25000000  0.00000000  0.40150100  1
  Ga  Ga14  1  0.25000000  0.40150101  -0.00000001  1
  Ga  Ga15  1  0.75000000  0.59849901  -0.00000001  1
