# generated using pymatgen
data_CoMo6S5NO2
_symmetry_space_group_name_H-M   'P 1'
_cell_length_a   6.07458019
_cell_length_b   6.07458019
_cell_length_c   6.07457972
_cell_angle_alpha   61.55458069
_cell_angle_beta   61.55458069
_cell_angle_gamma   61.55458069
_symmetry_Int_Tables_number   1
_chemical_formula_structural   CoMo6S5NO2
_chemical_formula_sum   'Co1 Mo6 S5 N1 O2'
_cell_volume   164.03065587
_cell_formula_units_Z   1
loop_
 _symmetry_equiv_pos_site_id
 _symmetry_equiv_pos_as_xyz
  1  'x, y, z'
loop_
 _atom_site_type_symbol
 _atom_site_label
 _atom_site_symmetry_multiplicity
 _atom_site_fract_x
 _atom_site_fract_y
 _atom_site_fract_z
 _atom_site_occupancy
  O  O0  1  0.00000000  0.00000000  0.00000000  1
  S  S1  1  0.49999996  0.49999998  0.00000002  1
  S  S2  1  0.49999998  0.00000000  0.50000003  1
  S  S3  1  -0.00000002  0.49999998  0.50000003  1
  S  S4  1  0.00000000  0.00000000  0.50000002  1
  N  N5  1  -0.00000002  0.49999998  1.00000005  1
  S  S6  1  0.49999998  0.00000000  0.00000001  1
  Mo  Mo7  1  0.24178098  0.24178099  0.78713604  1
  Mo  Mo8  1  0.75043594  0.75043597  0.75043606  1
  Mo  Mo9  1  0.78713596  0.24178099  0.24178103  1
  Mo  Mo10  1  0.75821896  0.21286399  0.75821904  1
  Mo  Mo11  1  0.24178096  0.78713597  0.24178103  1
  Mo  Mo12  1  0.21286397  0.75821897  0.75821905  1
  Co  Co13  1  0.24956398  0.24956399  0.24956402  1
  O  O14  1  0.75821894  0.75821897  0.21286404  1
