# generated using pymatgen
data_TbLu(CoB)8
_symmetry_space_group_name_H-M   'P 1'
_cell_length_a   5.01623201
_cell_length_b   5.01623201
_cell_length_c   6.99858713
_cell_angle_alpha   90.00000000
_cell_angle_beta   90.00000000
_cell_angle_gamma   90.00000000
_symmetry_Int_Tables_number   1
_chemical_formula_structural   TbLu(CoB)8
_chemical_formula_sum   'Tb1 Lu1 Co8 B8'
_cell_volume   176.10253389
_cell_formula_units_Z   1
loop_
 _symmetry_equiv_pos_site_id
 _symmetry_equiv_pos_as_xyz
  1  'x, y, z'
loop_
 _atom_site_type_symbol
 _atom_site_label
 _atom_site_symmetry_multiplicity
 _atom_site_fract_x
 _atom_site_fract_y
 _atom_site_fract_z
 _atom_site_occupancy
  Lu  Lu0  1  0.00000000  0.00000000  0.00000000  1
  Tb  Tb1  1  0.50000000  0.50000000  0.49999999  1
  Co  Co2  1  0.25431800  0.50000000  0.86292198  1
  Co  Co3  1  0.74568200  0.50000000  0.86292198  1
  Co  Co4  1  0.00000000  0.75431800  0.36292199  1
  Co  Co5  1  0.00000000  0.24568200  0.36292199  1
  Co  Co6  1  0.24568200  0.00000000  0.63707799  1
  Co  Co7  1  0.75431800  0.00000000  0.63707799  1
  Co  Co8  1  0.50000000  0.74568200  0.13707800  1
  Co  Co9  1  0.50000000  0.25431800  0.13707800  1
  B  B10  1  0.82551200  0.50000000  0.15812400  1
  B  B11  1  0.17448800  0.50000000  0.15812400  1
  B  B12  1  0.00000000  0.32551200  0.65812399  1
  B  B13  1  0.00000000  0.67448800  0.65812399  1
  B  B14  1  0.67448800  0.00000000  0.34187599  1
  B  B15  1  0.32551200  0.00000000  0.34187599  1
  B  B16  1  0.50000000  0.17448800  0.84187598  1
  B  B17  1  0.50000000  0.82551200  0.84187598  1
