# generated using pymatgen
data_PBrO3
_symmetry_space_group_name_H-M   'P 1'
_cell_length_a   4.54174614
_cell_length_b   4.54174614
_cell_length_c   4.54174662
_cell_angle_alpha   83.81649780
_cell_angle_beta   83.81649780
_cell_angle_gamma   83.81651306
_symmetry_Int_Tables_number   1
_chemical_formula_structural   PBrO3
_chemical_formula_sum   'P1 Br1 O3'
_cell_volume   92.15893319
_cell_formula_units_Z   1
loop_
 _symmetry_equiv_pos_site_id
 _symmetry_equiv_pos_as_xyz
  1  'x, y, z'
loop_
 _atom_site_type_symbol
 _atom_site_label
 _atom_site_symmetry_multiplicity
 _atom_site_fract_x
 _atom_site_fract_y
 _atom_site_fract_z
 _atom_site_occupancy
  P  P0  1  0.99537503  0.99537500  0.99537496  1
  Br  Br1  1  0.49552701  0.49552700  0.49552698  1
  O  O2  1  0.86869601  0.42770100  0.42770097  1
  O  O3  1  0.42770101  0.42770100  0.86869599  1
  O  O4  1  0.42770102  0.86869600  0.42770097  1
