# generated using pymatgen
data_Ba2Mg6O9
_symmetry_space_group_name_H-M   'P 1'
_cell_length_a   5.59067822
_cell_length_b   5.59067869
_cell_length_c   8.56275558
_cell_angle_alpha   90.00000000
_cell_angle_beta   90.00000000
_cell_angle_gamma   119.99999237
_symmetry_Int_Tables_number   1
_chemical_formula_structural   Ba2Mg6O9
_chemical_formula_sum   'Ba2 Mg6 O9'
_cell_volume   231.77855024
_cell_formula_units_Z   1
loop_
 _symmetry_equiv_pos_site_id
 _symmetry_equiv_pos_as_xyz
  1  'x, y, z'
loop_
 _atom_site_type_symbol
 _atom_site_label
 _atom_site_symmetry_multiplicity
 _atom_site_fract_x
 _atom_site_fract_y
 _atom_site_fract_z
 _atom_site_occupancy
  Ba  Ba0  1  0.00000000  0.00000000  0.29537501  1
  Ba  Ba1  1  0.00000000  0.00000000  0.70462503  1
  Mg  Mg2  1  0.33333328  0.66666665  -0.00000000  1
  Mg  Mg3  1  0.66666662  0.33333332  -0.00000000  1
  Mg  Mg4  1  0.33333328  0.66666665  0.33260902  1
  Mg  Mg5  1  0.66666662  0.33333332  0.33260902  1
  Mg  Mg6  1  0.66666662  0.33333332  0.66739103  1
  Mg  Mg7  1  0.33333328  0.66666665  0.66739103  1
  O  O8  1  0.49999998  0.00000000  0.16438701  1
  O  O9  1  0.49999995  0.49999999  0.16438701  1
  O  O10  1  -0.00000003  0.49999999  0.16438701  1
  O  O11  1  0.49999998  0.00000000  0.83561304  1
  O  O12  1  0.49999995  0.49999999  0.83561304  1
  O  O13  1  -0.00000003  0.49999999  0.83561304  1
  O  O14  1  0.49999998  0.00000000  0.50000002  1
  O  O15  1  0.49999995  0.49999999  0.50000002  1
  O  O16  1  -0.00000003  0.49999999  0.50000002  1
