# generated using pymatgen
data_InTe
_symmetry_space_group_name_H-M   'P 1'
_cell_length_a   4.41488981
_cell_length_b   4.41488981
_cell_length_c   12.39927578
_cell_angle_alpha   100.23083496
_cell_angle_beta   100.23083496
_cell_angle_gamma   90.13381195
_symmetry_Int_Tables_number   1
_chemical_formula_structural   InTe
_chemical_formula_sum   'In2 Te2'
_cell_volume   233.90995713
_cell_formula_units_Z   2
loop_
 _symmetry_equiv_pos_site_id
 _symmetry_equiv_pos_as_xyz
  1  'x, y, z'
loop_
 _atom_site_type_symbol
 _atom_site_label
 _atom_site_symmetry_multiplicity
 _atom_site_fract_x
 _atom_site_fract_y
 _atom_site_fract_z
 _atom_site_occupancy
  Te  Te0  1  0.19073000  0.19473301  0.38546301  1
  Te  Te1  1  0.80526699  0.80927003  0.61453701  1
  In  In2  1  0.67442299  0.70441902  0.37884201  1
  In  In3  1  0.29558100  0.32557701  0.62115801  1
