# generated using pymatgen
data_InTe
_symmetry_space_group_name_H-M   'P 1'
_cell_length_a   6.62041712
_cell_length_b   6.62041712
_cell_length_c   13.00611496
_cell_angle_alpha   90.00000000
_cell_angle_beta   90.00000000
_cell_angle_gamma   90.00000000
_symmetry_Int_Tables_number   1
_chemical_formula_structural   InTe
_chemical_formula_sum   'In8 Te8'
_cell_volume   570.05701484
_cell_formula_units_Z   8
loop_
 _symmetry_equiv_pos_site_id
 _symmetry_equiv_pos_as_xyz
  1  'x, y, z'
loop_
 _atom_site_type_symbol
 _atom_site_label
 _atom_site_symmetry_multiplicity
 _atom_site_fract_x
 _atom_site_fract_y
 _atom_site_fract_z
 _atom_site_occupancy
  Te  Te0  1  0.49999999  0.00000000  0.24922500  1
  Te  Te1  1  0.00000000  0.49999999  0.75077500  1
  Te  Te2  1  0.49999999  0.49999999  -0.00000000  1
  Te  Te3  1  0.00000000  0.49999999  0.24948500  1
  Te  Te4  1  0.49999999  0.00000000  0.75051500  1
  Te  Te5  1  0.00000000  0.00000000  0.00000000  1
  Te  Te6  1  0.49999999  0.49999999  0.50000000  1
  Te  Te7  1  0.00000000  0.00000000  0.50000000  1
  In  In8  1  0.75378499  0.25223700  0.37151600  1
  In  In9  1  0.24901000  0.75617099  0.87533300  1
  In  In10  1  0.24621500  0.74776299  0.37151600  1
  In  In11  1  0.75098999  0.24382900  0.87533300  1
  In  In12  1  0.24382900  0.24901000  0.12466700  1
  In  In13  1  0.74776299  0.75378499  0.62848400  1
  In  In14  1  0.75617099  0.75098999  0.12466700  1
  In  In15  1  0.25223700  0.24621500  0.62848400  1
