# generated using pymatgen
data_CsSe2
_symmetry_space_group_name_H-M   'P 1'
_cell_length_a   4.07315016
_cell_length_b   7.55981684
_cell_length_c   8.16461086
_cell_angle_alpha   105.57264709
_cell_angle_beta   90.00000000
_cell_angle_gamma   105.62825775
_symmetry_Int_Tables_number   1
_chemical_formula_structural   CsSe2
_chemical_formula_sum   'Cs2 Se4'
_cell_volume   232.51477521
_cell_formula_units_Z   2
loop_
 _symmetry_equiv_pos_site_id
 _symmetry_equiv_pos_as_xyz
  1  'x, y, z'
loop_
 _atom_site_type_symbol
 _atom_site_label
 _atom_site_symmetry_multiplicity
 _atom_site_fract_x
 _atom_site_fract_y
 _atom_site_fract_z
 _atom_site_occupancy
  Cs  Cs0  1  0.14865702  0.29731400  0.57009600  1
  Cs  Cs1  1  0.85134304  0.70268599  0.42990400  1
  Se  Se2  1  0.15692403  0.31384800  0.08216100  1
  Se  Se3  1  0.84307604  0.68615199  0.91783900  1
  Se  Se4  1  0.50300598  0.00601200  0.76225900  1
  Se  Se5  1  0.49699408  0.99398799  0.23774100  1
