# generated using pymatgen
data_ThCoB7
_symmetry_space_group_name_H-M   'P 1'
_cell_length_a   4.22154522
_cell_length_b   4.22154522
_cell_length_c   4.60483408
_cell_angle_alpha   90.00000000
_cell_angle_beta   90.00000000
_cell_angle_gamma   90.00000000
_symmetry_Int_Tables_number   1
_chemical_formula_structural   ThCoB7
_chemical_formula_sum   'Th1 Co1 B7'
_cell_volume   82.06479286
_cell_formula_units_Z   1
loop_
 _symmetry_equiv_pos_site_id
 _symmetry_equiv_pos_as_xyz
  1  'x, y, z'
loop_
 _atom_site_type_symbol
 _atom_site_label
 _atom_site_symmetry_multiplicity
 _atom_site_fract_x
 _atom_site_fract_y
 _atom_site_fract_z
 _atom_site_occupancy
  B  B0  1  0.74356896  0.25643099  0.25414500  1
  B  B1  1  0.25643099  0.74356896  0.25414500  1
  B  B2  1  0.25643099  0.25643099  0.74585499  1
  Th  Th3  1  0.74356896  0.74356896  0.74585499  1
  Co  Co4  1  0.49999997  0.00000000  -0.00000000  1
  B  B5  1  0.49999997  0.00000000  0.49999999  1
  B  B6  1  -0.00000000  0.49999997  -0.00000000  1
  B  B7  1  -0.00000000  0.49999997  0.49999999  1
  B  B8  1  0.00000000  0.00000000  0.00000000  1
