# generated using pymatgen
data_Ba(WO2)2
_symmetry_space_group_name_H-M   'P 1'
_cell_length_a   4.79660320
_cell_length_b   5.51281309
_cell_length_c   8.15928936
_cell_angle_alpha   102.84465027
_cell_angle_beta   90.00000000
_cell_angle_gamma   90.00000000
_symmetry_Int_Tables_number   1
_chemical_formula_structural   Ba(WO2)2
_chemical_formula_sum   'Ba2 W4 O8'
_cell_volume   210.35532140
_cell_formula_units_Z   2
loop_
 _symmetry_equiv_pos_site_id
 _symmetry_equiv_pos_as_xyz
  1  'x, y, z'
loop_
 _atom_site_type_symbol
 _atom_site_label
 _atom_site_symmetry_multiplicity
 _atom_site_fract_x
 _atom_site_fract_y
 _atom_site_fract_z
 _atom_site_occupancy
  W  W0  1  0.11482200  0.12972600  0.37276502  1
  W  W1  1  0.61482197  0.87027399  0.62723505  1
  W  W2  1  0.50833098  0.25640500  0.01017701  1
  W  W3  1  0.00833100  0.74359499  0.98982306  1
  O  O4  1  0.95788996  0.87983599  0.51212204  1
  O  O5  1  0.45788998  0.12016400  0.48787802  1
  O  O6  1  0.82866896  0.67258199  0.77797805  1
  O  O7  1  0.32866899  0.32741800  0.22202202  1
  Ba  Ba8  1  0.19950899  0.82476399  0.20784403  1
  Ba  Ba9  1  0.69950897  0.17523600  0.79215604  1
  O  O10  1  0.27476999  0.96492899  0.90233606  1
  O  O11  1  0.77476997  0.03507100  0.09766400  1
  O  O12  1  0.26449899  0.46866800  0.90710605  1
  O  O13  1  0.76449897  0.53133200  0.09289402  1
