# generated using pymatgen
data_SbMoBr8
_symmetry_space_group_name_H-M   'P 1'
_cell_length_a   6.80460215
_cell_length_b   6.81788588
_cell_length_c   7.61142015
_cell_angle_alpha   79.94689941
_cell_angle_beta   69.52471924
_cell_angle_gamma   60.06443024
_symmetry_Int_Tables_number   1
_chemical_formula_structural   SbMoBr8
_chemical_formula_sum   'Sb1 Mo1 Br8'
_cell_volume   286.67381292
_cell_formula_units_Z   1
loop_
 _symmetry_equiv_pos_site_id
 _symmetry_equiv_pos_as_xyz
  1  'x, y, z'
loop_
 _atom_site_type_symbol
 _atom_site_label
 _atom_site_symmetry_multiplicity
 _atom_site_fract_x
 _atom_site_fract_y
 _atom_site_fract_z
 _atom_site_occupancy
  Mo  Mo0  1  0.87374700  0.25250600  -0.00000004  1
  Sb  Sb1  1  0.12625299  0.74749399  0.00000001  1
  Br  Br2  1  0.13144298  0.99999999  0.69195001  1
  Br  Br3  1  0.33980700  0.00000000  0.87466897  1
  Br  Br4  1  0.66019298  0.99999999  0.12533098  1
  Br  Br5  1  0.86855698  0.99999999  0.30804997  1
  Br  Br6  1  0.43131099  0.58279499  0.21695199  1
  Br  Br7  1  0.56868899  0.41720500  0.78304797  1
  Br  Br8  1  0.01410599  0.41720500  0.21695201  1
  Br  Br9  1  0.98589399  0.58279499  0.78304795  1
