# generated using pymatgen
data_BaSr3Sm2(SbO6)2
_symmetry_space_group_name_H-M   'P 1'
_cell_length_a   5.82666636
_cell_length_b   5.97165585
_cell_length_c   8.33813190
_cell_angle_alpha   90.00000000
_cell_angle_beta   90.38387299
_cell_angle_gamma   90.00000000
_symmetry_Int_Tables_number   1
_chemical_formula_structural   BaSr3Sm2(SbO6)2
_chemical_formula_sum   'Ba1 Sr3 Sm2 Sb2 O12'
_cell_volume   290.11750571
_cell_formula_units_Z   1
loop_
 _symmetry_equiv_pos_site_id
 _symmetry_equiv_pos_as_xyz
  1  'x, y, z'
loop_
 _atom_site_type_symbol
 _atom_site_label
 _atom_site_symmetry_multiplicity
 _atom_site_fract_x
 _atom_site_fract_y
 _atom_site_fract_z
 _atom_site_occupancy
  Sr  Sr0  1  0.48837998  0.54212301  0.25187701  1
  Ba  Ba1  1  0.98837997  0.95787702  0.75187703  1
  Sm  Sm2  1  0.00098600  0.50522801  0.50020902  1
  Sm  Sm3  1  0.50098598  0.99477203  0.00020900  1
  Sr  Sr4  1  0.51650598  0.44793901  0.75060603  1
  Sr  Sr5  1  0.01650600  0.05206100  0.25060601  1
  Sb  Sb6  1  0.50021098  0.99978003  0.50008902  1
  Sb  Sb7  1  0.00021100  0.50022001  0.00008900  1
  O  O8  1  0.61415798  0.96904703  0.27112701  1
  O  O9  1  0.11415800  0.53095301  0.77112703  1
  O  O10  1  0.40841799  0.04222200  0.73126703  1
  O  O11  1  0.90841797  0.45777801  0.23126700  1
  O  O12  1  0.17362099  0.78325502  0.05892200  1
  O  O13  1  0.67362098  0.71674502  0.55892202  1
  O  O14  1  0.80664697  0.22915601  0.94264504  1
  O  O15  1  0.30664699  0.27084401  0.44264502  1
  O  O16  1  0.22024899  0.81719102  0.44375902  1
  O  O17  1  0.72024897  0.68280902  0.94375904  1
  O  O18  1  0.77082297  0.19861001  0.54949902  1
  O  O19  1  0.27082299  0.30139001  0.04949900  1
