# generated using pymatgen
data_Ga
_symmetry_space_group_name_H-M   'P 1'
_cell_length_a   4.06170225
_cell_length_b   4.06170225
_cell_length_c   7.18136358
_cell_angle_alpha   73.57292175
_cell_angle_beta   73.57292175
_cell_angle_gamma   59.99999619
_symmetry_Int_Tables_number   1
_chemical_formula_structural   Ga
_chemical_formula_sum   Ga6
_cell_volume   96.97711300
_cell_formula_units_Z   6
loop_
 _symmetry_equiv_pos_site_id
 _symmetry_equiv_pos_as_xyz
  1  'x, y, z'
loop_
 _atom_site_type_symbol
 _atom_site_label
 _atom_site_symmetry_multiplicity
 _atom_site_fract_x
 _atom_site_fract_y
 _atom_site_fract_z
 _atom_site_occupancy
  Ga  Ga0  1  0.74127099  0.74127100  0.77618704  1
  Ga  Ga1  1  0.25872900  0.25872900  0.22381301  1
  Ga  Ga2  1  0.62333000  0.62333000  0.13001003  1
  Ga  Ga3  1  0.37667000  0.37667000  0.86999002  1
  Ga  Ga4  1  0.12875800  0.12875800  0.61372601  1
  Ga  Ga5  1  0.87124199  0.87124200  0.38627404  1
