# generated using pymatgen
data_Ba3CuCl9
_symmetry_space_group_name_H-M   'P 1'
_cell_length_a   4.49877024
_cell_length_b   4.52441311
_cell_length_c   17.19645309
_cell_angle_alpha   90.00000000
_cell_angle_beta   90.00000000
_cell_angle_gamma   90.00000000
_symmetry_Int_Tables_number   1
_chemical_formula_structural   Ba3CuCl9
_chemical_formula_sum   'Ba3 Cu1 Cl9'
_cell_volume   350.02167982
_cell_formula_units_Z   1
loop_
 _symmetry_equiv_pos_site_id
 _symmetry_equiv_pos_as_xyz
  1  'x, y, z'
loop_
 _atom_site_type_symbol
 _atom_site_label
 _atom_site_symmetry_multiplicity
 _atom_site_fract_x
 _atom_site_fract_y
 _atom_site_fract_z
 _atom_site_occupancy
  Ba  Ba0  1  0.24999999  0.00000000  0.39832900  1
  Ba  Ba1  1  0.24999999  0.49999999  0.89480700  1
  Cl  Cl2  1  0.74999996  0.49999999  0.10625900  1
  Ba  Ba3  1  0.74999996  0.00000000  0.60225000  1
  Cu  Cu4  1  0.24999999  0.00000000  0.19333500  1
  Cl  Cl5  1  0.24999999  0.49999999  0.25958200  1
  Cl  Cl6  1  0.24999999  0.00000000  0.74812000  1
  Cl  Cl7  1  0.74999996  0.00000000  0.26027700  1
  Cl  Cl8  1  0.74999996  0.49999999  0.74947200  1
  Cl  Cl9  1  0.24999999  0.00000000  0.04925900  1
  Cl  Cl10  1  0.24999999  0.49999999  0.56151200  1
  Cl  Cl11  1  0.74999996  0.49999999  0.43758100  1
  Cl  Cl12  1  0.74999996  0.00000000  0.93621699  1
