# generated using pymatgen
data_IBr13
_symmetry_space_group_name_H-M   'P 1'
_cell_length_a   8.59063435
_cell_length_b   8.59063435
_cell_length_c   8.59063435
_cell_angle_alpha   109.47122192
_cell_angle_beta   109.47122192
_cell_angle_gamma   109.47122192
_symmetry_Int_Tables_number   1
_chemical_formula_structural   IBr13
_chemical_formula_sum   'I1 Br13'
_cell_volume   488.03817062
_cell_formula_units_Z   1
loop_
 _symmetry_equiv_pos_site_id
 _symmetry_equiv_pos_as_xyz
  1  'x, y, z'
loop_
 _atom_site_type_symbol
 _atom_site_label
 _atom_site_symmetry_multiplicity
 _atom_site_fract_x
 _atom_site_fract_y
 _atom_site_fract_z
 _atom_site_occupancy
  I  I0  1  0.25000003  0.43610801  0.18610803  1
  Br  Br1  1  0.68610801  0.25000101  0.93610802  1
  Br  Br2  1  0.43610804  0.68610802  0.75000104  1
  Br  Br3  1  0.81389305  0.75000102  0.56389306  1
  Br  Br4  1  0.06389305  0.81389302  0.25000004  1
  Br  Br5  1  0.75000000  0.06389300  0.31389302  1
  Br  Br6  1  0.04441900  0.04441900  0.54441900  1
  Br  Br7  1  0.50000003  0.45558101  0.50000003  1
  Br  Br8  1  0.45558100  0.00000000  0.00000001  1
  Br  Br9  1  0.00000003  0.50000001  0.95558102  1
  Br  Br10  1  0.50970203  0.50970202  0.00970204  1
  Br  Br11  1  0.50000006  0.99029803  0.50000006  1
  Br  Br12  1  0.00000003  0.50000001  0.49029802  1
  Br  Br13  1  0.99029806  1.00000003  0.00000008  1
