# generated using pymatgen
data_BaLa3Mo3S13
_symmetry_space_group_name_H-M   'P 1'
_cell_length_a   3.97624803
_cell_length_b   8.14979839
_cell_length_c   13.64741802
_cell_angle_alpha   90.00000000
_cell_angle_beta   90.00000000
_cell_angle_gamma   90.00000000
_symmetry_Int_Tables_number   1
_chemical_formula_structural   BaLa3Mo3S13
_chemical_formula_sum   'Ba1 La3 Mo3 S13'
_cell_volume   442.25303930
_cell_formula_units_Z   1
loop_
 _symmetry_equiv_pos_site_id
 _symmetry_equiv_pos_as_xyz
  1  'x, y, z'
loop_
 _atom_site_type_symbol
 _atom_site_label
 _atom_site_symmetry_multiplicity
 _atom_site_fract_x
 _atom_site_fract_y
 _atom_site_fract_z
 _atom_site_occupancy
  Ba  Ba0  1  0.25000000  0.09433700  0.17195400  1
  La  La1  1  0.75000000  0.90566296  0.82804600  1
  La  La2  1  0.25000000  0.59433697  0.32804600  1
  La  La3  1  0.75000000  0.40566298  0.67195400  1
  S  S4  1  0.25000000  0.33871198  0.94800200  1
  Mo  Mo5  1  0.75000000  0.66128797  0.05199800  1
  Mo  Mo6  1  0.25000000  0.83871196  0.55199800  1
  Mo  Mo7  1  0.75000000  0.16128799  0.44800200  1
  S  S8  1  0.75000000  0.01440500  0.60932300  1
  S  S9  1  0.25000000  0.98559495  0.39067700  1
  S  S10  1  0.75000000  0.51440498  0.89067700  1
  S  S11  1  0.25000000  0.48559498  0.10932300  1
  S  S12  1  0.75000000  0.31152298  0.28645100  1
  S  S13  1  0.25000000  0.68847697  0.71354900  1
  S  S14  1  0.75000000  0.81152296  0.21354900  1
  S  S15  1  0.25000000  0.18847699  0.78645100  1
  S  S16  1  0.75000000  0.15703399  0.00560300  1
  S  S17  1  0.25000000  0.84296596  0.99439700  1
  S  S18  1  0.75000000  0.65703397  0.49439700  1
  S  S19  1  0.25000000  0.34296598  0.50560300  1
