# generated using pymatgen
data_Ba3Th2S9
_symmetry_space_group_name_H-M   'P 1'
_cell_length_a   4.39112282
_cell_length_b   7.67307901
_cell_length_c   12.86186218
_cell_angle_alpha   92.39855957
_cell_angle_beta   90.00000000
_cell_angle_gamma   90.00000000
_symmetry_Int_Tables_number   1
_chemical_formula_structural   Ba3Th2S9
_chemical_formula_sum   'Ba3 Th2 S9'
_cell_volume   432.98060873
_cell_formula_units_Z   1
loop_
 _symmetry_equiv_pos_site_id
 _symmetry_equiv_pos_as_xyz
  1  'x, y, z'
loop_
 _atom_site_type_symbol
 _atom_site_label
 _atom_site_symmetry_multiplicity
 _atom_site_fract_x
 _atom_site_fract_y
 _atom_site_fract_z
 _atom_site_occupancy
  Ba  Ba0  1  0.75000003  0.05620100  0.85095102  1
  S  S1  1  0.25000001  0.94379900  0.14904900  1
  Th  Th2  1  0.25000001  0.43151200  0.65788601  1
  Th  Th3  1  0.75000003  0.56848800  0.34211400  1
  S  S4  1  0.25000001  0.06865900  0.67054702  1
  Ba  Ba5  1  0.75000003  0.14710800  0.07477600  1
  S  S6  1  0.75000003  0.32333500  0.51960601  1
  S  S7  1  0.25000001  0.35292500  0.86658502  1
  S  S8  1  0.25000001  0.35483500  0.28046500  1
  S  S9  1  0.75000003  0.64516500  0.71953501  1
  S  S10  1  0.75000003  0.64707500  0.13341500  1
  S  S11  1  0.25000001  0.67666500  0.48039401  1
  Ba  Ba12  1  0.25000001  0.85289200  0.92522402  1
  S  S13  1  0.75000003  0.93134100  0.32945300  1
