# generated using pymatgen
data_Ho
_symmetry_space_group_name_H-M   'P 1'
_cell_length_a   5.92435408
_cell_length_b   7.30101585
_cell_length_c   7.30101585
_cell_angle_alpha   120.00000000
_cell_angle_beta   90.00000000
_cell_angle_gamma   90.00000000
_symmetry_Int_Tables_number   1
_chemical_formula_structural   Ho
_chemical_formula_sum   Ho8
_cell_volume   273.48796611
_cell_formula_units_Z   8
loop_
 _symmetry_equiv_pos_site_id
 _symmetry_equiv_pos_as_xyz
  1  'x, y, z'
loop_
 _atom_site_type_symbol
 _atom_site_label
 _atom_site_symmetry_multiplicity
 _atom_site_fract_x
 _atom_site_fract_y
 _atom_site_fract_z
 _atom_site_occupancy
  Ho  Ho0  1  0.74999999  0.83248201  0.16751797  1
  Ho  Ho1  1  0.74999999  0.33503600  0.16751799  1
  Ho  Ho2  1  0.74999999  0.83248201  0.66496397  1
  Ho  Ho3  1  0.25000000  0.16751800  0.83248198  1
  Ho  Ho4  1  0.25000000  0.66496400  0.83248197  1
  Ho  Ho5  1  0.25000000  0.16751800  0.33503599  1
  Ho  Ho6  1  0.25000000  0.66666667  0.33333331  1
  Ho  Ho7  1  0.74999999  0.33333334  0.66666664  1
