# generated using pymatgen
data_Tb4Ge7P
_symmetry_space_group_name_H-M   'P 1'
_cell_length_a   6.21488190
_cell_length_b   6.98609781
_cell_length_c   8.37418175
_cell_angle_alpha   114.65296936
_cell_angle_beta   111.78186798
_cell_angle_gamma   90.00000000
_symmetry_Int_Tables_number   1
_chemical_formula_structural   Tb4Ge7P
_chemical_formula_sum   'Tb4 Ge7 P1'
_cell_volume   301.64992943
_cell_formula_units_Z   1
loop_
 _symmetry_equiv_pos_site_id
 _symmetry_equiv_pos_as_xyz
  1  'x, y, z'
loop_
 _atom_site_type_symbol
 _atom_site_label
 _atom_site_symmetry_multiplicity
 _atom_site_fract_x
 _atom_site_fract_y
 _atom_site_fract_z
 _atom_site_occupancy
  Ge  Ge0  1  0.40650401  0.08278200  0.81300800  1
  Ge  Ge1  1  0.59349599  0.91721801  0.18699197  1
  Ge  Ge2  1  0.09349600  0.26977400  0.18699199  1
  Ge  Ge3  1  0.90650400  0.73022600  0.81300798  1
  Ge  Ge4  1  0.25000000  0.00000000  0.00000000  1
  P  P5  1  0.75000001  0.00000000  1.00000001  1
  Tb  Tb6  1  0.24999999  0.50000000  -0.00000002  1
  Ge  Ge7  1  0.75000000  0.50000000  -0.00000002  1
  Tb  Tb8  1  0.19829300  0.01191600  0.39658600  1
  Ge  Ge9  1  0.80170700  0.98808401  0.60341397  1
  Tb  Tb10  1  0.30170699  0.61533000  0.60341398  1
  Tb  Tb11  1  0.69829301  0.38467000  0.39658599  1
