# generated using pymatgen
data_Ge3F8
_symmetry_space_group_name_H-M   'P 1'
_cell_length_a   3.72321606
_cell_length_b   4.31341696
_cell_length_c   9.71979141
_cell_angle_alpha   89.74851227
_cell_angle_beta   101.04194641
_cell_angle_gamma   90.00000000
_symmetry_Int_Tables_number   1
_chemical_formula_structural   Ge3F8
_chemical_formula_sum   'Ge3 F8'
_cell_volume   153.20640970
_cell_formula_units_Z   1
loop_
 _symmetry_equiv_pos_site_id
 _symmetry_equiv_pos_as_xyz
  1  'x, y, z'
loop_
 _atom_site_type_symbol
 _atom_site_label
 _atom_site_symmetry_multiplicity
 _atom_site_fract_x
 _atom_site_fract_y
 _atom_site_fract_z
 _atom_site_occupancy
  Ge  Ge0  1  0.16374300  0.10549000  0.32748600  1
  Ge  Ge1  1  0.78427500  0.89584704  0.56855001  1
  Ge  Ge2  1  0.97343099  0.10265800  0.94686199  1
  F  F3  1  0.68286699  0.00910600  0.36573400  1
  F  F4  1  0.26554300  0.99116004  0.53108600  1
  F  F5  1  0.16202300  0.48077802  0.32404600  1
  F  F6  1  0.78642599  0.52064302  0.57285200  1
  F  F7  1  0.07225700  0.00551900  0.14451400  1
  F  F8  1  0.87543199  0.00498000  0.75086399  1
  F  F9  1  0.97317299  0.50217602  0.94634600  1
  F  F10  1  0.47402999  0.01654300  0.94805999  1
