# generated using pymatgen
data_Mn6O7F
_symmetry_space_group_name_H-M   'P 1'
_cell_length_a   5.82318401
_cell_length_b   6.12738562
_cell_length_c   6.12738562
_cell_angle_alpha   60.87974548
_cell_angle_beta   61.62913132
_cell_angle_gamma   61.62913132
_symmetry_Int_Tables_number   1
_chemical_formula_structural   Mn6O7F
_chemical_formula_sum   'Mn6 O7 F1'
_cell_volume   159.36851173
_cell_formula_units_Z   1
loop_
 _symmetry_equiv_pos_site_id
 _symmetry_equiv_pos_as_xyz
  1  'x, y, z'
loop_
 _atom_site_type_symbol
 _atom_site_label
 _atom_site_symmetry_multiplicity
 _atom_site_fract_x
 _atom_site_fract_y
 _atom_site_fract_z
 _atom_site_occupancy
  Mn  Mn0  1  0.87406699  0.87593298  0.37593301  1
  Mn  Mn1  1  0.12593300  0.12406700  0.62406699  1
  Mn  Mn2  1  -0.00000001  0.49999999  1.00000000  1
  Mn  Mn3  1  0.49999999  0.49999999  0.00000001  1
  Mn  Mn4  1  0.49999999  0.49999999  0.50000000  1
  Mn  Mn5  1  0.50000000  0.00000000  0.99999998  1
  O  O6  1  0.74116599  0.74445798  0.24445801  1
  O  O7  1  0.74009000  0.30130399  0.21851600  1
  F  F8  1  0.74008999  0.71851598  0.80130400  1
  O  O9  1  0.26991799  0.74445898  0.24445802  1
  O  O10  1  0.73008200  0.25554099  0.75554199  1
  O  O11  1  0.25990999  0.69869598  0.78148400  1
  O  O12  1  0.25991000  0.28148399  0.19869600  1
  O  O13  1  0.25883400  0.25554199  0.75554199  1
