# generated using pymatgen
data_Tb2InGe3
_symmetry_space_group_name_H-M   'P 1'
_cell_length_a   4.89433908
_cell_length_b   7.40211821
_cell_length_c   7.69573593
_cell_angle_alpha   90.00000000
_cell_angle_beta   90.00000000
_cell_angle_gamma   90.00000000
_symmetry_Int_Tables_number   1
_chemical_formula_structural   Tb2InGe3
_chemical_formula_sum   'Tb4 In2 Ge6'
_cell_volume   278.80478792
_cell_formula_units_Z   2
loop_
 _symmetry_equiv_pos_site_id
 _symmetry_equiv_pos_as_xyz
  1  'x, y, z'
loop_
 _atom_site_type_symbol
 _atom_site_label
 _atom_site_symmetry_multiplicity
 _atom_site_fract_x
 _atom_site_fract_y
 _atom_site_fract_z
 _atom_site_occupancy
  Tb  Tb0  1  0.25000000  0.80915198  0.46818900  1
  Tb  Tb1  1  0.74999999  0.19084799  0.53181100  1
  Tb  Tb2  1  0.74999999  0.30915199  0.03181100  1
  Tb  Tb3  1  0.25000000  0.69084798  0.96818901  1
  In  In4  1  0.74999999  0.61269498  0.69547901  1
  Ge  Ge5  1  0.74999999  0.88730498  0.19547900  1
  Ge  Ge6  1  0.25000000  0.11269500  0.80452101  1
  In  In7  1  0.25000000  0.38730499  0.30452100  1
  Ge  Ge8  1  0.74999999  0.55699198  0.34894600  1
  Ge  Ge9  1  0.74999999  0.94300797  0.84894601  1
  Ge  Ge10  1  0.25000000  0.05699200  0.15105400  1
  Ge  Ge11  1  0.25000000  0.44300799  0.65105401  1
