# generated using pymatgen
data_Cs3LiF6
_symmetry_space_group_name_H-M   'P 1'
_cell_length_a   6.25848866
_cell_length_b   6.25848866
_cell_length_c   6.25848866
_cell_angle_alpha   60.59526443
_cell_angle_beta   60.59526443
_cell_angle_gamma   60.59526062
_symmetry_Int_Tables_number   1
_chemical_formula_structural   Cs3LiF6
_chemical_formula_sum   'Cs3 Li1 F6'
_cell_volume   175.66829015
_cell_formula_units_Z   1
loop_
 _symmetry_equiv_pos_site_id
 _symmetry_equiv_pos_as_xyz
  1  'x, y, z'
loop_
 _atom_site_type_symbol
 _atom_site_label
 _atom_site_symmetry_multiplicity
 _atom_site_fract_x
 _atom_site_fract_y
 _atom_site_fract_z
 _atom_site_occupancy
  Cs  Cs0  1  0.75000004  0.75000002  0.74999995  1
  Cs  Cs1  1  0.25000001  0.25000001  0.24999998  1
  Cs  Cs2  1  0.00000000  0.00000000  0.00000000  1
  Li  Li3  1  0.50000003  0.50000002  0.49999997  1
  F  F4  1  0.75000003  0.18178301  0.31821697  1
  F  F5  1  0.18178301  0.31821701  0.74999997  1
  F  F6  1  0.31821703  0.75000002  0.18178297  1
  F  F7  1  0.25000003  0.81821703  0.68178296  1
  F  F8  1  0.68178303  0.25000001  0.81821696  1
  F  F9  1  0.81821704  0.68178302  0.24999996  1
