# generated using pymatgen
data_CsHg3Cl4
_symmetry_space_group_name_H-M   'P 1'
_cell_length_a   4.28305817
_cell_length_b   4.28305721
_cell_length_c   16.18898392
_cell_angle_alpha   90.00000000
_cell_angle_beta   90.00000000
_cell_angle_gamma   120.00000763
_symmetry_Int_Tables_number   1
_chemical_formula_structural   CsHg3Cl4
_chemical_formula_sum   'Cs1 Hg3 Cl4'
_cell_volume   257.19234490
_cell_formula_units_Z   1
loop_
 _symmetry_equiv_pos_site_id
 _symmetry_equiv_pos_as_xyz
  1  'x, y, z'
loop_
 _atom_site_type_symbol
 _atom_site_label
 _atom_site_symmetry_multiplicity
 _atom_site_fract_x
 _atom_site_fract_y
 _atom_site_fract_z
 _atom_site_occupancy
  Cs  Cs0  1  0.33333333  0.66666665  0.25000000  1
  Hg  Hg1  1  0.66666664  0.33333333  0.75000000  1
  Hg  Hg2  1  0.00000000  0.00000000  0.00000000  1
  Hg  Hg3  1  0.00000000  0.00000000  0.50000000  1
  Cl  Cl4  1  0.66666664  0.33333333  0.09401600  1
  Cl  Cl5  1  0.33333333  0.66666665  0.59401600  1
  Cl  Cl6  1  0.66666664  0.33333333  0.40598400  1
  Cl  Cl7  1  0.33333333  0.66666665  0.90598400  1
