# generated using pymatgen
data_LiMn5F12
_symmetry_space_group_name_H-M   'P 1'
_cell_length_a   4.71229219
_cell_length_b   4.72026300
_cell_length_c   9.38961887
_cell_angle_alpha   90.00366211
_cell_angle_beta   89.86465454
_cell_angle_gamma   89.99978638
_symmetry_Int_Tables_number   1
_chemical_formula_structural   LiMn5F12
_chemical_formula_sum   'Li1 Mn5 F12'
_cell_volume   208.85513677
_cell_formula_units_Z   1
loop_
 _symmetry_equiv_pos_site_id
 _symmetry_equiv_pos_as_xyz
  1  'x, y, z'
loop_
 _atom_site_type_symbol
 _atom_site_label
 _atom_site_symmetry_multiplicity
 _atom_site_fract_x
 _atom_site_fract_y
 _atom_site_fract_z
 _atom_site_occupancy
  Mn  Mn0  1  0.02956705  0.96361400  0.99983597  1
  Mn  Mn1  1  0.97178101  0.02171500  0.66782101  1
  Mn  Mn2  1  0.96206101  0.01261800  0.33282802  1
  Mn  Mn3  1  0.47044703  0.46360800  0.83348299  1
  Mn  Mn4  1  0.52821903  0.52172100  0.16551201  1
  Li  Li5  1  0.53795903  0.51261000  0.50051400  1
  F  F6  1  0.80437905  0.81796200  0.50165000  1
  F  F7  1  0.81505805  0.80996600  0.16409401  1
  F  F8  1  0.68494802  0.30996700  0.66926500  1
  F  F9  1  0.69561902  0.31797400  0.33167201  1
  F  F10  1  0.31655904  0.67268700  0.99961598  1
  F  F11  1  0.18347001  0.17265600  0.83370598  1
  F  F12  1  0.79096805  0.78417100  0.83352100  1
  F  F13  1  0.70902502  0.28409300  0.99979899  1
  F  F14  1  0.28799904  0.69768000  0.66574298  1
  F  F15  1  0.30556704  0.71957100  0.33398299  1
  F  F16  1  0.21196301  0.19772600  0.16758400  1
  F  F17  1  0.19441101  0.21966400  0.49937399  1
