# generated using pymatgen
data_Zr2CuBiF11
_symmetry_space_group_name_H-M   'P 1'
_cell_length_a   5.77706242
_cell_length_b   5.77706242
_cell_length_c   7.93713474
_cell_angle_alpha   69.12445831
_cell_angle_beta   69.12445831
_cell_angle_gamma   73.05545044
_symmetry_Int_Tables_number   1
_chemical_formula_structural   Zr2CuBiF11
_chemical_formula_sum   'Zr2 Cu1 Bi1 F11'
_cell_volume   227.12056885
_cell_formula_units_Z   1
loop_
 _symmetry_equiv_pos_site_id
 _symmetry_equiv_pos_as_xyz
  1  'x, y, z'
loop_
 _atom_site_type_symbol
 _atom_site_label
 _atom_site_symmetry_multiplicity
 _atom_site_fract_x
 _atom_site_fract_y
 _atom_site_fract_z
 _atom_site_occupancy
  Bi  Bi0  1  0.00000000  0.00000000  0.00000000  1
  Zr  Zr1  1  0.49543304  0.49543300  0.23496999  1
  Zr  Zr2  1  0.50456704  0.50456700  0.76502999  1
  Cu  Cu3  1  0.00000000  0.00000000  0.50000001  1
  F  F4  1  0.19349206  0.77695599  0.30836998  1
  F  F5  1  0.22304407  0.80650799  0.69162999  1
  F  F6  1  0.80650802  0.22304400  0.69163000  1
  F  F7  1  0.77695602  0.19349200  0.30836999  1
  F  F8  1  0.50000004  0.50000000  0.49999999  1
  F  F9  1  0.66977503  0.33022500  -0.00000002  1
  F  F10  1  0.33022506  0.66977499  -0.00000002  1
  F  F11  1  0.75311807  0.75311799  0.64771498  1
  F  F12  1  0.24688202  0.24688200  0.35228500  1
  F  F13  1  0.73352206  0.73352199  0.10894597  1
  F  F14  1  0.26647802  0.26647800  0.89105401  1
