# generated using pymatgen
data_BaHo2CoO5
_symmetry_space_group_name_H-M   'P 1'
_cell_length_a   5.91639519
_cell_length_b   6.55254412
_cell_length_c   6.55254412
_cell_angle_alpha   90.00000000
_cell_angle_beta   90.00000000
_cell_angle_gamma   90.00000000
_symmetry_Int_Tables_number   1
_chemical_formula_structural   BaHo2CoO5
_chemical_formula_sum   'Ba2 Ho4 Co2 O10'
_cell_volume   254.02536404
_cell_formula_units_Z   2
loop_
 _symmetry_equiv_pos_site_id
 _symmetry_equiv_pos_as_xyz
  1  'x, y, z'
loop_
 _atom_site_type_symbol
 _atom_site_label
 _atom_site_symmetry_multiplicity
 _atom_site_fract_x
 _atom_site_fract_y
 _atom_site_fract_z
 _atom_site_occupancy
  Ba  Ba0  1  0.99999997  0.49999999  0.49999999  1
  Ba  Ba1  1  0.00000000  0.00000000  0.00000000  1
  Ho  Ho2  1  0.49999998  0.82580099  0.67419899  1
  Ho  Ho3  1  0.49999998  0.67419899  0.17419900  1
  Ho  Ho4  1  0.49999998  0.32580099  0.82580099  1
  Ho  Ho5  1  0.49999998  0.17419900  0.32580099  1
  Co  Co6  1  0.99999997  0.00000000  0.49999999  1
  Co  Co7  1  0.00000000  0.49999999  0.00000000  1
  O  O8  1  0.49999998  0.49999999  0.49999999  1
  O  O9  1  0.49999998  0.00000000  0.00000000  1
  O  O10  1  0.26140699  0.14053600  0.64053599  1
  O  O11  1  0.26140699  0.85946398  0.35946399  1
  O  O12  1  0.26140699  0.35946399  0.14053600  1
  O  O13  1  0.26140699  0.64053599  0.85946398  1
  O  O14  1  0.73859298  0.14053600  0.64053599  1
  O  O15  1  0.73859298  0.64053599  0.85946398  1
  O  O16  1  0.73859298  0.85946398  0.35946399  1
  O  O17  1  0.73859298  0.35946399  0.14053600  1
