# generated using pymatgen
data_SiHgP3Au
_symmetry_space_group_name_H-M   'P 1'
_cell_length_a   3.83576679
_cell_length_b   3.83576679
_cell_length_c   6.76075077
_cell_angle_alpha   73.52008820
_cell_angle_beta   73.52008820
_cell_angle_gamma   59.99998474
_symmetry_Int_Tables_number   1
_chemical_formula_structural   SiHgP3Au
_chemical_formula_sum   'Si1 Hg1 P3 Au1'
_cell_volume   81.39224366
_cell_formula_units_Z   1
loop_
 _symmetry_equiv_pos_site_id
 _symmetry_equiv_pos_as_xyz
  1  'x, y, z'
loop_
 _atom_site_type_symbol
 _atom_site_label
 _atom_site_symmetry_multiplicity
 _atom_site_fract_x
 _atom_site_fract_y
 _atom_site_fract_z
 _atom_site_occupancy
  P  P0  1  0.74096495  0.74096501  0.77710507  1
  P  P1  1  0.25903498  0.25903500  0.22289502  1
  P  P2  1  0.62165496  0.62165501  0.13503504  1
  Si  Si3  1  0.37834497  0.37834500  0.86496505  1
  Au  Au4  1  0.13006899  0.13006900  0.60979303  1
  Hg  Hg5  1  0.86993094  0.86993101  0.39020706  1
