# generated using pymatgen
data_Tb5Au3
_symmetry_space_group_name_H-M   'P 1'
_cell_length_a   6.82089615
_cell_length_b   8.99282169
_cell_length_c   8.99282265
_cell_angle_alpha   60.00000381
_cell_angle_beta   90.00000000
_cell_angle_gamma   90.00000000
_symmetry_Int_Tables_number   1
_chemical_formula_structural   Tb5Au3
_chemical_formula_sum   'Tb10 Au6'
_cell_volume   477.70974047
_cell_formula_units_Z   2
loop_
 _symmetry_equiv_pos_site_id
 _symmetry_equiv_pos_as_xyz
  1  'x, y, z'
loop_
 _atom_site_type_symbol
 _atom_site_label
 _atom_site_symmetry_multiplicity
 _atom_site_fract_x
 _atom_site_fract_y
 _atom_site_fract_z
 _atom_site_occupancy
  Tb  Tb0  1  0.49999999  0.66666668  0.66666668  1
  Tb  Tb1  1  0.49999999  0.33333334  0.33333334  1
  Tb  Tb2  1  0.00000000  0.33333334  0.33333334  1
  Tb  Tb3  1  0.00000000  0.66666668  0.66666668  1
  Tb  Tb4  1  0.74999998  0.25172000  0.00000001  1
  Tb  Tb5  1  0.74999998  0.00000000  0.74828000  1
  Tb  Tb6  1  0.74999998  0.74828001  0.25172002  1
  Tb  Tb7  1  0.24999999  0.74828001  0.00000002  1
  Tb  Tb8  1  0.24999999  0.00000000  0.25172000  1
  Tb  Tb9  1  0.24999999  0.25172000  0.74828000  1
  Au  Au10  1  0.74999998  0.60927401  1.00000001  1
  Au  Au11  1  0.74999998  0.00000000  0.39072600  1
  Au  Au12  1  0.74999998  0.39072601  0.60927401  1
  Au  Au13  1  0.24999999  0.39072601  1.00000001  1
  Au  Au14  1  0.24999999  0.00000000  0.60927400  1
  Au  Au15  1  0.24999999  0.60927401  0.39072602  1
