# generated using pymatgen
data_Cs4Br5
_symmetry_space_group_name_H-M   'P 1'
_cell_length_a   7.43916941
_cell_length_b   7.43916941
_cell_length_c   7.43916941
_cell_angle_alpha   60.00000000
_cell_angle_beta   60.00000000
_cell_angle_gamma   60.00000000
_symmetry_Int_Tables_number   1
_chemical_formula_structural   Cs4Br5
_chemical_formula_sum   'Cs4 Br5'
_cell_volume   291.11082046
_cell_formula_units_Z   1
loop_
 _symmetry_equiv_pos_site_id
 _symmetry_equiv_pos_as_xyz
  1  'x, y, z'
loop_
 _atom_site_type_symbol
 _atom_site_label
 _atom_site_symmetry_multiplicity
 _atom_site_fract_x
 _atom_site_fract_y
 _atom_site_fract_z
 _atom_site_occupancy
  Cs  Cs0  1  0.74999998  0.74999998  0.74999998  1
  Cs  Cs1  1  0.24999999  0.24999999  0.24999999  1
  Cs  Cs2  1  0.00000000  0.00000000  0.00000000  1
  Br  Br3  1  0.77664898  0.77664898  0.22335099  1
  Br  Br4  1  0.77664898  0.22335099  0.22335099  1
  Br  Br5  1  0.22335099  0.77664898  0.77664898  1
  Cs  Cs6  1  0.22335099  0.22335099  0.77664898  1
  Br  Br7  1  0.77664898  0.22335099  0.77664898  1
  Br  Br8  1  0.22335099  0.77664898  0.22335099  1
