# generated using pymatgen
data_TbGe
_symmetry_space_group_name_H-M   'P 1'
_cell_length_a   3.82029390
_cell_length_b   5.66803312
_cell_length_c   7.87121677
_cell_angle_alpha   90.00000000
_cell_angle_beta   90.00000000
_cell_angle_gamma   90.00000000
_symmetry_Int_Tables_number   1
_chemical_formula_structural   TbGe
_chemical_formula_sum   'Tb4 Ge4'
_cell_volume   170.43980474
_cell_formula_units_Z   4
loop_
 _symmetry_equiv_pos_site_id
 _symmetry_equiv_pos_as_xyz
  1  'x, y, z'
loop_
 _atom_site_type_symbol
 _atom_site_label
 _atom_site_symmetry_multiplicity
 _atom_site_fract_x
 _atom_site_fract_y
 _atom_site_fract_z
 _atom_site_occupancy
  Ge  Ge0  1  0.25000001  0.11483300  0.82069502  1
  Ge  Ge1  1  0.75000002  0.88516698  0.17930501  1
  Ge  Ge2  1  0.75000002  0.61483299  0.67930502  1
  Ge  Ge3  1  0.25000001  0.38516699  0.32069501  1
  Tb  Tb4  1  0.25000001  0.63034299  0.96165403  1
  Tb  Tb5  1  0.75000002  0.36965699  0.03834600  1
  Tb  Tb6  1  0.75000002  0.13034300  0.53834602  1
  Tb  Tb7  1  0.25000001  0.86965698  0.46165401  1
