# generated using pymatgen
data_Ho3(AlGe2)2
_symmetry_space_group_name_H-M   'P 1'
_cell_length_a   4.21514082
_cell_length_b   6.94637203
_cell_length_c   6.94637251
_cell_angle_alpha   120.00000000
_cell_angle_beta   90.00000000
_cell_angle_gamma   90.00000000
_symmetry_Int_Tables_number   1
_chemical_formula_structural   Ho3(AlGe2)2
_chemical_formula_sum   'Ho3 Al2 Ge4'
_cell_volume   176.14033927
_cell_formula_units_Z   1
loop_
 _symmetry_equiv_pos_site_id
 _symmetry_equiv_pos_as_xyz
  1  'x, y, z'
loop_
 _atom_site_type_symbol
 _atom_site_label
 _atom_site_symmetry_multiplicity
 _atom_site_fract_x
 _atom_site_fract_y
 _atom_site_fract_z
 _atom_site_occupancy
  Ho  Ho0  1  0.50000002  0.00000000  0.42696599  1
  Ho  Ho1  1  0.50000002  0.42696600  0.99999999  1
  Ho  Ho2  1  0.50000002  0.57303401  0.57303400  1
  Ge  Ge3  1  -0.00000000  0.00000000  0.76146298  1
  Al  Al4  1  1.00000004  0.76146301  1.00000000  1
  Al  Al5  1  1.00000004  0.23853700  0.23853700  1
  Ge  Ge6  1  1.00000004  0.66666667  0.33333335  1
  Ge  Ge7  1  1.00000004  0.33333334  0.66666666  1
  Ge  Ge8  1  0.50000002  0.00000000  -0.00000000  1
