# generated using pymatgen
data_Cs5Hg4F11
_symmetry_space_group_name_H-M   'P 1'
_cell_length_a   4.27680588
_cell_length_b   8.96519470
_cell_length_c   13.88051128
_cell_angle_alpha   90.00000000
_cell_angle_beta   90.00000000
_cell_angle_gamma   100.14528656
_symmetry_Int_Tables_number   1
_chemical_formula_structural   Cs5Hg4F11
_chemical_formula_sum   'Cs5 Hg4 F11'
_cell_volume   523.89055144
_cell_formula_units_Z   1
loop_
 _symmetry_equiv_pos_site_id
 _symmetry_equiv_pos_as_xyz
  1  'x, y, z'
loop_
 _atom_site_type_symbol
 _atom_site_label
 _atom_site_symmetry_multiplicity
 _atom_site_fract_x
 _atom_site_fract_y
 _atom_site_fract_z
 _atom_site_occupancy
  Cs  Cs0  1  0.22068796  0.44128499  0.16752000  1
  Cs  Cs1  1  0.77931202  0.05871500  0.66751999  1
  Cs  Cs2  1  0.77931197  0.55871498  0.83247998  1
  Cs  Cs3  1  0.22068791  0.94128497  0.33247999  1
  Hg  Hg4  1  0.75763599  0.34509599  0.45023299  1
  Hg  Hg5  1  0.24236399  0.15490400  0.95023298  1
  Hg  Hg6  1  0.24236394  0.65490398  0.54976699  1
  Hg  Hg7  1  0.75763594  0.84509597  0.04976700  1
  F  F8  1  0.66235399  0.32181099  0.00898000  1
  F  F9  1  0.83250293  0.96465497  0.90175498  1
  F  F10  1  0.83250298  0.46465499  0.59824499  1
  F  F11  1  0.16749700  0.03534500  0.09824500  1
  F  F12  1  0.72230695  0.73984998  0.19847200  1
  F  F13  1  0.27769293  0.76014998  0.69847199  1
  F  F14  1  0.27769298  0.26014999  0.80152798  1
  F  F15  1  0.33764599  0.17818899  0.50897999  1
  Cs  Cs16  1  0.33764594  0.67818898  0.99101998  1
  F  F17  1  0.66235394  0.82181097  0.49101999  1
  F  F18  1  0.72230700  0.23984999  0.30152799  1
  F  F19  1  0.16749695  0.53534498  0.40175499  1
