# generated using pymatgen
data_CsF3
_symmetry_space_group_name_H-M   'P 1'
_cell_length_a   6.69674778
_cell_length_b   8.15640068
_cell_length_c   10.62069225
_cell_angle_alpha   90.00000000
_cell_angle_beta   90.00000000
_cell_angle_gamma   93.66262054
_symmetry_Int_Tables_number   1
_chemical_formula_structural   CsF3
_chemical_formula_sum   'Cs5 F15'
_cell_volume   578.93175085
_cell_formula_units_Z   5
loop_
 _symmetry_equiv_pos_site_id
 _symmetry_equiv_pos_as_xyz
  1  'x, y, z'
loop_
 _atom_site_type_symbol
 _atom_site_label
 _atom_site_symmetry_multiplicity
 _atom_site_fract_x
 _atom_site_fract_y
 _atom_site_fract_z
 _atom_site_occupancy
  Cs  Cs0  1  0.00000001  0.49999998  0.49999999  1
  Cs  Cs1  1  0.50000002  0.00000000  0.49999999  1
  F  F2  1  0.00000001  0.49999998  -0.00000000  1
  Cs  Cs3  1  0.50000002  0.00000000  0.99999998  1
  F  F4  1  0.96952905  0.96193197  0.74999998  1
  F  F5  1  0.13481202  0.75709297  0.24999999  1
  F  F6  1  0.03047100  0.03806800  0.24999999  1
  F  F7  1  0.86518803  0.24290699  0.74999998  1
  F  F8  1  0.33376802  0.68602098  0.43075699  1
  F  F9  1  0.66623203  0.31397899  0.56924299  1
  F  F10  1  0.33376802  0.68602098  0.06924300  1
  F  F11  1  0.67254102  0.06901700  0.24999999  1
  F  F12  1  0.82353404  0.81225897  0.93023398  1
  F  F13  1  0.17646601  0.18774099  0.43023399  1
  F  F14  1  0.17646601  0.18774099  0.06976600  1
  Cs  Cs15  1  0.82353404  0.81225897  0.56976599  1
  F  F16  1  0.66623203  0.31397899  0.93075698  1
  Cs  Cs17  1  0.86980804  0.54088198  0.24999999  1
  F  F18  1  0.13019201  0.45911798  0.74999998  1
  F  F19  1  0.32745903  0.93098297  0.74999998  1
