# generated using pymatgen
data_EuMg4Ga
_symmetry_space_group_name_H-M   'P 1'
_cell_length_a   6.03883600
_cell_length_b   6.03883600
_cell_length_c   6.03883600
_cell_angle_alpha   60.00000000
_cell_angle_beta   60.00000000
_cell_angle_gamma   60.00000000
_symmetry_Int_Tables_number   1
_chemical_formula_structural   EuMg4Ga
_chemical_formula_sum   'Eu1 Mg4 Ga1'
_cell_volume   155.72011252
_cell_formula_units_Z   1
loop_
 _symmetry_equiv_pos_site_id
 _symmetry_equiv_pos_as_xyz
  1  'x, y, z'
loop_
 _atom_site_type_symbol
 _atom_site_label
 _atom_site_symmetry_multiplicity
 _atom_site_fract_x
 _atom_site_fract_y
 _atom_site_fract_z
 _atom_site_occupancy
  Eu  Eu0  1  0.50000001  0.50000001  0.50000001  1
  Mg  Mg1  1  0.25000001  0.25000001  0.25000001  1
  Mg  Mg2  1  0.37500001  0.87500002  0.87500002  1
  Mg  Mg3  1  0.87500002  0.87500002  0.37500001  1
  Ga  Ga4  1  0.87500002  0.87500002  0.87500002  1
  Mg  Mg5  1  0.87500002  0.37500001  0.87500002  1
