# generated using pymatgen
data_CoBMo3P
_symmetry_space_group_name_H-M   'P 1'
_cell_length_a   3.77962995
_cell_length_b   3.82761192
_cell_length_c   5.34597111
_cell_angle_alpha   90.00000000
_cell_angle_beta   90.00000000
_cell_angle_gamma   119.58618164
_symmetry_Int_Tables_number   1
_chemical_formula_structural   CoBMo3P
_chemical_formula_sum   'Co1 B1 Mo3 P1'
_cell_volume   67.25589024
_cell_formula_units_Z   1
loop_
 _symmetry_equiv_pos_site_id
 _symmetry_equiv_pos_as_xyz
  1  'x, y, z'
loop_
 _atom_site_type_symbol
 _atom_site_label
 _atom_site_symmetry_multiplicity
 _atom_site_fract_x
 _atom_site_fract_y
 _atom_site_fract_z
 _atom_site_occupancy
  P  P0  1  0.83783302  0.67566599  0.74999998  1
  B  B1  1  0.16216701  0.32433400  0.24999999  1
  Co  Co2  1  0.16889601  0.33779200  0.74999998  1
  Mo  Mo3  1  0.83110402  0.66220799  0.24999999  1
  Mo  Mo4  1  0.50000001  0.00000000  0.99999998  1
  Mo  Mo5  1  0.50000001  0.00000000  0.49999999  1
