# generated using pymatgen
data_Ga
_symmetry_space_group_name_H-M   'P 1'
_cell_length_a   4.30954027
_cell_length_b   4.30954027
_cell_length_c   7.50589705
_cell_angle_alpha   73.31696320
_cell_angle_beta   73.31697083
_cell_angle_gamma   60.00000000
_symmetry_Int_Tables_number   1
_chemical_formula_structural   Ga
_chemical_formula_sum   Ga4
_cell_volume   113.89859950
_cell_formula_units_Z   4
loop_
 _symmetry_equiv_pos_site_id
 _symmetry_equiv_pos_as_xyz
  1  'x, y, z'
loop_
 _atom_site_type_symbol
 _atom_site_label
 _atom_site_symmetry_multiplicity
 _atom_site_fract_x
 _atom_site_fract_y
 _atom_site_fract_z
 _atom_site_occupancy
  Ga  Ga0  1  0.99072492  0.99072495  0.02782504  1
  Ga  Ga1  1  0.51005596  0.51005498  0.46983303  1
  Ga  Ga2  1  0.12309799  0.12309699  0.63070702  1
  Ga  Ga3  1  0.62612195  0.62612097  0.12163503  1
