# generated using pymatgen
data_Cs2CoBr6
_symmetry_space_group_name_H-M   'P 1'
_cell_length_a   6.23791122
_cell_length_b   7.79165792
_cell_length_c   7.79165840
_cell_angle_alpha   60.00000000
_cell_angle_beta   90.00000000
_cell_angle_gamma   90.00000000
_symmetry_Int_Tables_number   1
_chemical_formula_structural   Cs2CoBr6
_chemical_formula_sum   'Cs2 Co1 Br6'
_cell_volume   327.96658910
_cell_formula_units_Z   1
loop_
 _symmetry_equiv_pos_site_id
 _symmetry_equiv_pos_as_xyz
  1  'x, y, z'
loop_
 _atom_site_type_symbol
 _atom_site_label
 _atom_site_symmetry_multiplicity
 _atom_site_fract_x
 _atom_site_fract_y
 _atom_site_fract_z
 _atom_site_occupancy
  Cs  Cs0  1  0.73949197  0.66666668  0.66666664  1
  Cs  Cs1  1  0.26050799  0.33333334  0.33333332  1
  Co  Co2  1  0.00000000  0.00000000  0.00000000  1
  Br  Br3  1  0.23677399  0.83305202  0.33389598  1
  Br  Br4  1  0.23677399  0.33389701  0.83305097  1
  Br  Br5  1  0.23677399  0.83305202  0.83305096  1
  Br  Br6  1  0.76322597  0.16694800  0.66610398  1
  Br  Br7  1  0.76322597  0.66610301  0.16694898  1
  Br  Br8  1  0.76322597  0.16694800  0.16694899  1
