# generated using pymatgen
data_AgF2
_symmetry_space_group_name_H-M   'P 1'
_cell_length_a   6.43030787
_cell_length_b   6.78034210
_cell_length_c   6.46548223
_cell_angle_alpha   118.47540283
_cell_angle_beta   90.00000000
_cell_angle_gamma   118.30646515
_symmetry_Int_Tables_number   1
_chemical_formula_structural   AgF2
_chemical_formula_sum   'Ag4 F8'
_cell_volume   208.64379102
_cell_formula_units_Z   4
loop_
 _symmetry_equiv_pos_site_id
 _symmetry_equiv_pos_as_xyz
  1  'x, y, z'
loop_
 _atom_site_type_symbol
 _atom_site_label
 _atom_site_symmetry_multiplicity
 _atom_site_fract_x
 _atom_site_fract_y
 _atom_site_fract_z
 _atom_site_occupancy
  F  F0  1  0.00000000  0.50000003  0.50000002  1
  F  F1  1  0.50000002  0.50000003  0.50000002  1
  F  F2  1  0.50000001  0.00000000  0.99999996  1
  F  F3  1  0.25000001  0.00000000  0.49999998  1
  F  F4  1  0.00000000  0.00000000  0.00000000  1
  F  F5  1  0.50000002  0.50000003  0.00000004  1
  F  F6  1  0.75000002  0.00000000  0.49999998  1
  F  F7  1  0.00000000  0.50000003  0.00000004  1
  Ag  Ag8  1  0.11210800  0.22421601  0.39040400  1
  Ag  Ag9  1  0.61210802  0.22421601  0.83381199  1
  Ag  Ag10  1  0.38789202  0.77578405  0.16618805  1
  Ag  Ag11  1  0.88789203  0.77578405  0.60959603  1
