# generated using pymatgen
data_Cs2KAsI6
_symmetry_space_group_name_H-M   'P 1'
_cell_length_a   8.59099483
_cell_length_b   8.59099483
_cell_length_c   8.59099483
_cell_angle_alpha   60.00000000
_cell_angle_beta   60.00000000
_cell_angle_gamma   60.00000000
_symmetry_Int_Tables_number   1
_chemical_formula_structural   Cs2KAsI6
_chemical_formula_sum   'Cs2 K1 As1 I6'
_cell_volume   448.34814367
_cell_formula_units_Z   1
loop_
 _symmetry_equiv_pos_site_id
 _symmetry_equiv_pos_as_xyz
  1  'x, y, z'
loop_
 _atom_site_type_symbol
 _atom_site_label
 _atom_site_symmetry_multiplicity
 _atom_site_fract_x
 _atom_site_fract_y
 _atom_site_fract_z
 _atom_site_occupancy
  Cs  Cs0  1  0.25000001  0.25000001  0.25000001  1
  Cs  Cs1  1  0.75000004  0.75000004  0.75000004  1
  K  K2  1  0.50000002  0.50000002  0.50000002  1
  As  As3  1  0.00000000  0.00000000  0.00000000  1
  I  I4  1  0.21984101  0.78015904  0.21984101  1
  I  I5  1  0.21984101  0.21984101  0.78015904  1
  I  I6  1  0.78015904  0.21984101  0.78015904  1
  I  I7  1  0.21984101  0.78015904  0.78015904  1
  I  I8  1  0.78015904  0.21984101  0.21984101  1
  I  I9  1  0.78015904  0.78015904  0.21984101  1
