# generated using pymatgen
data_Lu5Au3
_symmetry_space_group_name_H-M   'P 1'
_cell_length_a   5.97311783
_cell_length_b   8.64694881
_cell_length_c   8.64694881
_cell_angle_alpha   83.14867401
_cell_angle_beta   69.79447174
_cell_angle_gamma   69.79447174
_symmetry_Int_Tables_number   1
_chemical_formula_structural   Lu5Au3
_chemical_formula_sum   'Lu10 Au6'
_cell_volume   393.33094464
_cell_formula_units_Z   2
loop_
 _symmetry_equiv_pos_site_id
 _symmetry_equiv_pos_as_xyz
  1  'x, y, z'
loop_
 _atom_site_type_symbol
 _atom_site_label
 _atom_site_symmetry_multiplicity
 _atom_site_fract_x
 _atom_site_fract_y
 _atom_site_fract_z
 _atom_site_occupancy
  Lu  Lu0  1  0.28835403  0.29376698  0.12952499  1
  Lu  Lu1  1  0.71164606  0.70623296  0.87047496  1
  Lu  Lu2  1  0.21164606  0.87047495  0.70623295  1
  Lu  Lu3  1  0.78835402  0.12952499  0.29376700  1
  Lu  Lu4  1  0.41787907  0.87047495  0.29376697  1
  Lu  Lu5  1  0.58212102  0.12952499  0.70623298  1
  Lu  Lu6  1  0.91787904  0.29376698  0.87047498  1
  Lu  Lu7  1  0.08212105  0.70623296  0.12952498  1
  Lu  Lu8  1  0.75000005  0.49999997  0.49999998  1
  Lu  Lu9  1  0.25000004  0.49999997  0.49999997  1
  Au  Au10  1  0.84408307  0.81183396  0.49999998  1
  Au  Au11  1  0.15591702  0.18816599  0.49999998  1
  Au  Au12  1  0.65591705  0.49999997  0.18816599  1
  Au  Au13  1  0.34408304  0.49999997  0.81183396  1
  Au  Au14  1  0.25000007  0.99999995  -0.00000002  1
  Au  Au15  1  0.75000008  0.99999995  0.99999995  1
