# generated using pymatgen
data_SrCa3(CoO3)4
_symmetry_space_group_name_H-M   'P 1'
_cell_length_a   5.39148426
_cell_length_b   5.43119097
_cell_length_c   7.65305948
_cell_angle_alpha   89.99916077
_cell_angle_beta   89.96279144
_cell_angle_gamma   89.98135376
_symmetry_Int_Tables_number   1
_chemical_formula_structural   SrCa3(CoO3)4
_chemical_formula_sum   'Sr1 Ca3 Co4 O12'
_cell_volume   224.09821090
_cell_formula_units_Z   1
loop_
 _symmetry_equiv_pos_site_id
 _symmetry_equiv_pos_as_xyz
  1  'x, y, z'
loop_
 _atom_site_type_symbol
 _atom_site_label
 _atom_site_symmetry_multiplicity
 _atom_site_fract_x
 _atom_site_fract_y
 _atom_site_fract_z
 _atom_site_occupancy
  Sr  Sr0  1  0.99337202  0.03266000  0.24985895  1
  Ca  Ca1  1  0.00662797  0.96734102  0.75014002  1
  Ca  Ca2  1  0.50666999  0.53259701  0.25003399  1
  Ca  Ca3  1  0.49332899  0.46740201  0.74996598  1
  Co  Co4  1  0.49999998  0.99999902  0.00000001  1
  Co  Co5  1  0.50000101  0.00000100  0.49999997  1
  Co  Co6  1  0.00000098  0.50000101  0.50000001  1
  Co  Co7  1  0.99999900  0.50000001  -0.00000003  1
  O  O8  1  0.08137499  0.48903801  0.24991401  1
  O  O9  1  0.91862400  0.51096201  0.75008597  1
  O  O10  1  0.41870397  0.98906602  0.25007901  1
  O  O11  1  0.58129601  0.01093400  0.74992097  1
  O  O12  1  0.70919100  0.28968301  0.04092598  1
  O  O13  1  0.29075998  0.71029301  0.54086700  1
  O  O14  1  0.29080898  0.71031701  0.95907400  1
  O  O15  1  0.70924000  0.28970801  0.45913297  1
  O  O16  1  0.79080399  0.78967502  0.45911098  1
  O  O17  1  0.20920200  0.21026500  0.95909099  1
  O  O18  1  0.20919600  0.21032400  0.54088899  1
  O  O19  1  0.79079899  0.78973502  0.04090899  1
