# generated using pymatgen
data_Sr2Cu2O3
_symmetry_space_group_name_H-M   'P 1'
_cell_length_a   3.36778808
_cell_length_b   5.48455095
_cell_length_c   5.58276320
_cell_angle_alpha   105.05757904
_cell_angle_beta   90.00000000
_cell_angle_gamma   107.88003540
_symmetry_Int_Tables_number   1
_chemical_formula_structural   Sr2Cu2O3
_chemical_formula_sum   'Sr2 Cu2 O3'
_cell_volume   94.41054866
_cell_formula_units_Z   1
loop_
 _symmetry_equiv_pos_site_id
 _symmetry_equiv_pos_as_xyz
  1  'x, y, z'
loop_
 _atom_site_type_symbol
 _atom_site_label
 _atom_site_symmetry_multiplicity
 _atom_site_fract_x
 _atom_site_fract_y
 _atom_site_fract_z
 _atom_site_occupancy
  Sr  Sr0  1  0.60592701  0.21185400  0.31681301  1
  Sr  Sr1  1  0.39407308  0.78814601  0.68318705  1
  Cu  Cu2  1  0.84312506  0.68625001  0.10901405  1
  Cu  Cu3  1  0.15687503  0.31375000  0.89098601  1
  O  O4  1  0.28492106  0.56984201  0.23024004  1
  O  O5  1  0.71507903  0.43015800  0.76976002  1
  O  O6  1  0.00000000  0.00000000  0.00000000  1
