# generated using pymatgen
data_MgF2
_symmetry_space_group_name_H-M   'P 1'
_cell_length_a   3.18503308
_cell_length_b   4.80252695
_cell_length_c   4.80252695
_cell_angle_alpha   90.00000000
_cell_angle_beta   90.00000000
_cell_angle_gamma   90.00000000
_symmetry_Int_Tables_number   1
_chemical_formula_structural   MgF2
_chemical_formula_sum   'Mg2 F4'
_cell_volume   73.46044742
_cell_formula_units_Z   2
loop_
 _symmetry_equiv_pos_site_id
 _symmetry_equiv_pos_as_xyz
  1  'x, y, z'
loop_
 _atom_site_type_symbol
 _atom_site_label
 _atom_site_symmetry_multiplicity
 _atom_site_fract_x
 _atom_site_fract_y
 _atom_site_fract_z
 _atom_site_occupancy
  Mg  Mg0  1  0.49999999  0.50000001  0.50000001  1
  Mg  Mg1  1  0.00000000  0.00000000  0.00000000  1
  F  F2  1  -0.00000000  0.69583001  0.69583001  1
  F  F3  1  0.49999999  0.19583000  0.80417001  1
  F  F4  1  0.99999997  0.30417000  0.30417000  1
  F  F5  1  0.49999999  0.80417001  0.19583000  1
