# generated using pymatgen
data_Ge
_symmetry_space_group_name_H-M   'P 1'
_cell_length_a   5.39158392
_cell_length_b   5.39158392
_cell_length_c   6.68495321
_cell_angle_alpha   113.78230286
_cell_angle_beta   113.78230286
_cell_angle_gamma   90.00000000
_symmetry_Int_Tables_number   1
_chemical_formula_structural   Ge
_chemical_formula_sum   Ge8
_cell_volume   159.62660339
_cell_formula_units_Z   8
loop_
 _symmetry_equiv_pos_site_id
 _symmetry_equiv_pos_as_xyz
  1  'x, y, z'
loop_
 _atom_site_type_symbol
 _atom_site_label
 _atom_site_symmetry_multiplicity
 _atom_site_fract_x
 _atom_site_fract_y
 _atom_site_fract_z
 _atom_site_occupancy
  Ge  Ge0  1  0.50000003  0.50000002  0.00000003  1
  Ge  Ge1  1  0.25000003  0.75000002  0.50000005  1
  Ge  Ge2  1  0.00000000  0.00000000  0.00000000  1
  Ge  Ge3  1  0.75000003  0.25000001  0.50000004  1
  Ge  Ge4  1  0.00075102  0.50075102  0.00150202  1
  Ge  Ge5  1  0.75601404  0.75601402  0.51202806  1
  Ge  Ge6  1  0.49924904  0.99924903  0.99849808  1
  Ge  Ge7  1  0.24398601  0.24398601  0.48797203  1
