# generated using pymatgen
data_Sr4Bi2O7
_symmetry_space_group_name_H-M   'P 1'
_cell_length_a   5.48637295
_cell_length_b   5.48637295
_cell_length_c   8.73069668
_cell_angle_alpha   71.68746185
_cell_angle_beta   71.68746185
_cell_angle_gamma   59.99999237
_symmetry_Int_Tables_number   1
_chemical_formula_structural   Sr4Bi2O7
_chemical_formula_sum   'Sr4 Bi2 O7'
_cell_volume   212.08150737
_cell_formula_units_Z   1
loop_
 _symmetry_equiv_pos_site_id
 _symmetry_equiv_pos_as_xyz
  1  'x, y, z'
loop_
 _atom_site_type_symbol
 _atom_site_label
 _atom_site_symmetry_multiplicity
 _atom_site_fract_x
 _atom_site_fract_y
 _atom_site_fract_z
 _atom_site_occupancy
  Sr  Sr0  1  0.58287300  0.58287297  0.25138100  1
  Sr  Sr1  1  0.41712700  0.41712698  0.74861901  1
  Sr  Sr2  1  0.74902600  0.74902596  0.75292201  1
  Sr  Sr3  1  0.25097400  0.25097399  0.24707800  1
  Bi  Bi4  1  0.00000000  0.00000000  0.00000000  1
  Bi  Bi5  1  0.87770500  0.87770496  0.36688500  1
  O  O6  1  0.12229500  0.12229499  0.63311501  1
  O  O7  1  0.83334799  0.49999998  0.50000000  1
  O  O8  1  0.49999999  0.16665199  0.50000001  1
  O  O9  1  0.16665202  0.83334796  0.50000000  1
  O  O10  1  0.16665201  0.49999998  0.50000001  1
  O  O11  1  0.50000001  0.83334796  0.50000000  1
  O  O12  1  0.83334798  0.16665199  0.50000001  1
