# generated using pymatgen
data_Sm2Si2Sn
_symmetry_space_group_name_H-M   'P 1'
_cell_length_a   4.26325893
_cell_length_b   7.45844889
_cell_length_c   7.45844889
_cell_angle_alpha   90.00000000
_cell_angle_beta   90.00000000
_cell_angle_gamma   90.00000000
_symmetry_Int_Tables_number   1
_chemical_formula_structural   Sm2Si2Sn
_chemical_formula_sum   'Sm4 Si4 Sn2'
_cell_volume   237.15852822
_cell_formula_units_Z   2
loop_
 _symmetry_equiv_pos_site_id
 _symmetry_equiv_pos_as_xyz
  1  'x, y, z'
loop_
 _atom_site_type_symbol
 _atom_site_label
 _atom_site_symmetry_multiplicity
 _atom_site_fract_x
 _atom_site_fract_y
 _atom_site_fract_z
 _atom_site_occupancy
  Sm  Sm0  1  1.00000002  0.50000001  0.50000001  1
  Sm  Sm1  1  0.00000000  0.00000000  0.00000000  1
  Sm  Sm2  1  0.50000001  0.68120201  0.18120200  1
  Sm  Sm3  1  0.50000001  0.31879800  0.81879801  1
  Sn  Sn4  1  0.50000001  0.18120200  0.31879800  1
  Sn  Sn5  1  0.50000001  0.81879801  0.68120201  1
  Si  Si6  1  1.00000002  0.11420200  0.61420201  1
  Si  Si7  1  1.00000002  0.88579801  0.38579801  1
  Si  Si8  1  1.00000002  0.61420201  0.88579801  1
  Si  Si9  1  0.00000000  0.38579801  0.11420200  1
