# generated using pymatgen
data_HoGa2
_symmetry_space_group_name_H-M   'P 1'
_cell_length_a   4.29961205
_cell_length_b   5.57721424
_cell_length_c   5.67615795
_cell_angle_alpha   77.64592743
_cell_angle_beta   67.74414825
_cell_angle_gamma   67.32755280
_symmetry_Int_Tables_number   1
_chemical_formula_structural   HoGa2
_chemical_formula_sum   'Ho2 Ga4'
_cell_volume   115.86982450
_cell_formula_units_Z   2
loop_
 _symmetry_equiv_pos_site_id
 _symmetry_equiv_pos_as_xyz
  1  'x, y, z'
loop_
 _atom_site_type_symbol
 _atom_site_label
 _atom_site_symmetry_multiplicity
 _atom_site_fract_x
 _atom_site_fract_y
 _atom_site_fract_z
 _atom_site_occupancy
  Ho  Ho0  1  0.45636094  0.79007300  0.29720505  1
  Ho  Ho1  1  0.54355898  0.20581900  0.70706302  1
  Ga  Ga2  1  0.14764597  0.38695200  0.31775602  1
  Ga  Ga3  1  0.17895795  0.76946600  0.87261805  1
  Ga  Ga4  1  0.83494597  0.23240800  0.09770002  1
  Ga  Ga5  1  0.83852994  0.61528200  0.70765805  1
