# generated using pymatgen
data_ScAlAu2
_symmetry_space_group_name_H-M   'P 1'
_cell_length_a   4.15263796
_cell_length_b   4.15263796
_cell_length_c   5.05949497
_cell_angle_alpha   114.22875214
_cell_angle_beta   114.22875214
_cell_angle_gamma   90.00000000
_symmetry_Int_Tables_number   1
_chemical_formula_structural   ScAlAu2
_chemical_formula_sum   'Sc1 Al1 Au2'
_cell_volume   71.05088605
_cell_formula_units_Z   1
loop_
 _symmetry_equiv_pos_site_id
 _symmetry_equiv_pos_as_xyz
  1  'x, y, z'
loop_
 _atom_site_type_symbol
 _atom_site_label
 _atom_site_symmetry_multiplicity
 _atom_site_fract_x
 _atom_site_fract_y
 _atom_site_fract_z
 _atom_site_occupancy
  Sc  Sc0  1  0.75000001  0.25000000  0.50000000  1
  Al  Al1  1  0.25000001  0.75000001  0.50000000  1
  Au  Au2  1  0.50000001  0.50000001  0.99999999  1
  Au  Au3  1  0.00000000  0.00000000  0.00000000  1
