# generated using pymatgen
data_TiPt2
_symmetry_space_group_name_H-M   'P 1'
_cell_length_a   3.60305309
_cell_length_b   3.60305309
_cell_length_c   7.88262415
_cell_angle_alpha   90.00000000
_cell_angle_beta   90.00000000
_cell_angle_gamma   90.00000000
_symmetry_Int_Tables_number   1
_chemical_formula_structural   TiPt2
_chemical_formula_sum   'Ti2 Pt4'
_cell_volume   102.33216042
_cell_formula_units_Z   2
loop_
 _symmetry_equiv_pos_site_id
 _symmetry_equiv_pos_as_xyz
  1  'x, y, z'
loop_
 _atom_site_type_symbol
 _atom_site_label
 _atom_site_symmetry_multiplicity
 _atom_site_fract_x
 _atom_site_fract_y
 _atom_site_fract_z
 _atom_site_occupancy
  Ti  Ti0  1  0.49999999  0.49999999  0.26572799  1
  Ti  Ti1  1  0.00000000  0.00000000  0.73491699  1
  Pt  Pt2  1  0.49999999  0.00000000  0.99953498  1
  Pt  Pt3  1  -0.00000000  0.49999999  0.99953498  1
  Pt  Pt4  1  0.00000000  0.00000000  0.37960299  1
  Pt  Pt5  1  0.49999999  0.49999999  0.62068199  1
