# generated using pymatgen
data_Li2CoO4
_symmetry_space_group_name_H-M   'P 1'
_cell_length_a   5.66303205
_cell_length_b   5.94280338
_cell_length_c   5.74382782
_cell_angle_alpha   118.89847565
_cell_angle_beta   90.00000000
_cell_angle_gamma   118.45453644
_symmetry_Int_Tables_number   1
_chemical_formula_structural   Li2CoO4
_chemical_formula_sum   'Li4 Co2 O8'
_cell_volume   141.97618482
_cell_formula_units_Z   2
loop_
 _symmetry_equiv_pos_site_id
 _symmetry_equiv_pos_as_xyz
  1  'x, y, z'
loop_
 _atom_site_type_symbol
 _atom_site_label
 _atom_site_symmetry_multiplicity
 _atom_site_fract_x
 _atom_site_fract_y
 _atom_site_fract_z
 _atom_site_occupancy
  Li  Li0  1  0.13176398  0.26352799  0.38176399  1
  Li  Li1  1  0.86823593  0.73647196  0.61823597  1
  Li  Li2  1  0.50000000  0.00000000  1.00000003  1
  Li  Li3  1  0.50000000  0.00000000  0.50000002  1
  Co  Co4  1  0.99999995  0.49999997  -0.00000003  1
  Co  Co5  1  0.49999996  0.49999997  -0.00000003  1
  O  O6  1  0.26755192  0.98948195  0.24474094  1
  O  O7  1  0.26368096  0.52736197  0.79284499  1
  O  O8  1  0.26368096  0.52736197  0.23451697  1
  O  O9  1  0.72192991  0.98948195  0.24474094  1
  O  O10  1  0.27807000  0.01051800  0.75525902  1
  O  O11  1  0.73631896  0.47263797  0.20715497  1
  O  O12  1  0.73631896  0.47263797  0.76548299  1
  O  O13  1  0.73244799  0.01051800  0.75525902  1
