# generated using pymatgen
data_TmVFe11
_symmetry_space_group_name_H-M   'P 1'
_cell_length_a   4.68547916
_cell_length_b   6.45081091
_cell_length_c   6.45081139
_cell_angle_alpha   82.77651215
_cell_angle_beta   68.70500946
_cell_angle_gamma   68.70501709
_symmetry_Int_Tables_number   1
_chemical_formula_structural   TmVFe11
_chemical_formula_sum   'Tm1 V1 Fe11'
_cell_volume   169.25651710
_cell_formula_units_Z   1
loop_
 _symmetry_equiv_pos_site_id
 _symmetry_equiv_pos_as_xyz
  1  'x, y, z'
loop_
 _atom_site_type_symbol
 _atom_site_label
 _atom_site_symmetry_multiplicity
 _atom_site_fract_x
 _atom_site_fract_y
 _atom_site_fract_z
 _atom_site_occupancy
  Tm  Tm0  1  0.00000007  0.99446498  0.00553499  1
  V  V1  1  0.00000003  0.36732899  0.63267099  1
  Fe  Fe2  1  0.50000003  0.76775299  0.23224701  1
  Fe  Fe3  1  0.49999999  0.22705000  0.77295001  1
  Fe  Fe4  1  0.71859702  0.78271799  0.78008802  1
  Fe  Fe5  1  0.28140300  0.21991200  0.21728201  1
  Fe  Fe6  1  0.00140407  0.99850898  0.50045499  1
  Fe  Fe7  1  0.49963204  0.99850898  0.50045501  1
  Fe  Fe8  1  0.50036801  0.49954499  0.00149102  1
  Fe  Fe9  1  0.99859598  0.49954499  0.00149104  1
  Fe  Fe10  1  0.00000005  0.64571599  0.35428399  1
  Fe  Fe11  1  0.64342799  0.35604599  0.35709802  1
  Fe  Fe12  1  0.35657203  0.64290199  0.64395400  1
