# generated using pymatgen
data_NaY(CuO4)2
_symmetry_space_group_name_H-M   'P 1'
_cell_length_a   5.06808472
_cell_length_b   5.06809664
_cell_length_c   6.73785925
_cell_angle_alpha   112.09236908
_cell_angle_beta   112.09152222
_cell_angle_gamma   89.99951935
_symmetry_Int_Tables_number   1
_chemical_formula_structural   NaY(CuO4)2
_chemical_formula_sum   'Na1 Y1 Cu2 O8'
_cell_volume   146.55588495
_cell_formula_units_Z   1
loop_
 _symmetry_equiv_pos_site_id
 _symmetry_equiv_pos_as_xyz
  1  'x, y, z'
loop_
 _atom_site_type_symbol
 _atom_site_label
 _atom_site_symmetry_multiplicity
 _atom_site_fract_x
 _atom_site_fract_y
 _atom_site_fract_z
 _atom_site_occupancy
  Na  Na0  1  0.87500107  0.62500098  0.24999900  1
  Y  Y1  1  0.12500103  0.37499999  0.74999999  1
  Cu  Cu2  1  0.62500207  0.87500497  0.75000999  1
  Cu  Cu3  1  0.37499102  0.12498700  0.24999499  1
  O  O4  1  0.80514209  0.94185697  0.59499700  1
  O  O5  1  0.15278302  0.30525999  0.09469500  1
  O  O6  1  0.28985405  0.65314298  0.59498999  1
  O  O7  1  0.44191306  0.78943797  0.09469301  1
  O  O8  1  0.55814803  0.21014899  0.90500898  1
  O  O9  1  0.84686207  0.69485998  0.90500699  1
  O  O10  1  0.19474501  0.05808000  0.40529899  1
  O  O11  1  0.71055805  0.34722099  0.40530699  1
