# generated using pymatgen
data_Ac2MgZn
_symmetry_space_group_name_H-M   'P 1'
_cell_length_a   5.51685619
_cell_length_b   5.51685619
_cell_length_c   5.51685572
_cell_angle_alpha   60.00001144
_cell_angle_beta   60.00000381
_cell_angle_gamma   60.00000000
_symmetry_Int_Tables_number   1
_chemical_formula_structural   Ac2MgZn
_chemical_formula_sum   'Ac2 Mg1 Zn1'
_cell_volume   118.72987350
_cell_formula_units_Z   1
loop_
 _symmetry_equiv_pos_site_id
 _symmetry_equiv_pos_as_xyz
  1  'x, y, z'
loop_
 _atom_site_type_symbol
 _atom_site_label
 _atom_site_symmetry_multiplicity
 _atom_site_fract_x
 _atom_site_fract_y
 _atom_site_fract_z
 _atom_site_occupancy
  Ac  Ac0  1  0.00000000  0.00000000  0.00000000  1
  Ac  Ac1  1  0.50000002  0.50000001  0.49999997  1
  Mg  Mg2  1  0.75000003  0.75000002  0.74999995  1
  Zn  Zn3  1  0.25000001  0.25000001  0.24999998  1
