# generated using pymatgen
data_EuSn5
_symmetry_space_group_name_H-M   'P 1'
_cell_length_a   4.28545713
_cell_length_b   7.58678722
_cell_length_c   8.78004646
_cell_angle_alpha   90.00000000
_cell_angle_beta   90.00000000
_cell_angle_gamma   90.00000000
_symmetry_Int_Tables_number   1
_chemical_formula_structural   EuSn5
_chemical_formula_sum   'Eu2 Sn10'
_cell_volume   285.46434624
_cell_formula_units_Z   2
loop_
 _symmetry_equiv_pos_site_id
 _symmetry_equiv_pos_as_xyz
  1  'x, y, z'
loop_
 _atom_site_type_symbol
 _atom_site_label
 _atom_site_symmetry_multiplicity
 _atom_site_fract_x
 _atom_site_fract_y
 _atom_site_fract_z
 _atom_site_occupancy
  Eu  Eu0  1  -0.00000000  0.40038599  0.24999999  1
  Eu  Eu1  1  -0.00000000  0.59961398  0.74999996  1
  Sn  Sn2  1  0.00000000  0.00000000  0.00000000  1
  Sn  Sn3  1  0.00000000  0.00000000  0.49999997  1
  Sn  Sn4  1  0.49999998  0.06681600  0.24999999  1
  Sn  Sn5  1  0.49999998  0.93318397  0.74999996  1
  Sn  Sn6  1  0.49999998  0.68591198  0.06418100  1
  Sn  Sn7  1  0.49999998  0.31408799  0.93581895  1
  Sn  Sn8  1  0.49999998  0.68591198  0.43581898  1
  Sn  Sn9  1  0.49999998  0.31408799  0.56418097  1
  Sn  Sn10  1  -0.00000000  0.80616298  0.24999999  1
  Sn  Sn11  1  -0.00000000  0.19383699  0.74999996  1
