# generated using pymatgen
data_Tm5Ru4
_symmetry_space_group_name_H-M   'P 1'
_cell_length_a   5.83728886
_cell_length_b   8.57820606
_cell_length_c   8.57820606
_cell_angle_alpha   120.00000000
_cell_angle_beta   90.00000000
_cell_angle_gamma   90.00000000
_symmetry_Int_Tables_number   1
_chemical_formula_structural   Tm5Ru4
_chemical_formula_sum   'Tm10 Ru8'
_cell_volume   371.99299815
_cell_formula_units_Z   2
loop_
 _symmetry_equiv_pos_site_id
 _symmetry_equiv_pos_as_xyz
  1  'x, y, z'
loop_
 _atom_site_type_symbol
 _atom_site_label
 _atom_site_symmetry_multiplicity
 _atom_site_fract_x
 _atom_site_fract_y
 _atom_site_fract_z
 _atom_site_occupancy
  Tm  Tm0  1  -0.00000000  0.33333333  0.66666663  1
  Tm  Tm1  1  1.00000002  0.66666665  0.33333331  1
  Tm  Tm2  1  0.50000001  0.66666665  0.33333331  1
  Tm  Tm3  1  0.50000001  0.33333333  0.66666663  1
  Tm  Tm4  1  0.25000001  0.22988200  -0.00000000  1
  Tm  Tm5  1  0.25000001  0.77011799  0.77011795  1
  Tm  Tm6  1  0.25000001  0.00000000  0.22988199  1
  Tm  Tm7  1  0.75000002  0.77011799  0.99999994  1
  Tm  Tm8  1  0.75000002  0.22988200  0.22988199  1
  Tm  Tm9  1  0.75000002  0.00000000  0.77011797  1
  Ru  Ru10  1  0.25000001  0.60207499  0.99999995  1
  Ru  Ru11  1  0.25000001  0.39792499  0.39792498  1
  Ru  Ru12  1  0.25000001  0.00000000  0.60207498  1
  Ru  Ru13  1  0.75000002  0.39792499  0.99999995  1
  Ru  Ru14  1  0.75000002  0.60207499  0.60207496  1
  Ru  Ru15  1  0.75000002  0.00000000  0.39792498  1
  Ru  Ru16  1  0.00000000  0.00000000  0.00000000  1
  Ru  Ru17  1  0.50000001  0.00000000  -0.00000000  1
