# generated using pymatgen
data_Ba4TlTe2O3
_symmetry_space_group_name_H-M   'P 1'
_cell_length_a   7.61088514
_cell_length_b   7.76563215
_cell_length_c   10.89107704
_cell_angle_alpha   90.00000000
_cell_angle_beta   90.00000000
_cell_angle_gamma   90.00000000
_symmetry_Int_Tables_number   1
_chemical_formula_structural   Ba4TlTe2O3
_chemical_formula_sum   'Ba8 Tl2 Te4 O6'
_cell_volume   643.69896813
_cell_formula_units_Z   2
loop_
 _symmetry_equiv_pos_site_id
 _symmetry_equiv_pos_as_xyz
  1  'x, y, z'
loop_
 _atom_site_type_symbol
 _atom_site_label
 _atom_site_symmetry_multiplicity
 _atom_site_fract_x
 _atom_site_fract_y
 _atom_site_fract_z
 _atom_site_occupancy
  Ba  Ba0  1  0.57866699  0.51958899  0.25000000  1
  Ba  Ba1  1  0.07866700  0.98041098  0.75000000  1
  Ba  Ba2  1  0.92133298  0.01958900  0.25000000  1
  Ba  Ba3  1  0.42133299  0.48041099  0.75000000  1
  Ba  Ba4  1  0.29003199  0.21052300  0.45890100  1
  Ba  Ba5  1  0.79003199  0.28947699  0.54109900  1
  Ba  Ba6  1  0.20996800  0.71052299  0.04109900  1
  Ba  Ba7  1  0.70996799  0.78947698  0.95890100  1
  Tl  Tl8  1  0.70996799  0.78947698  0.54109900  1
  Tl  Tl9  1  0.20996800  0.71052299  0.45890100  1
  Te  Te10  1  0.79003199  0.28947699  0.95890100  1
  Te  Te11  1  0.29003199  0.21052300  0.04109900  1
  Te  Te12  1  0.98679898  0.53978099  0.75000000  1
  Te  Te13  1  0.48679899  0.96021898  0.25000000  1
  O  O14  1  0.51320099  0.03978100  0.75000000  1
  O  O15  1  0.01320100  0.46021899  0.25000000  1
  O  O16  1  0.00000000  0.00000000  0.50000000  1
  O  O17  1  0.49999999  0.49999999  0.50000000  1
  O  O18  1  0.49999999  0.49999999  0.00000000  1
  O  O19  1  0.00000000  0.00000000  0.00000000  1
