# generated using pymatgen
data_Sr2CaCo3O7
_symmetry_space_group_name_H-M   'P 1'
_cell_length_a   3.86629605
_cell_length_b   3.91930103
_cell_length_c   11.81992435
_cell_angle_alpha   90.00012207
_cell_angle_beta   89.99999237
_cell_angle_gamma   89.99256897
_symmetry_Int_Tables_number   1
_chemical_formula_structural   Sr2CaCo3O7
_chemical_formula_sum   'Sr2 Ca1 Co3 O7'
_cell_volume   179.10941753
_cell_formula_units_Z   1
loop_
 _symmetry_equiv_pos_site_id
 _symmetry_equiv_pos_as_xyz
  1  'x, y, z'
loop_
 _atom_site_type_symbol
 _atom_site_label
 _atom_site_symmetry_multiplicity
 _atom_site_fract_x
 _atom_site_fract_y
 _atom_site_fract_z
 _atom_site_occupancy
  Sr  Sr0  1  0.50000001  0.49999700  0.18383599  1
  Sr  Sr1  1  0.50000001  0.50000200  0.81615397  1
  Ca  Ca2  1  0.50000101  0.50000100  0.50000998  1
  Co  Co3  1  0.99999899  0.00000100  0.00000598  1
  Co  Co4  1  0.00000103  0.99999699  0.35978499  1
  Co  Co5  1  0.00000100  0.00000200  0.64021298  1
  O  O6  1  0.00000002  0.50000100  0.00000000  1
  O  O7  1  0.49999903  0.99999899  0.37776298  1
  O  O8  1  0.50000003  0.99999799  0.62223598  1
  O  O9  1  0.99999902  0.99999899  0.15265298  1
  O  O10  1  0.99999899  0.00000200  0.84734696  1
  O  O11  1  0.00000002  0.49999900  0.37796699  1
  O  O12  1  0.00000102  0.50000000  0.62203298  1
