# generated using pymatgen
data_Li2MnCo3O8
_symmetry_space_group_name_H-M   'P 1'
_cell_length_a   5.93582916
_cell_length_b   5.93582916
_cell_length_c   5.94503164
_cell_angle_alpha   60.05120087
_cell_angle_beta   60.05120087
_cell_angle_gamma   60.00000763
_symmetry_Int_Tables_number   1
_chemical_formula_structural   Li2MnCo3O8
_chemical_formula_sum   'Li2 Mn1 Co3 O8'
_cell_volume   148.23052670
_cell_formula_units_Z   1
loop_
 _symmetry_equiv_pos_site_id
 _symmetry_equiv_pos_as_xyz
  1  'x, y, z'
loop_
 _atom_site_type_symbol
 _atom_site_label
 _atom_site_symmetry_multiplicity
 _atom_site_fract_x
 _atom_site_fract_y
 _atom_site_fract_z
 _atom_site_occupancy
  Li  Li0  1  0.00764200  0.00764200  0.97707400  1
  Li  Li1  1  0.62481303  0.62481302  0.12556101  1
  Mn  Mn2  1  0.24649001  0.24649001  0.26053000  1
  Co  Co3  1  0.62505603  0.62505602  0.62429801  1
  Co  Co4  1  0.62505602  0.12559000  0.62429801  1
  Co  Co5  1  0.12559001  0.62505602  0.62429800  1
  O  O6  1  0.83868203  0.37512901  0.41106001  1
  O  O7  1  0.37512902  0.83868203  0.41106001  1
  O  O8  1  0.37512902  0.37512901  0.41106001  1
  O  O9  1  0.37554302  0.37554301  0.87337101  1
  O  O10  1  0.87275204  0.87275203  0.38174401  1
  O  O11  1  0.87117504  0.87117503  0.84188301  1
  O  O12  1  0.87117504  0.41576701  0.84188301  1
  O  O13  1  0.41576703  0.87117503  0.84188301  1
