# generated using pymatgen
data_Ba2EuCd3(PdPb)2
_symmetry_space_group_name_H-M   'P 1'
_cell_length_a   4.66160917
_cell_length_b   4.66160917
_cell_length_c   13.35286427
_cell_angle_alpha   90.00000000
_cell_angle_beta   90.00000000
_cell_angle_gamma   90.00000000
_symmetry_Int_Tables_number   1
_chemical_formula_structural   Ba2EuCd3(PdPb)2
_chemical_formula_sum   'Ba2 Eu1 Cd3 Pd2 Pb2'
_cell_volume   290.16575328
_cell_formula_units_Z   1
loop_
 _symmetry_equiv_pos_site_id
 _symmetry_equiv_pos_as_xyz
  1  'x, y, z'
loop_
 _atom_site_type_symbol
 _atom_site_label
 _atom_site_symmetry_multiplicity
 _atom_site_fract_x
 _atom_site_fract_y
 _atom_site_fract_z
 _atom_site_occupancy
  Ba  Ba0  1  0.49999998  0.00000000  0.75100599  1
  Ba  Ba1  1  0.00000000  0.49999998  0.24899400  1
  Eu  Eu2  1  0.00000000  0.00000000  0.49999999  1
  Cd  Cd3  1  0.00000000  0.00000000  0.00000000  1
  Cd  Cd4  1  0.49999998  0.49999998  0.49999999  1
  Cd  Cd5  1  0.49999998  0.00000000  0.14318200  1
  Pd  Pd6  1  0.00000000  0.49999998  0.64006299  1
  Pd  Pd7  1  0.00000000  0.49999998  0.85681798  1
  Pb  Pb8  1  0.49999998  0.00000000  0.35993699  1
  Pb  Pb9  1  0.49999998  0.49999998  0.00000000  1
