# generated using pymatgen
data_Mg3(NiO)2
_symmetry_space_group_name_H-M   'P 1'
_cell_length_a   7.05739355
_cell_length_b   7.05739355
_cell_length_c   7.05739355
_cell_angle_alpha   60.00000000
_cell_angle_beta   60.00000000
_cell_angle_gamma   60.00000000
_symmetry_Int_Tables_number   1
_chemical_formula_structural   Mg3(NiO)2
_chemical_formula_sum   'Mg6 Ni4 O4'
_cell_volume   248.55242857
_cell_formula_units_Z   2
loop_
 _symmetry_equiv_pos_site_id
 _symmetry_equiv_pos_as_xyz
  1  'x, y, z'
loop_
 _atom_site_type_symbol
 _atom_site_label
 _atom_site_symmetry_multiplicity
 _atom_site_fract_x
 _atom_site_fract_y
 _atom_site_fract_z
 _atom_site_occupancy
  Mg  Mg0  1  0.50000002  0.50000002  0.50000002  1
  Mg  Mg1  1  0.87860103  0.87860203  0.36419501  1
  Mg  Mg2  1  0.87860103  0.87860203  0.87860203  1
  Mg  Mg3  1  0.87860103  0.36419501  0.87860203  1
  Mg  Mg4  1  0.36419401  0.87860203  0.87860203  1
  Mg  Mg5  1  0.25000001  0.25000001  0.25000001  1
  Ni  Ni6  1  0.11628600  0.11628700  0.65114002  1
  Ni  Ni7  1  0.11628600  0.11628700  0.11628700  1
  Ni  Ni8  1  0.11628600  0.65114002  0.11628700  1
  Ni  Ni9  1  0.65113902  0.11628700  0.11628700  1
  O  O10  1  0.63289202  0.63289202  0.10132400  1
  O  O11  1  0.63289202  0.63289202  0.63289202  1
  O  O12  1  0.63289202  0.10132400  0.63289202  1
  O  O13  1  0.10132400  0.63289202  0.63289202  1
