# generated using pymatgen
data_Tm5Ge3C
_symmetry_space_group_name_H-M   'P 1'
_cell_length_a   6.24417305
_cell_length_b   8.33101463
_cell_length_c   8.34353638
_cell_angle_alpha   119.95036316
_cell_angle_beta   90.00000000
_cell_angle_gamma   90.00000000
_symmetry_Int_Tables_number   1
_chemical_formula_structural   Tm5Ge3C
_chemical_formula_sum   'Tm10 Ge6 C2'
_cell_volume   376.07167874
_cell_formula_units_Z   2
loop_
 _symmetry_equiv_pos_site_id
 _symmetry_equiv_pos_as_xyz
  1  'x, y, z'
loop_
 _atom_site_type_symbol
 _atom_site_label
 _atom_site_symmetry_multiplicity
 _atom_site_fract_x
 _atom_site_fract_y
 _atom_site_fract_z
 _atom_site_occupancy
  Tm  Tm0  1  0.00000000  0.33316001  0.66631901  1
  Tm  Tm1  1  0.00000000  0.66684002  0.33368100  1
  Tm  Tm2  1  0.50000000  0.66684002  0.33368100  1
  Tm  Tm3  1  0.50000000  0.33316001  0.66631901  1
  Tm  Tm4  1  0.25000000  0.22361101  -0.00000000  1
  Tm  Tm5  1  0.25000000  0.77580003  0.77524401  1
  Tm  Tm6  1  0.25000000  0.00055500  0.22475601  1
  Tm  Tm7  1  0.74999999  0.77638903  -0.00000001  1
  Tm  Tm8  1  0.74999999  0.22420001  0.22475600  1
  Tm  Tm9  1  0.74999999  0.99944504  0.77524401  1
  Ge  Ge10  1  0.25000000  0.59406502  -0.00000001  1
  Ge  Ge11  1  0.25000000  0.40562601  0.40583900  1
  Ge  Ge12  1  0.25000000  0.99978804  0.59416100  1
  Ge  Ge13  1  0.74999999  0.40593501  -0.00000001  1
  Ge  Ge14  1  0.74999999  0.59437402  0.59416101  1
  Ge  Ge15  1  0.74999999  0.00021200  0.40583901  1
  C  C16  1  0.00000000  0.00000000  0.00000000  1
  C  C17  1  0.50000000  0.00000000  0.00000000  1
