# generated using pymatgen
data_ZnP
_symmetry_space_group_name_H-M   'P 1'
_cell_length_a   5.77884340
_cell_length_b   5.77884340
_cell_length_c   6.63277674
_cell_angle_alpha   115.22259521
_cell_angle_beta   115.22259521
_cell_angle_gamma   90.05703735
_symmetry_Int_Tables_number   1
_chemical_formula_structural   ZnP
_chemical_formula_sum   'Zn4 P4'
_cell_volume   176.70977834
_cell_formula_units_Z   4
loop_
 _symmetry_equiv_pos_site_id
 _symmetry_equiv_pos_as_xyz
  1  'x, y, z'
loop_
 _atom_site_type_symbol
 _atom_site_label
 _atom_site_symmetry_multiplicity
 _atom_site_fract_x
 _atom_site_fract_y
 _atom_site_fract_z
 _atom_site_occupancy
  Zn  Zn0  1  0.63221602  0.38728702  0.99230705  1
  Zn  Zn1  1  0.38728700  0.63221602  0.49230703  1
  Zn  Zn2  1  0.10038898  0.89401903  0.99474804  1
  Zn  Zn3  1  0.89401904  0.10038900  0.49474803  1
  P  P4  1  0.72211602  0.49336402  0.73035204  1
  P  P5  1  0.00473999  0.30986901  0.25759401  1
  P  P6  1  0.49336400  0.72211603  0.23035202  1
  P  P7  1  0.30986901  0.00474000  0.75759403  1
