# generated using pymatgen
data_MnC
_symmetry_space_group_name_H-M   'P 1'
_cell_length_a   2.95421290
_cell_length_b   5.25936699
_cell_length_c   5.89828491
_cell_angle_alpha   90.00000000
_cell_angle_beta   90.00000000
_cell_angle_gamma   90.00000000
_symmetry_Int_Tables_number   1
_chemical_formula_structural   MnC
_chemical_formula_sum   'Mn4 C4'
_cell_volume   91.64336216
_cell_formula_units_Z   4
loop_
 _symmetry_equiv_pos_site_id
 _symmetry_equiv_pos_as_xyz
  1  'x, y, z'
loop_
 _atom_site_type_symbol
 _atom_site_label
 _atom_site_symmetry_multiplicity
 _atom_site_fract_x
 _atom_site_fract_y
 _atom_site_fract_z
 _atom_site_occupancy
  Mn  Mn0  1  0.75000002  0.49793800  0.69248501  1
  Mn  Mn1  1  0.75000002  0.99793800  0.80751501  1
  Mn  Mn2  1  0.25000001  0.50139200  0.29823500  1
  Mn  Mn3  1  0.25000001  0.00139200  0.20176500  1
  C  C4  1  0.25000001  0.68575400  0.93709301  1
  C  C5  1  0.25000001  0.18575400  0.56290701  1
  C  C6  1  0.75000002  0.31491600  0.06059100  1
  C  C7  1  0.75000002  0.81491600  0.43940901  1
