# generated using pymatgen
data_SrTiO3
_symmetry_space_group_name_H-M   'P 1'
_cell_length_a   5.78234482
_cell_length_b   5.79894209
_cell_length_c   10.02141666
_cell_angle_alpha   89.89597321
_cell_angle_beta   73.24588776
_cell_angle_gamma   60.09667206
_symmetry_Int_Tables_number   1
_chemical_formula_structural   SrTiO3
_chemical_formula_sum   'Sr4 Ti4 O12'
_cell_volume   274.82517088
_cell_formula_units_Z   4
loop_
 _symmetry_equiv_pos_site_id
 _symmetry_equiv_pos_as_xyz
  1  'x, y, z'
loop_
 _atom_site_type_symbol
 _atom_site_label
 _atom_site_symmetry_multiplicity
 _atom_site_fract_x
 _atom_site_fract_y
 _atom_site_fract_z
 _atom_site_occupancy
  Sr  Sr0  1  0.24750100  0.37543800  0.12461499  1
  Sr  Sr1  1  0.25192599  0.87524401  0.62571899  1
  Sr  Sr2  1  0.74743801  0.62446001  0.87543900  1
  Sr  Sr3  1  0.75271002  0.12498900  0.37429800  1
  Ti  Ti4  1  0.98985502  0.49943901  0.49988899  1
  Ti  Ti5  1  0.00804400  0.00003100  0.99995902  1
  Ti  Ti6  1  0.50137201  0.24880900  0.74908801  1
  Ti  Ti7  1  0.49932100  0.75112301  0.25090398  1
  O  O8  1  0.24376000  0.62614701  0.87548200  1
  O  O9  1  0.25538500  0.12552400  0.37532500  1
  O  O10  1  0.74544101  0.37379200  0.12446199  1
  O  O11  1  0.75608401  0.87467001  0.62476399  1
  O  O12  1  0.75306501  0.37346300  0.62576800  1
  O  O13  1  0.73621001  0.86997501  0.12932098  1
  O  O14  1  0.26482500  0.37110900  0.62926500  1
  O  O15  1  0.24642899  0.87409001  0.12628798  1
  O  O16  1  0.24745400  0.12575000  0.87395001  1
  O  O17  1  0.26471100  0.62964101  0.37056999  1
  O  O18  1  0.73569402  0.12939700  0.87082901  1
  O  O19  1  0.75277201  0.62691101  0.37406599  1
