# generated using pymatgen
data_LiV3O7
_symmetry_space_group_name_H-M   'P 1'
_cell_length_a   4.82938766
_cell_length_b   5.40535498
_cell_length_c   5.40535498
_cell_angle_alpha   77.75993347
_cell_angle_beta   81.29138184
_cell_angle_gamma   98.70861816
_symmetry_Int_Tables_number   1
_chemical_formula_structural   LiV3O7
_chemical_formula_sum   'Li1 V3 O7'
_cell_volume   133.82486808
_cell_formula_units_Z   1
loop_
 _symmetry_equiv_pos_site_id
 _symmetry_equiv_pos_as_xyz
  1  'x, y, z'
loop_
 _atom_site_type_symbol
 _atom_site_label
 _atom_site_symmetry_multiplicity
 _atom_site_fract_x
 _atom_site_fract_y
 _atom_site_fract_z
 _atom_site_occupancy
  Li  Li0  1  0.99999997  0.37887698  0.37887704  1
  V  V1  1  -0.00000005  0.99985595  0.99985602  1
  V  V2  1  0.40857295  0.88219096  0.44615204  1
  V  V3  1  0.59142697  0.44615198  0.88219101  1
  O  O4  1  0.17644696  0.76987697  0.26831704  1
  O  O5  1  0.82355298  0.26831699  0.76987701  1
  O  O6  1  0.25524600  0.01534800  0.67498099  1
  O  O7  1  0.74475396  0.67498097  0.01534805  1
  O  O8  1  0.72732499  0.07798500  0.28960402  1
  O  O9  1  0.27267498  0.28960399  0.07798502  1
  O  O10  1  0.49999997  0.58151297  0.58151303  1
