# generated using pymatgen
data_TmFe12
_symmetry_space_group_name_H-M   'P 1'
_cell_length_a   4.67500496
_cell_length_b   6.44121361
_cell_length_c   6.44121313
_cell_angle_alpha   82.00453949
_cell_angle_beta   68.72173309
_cell_angle_gamma   68.72172546
_symmetry_Int_Tables_number   1
_chemical_formula_structural   TmFe12
_chemical_formula_sum   'Tm1 Fe12'
_cell_volume   168.41239365
_cell_formula_units_Z   1
loop_
 _symmetry_equiv_pos_site_id
 _symmetry_equiv_pos_as_xyz
  1  'x, y, z'
loop_
 _atom_site_type_symbol
 _atom_site_label
 _atom_site_symmetry_multiplicity
 _atom_site_fract_x
 _atom_site_fract_y
 _atom_site_fract_z
 _atom_site_occupancy
  Tm  Tm0  1  0.00157602  0.99842402  0.99842396  1
  Fe  Fe1  1  0.63962402  0.36037601  0.36037597  1
  Fe  Fe2  1  0.35999002  0.64001001  0.64000997  1
  Fe  Fe3  1  0.99995603  0.99851502  0.50131493  1
  Fe  Fe4  1  0.50021502  0.99851502  0.50131494  1
  Fe  Fe5  1  0.50021402  0.50131501  0.99851499  1
  Fe  Fe6  1  0.99995503  0.50131501  0.99851498  1
  Fe  Fe7  1  0.26829501  0.23170500  0.23170499  1
  Fe  Fe8  1  0.49919202  0.77306001  0.22855494  1
  Fe  Fe9  1  0.49919301  0.22855500  0.77306000  1
  Fe  Fe10  1  0.72995102  0.77004901  0.77004896  1
  Fe  Fe11  1  0.00091901  0.35877801  0.63938399  1
  Fe  Fe12  1  0.00091901  0.63938401  0.35877797  1
