# generated using pymatgen
data_KTlTe2
_symmetry_space_group_name_H-M   'P 1'
_cell_length_a   7.59010983
_cell_length_b   8.07089233
_cell_length_c   10.26352596
_cell_angle_alpha   90.00000000
_cell_angle_beta   90.00000000
_cell_angle_gamma   102.47638702
_symmetry_Int_Tables_number   1
_chemical_formula_structural   KTlTe2
_chemical_formula_sum   'K4 Tl4 Te8'
_cell_volume   613.88546845
_cell_formula_units_Z   4
loop_
 _symmetry_equiv_pos_site_id
 _symmetry_equiv_pos_as_xyz
  1  'x, y, z'
loop_
 _atom_site_type_symbol
 _atom_site_label
 _atom_site_symmetry_multiplicity
 _atom_site_fract_x
 _atom_site_fract_y
 _atom_site_fract_z
 _atom_site_occupancy
  K  K0  1  0.71397003  0.34588299  0.06351800  1
  K  K1  1  0.78603004  0.65411698  0.56351800  1
  K  K2  1  0.28603003  0.65411698  0.93648200  1
  K  K3  1  0.21397002  0.34588299  0.43648200  1
  Tl  Tl4  1  0.13520101  0.08887900  0.83490800  1
  Tl  Tl5  1  0.86479905  0.91112098  0.16509200  1
  Tl  Tl6  1  0.36479904  0.91112098  0.33490800  1
  Tl  Tl7  1  0.63520102  0.08887900  0.66509200  1
  Te  Te8  1  0.80293305  0.82401098  0.92489500  1
  Te  Te9  1  0.69706702  0.17598900  0.42489500  1
  Te  Te10  1  0.19706701  0.17598900  0.07510500  1
  Te  Te11  1  0.30293304  0.82401098  0.57510500  1
  Te  Te12  1  0.95579603  0.31110399  0.75157300  1
  Te  Te13  1  0.54420404  0.68889598  0.25157300  1
  Te  Te14  1  0.04420402  0.68889598  0.24842700  1
  Te  Te15  1  0.45579602  0.31110399  0.74842700  1
