# generated using pymatgen
data_Ho5Mn2Sn11
_symmetry_space_group_name_H-M   'P 1'
_cell_length_a   4.31890488
_cell_length_b   5.89573812
_cell_length_c   17.58681679
_cell_angle_alpha   98.66886902
_cell_angle_beta   90.00000000
_cell_angle_gamma   111.48597717
_symmetry_Int_Tables_number   1
_chemical_formula_structural   Ho5Mn2Sn11
_chemical_formula_sum   'Ho5 Mn2 Sn11'
_cell_volume   411.19263387
_cell_formula_units_Z   1
loop_
 _symmetry_equiv_pos_site_id
 _symmetry_equiv_pos_as_xyz
  1  'x, y, z'
loop_
 _atom_site_type_symbol
 _atom_site_label
 _atom_site_symmetry_multiplicity
 _atom_site_fract_x
 _atom_site_fract_y
 _atom_site_fract_z
 _atom_site_occupancy
  Ho  Ho0  1  0.61675000  0.23349900  0.93731004  1
  Ho  Ho1  1  0.29096896  0.58193599  0.27330602  1
  Ho  Ho2  1  0.97613994  0.95228199  0.60973304  1
  Ho  Ho3  1  0.72977198  0.45954399  0.73819404  1
  Ho  Ho4  1  0.36332895  0.72665899  0.04992001  1
  Mn  Mn5  1  0.03705199  0.07410300  0.39323502  1
  Sn  Sn6  1  0.68522399  0.37044699  0.13694901  1
  Mn  Mn7  1  0.35534495  0.71069099  0.47346603  1
  Sn  Sn8  1  0.03293200  0.06586400  0.80192303  1
  Sn  Sn9  1  0.97348694  0.94697299  0.19220402  1
  Sn  Sn10  1  0.65575499  0.31150900  0.53248903  1
  Sn  Sn11  1  0.28404096  0.56808399  0.87424704  1
  Sn  Sn12  1  0.57783400  0.15566800  0.27694901  1
  Sn  Sn13  1  0.26138296  0.52276599  0.61675203  1
  Sn  Sn14  1  0.89248996  0.78497899  0.92501505  1
  Sn  Sn15  1  0.07675999  0.15352000  0.05593400  1
  Sn  Sn16  1  0.74981898  0.49963699  0.38900502  1
  Sn  Sn17  1  0.44091993  0.88183999  0.72337004  1
