# generated using pymatgen
data_Li2Eu6CoCu2Sb5Ir2
_symmetry_space_group_name_H-M   'P 1'
_cell_length_a   8.02847767
_cell_length_b   8.92655182
_cell_length_c   8.02847767
_cell_angle_alpha   116.72421265
_cell_angle_beta   90.00000000
_cell_angle_gamma   116.72421265
_symmetry_Int_Tables_number   1
_chemical_formula_structural   Li2Eu6CoCu2Sb5Ir2
_chemical_formula_sum   'Li2 Eu6 Co1 Cu2 Sb5 Ir2'
_cell_volume   444.02543000
_cell_formula_units_Z   1
loop_
 _symmetry_equiv_pos_site_id
 _symmetry_equiv_pos_as_xyz
  1  'x, y, z'
loop_
 _atom_site_type_symbol
 _atom_site_label
 _atom_site_symmetry_multiplicity
 _atom_site_fract_x
 _atom_site_fract_y
 _atom_site_fract_z
 _atom_site_occupancy
  Eu  Eu0  1  0.75000003  0.50000000  0.75000003  1
  Eu  Eu1  1  0.25000001  0.50000000  0.25000001  1
  Eu  Eu2  1  0.66288703  0.00000000  0.16288701  1
  Eu  Eu3  1  0.83711303  0.00000000  0.66288703  1
  Eu  Eu4  1  0.16288701  0.00000000  0.33711301  1
  Eu  Eu5  1  0.33711301  0.00000000  0.83711303  1
  Li  Li6  1  0.25000001  0.50000000  0.75000003  1
  Li  Li7  1  0.75000003  0.50000000  0.25000001  1
  Co  Co8  1  0.51530902  0.72960799  0.71429903  1
  Sb  Sb9  1  0.78570203  0.27039400  0.98469204  1
  Sb  Sb10  1  0.48469102  0.27039200  0.28570101  1
  Sb  Sb11  1  0.98469104  0.27039300  0.48469102  1
  Sb  Sb12  1  0.28570201  0.27039300  0.78570203  1
  Ir  Ir13  1  0.01530900  0.72960699  0.51530902  1
  Sb  Sb14  1  0.71429803  0.72960699  0.21429801  1
  Ir  Ir15  1  0.21429801  0.72960599  0.01530800  1
  Cu  Cu16  1  0.50000002  0.00000000  0.50000002  1
  Cu  Cu17  1  0.00000000  0.00000000  0.00000000  1
