# generated using pymatgen
data_Al6Co4Ir
_symmetry_space_group_name_H-M   'P 1'
_cell_length_a   3.81592011
_cell_length_b   7.29731798
_cell_length_c   7.29731798
_cell_angle_alpha   120.00000000
_cell_angle_beta   90.00000000
_cell_angle_gamma   90.00000000
_symmetry_Int_Tables_number   1
_chemical_formula_structural   Al6Co4Ir
_chemical_formula_sum   'Al6 Co4 Ir1'
_cell_volume   175.97721819
_cell_formula_units_Z   1
loop_
 _symmetry_equiv_pos_site_id
 _symmetry_equiv_pos_as_xyz
  1  'x, y, z'
loop_
 _atom_site_type_symbol
 _atom_site_label
 _atom_site_symmetry_multiplicity
 _atom_site_fract_x
 _atom_site_fract_y
 _atom_site_fract_z
 _atom_site_occupancy
  Al  Al0  1  0.00000000  0.00000000  0.00000000  1
  Al  Al1  1  0.49999998  0.18886600  0.37773201  1
  Al  Al2  1  0.49999998  0.62226801  0.81113404  1
  Al  Al3  1  0.99999997  0.66666667  0.33333336  1
  Al  Al4  1  0.49999998  0.18886600  0.81113403  1
  Al  Al5  1  0.49999998  0.80032901  0.60065803  1
  Co  Co6  1  0.49999998  0.80032901  0.19967102  1
  Co  Co7  1  0.99999997  0.46518001  0.53482102  1
  Co  Co8  1  0.99999997  0.06964100  0.53482102  1
  Co  Co9  1  0.99999997  0.46518001  0.93036004  1
  Ir  Ir10  1  0.49999998  0.39934200  0.19967101  1
