# generated using pymatgen
data_KTl
_symmetry_space_group_name_H-M   'P 1'
_cell_length_a   7.10845423
_cell_length_b   8.65266991
_cell_length_c   8.65266991
_cell_angle_alpha   120.00000000
_cell_angle_beta   90.00000000
_cell_angle_gamma   90.00000000
_symmetry_Int_Tables_number   1
_chemical_formula_structural   KTl
_chemical_formula_sum   'K4 Tl4'
_cell_volume   460.89932804
_cell_formula_units_Z   4
loop_
 _symmetry_equiv_pos_site_id
 _symmetry_equiv_pos_as_xyz
  1  'x, y, z'
loop_
 _atom_site_type_symbol
 _atom_site_label
 _atom_site_symmetry_multiplicity
 _atom_site_fract_x
 _atom_site_fract_y
 _atom_site_fract_z
 _atom_site_occupancy
  K  K0  1  0.24999999  0.66666667  0.33333333  1
  K  K1  1  0.74999998  0.33333334  0.66666667  1
  K  K2  1  0.74999998  0.83368901  0.16631200  1
  Tl  Tl3  1  0.74999998  0.33262300  0.16631200  1
  K  K4  1  0.74999998  0.83368901  0.66737800  1
  Tl  Tl5  1  0.24999999  0.16631100  0.83368801  1
  Tl  Tl6  1  0.24999999  0.66737701  0.83368800  1
  Tl  Tl7  1  0.24999999  0.16631100  0.33262200  1
