# generated using pymatgen
data_Li4B3HO7
_symmetry_space_group_name_H-M   'P 1'
_cell_length_a   5.03623915
_cell_length_b   5.09200954
_cell_length_c   6.27159595
_cell_angle_alpha   90.95233917
_cell_angle_beta   90.18237305
_cell_angle_gamma   67.16003418
_symmetry_Int_Tables_number   1
_chemical_formula_structural   Li4B3HO7
_chemical_formula_sum   'Li4 B3 H1 O7'
_cell_volume   148.20057453
_cell_formula_units_Z   1
loop_
 _symmetry_equiv_pos_site_id
 _symmetry_equiv_pos_as_xyz
  1  'x, y, z'
loop_
 _atom_site_type_symbol
 _atom_site_label
 _atom_site_symmetry_multiplicity
 _atom_site_fract_x
 _atom_site_fract_y
 _atom_site_fract_z
 _atom_site_occupancy
  Li  Li0  1  0.61958504  0.77385096  0.24311304  1
  Li  Li1  1  0.00006000  0.00000200  0.50000100  1
  Li  Li2  1  0.38044001  0.22607499  0.75695702  1
  Li  Li3  1  0.99987098  0.00006800  0.99995000  1
  B  B4  1  0.64315703  0.64159996  0.75360303  1
  B  B5  1  0.35683102  0.35850498  0.24638102  1
  B  B6  1  0.00023503  0.49987297  0.50000303  1
  O  O7  1  0.76108203  0.75371796  0.94641304  1
  O  O8  1  0.78369203  0.70434996  0.54359803  1
  H  H9  1  0.31362504  0.80962295  0.73760204  1
  O  O10  1  0.27066004  0.68532296  0.23708203  1
  O  O11  1  0.72929301  0.31461998  0.76283702  1
  O  O12  1  0.68626800  0.19046599  0.26237801  1
  O  O13  1  0.21634801  0.29577998  0.45643302  1
  O  O14  1  0.23885201  0.24614599  0.05364901  1
