# generated using pymatgen
data_Y2SiNi5P4
_symmetry_space_group_name_H-M   'P 1'
_cell_length_a   3.79038596
_cell_length_b   3.79038596
_cell_length_c   12.19802284
_cell_angle_alpha   98.93818665
_cell_angle_beta   98.93818665
_cell_angle_gamma   90.00000000
_symmetry_Int_Tables_number   1
_chemical_formula_structural   Y2SiNi5P4
_chemical_formula_sum   'Y2 Si1 Ni5 P4'
_cell_volume   170.96655205
_cell_formula_units_Z   1
loop_
 _symmetry_equiv_pos_site_id
 _symmetry_equiv_pos_as_xyz
  1  'x, y, z'
loop_
 _atom_site_type_symbol
 _atom_site_label
 _atom_site_symmetry_multiplicity
 _atom_site_fract_x
 _atom_site_fract_y
 _atom_site_fract_z
 _atom_site_occupancy
  Y  Y0  1  0.85041698  0.85041700  0.70083394  1
  Y  Y1  1  0.14958300  0.14958300  0.29916598  1
  Ni  Ni2  1  0.45029898  0.95029900  0.90059794  1
  Ni  Ni3  1  0.95029899  0.45029900  0.90059794  1
  Ni  Ni4  1  0.54970100  0.04970100  0.09940198  1
  Si  Si5  1  0.30606099  0.30606100  0.61212197  1
  Ni  Ni6  1  0.69393899  0.69393900  0.38787796  1
  Ni  Ni7  1  0.04970099  0.54970100  0.09940198  1
  P  P8  1  0.24999998  0.75000000  0.49999996  1
  P  P9  1  0.75000000  0.25000000  0.49999996  1
  P  P10  1  0.40022699  0.40022700  0.80045396  1
  P  P11  1  0.59977299  0.59977300  0.19954597  1
