# generated using pymatgen
data_Mn3Si5
_symmetry_space_group_name_H-M   'P 1'
_cell_length_a   4.62222481
_cell_length_b   4.67308378
_cell_length_c   4.67308378
_cell_angle_alpha   89.86596680
_cell_angle_beta   90.00000000
_cell_angle_gamma   90.00000000
_symmetry_Int_Tables_number   1
_chemical_formula_structural   Mn3Si5
_chemical_formula_sum   'Mn3 Si5'
_cell_volume   100.93853812
_cell_formula_units_Z   1
loop_
 _symmetry_equiv_pos_site_id
 _symmetry_equiv_pos_as_xyz
  1  'x, y, z'
loop_
 _atom_site_type_symbol
 _atom_site_label
 _atom_site_symmetry_multiplicity
 _atom_site_fract_x
 _atom_site_fract_y
 _atom_site_fract_z
 _atom_site_occupancy
  Mn  Mn0  1  0.50000002  0.50270000  0.49730001  1
  Mn  Mn1  1  0.75000003  0.99404501  0.23932401  1
  Mn  Mn2  1  0.25000001  0.76067601  0.00595501  1
  Si  Si3  1  -0.00000000  0.50270000  0.49730001  1
  Si  Si4  1  0.75000003  0.99273001  0.74924501  1
  Si  Si5  1  0.25000001  0.25075500  0.00727000  1
  Si  Si6  1  0.25000001  0.00440900  0.50801400  1
  Si  Si7  1  0.75000003  0.49198600  0.99559101  1
