# generated using pymatgen
data_Eu5Cu3O8
_symmetry_space_group_name_H-M   'P 1'
_cell_length_a   6.30636454
_cell_length_b   6.30636454
_cell_length_c   6.30636454
_cell_angle_alpha   84.89448547
_cell_angle_beta   84.89448547
_cell_angle_gamma   84.89447784
_symmetry_Int_Tables_number   1
_chemical_formula_structural   Eu5Cu3O8
_chemical_formula_sum   'Eu5 Cu3 O8'
_cell_volume   247.98721671
_cell_formula_units_Z   1
loop_
 _symmetry_equiv_pos_site_id
 _symmetry_equiv_pos_as_xyz
  1  'x, y, z'
loop_
 _atom_site_type_symbol
 _atom_site_label
 _atom_site_symmetry_multiplicity
 _atom_site_fract_x
 _atom_site_fract_y
 _atom_site_fract_z
 _atom_site_occupancy
  Eu  Eu0  1  0.11839797  0.49487801  0.81023704  1
  Eu  Eu1  1  0.49487796  0.81023702  0.11839808  1
  Eu  Eu2  1  0.81023701  0.11839800  0.49487805  1
  Eu  Eu3  1  0.99487798  0.61839802  0.31023709  1
  Eu  Eu4  1  0.61839799  0.31023701  0.99487806  1
  Cu  Cu5  1  0.31023694  0.99487802  0.61839808  1
  Cu  Cu6  1  0.09296800  0.09296800  0.09296801  1
  Cu  Cu7  1  0.59296797  0.59296801  0.59296807  1
  O  O8  1  0.41563598  0.41563601  0.41563605  1
  O  O9  1  0.91563596  0.91563602  0.91563611  1
  O  O10  1  0.30425500  0.13598200  0.95677803  1
  O  O11  1  0.13598194  0.95677802  0.30425507  1
  O  O12  1  0.95677800  0.30425501  0.13598207  1
  O  O13  1  0.63598196  0.80425502  0.45677809  1
  O  O14  1  0.80425499  0.45677801  0.63598208  1
  O  O15  1  0.45677797  0.63598202  0.80425507  1
