# generated using pymatgen
data_Li4CoBO8
_symmetry_space_group_name_H-M   'P 1'
_cell_length_a   5.13455391
_cell_length_b   5.13481379
_cell_length_c   8.44474697
_cell_angle_alpha   72.31982422
_cell_angle_beta   89.98721313
_cell_angle_gamma   60.00823975
_symmetry_Int_Tables_number   1
_chemical_formula_structural   Li4CoBO8
_chemical_formula_sum   'Li4 Co1 B1 O8'
_cell_volume   180.59787697
_cell_formula_units_Z   1
loop_
 _symmetry_equiv_pos_site_id
 _symmetry_equiv_pos_as_xyz
  1  'x, y, z'
loop_
 _atom_site_type_symbol
 _atom_site_label
 _atom_site_symmetry_multiplicity
 _atom_site_fract_x
 _atom_site_fract_y
 _atom_site_fract_z
 _atom_site_occupancy
  Li  Li0  1  0.83726798  0.32516501  0.51255201  1
  Li  Li1  1  0.58695997  0.82636402  0.76020400  1
  Li  Li2  1  0.98126998  0.03747600  0.94385699  1
  Li  Li3  1  0.44323699  0.11356700  0.32969200  1
  B  B4  1  0.12572498  0.74837202  0.37752700  1
  Co  Co5  1  0.29882798  0.40254501  0.89608698  1
  O  O6  1  0.16205299  0.40996801  0.44426799  1
  O  O7  1  0.57043999  0.16742900  0.82913999  1
  O  O8  1  0.26248798  0.74093702  0.82938098  1
  O  O9  1  0.36308299  0.27408401  0.08846801  1
  O  O10  1  0.42777197  0.71803302  0.44424701  1
  O  O11  1  0.85410596  0.98355703  0.44445003  1
  O  O12  1  0.99674497  0.43293901  0.82937901  1
  O  O13  1  0.06149298  0.87662402  0.18516001  1
