# generated using pymatgen
data_ZrP
_symmetry_space_group_name_H-M   'P 1'
_cell_length_a   6.75342131
_cell_length_b   6.75342131
_cell_length_c   6.75342226
_cell_angle_alpha   91.63846588
_cell_angle_beta   91.63846588
_cell_angle_gamma   91.63847351
_symmetry_Int_Tables_number   1
_chemical_formula_structural   ZrP
_chemical_formula_sum   'Zr7 P7'
_cell_volume   307.62963979
_cell_formula_units_Z   7
loop_
 _symmetry_equiv_pos_site_id
 _symmetry_equiv_pos_as_xyz
  1  'x, y, z'
loop_
 _atom_site_type_symbol
 _atom_site_label
 _atom_site_symmetry_multiplicity
 _atom_site_fract_x
 _atom_site_fract_y
 _atom_site_fract_z
 _atom_site_occupancy
  Zr  Zr0  1  0.41413101  0.54624502  0.22571397  1
  Zr  Zr1  1  0.54624502  0.22571401  0.41413097  1
  Zr  Zr2  1  0.22571401  0.41413101  0.54624497  1
  Zr  Zr3  1  0.58586902  0.45375501  0.77428596  1
  Zr  Zr4  1  0.45375501  0.77428602  0.58586896  1
  Zr  Zr5  1  0.77428602  0.58586902  0.45375496  1
  P  P6  1  0.21641401  0.21641401  0.21641399  1
  Zr  Zr7  1  0.78358602  0.78358602  0.78358595  1
  P  P8  1  0.12819701  0.74302602  0.38142197  1
  P  P9  1  0.74302602  0.38142201  0.12819697  1
  P  P10  1  0.38142201  0.12819700  0.74302597  1
  P  P11  1  0.87180303  0.25697401  0.61857796  1
  P  P12  1  0.25697401  0.61857802  0.87180296  1
  P  P13  1  0.61857702  0.87180302  0.25697396  1
