# generated using pymatgen
data_NaLiTi2O8
_symmetry_space_group_name_H-M   'P 1'
_cell_length_a   5.35203981
_cell_length_b   5.35203981
_cell_length_c   6.76691580
_cell_angle_alpha   113.29444122
_cell_angle_beta   113.29444122
_cell_angle_gamma   90.00000000
_symmetry_Int_Tables_number   1
_chemical_formula_structural   NaLiTi2O8
_chemical_formula_sum   'Na1 Li1 Ti2 O8'
_cell_volume   160.68673204
_cell_formula_units_Z   1
loop_
 _symmetry_equiv_pos_site_id
 _symmetry_equiv_pos_as_xyz
  1  'x, y, z'
loop_
 _atom_site_type_symbol
 _atom_site_label
 _atom_site_symmetry_multiplicity
 _atom_site_fract_x
 _atom_site_fract_y
 _atom_site_fract_z
 _atom_site_occupancy
  Na  Na0  1  0.25000002  0.75000003  0.50000000  1
  Li  Li1  1  0.50000002  0.50000002  0.00000001  1
  Ti  Ti2  1  0.75000003  0.25000001  0.49999999  1
  Ti  Ti3  1  0.00000000  0.00000000  0.00000000  1
  O  O4  1  0.10096401  0.16094101  0.67456898  1
  O  O5  1  0.91094104  0.82360503  0.17456901  1
  O  O6  1  0.26362801  0.35096401  0.17456900  1
  O  O7  1  0.57360503  0.51362802  0.67456899  1
  O  O8  1  0.17639501  0.73637203  0.82543099  1
  O  O9  1  0.48637203  0.89903604  0.32543100  1
  O  O10  1  0.83905904  0.42639502  0.32543100  1
  O  O11  1  0.64903603  0.08905900  0.82543098  1
