# generated using pymatgen
data_EuTm3Co2O3
_symmetry_space_group_name_H-M   'P 1'
_cell_length_a   3.73572588
_cell_length_b   3.73572636
_cell_length_c   15.43955708
_cell_angle_alpha   90.00000000
_cell_angle_beta   90.00000000
_cell_angle_gamma   120.00000000
_symmetry_Int_Tables_number   1
_chemical_formula_structural   EuTm3Co2O3
_chemical_formula_sum   'Eu1 Tm3 Co2 O3'
_cell_volume   186.60167014
_cell_formula_units_Z   1
loop_
 _symmetry_equiv_pos_site_id
 _symmetry_equiv_pos_as_xyz
  1  'x, y, z'
loop_
 _atom_site_type_symbol
 _atom_site_label
 _atom_site_symmetry_multiplicity
 _atom_site_fract_x
 _atom_site_fract_y
 _atom_site_fract_z
 _atom_site_occupancy
  Tm  Tm0  1  0.66666671  0.33333334  0.90089900  1
  Eu  Eu1  1  0.33333338  0.66666668  0.09910100  1
  Tm  Tm2  1  0.66666671  0.33333334  0.32858900  1
  Tm  Tm3  1  0.33333338  0.66666668  0.67141100  1
  Co  Co4  1  0.66666671  0.33333334  0.60655700  1
  Co  Co5  1  0.33333338  0.66666668  0.39344300  1
  O  O6  1  0.66666671  0.33333334  0.18590700  1
  O  O7  1  0.33333338  0.66666668  0.81409300  1
  O  O8  1  0.00000000  0.00000000  0.00000000  1
