# generated using pymatgen
data_RbAc7
_symmetry_space_group_name_H-M   'P 1'
_cell_length_a   6.81917906
_cell_length_b   8.37088203
_cell_length_c   8.37088203
_cell_angle_alpha   60.00000000
_cell_angle_beta   90.00000000
_cell_angle_gamma   90.00000000
_symmetry_Int_Tables_number   1
_chemical_formula_structural   RbAc7
_chemical_formula_sum   'Rb1 Ac7'
_cell_volume   413.81399046
_cell_formula_units_Z   1
loop_
 _symmetry_equiv_pos_site_id
 _symmetry_equiv_pos_as_xyz
  1  'x, y, z'
loop_
 _atom_site_type_symbol
 _atom_site_label
 _atom_site_symmetry_multiplicity
 _atom_site_fract_x
 _atom_site_fract_y
 _atom_site_fract_z
 _atom_site_occupancy
  Ac  Ac0  1  0.74999999  0.66345201  0.16827398  1
  Ac  Ac1  1  0.74999999  0.16827400  0.16827400  1
  Ac  Ac2  1  0.74999999  0.16827400  0.66345203  1
  Ac  Ac3  1  0.25000000  0.33654800  0.83172603  1
  Ac  Ac4  1  0.25000000  0.83172601  0.83172601  1
  Ac  Ac5  1  0.25000000  0.83172601  0.33654799  1
  Rb  Rb6  1  0.25000000  0.33333334  0.33333334  1
  Ac  Ac7  1  0.74999999  0.66666668  0.66666668  1
