# generated using pymatgen
data_TiAl
_symmetry_space_group_name_H-M   'P 1'
_cell_length_a   4.38103008
_cell_length_b   5.53109980
_cell_length_c   5.53110075
_cell_angle_alpha   60.00000381
_cell_angle_beta   90.00000000
_cell_angle_gamma   90.00000000
_symmetry_Int_Tables_number   1
_chemical_formula_structural   TiAl
_chemical_formula_sum   'Ti4 Al4'
_cell_volume   116.07266274
_cell_formula_units_Z   4
loop_
 _symmetry_equiv_pos_site_id
 _symmetry_equiv_pos_as_xyz
  1  'x, y, z'
loop_
 _atom_site_type_symbol
 _atom_site_label
 _atom_site_symmetry_multiplicity
 _atom_site_fract_x
 _atom_site_fract_y
 _atom_site_fract_z
 _atom_site_occupancy
  Ti  Ti0  1  0.25000000  0.83363304  0.33273399  1
  Ti  Ti1  1  0.25000000  0.83363304  0.83363299  1
  Ti  Ti2  1  0.25000000  0.33273401  0.83363300  1
  Ti  Ti3  1  0.74999999  0.16636701  0.66726600  1
  Al  Al4  1  0.74999999  0.16636701  0.16636700  1
  Al  Al5  1  0.74999999  0.66726603  0.16636699  1
  Al  Al6  1  0.74999999  0.66666670  0.66666666  1
  Al  Al7  1  0.25000000  0.33333335  0.33333333  1
