# generated using pymatgen
data_SmAlSi
_symmetry_space_group_name_H-M   'P 1'
_cell_length_a   4.15084791
_cell_length_b   4.15084791
_cell_length_c   8.45235538
_cell_angle_alpha   104.21397400
_cell_angle_beta   104.21397400
_cell_angle_gamma   90.00000000
_symmetry_Int_Tables_number   1
_chemical_formula_structural   SmAlSi
_chemical_formula_sum   'Sm2 Al2 Si2'
_cell_volume   136.56791766
_cell_formula_units_Z   2
loop_
 _symmetry_equiv_pos_site_id
 _symmetry_equiv_pos_as_xyz
  1  'x, y, z'
loop_
 _atom_site_type_symbol
 _atom_site_label
 _atom_site_symmetry_multiplicity
 _atom_site_fract_x
 _atom_site_fract_y
 _atom_site_fract_z
 _atom_site_occupancy
  Sm  Sm0  1  0.24999999  0.75000001  0.50000000  1
  Sm  Sm1  1  0.50000000  0.50000001  -0.00000002  1
  Al  Al2  1  0.83032200  0.33032200  0.66064400  1
  Al  Al3  1  0.91967799  0.91967801  0.83935600  1
  Si  Si4  1  0.66967800  0.16967800  0.33935600  1
  Si  Si5  1  0.08032200  0.08032200  0.16064400  1
