# generated using pymatgen
data_YbAl2Cu3
_symmetry_space_group_name_H-M   'P 1'
_cell_length_a   4.02878380
_cell_length_b   5.34283018
_cell_length_c   5.34282970
_cell_angle_alpha   120.00000000
_cell_angle_beta   90.00000000
_cell_angle_gamma   90.00000000
_symmetry_Int_Tables_number   1
_chemical_formula_structural   YbAl2Cu3
_chemical_formula_sum   'Yb1 Al2 Cu3'
_cell_volume   99.59723827
_cell_formula_units_Z   1
loop_
 _symmetry_equiv_pos_site_id
 _symmetry_equiv_pos_as_xyz
  1  'x, y, z'
loop_
 _atom_site_type_symbol
 _atom_site_label
 _atom_site_symmetry_multiplicity
 _atom_site_fract_x
 _atom_site_fract_y
 _atom_site_fract_z
 _atom_site_occupancy
  Yb  Yb0  1  0.00000000  0.00000000  0.00000000  1
  Al  Al1  1  -0.00000000  0.66666663  0.33333329  1
  Al  Al2  1  1.00000005  0.33333331  0.66666663  1
  Cu  Cu3  1  0.50000003  0.49908197  0.50091796  1
  Cu  Cu4  1  0.50000003  0.00183600  0.50091799  1
  Cu  Cu5  1  0.50000003  0.49908197  0.99816395  1
