# generated using pymatgen
data_Cs2V2Cl7O
_symmetry_space_group_name_H-M   'P 1'
_cell_length_a   7.24041843
_cell_length_b   7.24041843
_cell_length_c   8.44094086
_cell_angle_alpha   90.74582672
_cell_angle_beta   115.38316345
_cell_angle_gamma   119.01760101
_symmetry_Int_Tables_number   1
_chemical_formula_structural   Cs2V2Cl7O
_chemical_formula_sum   'Cs2 V2 Cl7 O1'
_cell_volume   335.65064340
_cell_formula_units_Z   1
loop_
 _symmetry_equiv_pos_site_id
 _symmetry_equiv_pos_as_xyz
  1  'x, y, z'
loop_
 _atom_site_type_symbol
 _atom_site_label
 _atom_site_symmetry_multiplicity
 _atom_site_fract_x
 _atom_site_fract_y
 _atom_site_fract_z
 _atom_site_occupancy
  Cs  Cs0  1  0.94518202  0.28496701  0.23014900  1
  Cs  Cs1  1  0.05481806  0.71503304  0.76985109  1
  V  V2  1  0.62111400  0.03176800  0.65288201  1
  V  V3  1  0.37888608  0.96823205  0.34711808  1
  O  O4  1  0.23832102  0.23832101  0.00000001  1
  Cl  Cl5  1  0.76167906  0.76167904  0.00000004  1
  Cl  Cl6  1  0.42172906  0.76725304  0.18898206  1
  Cl  Cl7  1  0.00968807  0.80905904  0.32496408  1
  Cl  Cl8  1  0.57827101  0.23274701  0.81101804  1
  Cl  Cl9  1  0.99031201  0.19094101  0.67503601  1
  Cl  Cl10  1  0.51590502  0.31527602  0.32496402  1
  Cl  Cl11  1  0.48409506  0.68472404  0.67503607  1
