# generated using pymatgen
data_La5Sb4
_symmetry_space_group_name_H-M   'P 1'
_cell_length_a   6.58880711
_cell_length_b   9.70988178
_cell_length_c   9.70988178
_cell_angle_alpha   120.00000000
_cell_angle_beta   90.00000000
_cell_angle_gamma   90.00000000
_symmetry_Int_Tables_number   1
_chemical_formula_structural   La5Sb4
_chemical_formula_sum   'La10 Sb8'
_cell_volume   537.97898333
_cell_formula_units_Z   2
loop_
 _symmetry_equiv_pos_site_id
 _symmetry_equiv_pos_as_xyz
  1  'x, y, z'
loop_
 _atom_site_type_symbol
 _atom_site_label
 _atom_site_symmetry_multiplicity
 _atom_site_fract_x
 _atom_site_fract_y
 _atom_site_fract_z
 _atom_site_occupancy
  La  La0  1  0.25000000  0.00000000  0.72068498  1
  La  La1  1  0.25000000  0.72068501  0.99999996  1
  La  La2  1  0.49999999  0.66666667  0.33333331  1
  La  La3  1  0.49999999  0.33333334  0.66666664  1
  La  La4  1  0.74999999  0.27931500  -0.00000001  1
  La  La5  1  0.25000000  0.27931500  0.27931499  1
  La  La6  1  0.74999999  0.00000000  0.27931499  1
  La  La7  1  0.74999999  0.72068501  0.72068496  1
  La  La8  1  0.99999998  0.66666667  0.33333331  1
  La  La9  1  -0.00000000  0.33333334  0.66666664  1
  Sb  Sb10  1  0.25000000  0.38108400  -0.00000001  1
  Sb  Sb11  1  0.25000000  0.00000000  0.38108399  1
  Sb  Sb12  1  0.25000000  0.61891600  0.61891597  1
  Sb  Sb13  1  0.74999999  0.38108400  0.38108398  1
  Sb  Sb14  1  0.74999999  0.61891600  -0.00000002  1
  Sb  Sb15  1  0.00000000  0.00000000  0.00000000  1
  Sb  Sb16  1  0.74999999  0.00000000  0.61891599  1
  Sb  Sb17  1  0.49999999  0.00000000  -0.00000000  1
