# generated using pymatgen
data_Sr(AlSi)2
_symmetry_space_group_name_H-M   'P 1'
_cell_length_a   4.00962782
_cell_length_b   4.00962782
_cell_length_c   8.29147053
_cell_angle_alpha   103.99234772
_cell_angle_beta   103.99234772
_cell_angle_gamma   90.00000000
_symmetry_Int_Tables_number   1
_chemical_formula_structural   Sr(AlSi)2
_chemical_formula_sum   'Sr1 Al2 Si2'
_cell_volume   125.26737614
_cell_formula_units_Z   1
loop_
 _symmetry_equiv_pos_site_id
 _symmetry_equiv_pos_as_xyz
  1  'x, y, z'
loop_
 _atom_site_type_symbol
 _atom_site_label
 _atom_site_symmetry_multiplicity
 _atom_site_fract_x
 _atom_site_fract_y
 _atom_site_fract_z
 _atom_site_occupancy
  Sr  Sr0  1  0.00000000  0.00000000  0.00000000  1
  Al  Al1  1  0.24999999  0.75000002  0.49999995  1
  Al  Al2  1  0.75000002  0.25000001  0.49999996  1
  Si  Si3  1  0.64006101  0.64006102  0.28012196  1
  Si  Si4  1  0.35993900  0.35993901  0.71987795  1
