# generated using pymatgen
data_Yb2Ge3Au
_symmetry_space_group_name_H-M   'P 1'
_cell_length_a   4.37524796
_cell_length_b   4.37524796
_cell_length_c   7.65491486
_cell_angle_alpha   90.00000000
_cell_angle_beta   90.00000000
_cell_angle_gamma   120.00000000
_symmetry_Int_Tables_number   1
_chemical_formula_structural   Yb2Ge3Au
_chemical_formula_sum   'Yb2 Ge3 Au1'
_cell_volume   126.90429981
_cell_formula_units_Z   1
loop_
 _symmetry_equiv_pos_site_id
 _symmetry_equiv_pos_as_xyz
  1  'x, y, z'
loop_
 _atom_site_type_symbol
 _atom_site_label
 _atom_site_symmetry_multiplicity
 _atom_site_fract_x
 _atom_site_fract_y
 _atom_site_fract_z
 _atom_site_occupancy
  Yb  Yb0  1  0.00000000  0.00000000  0.50028301  1
  Yb  Yb1  1  0.00000000  0.00000000  0.00028300  1
  Ge  Ge2  1  0.33333334  0.66666669  0.73063001  1
  Ge  Ge3  1  0.66666668  0.33333334  0.23063000  1
  Au  Au4  1  0.66666668  0.33333334  0.76968801  1
  Ge  Ge5  1  0.33333334  0.66666669  0.26968801  1
