# generated using pymatgen
data_MgAg3
_symmetry_space_group_name_H-M   'P 1'
_cell_length_a   5.00719404
_cell_length_b   6.07089615
_cell_length_c   6.07089663
_cell_angle_alpha   60.00000381
_cell_angle_beta   90.00000000
_cell_angle_gamma   90.00000000
_symmetry_Int_Tables_number   1
_chemical_formula_structural   MgAg3
_chemical_formula_sum   'Mg2 Ag6'
_cell_volume   159.81984743
_cell_formula_units_Z   2
loop_
 _symmetry_equiv_pos_site_id
 _symmetry_equiv_pos_as_xyz
  1  'x, y, z'
loop_
 _atom_site_type_symbol
 _atom_site_label
 _atom_site_symmetry_multiplicity
 _atom_site_fract_x
 _atom_site_fract_y
 _atom_site_fract_z
 _atom_site_occupancy
  Mg  Mg0  1  0.25000000  0.33333333  0.33333334  1
  Mg  Mg1  1  0.74999999  0.66666665  0.66666668  1
  Ag  Ag2  1  0.74999999  0.67085198  0.16457400  1
  Ag  Ag3  1  0.74999999  0.16457400  0.16457400  1
  Ag  Ag4  1  0.74999999  0.16457400  0.67085201  1
  Ag  Ag5  1  0.25000000  0.32914799  0.83542601  1
  Ag  Ag6  1  0.25000000  0.83542598  0.83542601  1
  Ag  Ag7  1  0.25000000  0.83542598  0.32914800  1
