# generated using pymatgen
data_TmHf4Ti3Se8
_symmetry_space_group_name_H-M   'P 1'
_cell_length_a   6.28387213
_cell_length_b   7.82284498
_cell_length_c   8.23234558
_cell_angle_alpha   90.00000000
_cell_angle_beta   90.00000000
_cell_angle_gamma   90.00000000
_symmetry_Int_Tables_number   1
_chemical_formula_structural   TmHf4Ti3Se8
_chemical_formula_sum   'Tm1 Hf4 Ti3 Se8'
_cell_volume   404.68364807
_cell_formula_units_Z   1
loop_
 _symmetry_equiv_pos_site_id
 _symmetry_equiv_pos_as_xyz
  1  'x, y, z'
loop_
 _atom_site_type_symbol
 _atom_site_label
 _atom_site_symmetry_multiplicity
 _atom_site_fract_x
 _atom_site_fract_y
 _atom_site_fract_z
 _atom_site_occupancy
  Tm  Tm0  1  0.45971299  0.10641100  0.87268204  1
  Hf  Hf1  1  0.95971298  0.39358900  0.12731801  1
  Hf  Hf2  1  0.54028699  0.60641100  0.62731803  1
  Hf  Hf3  1  0.04028700  0.89358900  0.37268202  1
  Ti  Ti4  1  0.54028699  0.89358900  0.12731801  1
  Hf  Hf5  1  0.04028700  0.60641100  0.87268204  1
  Ti  Ti6  1  0.45971299  0.39358900  0.37268202  1
  Ti  Ti7  1  0.95971298  0.10641100  0.62731803  1
  Se  Se8  1  0.14184800  0.08268100  0.10930901  1
  Se  Se9  1  0.64184799  0.41731900  0.89069105  1
  Se  Se10  1  0.85815198  0.58268100  0.39069102  1
  Se  Se11  1  0.35815199  0.91731900  0.60930903  1
  Se  Se12  1  0.85815198  0.91731900  0.89069105  1
  Se  Se13  1  0.35815199  0.58268100  0.10930901  1
  Se  Se14  1  0.14184800  0.41731900  0.60930903  1
  Se  Se15  1  0.64184799  0.08268100  0.39069102  1
