# generated using pymatgen
data_EuMgCu5
_symmetry_space_group_name_H-M   'P 1'
_cell_length_a   5.44182014
_cell_length_b   5.51667023
_cell_length_c   5.51667023
_cell_angle_alpha   75.92085266
_cell_angle_beta   60.44782257
_cell_angle_gamma   60.44782257
_symmetry_Int_Tables_number   1
_chemical_formula_structural   EuMgCu5
_chemical_formula_sum   'Eu1 Mg1 Cu5'
_cell_volume   125.32675167
_cell_formula_units_Z   1
loop_
 _symmetry_equiv_pos_site_id
 _symmetry_equiv_pos_as_xyz
  1  'x, y, z'
loop_
 _atom_site_type_symbol
 _atom_site_label
 _atom_site_symmetry_multiplicity
 _atom_site_fract_x
 _atom_site_fract_y
 _atom_site_fract_z
 _atom_site_occupancy
  Eu  Eu0  1  0.00000000  0.00000000  0.00000000  1
  Mg  Mg1  1  0.25000001  0.50000000  0.50000001  1
  Cu  Cu2  1  0.74999999  0.50000000  0.50000002  1
  Cu  Cu3  1  0.69763200  0.60473500  0.00000001  1
  Cu  Cu4  1  0.30236801  0.39526500  0.00000000  1
  Cu  Cu5  1  0.30236699  0.00000000  0.39526602  1
  Cu  Cu6  1  0.69763297  0.00000000  0.60473403  1
