# generated using pymatgen
data_Sr3Tl2
_symmetry_space_group_name_H-M   'P 1'
_cell_length_a   9.10279083
_cell_length_b   9.10279083
_cell_length_c   9.10279083
_cell_angle_alpha   90.00000000
_cell_angle_beta   90.00000000
_cell_angle_gamma   90.00000000
_symmetry_Int_Tables_number   1
_chemical_formula_structural   Sr3Tl2
_chemical_formula_sum   'Sr12 Tl8'
_cell_volume   754.26453918
_cell_formula_units_Z   4
loop_
 _symmetry_equiv_pos_site_id
 _symmetry_equiv_pos_as_xyz
  1  'x, y, z'
loop_
 _atom_site_type_symbol
 _atom_site_label
 _atom_site_symmetry_multiplicity
 _atom_site_fract_x
 _atom_site_fract_y
 _atom_site_fract_z
 _atom_site_occupancy
  Sr  Sr0  1  0.87500002  0.70208101  0.04791900  1
  Sr  Sr1  1  0.06349400  0.06349400  0.06349400  1
  Sr  Sr2  1  0.20208100  0.45208101  0.12500000  1
  Sr  Sr3  1  0.81349401  0.31349401  0.18650600  1
  Sr  Sr4  1  0.45208101  0.12500000  0.20208100  1
  Sr  Sr5  1  0.54791901  0.62500001  0.29791901  1
  Sr  Sr6  1  0.18650600  0.81349401  0.31349401  1
  Sr  Sr7  1  0.79791901  0.95208102  0.37500001  1
  Sr  Sr8  1  0.93650602  0.56349401  0.43650601  1
  Sr  Sr9  1  0.12500000  0.20208100  0.45208101  1
  Sr  Sr10  1  0.62500001  0.29791901  0.54791901  1
  Tl  Tl11  1  0.43650601  0.93650602  0.56349401  1
  Tl  Tl12  1  0.29791901  0.54791901  0.62500001  1
  Sr  Sr13  1  0.68650601  0.68650601  0.68650601  1
  Tl  Tl14  1  0.04791900  0.87500002  0.70208101  1
  Tl  Tl15  1  0.95208102  0.37500001  0.79791901  1
  Tl  Tl16  1  0.31349401  0.18650600  0.81349401  1
  Tl  Tl17  1  0.70208101  0.04791900  0.87500002  1
  Tl  Tl18  1  0.56349401  0.43650601  0.93650602  1
  Tl  Tl19  1  0.37500001  0.79791901  0.95208102  1
