# generated using pymatgen
data_LaY(Co2Si)4
_symmetry_space_group_name_H-M   'P 1'
_cell_length_a   4.14608812
_cell_length_b   7.41295385
_cell_length_c   7.41295385
_cell_angle_alpha   90.00000000
_cell_angle_beta   90.00000000
_cell_angle_gamma   90.00000000
_symmetry_Int_Tables_number   1
_chemical_formula_structural   LaY(Co2Si)4
_chemical_formula_sum   'La1 Y1 Co8 Si4'
_cell_volume   227.83535707
_cell_formula_units_Z   1
loop_
 _symmetry_equiv_pos_site_id
 _symmetry_equiv_pos_as_xyz
  1  'x, y, z'
loop_
 _atom_site_type_symbol
 _atom_site_label
 _atom_site_symmetry_multiplicity
 _atom_site_fract_x
 _atom_site_fract_y
 _atom_site_fract_z
 _atom_site_occupancy
  Y  Y0  1  0.00000000  0.50000001  0.50000001  1
  La  La1  1  0.49999999  0.00000000  0.00000000  1
  Co  Co2  1  0.00000000  0.65780001  0.90606302  1
  Co  Co3  1  0.49999999  0.15780000  0.59393701  1
  Co  Co4  1  0.00000000  0.09393700  0.34220001  1
  Co  Co5  1  0.00000000  0.90606302  0.65780001  1
  Co  Co6  1  0.49999999  0.40606301  0.84220002  1
  Co  Co7  1  0.49999999  0.59393701  0.15780000  1
  Co  Co8  1  0.00000000  0.34220001  0.09393700  1
  Co  Co9  1  0.49999999  0.84220002  0.40606301  1
  Si  Si10  1  0.00000000  0.20902800  0.79097202  1
  Si  Si11  1  0.00000000  0.79097202  0.20902800  1
  Si  Si12  1  0.49999999  0.70902801  0.70902801  1
  Si  Si13  1  0.49999999  0.29097201  0.29097201  1
