# generated using pymatgen
data_Li5CuHO7
_symmetry_space_group_name_H-M   'P 1'
_cell_length_a   5.17030811
_cell_length_b   5.39032936
_cell_length_c   7.76942825
_cell_angle_alpha   83.20305634
_cell_angle_beta   70.90741730
_cell_angle_gamma   65.18400574
_symmetry_Int_Tables_number   1
_chemical_formula_structural   Li5CuHO7
_chemical_formula_sum   'Li5 Cu1 H1 O7'
_cell_volume   185.68042520
_cell_formula_units_Z   1
loop_
 _symmetry_equiv_pos_site_id
 _symmetry_equiv_pos_as_xyz
  1  'x, y, z'
loop_
 _atom_site_type_symbol
 _atom_site_label
 _atom_site_symmetry_multiplicity
 _atom_site_fract_x
 _atom_site_fract_y
 _atom_site_fract_z
 _atom_site_occupancy
  Li  Li0  1  0.75534807  0.71653696  0.81868992  1
  Li  Li1  1  0.96441102  0.25868899  0.55657693  1
  Li  Li2  1  0.03558907  0.74131096  0.44342296  1
  Li  Li3  1  0.24465203  0.28346299  0.18130997  1
  Li  Li4  1  0.40731203  0.29386799  0.75311095  1
  H  H5  1  0.59268807  0.70613196  0.24688894  1
  Cu  Cu6  1  0.23933402  0.18860599  0.94607996  1
  O  O7  1  0.55061805  0.49601498  0.78881394  1
  O  O8  1  0.70269700  0.02368700  0.63186295  1
  O  O9  1  0.15466604  0.46147798  0.63997296  1
  O  O10  1  0.84533405  0.53852197  0.36002693  1
  O  O11  1  0.29730309  0.97631295  0.36813694  1
  O  O12  1  0.44938205  0.50398497  0.21118595  1
  O  O13  1  0.76066607  0.81139396  0.05391993  1
