# generated using pymatgen
data_H2O2
_symmetry_space_group_name_H-M   'P 1'
_cell_length_a   5.45884609
_cell_length_b   5.77820396
_cell_length_c   7.58680868
_cell_angle_alpha   68.45743561
_cell_angle_beta   72.07781219
_cell_angle_gamma   89.90596771
_symmetry_Int_Tables_number   1
_chemical_formula_structural   H2O2
_chemical_formula_sum   'H9 O9'
_cell_volume   210.10475841
_cell_formula_units_Z   4
loop_
 _symmetry_equiv_pos_site_id
 _symmetry_equiv_pos_as_xyz
  1  'x, y, z'
loop_
 _atom_site_type_symbol
 _atom_site_label
 _atom_site_symmetry_multiplicity
 _atom_site_fract_x
 _atom_site_fract_y
 _atom_site_fract_z
 _atom_site_occupancy
  H  H0  1  0.88861000  0.11709600  0.74876595  1
  H  H1  1  0.13362902  0.87704098  0.25383698  1
  H  H2  1  0.24677902  0.61955298  0.85621997  1
  H  H3  1  0.44666302  0.77812198  0.63243496  1
  H  H4  1  0.37133901  0.47965299  0.70174797  1
  H  H5  1  0.53688901  0.25880599  0.35993697  1
  H  H6  1  0.73807201  0.35498099  0.13123996  1
  H  H7  1  0.49178001  0.52723499  0.18496897  1
  H  H8  1  0.40542702  0.61421898  0.74906496  1
  O  O9  1  0.62499401  0.40714999  0.23650496  1
  O  O10  1  0.71809400  0.08990300  0.59307996  1
  O  O11  1  0.18667401  0.31290699  0.60742198  1
  O  O12  1  0.32304002  0.70617898  0.11956998  1
  O  O13  1  0.08647200  0.16774300  0.09068299  1
  O  O14  1  0.29163402  0.92879298  0.40857497  1
  O  O15  1  0.83348902  0.70519798  0.40354195  1
  O  O16  1  0.69448201  0.24573899  0.91086595  1
  O  O17  1  0.94733302  0.81806398  0.88867293  1
