# generated using pymatgen
data_Eu2Ge8Pt
_symmetry_space_group_name_H-M   'P 1'
_cell_length_a   4.28657818
_cell_length_b   4.32253599
_cell_length_c   12.07360268
_cell_angle_alpha   100.31196594
_cell_angle_beta   90.00000000
_cell_angle_gamma   90.00000000
_symmetry_Int_Tables_number   1
_chemical_formula_structural   Eu2Ge8Pt
_chemical_formula_sum   'Eu2 Ge8 Pt1'
_cell_volume   220.09699347
_cell_formula_units_Z   1
loop_
 _symmetry_equiv_pos_site_id
 _symmetry_equiv_pos_as_xyz
  1  'x, y, z'
loop_
 _atom_site_type_symbol
 _atom_site_label
 _atom_site_symmetry_multiplicity
 _atom_site_fract_x
 _atom_site_fract_y
 _atom_site_fract_z
 _atom_site_occupancy
  Eu  Eu0  1  0.99999996  0.17847300  0.35694600  1
  Eu  Eu1  1  0.00000000  0.82152700  0.64305400  1
  Ge  Ge2  1  -0.00000000  0.43671200  0.87342401  1
  Ge  Ge3  1  -0.00000000  0.56328800  0.12657600  1
  Ge  Ge4  1  0.49999998  0.06295700  0.12591400  1
  Ge  Ge5  1  0.49999998  0.93704300  0.87408600  1
  Ge  Ge6  1  0.49999998  0.27312300  0.54624600  1
  Ge  Ge7  1  0.49999998  0.72687700  0.45375400  1
  Ge  Ge8  1  0.49999998  0.37680600  0.75361201  1
  Ge  Ge9  1  0.49999998  0.62319400  0.24638800  1
  Pt  Pt10  1  0.00000000  0.00000000  0.00000000  1
