# generated using pymatgen
data_LiV2O3
_symmetry_space_group_name_H-M   'P 1'
_cell_length_a   5.24938583
_cell_length_b   5.54243708
_cell_length_c   5.54243708
_cell_angle_alpha   119.60617828
_cell_angle_beta   90.00000000
_cell_angle_gamma   90.00000000
_symmetry_Int_Tables_number   1
_chemical_formula_structural   LiV2O3
_chemical_formula_sum   'Li2 V4 O6'
_cell_volume   140.20079761
_cell_formula_units_Z   2
loop_
 _symmetry_equiv_pos_site_id
 _symmetry_equiv_pos_as_xyz
  1  'x, y, z'
loop_
 _atom_site_type_symbol
 _atom_site_label
 _atom_site_symmetry_multiplicity
 _atom_site_fract_x
 _atom_site_fract_y
 _atom_site_fract_z
 _atom_site_occupancy
  Li  Li0  1  0.47300601  0.49841698  0.16835698  1
  Li  Li1  1  0.47300601  0.16835699  0.49841699  1
  V  V2  1  0.97300603  0.50158298  0.83164297  1
  V  V3  1  0.97300603  0.83164297  0.50158296  1
  V  V4  1  0.95961303  0.16323999  0.16323999  1
  V  V5  1  0.45961301  0.83675997  0.83675995  1
  O  O6  1  0.86282503  0.46970698  0.16576498  1
  O  O7  1  0.86282503  0.16576499  0.46970699  1
  O  O8  1  0.36282501  0.53029298  0.83423496  1
  O  O9  1  0.36282501  0.83423497  0.53029296  1
  O  O10  1  0.31310401  0.13923300  0.13923299  1
  O  O11  1  0.81310403  0.86076697  0.86076695  1
