# generated using pymatgen
data_LiCuO4
_symmetry_space_group_name_H-M   'P 1'
_cell_length_a   5.72165680
_cell_length_b   5.72165680
_cell_length_c   5.75216675
_cell_angle_alpha   60.17530060
_cell_angle_beta   60.17530060
_cell_angle_gamma   59.99999237
_symmetry_Int_Tables_number   1
_chemical_formula_structural   LiCuO4
_chemical_formula_sum   'Li2 Cu2 O8'
_cell_volume   133.50751762
_cell_formula_units_Z   2
loop_
 _symmetry_equiv_pos_site_id
 _symmetry_equiv_pos_as_xyz
  1  'x, y, z'
loop_
 _atom_site_type_symbol
 _atom_site_label
 _atom_site_symmetry_multiplicity
 _atom_site_fract_x
 _atom_site_fract_y
 _atom_site_fract_z
 _atom_site_occupancy
  Li  Li0  1  0.00000000  0.00000000  0.00000000  1
  Li  Li1  1  0.50000002  0.49999999  -0.00000002  1
  Cu  Cu2  1  0.50000000  0.00000000  -0.00000001  1
  Cu  Cu3  1  0.00000002  0.49999999  -0.00000001  1
  O  O4  1  0.27285103  0.76335299  0.20044298  1
  O  O5  1  0.76335301  0.27285100  0.20044299  1
  O  O6  1  0.76335303  0.76335299  0.20044298  1
  O  O7  1  0.26726001  0.26726000  0.19821999  1
  O  O8  1  0.73274003  0.73273999  0.80177999  1
  O  O9  1  0.23664701  0.23664700  0.79955701  1
  O  O10  1  0.23664703  0.72714899  0.79955700  1
  O  O11  1  0.72714901  0.23664700  0.79955700  1
