# generated using pymatgen
data_SmSnIr
_symmetry_space_group_name_H-M   'P 1'
_cell_length_a   4.44689989
_cell_length_b   7.29567003
_cell_length_c   7.29567051
_cell_angle_alpha   120.00000000
_cell_angle_beta   90.00000000
_cell_angle_gamma   90.00000000
_symmetry_Int_Tables_number   1
_chemical_formula_structural   SmSnIr
_chemical_formula_sum   'Sm3 Sn3 Ir3'
_cell_volume   204.98325250
_cell_formula_units_Z   3
loop_
 _symmetry_equiv_pos_site_id
 _symmetry_equiv_pos_as_xyz
  1  'x, y, z'
loop_
 _atom_site_type_symbol
 _atom_site_label
 _atom_site_symmetry_multiplicity
 _atom_site_fract_x
 _atom_site_fract_y
 _atom_site_fract_z
 _atom_site_occupancy
  Sm  Sm0  1  0.50000001  0.57839501  0.00000002  1
  Sm  Sm1  1  0.50000001  0.42160501  0.42160501  1
  Sm  Sm2  1  0.50000001  1.00000001  0.57839502  1
  Sn  Sn3  1  -0.00000000  0.25562600  0.00000001  1
  Sn  Sn4  1  1.00000002  0.74437401  0.74437401  1
  Sn  Sn5  1  0.00000000  0.00000000  0.25562600  1
  Ir  Ir6  1  1.00000002  0.33333334  0.66666667  1
  Ir  Ir7  1  1.00000002  0.66666668  0.33333335  1
  Ir  Ir8  1  0.50000001  0.00000000  -0.00000000  1
