# generated using pymatgen
data_NdIn3
_symmetry_space_group_name_H-M   'P 1'
_cell_length_a   4.46608305
_cell_length_b   4.46608305
_cell_length_c   10.42285728
_cell_angle_alpha   90.00000000
_cell_angle_beta   90.00000000
_cell_angle_gamma   90.00000000
_symmetry_Int_Tables_number   1
_chemical_formula_structural   NdIn3
_chemical_formula_sum   'Nd2 In6'
_cell_volume   207.89324626
_cell_formula_units_Z   2
loop_
 _symmetry_equiv_pos_site_id
 _symmetry_equiv_pos_as_xyz
  1  'x, y, z'
loop_
 _atom_site_type_symbol
 _atom_site_label
 _atom_site_symmetry_multiplicity
 _atom_site_fract_x
 _atom_site_fract_y
 _atom_site_fract_z
 _atom_site_occupancy
  Nd  Nd0  1  0.00000000  0.49999999  0.75474698  1
  Nd  Nd1  1  0.49999999  0.00000000  0.24525299  1
  In  In2  1  0.49999999  0.49999999  0.00000000  1
  In  In3  1  0.00000000  0.00000000  0.00000000  1
  In  In4  1  0.00000000  0.49999999  0.32383399  1
  In  In5  1  0.49999999  0.00000000  0.67616598  1
  In  In6  1  0.49999999  0.49999999  0.49999999  1
  In  In7  1  0.00000000  0.00000000  0.49999999  1
