# generated using pymatgen
data_SrTiO3
_symmetry_space_group_name_H-M   'P 1'
_cell_length_a   5.67142296
_cell_length_b   5.67187262
_cell_length_c   9.84037590
_cell_angle_alpha   106.09637451
_cell_angle_beta   106.09882355
_cell_angle_gamma   60.10980988
_symmetry_Int_Tables_number   1
_chemical_formula_structural   SrTiO3
_chemical_formula_sum   'Sr4 Ti4 O12'
_cell_volume   259.97290713
_cell_formula_units_Z   4
loop_
 _symmetry_equiv_pos_site_id
 _symmetry_equiv_pos_as_xyz
  1  'x, y, z'
loop_
 _atom_site_type_symbol
 _atom_site_label
 _atom_site_symmetry_multiplicity
 _atom_site_fract_x
 _atom_site_fract_y
 _atom_site_fract_z
 _atom_site_occupancy
  Sr  Sr0  1  0.12167499  0.12167100  0.87272103  1
  Sr  Sr1  1  0.62316797  0.62319802  0.37302801  1
  Sr  Sr2  1  0.87832295  0.87832703  0.12727800  1
  Sr  Sr3  1  0.37683298  0.37680301  0.62697202  1
  Ti  Ti4  1  0.50000097  0.50000002  -0.00000000  1
  Ti  Ti5  1  -0.00000000  0.00000000  0.50000102  1
  Ti  Ti6  1  0.25014699  0.25018001  0.24980101  1
  Ti  Ti7  1  0.74985296  0.74982003  0.75020003  1
  O  O8  1  0.16030499  0.16029101  0.40089201  1
  O  O9  1  0.66010197  0.66008102  0.90073103  1
  O  O10  1  0.83969496  0.83970903  0.59910602  1
  O  O11  1  0.33989898  0.33992001  0.09927000  1
  O  O12  1  0.85687397  0.37270301  0.64702203  1
  O  O13  1  0.35534296  0.87321703  0.14656300  1
  O  O14  1  0.14312498  0.62729702  0.35297801  1
  O  O15  1  0.64465698  0.12678400  0.85343604  1
  O  O16  1  0.12685498  0.64466102  0.85347703  1
  O  O17  1  0.62739098  0.14308301  0.35299302  1
  O  O18  1  0.87314597  0.35533901  0.14652201  1
  O  O19  1  0.37260796  0.85691703  0.64700702  1
