# generated using pymatgen
data_Fe5Ge
_symmetry_space_group_name_H-M   'P 1'
_cell_length_a   4.02683115
_cell_length_b   4.02683115
_cell_length_c   7.41705370
_cell_angle_alpha   76.34300995
_cell_angle_beta   76.34300995
_cell_angle_gamma   64.66385651
_symmetry_Int_Tables_number   1
_chemical_formula_structural   Fe5Ge
_chemical_formula_sum   'Fe5 Ge1'
_cell_volume   104.37176243
_cell_formula_units_Z   1
loop_
 _symmetry_equiv_pos_site_id
 _symmetry_equiv_pos_as_xyz
  1  'x, y, z'
loop_
 _atom_site_type_symbol
 _atom_site_label
 _atom_site_symmetry_multiplicity
 _atom_site_fract_x
 _atom_site_fract_y
 _atom_site_fract_z
 _atom_site_occupancy
  Fe  Fe0  1  0.18377200  0.81622797  0.25000002  1
  Fe  Fe1  1  0.81622797  0.18377199  0.75000003  1
  Fe  Fe2  1  0.42615298  0.14234999  0.44133902  1
  Ge  Ge3  1  0.85764997  0.57384698  0.05866103  1
  Fe  Fe4  1  0.57384698  0.85764997  0.55866103  1
  Fe  Fe5  1  0.14235000  0.42615298  0.94133902  1
