# generated using pymatgen
data_Cs2LiTlF6
_symmetry_space_group_name_H-M   'P 1'
_cell_length_a   6.44735146
_cell_length_b   6.44735098
_cell_length_c   6.44735098
_cell_angle_alpha   59.99999619
_cell_angle_beta   59.99999619
_cell_angle_gamma   60.00000000
_symmetry_Int_Tables_number   1
_chemical_formula_structural   Cs2LiTlF6
_chemical_formula_sum   'Cs2 Li1 Tl1 F6'
_cell_volume   189.50861069
_cell_formula_units_Z   1
loop_
 _symmetry_equiv_pos_site_id
 _symmetry_equiv_pos_as_xyz
  1  'x, y, z'
loop_
 _atom_site_type_symbol
 _atom_site_label
 _atom_site_symmetry_multiplicity
 _atom_site_fract_x
 _atom_site_fract_y
 _atom_site_fract_z
 _atom_site_occupancy
  Cs  Cs0  1  0.75000003  0.75000001  0.74999995  1
  Cs  Cs1  1  0.25000001  0.25000000  0.24999998  1
  Li  Li2  1  0.50000002  0.50000001  0.49999997  1
  Tl  Tl3  1  0.00000000  0.00000000  0.00000000  1
  F  F4  1  0.21199102  0.78800901  0.78800897  1
  F  F5  1  0.78800903  0.78800901  0.21199095  1
  F  F6  1  0.78800902  0.21199100  0.21199097  1
  F  F7  1  0.21199102  0.78800901  0.21199097  1
  F  F8  1  0.78800902  0.21199100  0.78800897  1
  F  F9  1  0.21199101  0.21199100  0.78800898  1
