# generated using pymatgen
data_Eu2Re3B7Ir5C
_symmetry_space_group_name_H-M   'P 1'
_cell_length_a   3.63140392
_cell_length_b   6.01450586
_cell_length_c   11.43758011
_cell_angle_alpha   90.00000000
_cell_angle_beta   90.00000000
_cell_angle_gamma   107.57098389
_symmetry_Int_Tables_number   1
_chemical_formula_structural   Eu2Re3B7Ir5C
_chemical_formula_sum   'Eu2 Re3 B7 Ir5 C1'
_cell_volume   238.15414730
_cell_formula_units_Z   1
loop_
 _symmetry_equiv_pos_site_id
 _symmetry_equiv_pos_as_xyz
  1  'x, y, z'
loop_
 _atom_site_type_symbol
 _atom_site_label
 _atom_site_symmetry_multiplicity
 _atom_site_fract_x
 _atom_site_fract_y
 _atom_site_fract_z
 _atom_site_occupancy
  Eu  Eu0  1  0.66215500  0.32430999  0.74999999  1
  Eu  Eu1  1  0.33784499  0.67568999  0.25000000  1
  B  B2  1  0.94571899  0.89143798  0.85766199  1
  Re  Re3  1  0.94571899  0.89143798  0.64233799  1
  B  B4  1  0.30198999  0.60397999  0.56806999  1
  Re  Re5  1  0.69801000  0.39601999  0.43193000  1
  Re  Re6  1  0.69801000  0.39601999  0.06807000  1
  B  B7  1  0.30198999  0.60397999  0.93192999  1
  B  B8  1  0.50000001  0.00000000  0.50000000  1
  B  B9  1  0.50000001  0.00000000  0.00000000  1
  B  B10  1  0.05428100  0.10856200  0.35766200  1
  Ir  Ir11  1  0.05428100  0.10856200  0.14233800  1
  C  C12  1  0.39123898  0.78247798  0.74999999  1
  B  B13  1  0.60876101  0.21752200  0.25000000  1
  Ir  Ir14  1  0.88287599  0.76575198  0.46243000  1
  Ir  Ir15  1  0.11712399  0.23424800  0.53756999  1
  Ir  Ir16  1  0.11712399  0.23424800  0.96242999  1
  Ir  Ir17  1  0.88287599  0.76575198  0.03757000  1
