# generated using pymatgen
data_Hf4Ir
_symmetry_space_group_name_H-M   'P 1'
_cell_length_a   3.35442710
_cell_length_b   3.35442710
_cell_length_c   17.66164970
_cell_angle_alpha   90.00000000
_cell_angle_beta   90.00000000
_cell_angle_gamma   90.00000000
_symmetry_Int_Tables_number   1
_chemical_formula_structural   Hf4Ir
_chemical_formula_sum   'Hf8 Ir2'
_cell_volume   198.73208212
_cell_formula_units_Z   2
loop_
 _symmetry_equiv_pos_site_id
 _symmetry_equiv_pos_as_xyz
  1  'x, y, z'
loop_
 _atom_site_type_symbol
 _atom_site_label
 _atom_site_symmetry_multiplicity
 _atom_site_fract_x
 _atom_site_fract_y
 _atom_site_fract_z
 _atom_site_occupancy
  Hf  Hf0  1  0.49999999  0.49999999  0.00000000  1
  Hf  Hf1  1  0.00000000  0.00000000  0.89132396  1
  Hf  Hf2  1  0.00000000  0.00000000  0.10867600  1
  Hf  Hf3  1  0.00000000  0.00000000  0.30410899  1
  Hf  Hf4  1  0.00000000  0.00000000  0.49999998  1
  Hf  Hf5  1  0.00000000  0.00000000  0.69589097  1
  Hf  Hf6  1  0.49999999  0.49999999  0.20380599  1
  Hf  Hf7  1  0.49999999  0.49999999  0.40153298  1
  Ir  Ir8  1  0.49999999  0.49999999  0.59846698  1
  Ir  Ir9  1  0.49999999  0.49999999  0.79619397  1
