# generated using pymatgen
data_LiMnSnO3
_symmetry_space_group_name_H-M   'P 1'
_cell_length_a   6.77572489
_cell_length_b   6.77572489
_cell_length_c   6.77572489
_cell_angle_alpha   60.00000000
_cell_angle_beta   60.00000000
_cell_angle_gamma   60.00000000
_symmetry_Int_Tables_number   1
_chemical_formula_structural   LiMnSnO3
_chemical_formula_sum   'Li2 Mn2 Sn2 O6'
_cell_volume   219.96434750
_cell_formula_units_Z   2
loop_
 _symmetry_equiv_pos_site_id
 _symmetry_equiv_pos_as_xyz
  1  'x, y, z'
loop_
 _atom_site_type_symbol
 _atom_site_label
 _atom_site_symmetry_multiplicity
 _atom_site_fract_x
 _atom_site_fract_y
 _atom_site_fract_z
 _atom_site_occupancy
  Li  Li0  1  0.37500000  0.87500000  0.37500000  1
  Li  Li1  1  0.37500000  0.37500000  0.37500000  1
  Mn  Mn2  1  0.37500000  0.37500000  0.87500000  1
  Mn  Mn3  1  0.87500000  0.37500000  0.37500000  1
  O  O4  1  0.60770500  0.13076500  0.13076500  1
  Sn  Sn5  1  0.61923500  0.61923500  0.14229500  1
  Sn  Sn6  1  0.61923500  0.14229500  0.61923500  1
  O  O7  1  0.61923500  0.61923500  0.61923500  1
  O  O8  1  0.14229500  0.61923500  0.61923500  1
  O  O9  1  0.13076500  0.13076500  0.60770500  1
  O  O10  1  0.13076500  0.13076500  0.13076500  1
  O  O11  1  0.13076500  0.60770500  0.13076500  1
