# generated using pymatgen
data_Tm2FeAs
_symmetry_space_group_name_H-M   'P 1'
_cell_length_a   6.12083483
_cell_length_b   6.82417583
_cell_length_c   9.10813236
_cell_angle_alpha   90.00000000
_cell_angle_beta   90.00000000
_cell_angle_gamma   90.00000000
_symmetry_Int_Tables_number   1
_chemical_formula_structural   Tm2FeAs
_chemical_formula_sum   'Tm8 Fe4 As4'
_cell_volume   380.44352932
_cell_formula_units_Z   4
loop_
 _symmetry_equiv_pos_site_id
 _symmetry_equiv_pos_as_xyz
  1  'x, y, z'
loop_
 _atom_site_type_symbol
 _atom_site_label
 _atom_site_symmetry_multiplicity
 _atom_site_fract_x
 _atom_site_fract_y
 _atom_site_fract_z
 _atom_site_occupancy
  Tm  Tm0  1  0.32319101  0.67662402  0.06549000  1
  Tm  Tm1  1  0.17680900  0.17662400  0.43450998  1
  Tm  Tm2  1  0.67680902  0.32337601  0.56548998  1
  Tm  Tm3  1  0.82319102  0.82337602  0.93450996  1
  Tm  Tm4  1  0.67680902  0.32337601  0.93450996  1
  Tm  Tm5  1  0.82319102  0.82337602  0.56548998  1
  Tm  Tm6  1  0.32319101  0.67662402  0.43450998  1
  Tm  Tm7  1  0.17680900  0.17662400  0.06549000  1
  Fe  Fe8  1  0.86609202  0.54042801  0.24999999  1
  Fe  Fe9  1  0.63390802  0.04042800  0.24999999  1
  Fe  Fe10  1  0.13390800  0.45957201  0.74999997  1
  Fe  Fe11  1  0.36609201  0.95957202  0.74999997  1
  As  As12  1  0.04855700  0.88911502  0.24999999  1
  As  As13  1  0.45144301  0.38911501  0.24999999  1
  As  As14  1  0.95144303  0.11088500  0.74999997  1
  As  As15  1  0.54855702  0.61088501  0.74999997  1
