# generated using pymatgen
data_Eu2S3
_symmetry_space_group_name_H-M   'P 1'
_cell_length_a   4.02142096
_cell_length_b   11.17050266
_cell_length_c   11.73532486
_cell_angle_alpha   90.00000000
_cell_angle_beta   90.00000000
_cell_angle_gamma   90.00000000
_symmetry_Int_Tables_number   1
_chemical_formula_structural   Eu2S3
_chemical_formula_sum   'Eu8 S12'
_cell_volume   527.16597225
_cell_formula_units_Z   4
loop_
 _symmetry_equiv_pos_site_id
 _symmetry_equiv_pos_as_xyz
  1  'x, y, z'
loop_
 _atom_site_type_symbol
 _atom_site_label
 _atom_site_symmetry_multiplicity
 _atom_site_fract_x
 _atom_site_fract_y
 _atom_site_fract_z
 _atom_site_occupancy
  Eu  Eu0  1  0.25000000  0.32644401  0.51760901  1
  Eu  Eu1  1  0.75000001  0.67355602  0.48239101  1
  Eu  Eu2  1  0.75000001  0.82644402  0.98239101  1
  Eu  Eu3  1  0.25000000  0.17355601  0.01760900  1
  Eu  Eu4  1  0.75000001  0.03222700  0.65622401  1
  Eu  Eu5  1  0.25000000  0.96777303  0.34377600  1
  Eu  Eu6  1  0.25000000  0.53222702  0.84377601  1
  Eu  Eu7  1  0.75000001  0.46777301  0.15622400  1
  S  S8  1  0.75000001  0.37035101  0.95242201  1
  S  S9  1  0.25000000  0.62964902  0.04757800  1
  S  S10  1  0.25000000  0.87035103  0.54757801  1
  S  S11  1  0.75000001  0.12964900  0.45242201  1
  S  S12  1  0.75000001  0.44525101  0.62157501  1
  S  S13  1  0.25000000  0.55474902  0.37842500  1
  S  S14  1  0.25000000  0.94525103  0.87842501  1
  S  S15  1  0.75000001  0.05474900  0.12157500  1
  S  S16  1  0.25000000  0.30916901  0.21081700  1
  S  S17  1  0.75000001  0.69083102  0.78918301  1
  S  S18  1  0.75000001  0.80916902  0.28918300  1
  S  S19  1  0.25000000  0.19083101  0.71081701  1
