# generated using pymatgen
data_Sm5Pb3
_symmetry_space_group_name_H-M   'P 1'
_cell_length_a   6.47916079
_cell_length_b   9.35475254
_cell_length_c   9.35475254
_cell_angle_alpha   119.97182465
_cell_angle_beta   90.00000000
_cell_angle_gamma   90.00000000
_symmetry_Int_Tables_number   1
_chemical_formula_structural   Sm5Pb3
_chemical_formula_sum   'Sm10 Pb6'
_cell_volume   491.17610245
_cell_formula_units_Z   2
loop_
 _symmetry_equiv_pos_site_id
 _symmetry_equiv_pos_as_xyz
  1  'x, y, z'
loop_
 _atom_site_type_symbol
 _atom_site_label
 _atom_site_symmetry_multiplicity
 _atom_site_fract_x
 _atom_site_fract_y
 _atom_site_fract_z
 _atom_site_occupancy
  Sm  Sm0  1  0.49999902  0.66666665  0.33333332  1
  Sm  Sm1  1  0.49999902  0.33333332  0.66666665  1
  Sm  Sm2  1  0.99999903  0.33333332  0.66666665  1
  Sm  Sm3  1  0.99999903  0.66666665  0.33333332  1
  Sm  Sm4  1  0.25000001  0.74950198  0.74950198  1
  Sm  Sm5  1  0.25000001  0.25041999  0.99994398  1
  Sm  Sm6  1  0.25000001  0.99994297  0.25041899  1
  Sm  Sm7  1  0.75000002  0.25049799  0.25049799  1
  Sm  Sm8  1  0.75000002  0.74957998  0.00005600  1
  Sm  Sm9  1  0.75000002  0.00005700  0.74958098  1
  Pb  Pb10  1  0.25000301  0.38759799  0.38759799  1
  Pb  Pb11  1  0.24999901  0.61236498  0.99999397  1
  Pb  Pb12  1  0.24999901  0.99999397  0.61236498  1
  Pb  Pb13  1  0.75000302  0.61240198  0.61240198  1
  Pb  Pb14  1  0.74999902  0.38763499  0.00000600  1
  Pb  Pb15  1  0.74999902  0.00000600  0.38763499  1
