# generated using pymatgen
data_EuZnSn
_symmetry_space_group_name_H-M   'P 1'
_cell_length_a   4.58148193
_cell_length_b   4.58148289
_cell_length_c   7.64587307
_cell_angle_alpha   90.00000000
_cell_angle_beta   90.00000000
_cell_angle_gamma   119.99999237
_symmetry_Int_Tables_number   1
_chemical_formula_structural   EuZnSn
_chemical_formula_sum   'Eu2 Zn2 Sn2'
_cell_volume   138.98559675
_cell_formula_units_Z   2
loop_
 _symmetry_equiv_pos_site_id
 _symmetry_equiv_pos_as_xyz
  1  'x, y, z'
loop_
 _atom_site_type_symbol
 _atom_site_label
 _atom_site_symmetry_multiplicity
 _atom_site_fract_x
 _atom_site_fract_y
 _atom_site_fract_z
 _atom_site_occupancy
  Eu  Eu0  1  0.00000000  0.00000000  0.50000000  1
  Eu  Eu1  1  0.00000000  0.00000000  0.00000000  1
  Zn  Zn2  1  0.66666668  0.33333334  0.25000000  1
  Zn  Zn3  1  0.33333334  0.66666669  0.74999999  1
  Sn  Sn4  1  0.66666668  0.33333334  0.74999999  1
  Sn  Sn5  1  0.33333334  0.66666669  0.25000000  1
