# generated using pymatgen
data_La2GaGe3
_symmetry_space_group_name_H-M   'P 1'
_cell_length_a   4.24462986
_cell_length_b   4.33635092
_cell_length_c   7.87940884
_cell_angle_alpha   105.97212982
_cell_angle_beta   105.62557220
_cell_angle_gamma   90.00000000
_symmetry_Int_Tables_number   1
_chemical_formula_structural   La2GaGe3
_chemical_formula_sum   'La2 Ga1 Ge3'
_cell_volume   133.84725108
_cell_formula_units_Z   1
loop_
 _symmetry_equiv_pos_site_id
 _symmetry_equiv_pos_as_xyz
  1  'x, y, z'
loop_
 _atom_site_type_symbol
 _atom_site_label
 _atom_site_symmetry_multiplicity
 _atom_site_fract_x
 _atom_site_fract_y
 _atom_site_fract_z
 _atom_site_occupancy
  La  La0  1  0.75326103  0.25326000  0.50652101  1
  La  La1  1  0.99673904  0.99674001  0.99347900  1
  Ga  Ga2  1  0.16509901  0.66510001  0.33019899  1
  Ge  Ge3  1  0.58490102  0.58490001  0.16980100  1
  Ge  Ge4  1  0.33207301  0.83207201  0.66414499  1
  Ge  Ge5  1  0.41792702  0.41792801  0.83585500  1
