# generated using pymatgen
data_YbSi2
_symmetry_space_group_name_H-M   'P 1'
_cell_length_a   4.17731810
_cell_length_b   7.07956123
_cell_length_c   7.98059988
_cell_angle_alpha   90.00000000
_cell_angle_beta   90.00000000
_cell_angle_gamma   90.00000000
_symmetry_Int_Tables_number   1
_chemical_formula_structural   YbSi2
_chemical_formula_sum   'Yb4 Si8'
_cell_volume   236.01490305
_cell_formula_units_Z   4
loop_
 _symmetry_equiv_pos_site_id
 _symmetry_equiv_pos_as_xyz
  1  'x, y, z'
loop_
 _atom_site_type_symbol
 _atom_site_label
 _atom_site_symmetry_multiplicity
 _atom_site_fract_x
 _atom_site_fract_y
 _atom_site_fract_z
 _atom_site_occupancy
  Yb  Yb0  1  0.24999999  0.52951698  0.30858400  1
  Yb  Yb1  1  0.24999999  0.02951700  0.19141600  1
  Yb  Yb2  1  0.74999998  0.47048298  0.69141601  1
  Yb  Yb3  1  0.74999998  0.97048297  0.80858401  1
  Si  Si4  1  0.24999999  0.25032799  0.88034201  1
  Si  Si5  1  0.24999999  0.75032798  0.61965801  1
  Si  Si6  1  0.74999998  0.74967198  0.11965800  1
  Si  Si7  1  0.74999998  0.24967199  0.38034201  1
  Si  Si8  1  0.24999999  0.64488698  0.93736801  1
  Si  Si9  1  0.24999999  0.14488700  0.56263201  1
  Si  Si10  1  0.74999998  0.35511299  0.06263200  1
  Si  Si11  1  0.74999998  0.85511297  0.43736801  1
