# generated using pymatgen
data_AlCo
_symmetry_space_group_name_H-M   'P 1'
_cell_length_a   4.24566078
_cell_length_b   4.56261110
_cell_length_c   5.31332922
_cell_angle_alpha   90.00000000
_cell_angle_beta   90.00000000
_cell_angle_gamma   90.00000000
_symmetry_Int_Tables_number   1
_chemical_formula_structural   AlCo
_chemical_formula_sum   'Al4 Co4'
_cell_volume   102.92608913
_cell_formula_units_Z   4
loop_
 _symmetry_equiv_pos_site_id
 _symmetry_equiv_pos_as_xyz
  1  'x, y, z'
loop_
 _atom_site_type_symbol
 _atom_site_label
 _atom_site_symmetry_multiplicity
 _atom_site_fract_x
 _atom_site_fract_y
 _atom_site_fract_z
 _atom_site_occupancy
  Al  Al0  1  0.50000003  0.16452800  0.74688097  1
  Al  Al1  1  0.50000003  0.16452800  0.25311899  1
  Al  Al2  1  -0.00000000  0.83547198  0.75311897  1
  Al  Al3  1  -0.00000000  0.83547198  0.24688099  1
  Co  Co4  1  0.00000000  0.30784899  0.49999998  1
  Co  Co5  1  0.50000003  0.69215098  0.00000000  1
  Co  Co6  1  0.50000003  0.66624098  0.49999998  1
  Co  Co7  1  -0.00000000  0.33375899  0.00000000  1
