# generated using pymatgen
data_MgAl5
_symmetry_space_group_name_H-M   'P 1'
_cell_length_a   4.49340916
_cell_length_b   5.34613180
_cell_length_c   5.34613276
_cell_angle_alpha   60.00000381
_cell_angle_beta   90.00000000
_cell_angle_gamma   90.00000000
_symmetry_Int_Tables_number   1
_chemical_formula_structural   MgAl5
_chemical_formula_sum   'Mg1 Al5'
_cell_volume   111.22080006
_cell_formula_units_Z   1
loop_
 _symmetry_equiv_pos_site_id
 _symmetry_equiv_pos_as_xyz
  1  'x, y, z'
loop_
 _atom_site_type_symbol
 _atom_site_label
 _atom_site_symmetry_multiplicity
 _atom_site_fract_x
 _atom_site_fract_y
 _atom_site_fract_z
 _atom_site_occupancy
  Mg  Mg0  1  0.00000000  0.00000000  0.00000000  1
  Al  Al1  1  0.99999997  0.33333335  0.33333333  1
  Al  Al2  1  -0.00000000  0.66666670  0.66666666  1
  Al  Al3  1  0.49999998  0.00000000  0.50000000  1
  Al  Al4  1  0.49999998  0.50000002  0.99999999  1
  Al  Al5  1  0.49999998  0.50000002  0.49999999  1
