# generated using pymatgen
data_Sm5AlSi4
_symmetry_space_group_name_H-M   'P 1'
_cell_length_a   4.31185913
_cell_length_b   7.29598808
_cell_length_c   7.29598808
_cell_angle_alpha   90.00000000
_cell_angle_beta   90.00000000
_cell_angle_gamma   90.00000000
_symmetry_Int_Tables_number   1
_chemical_formula_structural   Sm5AlSi4
_chemical_formula_sum   'Sm5 Al1 Si4'
_cell_volume   229.52647969
_cell_formula_units_Z   1
loop_
 _symmetry_equiv_pos_site_id
 _symmetry_equiv_pos_as_xyz
  1  'x, y, z'
loop_
 _atom_site_type_symbol
 _atom_site_label
 _atom_site_symmetry_multiplicity
 _atom_site_fract_x
 _atom_site_fract_y
 _atom_site_fract_z
 _atom_site_occupancy
  Sm  Sm0  1  0.49999998  0.67923299  0.17923300  1
  Sm  Sm1  1  0.49999998  0.17923300  0.32076700  1
  Sm  Sm2  1  0.49999998  0.82076699  0.67923299  1
  Sm  Sm3  1  0.49999998  0.32076700  0.82076699  1
  Sm  Sm4  1  0.00000000  0.00000000  0.00000000  1
  Al  Al5  1  0.99999997  0.49999999  0.49999999  1
  Si  Si6  1  0.00000000  0.88392999  0.38393000  1
  Si  Si7  1  0.00000000  0.38393000  0.11607000  1
  Si  Si8  1  0.00000000  0.61606999  0.88392999  1
  Si  Si9  1  0.99999997  0.11607000  0.61606999  1
