# generated using pymatgen
data_SmSnRh
_symmetry_space_group_name_H-M   'P 1'
_cell_length_a   4.29316807
_cell_length_b   7.09042788
_cell_length_c   7.09042835
_cell_angle_alpha   120.00000000
_cell_angle_beta   90.00000000
_cell_angle_gamma   90.00000000
_symmetry_Int_Tables_number   1
_chemical_formula_structural   SmSnRh
_chemical_formula_sum   'Sm3 Sn3 Rh3'
_cell_volume   186.91899563
_cell_formula_units_Z   3
loop_
 _symmetry_equiv_pos_site_id
 _symmetry_equiv_pos_as_xyz
  1  'x, y, z'
loop_
 _atom_site_type_symbol
 _atom_site_label
 _atom_site_symmetry_multiplicity
 _atom_site_fract_x
 _atom_site_fract_y
 _atom_site_fract_z
 _atom_site_occupancy
  Sm  Sm0  1  0.49999999  0.23472101  0.99999998  1
  Sm  Sm1  1  0.49999999  0.76527902  0.76527900  1
  Sm  Sm2  1  0.49999999  0.00000000  0.23472099  1
  Sn  Sn3  1  -0.00000000  0.57898902  0.99999999  1
  Sn  Sn4  1  0.99999998  0.42101101  0.42101100  1
  Sn  Sn5  1  0.99999998  0.00000000  0.57898899  1
  Rh  Rh6  1  0.00000000  0.00000000  0.00000000  1
  Rh  Rh7  1  0.49999999  0.33333334  0.66666666  1
  Rh  Rh8  1  0.49999999  0.66666668  0.33333334  1
