# generated using pymatgen
data_LiZn2
_symmetry_space_group_name_H-M   'P 1'
_cell_length_a   5.00924015
_cell_length_b   5.00924015
_cell_length_c   6.80766821
_cell_angle_alpha   90.00000000
_cell_angle_beta   90.00000000
_cell_angle_gamma   120.00000000
_symmetry_Int_Tables_number   1
_chemical_formula_structural   LiZn2
_chemical_formula_sum   'Li3 Zn6'
_cell_volume   147.93560718
_cell_formula_units_Z   3
loop_
 _symmetry_equiv_pos_site_id
 _symmetry_equiv_pos_as_xyz
  1  'x, y, z'
loop_
 _atom_site_type_symbol
 _atom_site_label
 _atom_site_symmetry_multiplicity
 _atom_site_fract_x
 _atom_site_fract_y
 _atom_site_fract_z
 _atom_site_occupancy
  Li  Li0  1  0.49999998  0.49999997  0.49999998  1
  Li  Li1  1  0.49999999  0.00000000  0.16666699  1
  Li  Li2  1  -0.00000001  0.49999997  0.83333297  1
  Zn  Zn3  1  0.83572297  0.16427599  0.49999998  1
  Zn  Zn4  1  0.16427699  0.32855398  0.16666699  1
  Zn  Zn5  1  0.67144697  0.83572396  0.83333297  1
  Zn  Zn6  1  0.32855299  0.16427599  0.83333297  1
  Zn  Zn7  1  0.83572297  0.67144597  0.16666699  1
  Zn  Zn8  1  0.16427699  0.83572396  0.49999998  1
