# generated using pymatgen
data_SmDyNi3
_symmetry_space_group_name_H-M   'P 1'
_cell_length_a   4.11681795
_cell_length_b   5.58527184
_cell_length_c   8.87710190
_cell_angle_alpha   82.77005005
_cell_angle_beta   76.59230804
_cell_angle_gamma   68.37425232
_symmetry_Int_Tables_number   1
_chemical_formula_structural   SmDyNi3
_chemical_formula_sum   'Sm2 Dy2 Ni6'
_cell_volume   184.39263476
_cell_formula_units_Z   2
loop_
 _symmetry_equiv_pos_site_id
 _symmetry_equiv_pos_as_xyz
  1  'x, y, z'
loop_
 _atom_site_type_symbol
 _atom_site_label
 _atom_site_symmetry_multiplicity
 _atom_site_fract_x
 _atom_site_fract_y
 _atom_site_fract_z
 _atom_site_occupancy
  Sm  Sm0  1  0.81155500  0.26780500  0.10908499  1
  Dy  Dy1  1  0.18844498  0.73219501  0.89091494  1
  Sm  Sm2  1  0.00071698  0.67075601  0.32780997  1
  Dy  Dy3  1  0.99928300  0.32924400  0.67218997  1
  Ni  Ni4  1  0.27128600  0.08208700  0.37534098  1
  Ni  Ni5  1  0.72871398  0.91791301  0.62465895  1
  Ni  Ni6  1  0.50115598  0.87122301  0.12646497  1
  Ni  Ni7  1  0.49884400  0.12877700  0.87353496  1
  Ni  Ni8  1  0.65301800  0.25747000  0.43649398  1
  Ni  Ni9  1  0.34698198  0.74253001  0.56350596  1
