# generated using pymatgen
data_SrLi2EuO6
_symmetry_space_group_name_H-M   'P 1'
_cell_length_a   5.47195625
_cell_length_b   5.55133057
_cell_length_c   5.47189522
_cell_angle_alpha   61.40908432
_cell_angle_beta   89.99877930
_cell_angle_gamma   118.59096527
_symmetry_Int_Tables_number   1
_chemical_formula_structural   SrLi2EuO6
_chemical_formula_sum   'Sr1 Li2 Eu1 O6'
_cell_volume   122.36657239
_cell_formula_units_Z   1
loop_
 _symmetry_equiv_pos_site_id
 _symmetry_equiv_pos_as_xyz
  1  'x, y, z'
loop_
 _atom_site_type_symbol
 _atom_site_label
 _atom_site_symmetry_multiplicity
 _atom_site_fract_x
 _atom_site_fract_y
 _atom_site_fract_z
 _atom_site_occupancy
  Sr  Sr0  1  0.97357795  0.99998600  0.97359905  1
  Li  Li1  1  0.71250397  0.50001600  0.71249503  1
  Li  Li2  1  0.21509398  0.49999300  0.21510302  1
  Eu  Eu3  1  0.51830096  0.99996600  0.51830204  1
  O  O4  1  0.45930897  0.50002600  0.45930602  1
  O  O5  1  0.95722796  0.50001000  0.95722104  1
  O  O6  1  0.47884399  0.03152300  0.91794700  1
  O  O7  1  0.91794895  0.96846600  0.47884205  1
  O  O8  1  0.46160797  0.52715500  0.93117302  1
  O  O9  1  0.93115596  0.47286000  0.46158004  1
