# generated using pymatgen
data_CaRuO3
_symmetry_space_group_name_H-M   'P 1'
_cell_length_a   5.42189693
_cell_length_b   5.63177109
_cell_length_c   7.73955584
_cell_angle_alpha   90.00000000
_cell_angle_beta   89.80296326
_cell_angle_gamma   90.00000000
_symmetry_Int_Tables_number   1
_chemical_formula_structural   CaRuO3
_chemical_formula_sum   'Ca4 Ru4 O12'
_cell_volume   236.32502981
_cell_formula_units_Z   4
loop_
 _symmetry_equiv_pos_site_id
 _symmetry_equiv_pos_as_xyz
  1  'x, y, z'
loop_
 _atom_site_type_symbol
 _atom_site_label
 _atom_site_symmetry_multiplicity
 _atom_site_fract_x
 _atom_site_fract_y
 _atom_site_fract_z
 _atom_site_occupancy
  Ca  Ca0  1  0.98472001  0.93950399  0.24814901  1
  Ca  Ca1  1  0.51528001  0.43950399  0.25185101  1
  Ca  Ca2  1  0.48472001  0.56049599  0.74814900  1
  Ca  Ca3  1  0.01528000  0.06049600  0.75185099  1
  Ru  Ru4  1  0.00000000  0.49999999  -0.00000000  1
  Ru  Ru5  1  0.50000001  0.00000000  0.50000000  1
  Ru  Ru6  1  0.00000000  0.49999999  0.50000000  1
  Ru  Ru7  1  0.50000001  0.00000000  0.00000001  1
  O  O8  1  0.90261101  0.46965199  0.74274401  1
  O  O9  1  0.79309401  0.19324100  0.04765201  1
  O  O10  1  0.81164101  0.21203100  0.44735601  1
  O  O11  1  0.68835901  0.71203099  0.05264401  1
  O  O12  1  0.70690601  0.69324099  0.45234801  1
  O  O13  1  0.59738901  0.96965198  0.75725600  1
  O  O14  1  0.40261100  0.03034800  0.24274400  1
  O  O15  1  0.29309400  0.30675900  0.54765200  1
  O  O16  1  0.31164100  0.28796900  0.94735600  1
  O  O17  1  0.20690600  0.80675899  0.95234799  1
  O  O18  1  0.18835900  0.78796899  0.55264400  1
  O  O19  1  0.09738900  0.53034799  0.25725600  1
