# generated using pymatgen
data_Sr2LiCaCo3O8
_symmetry_space_group_name_H-M   'P 1'
_cell_length_a   3.86529708
_cell_length_b   3.88695788
_cell_length_c   13.86982059
_cell_angle_alpha   98.05495453
_cell_angle_beta   90.00000000
_cell_angle_gamma   90.00000000
_symmetry_Int_Tables_number   1
_chemical_formula_structural   Sr2LiCaCo3O8
_chemical_formula_sum   'Sr2 Li1 Ca1 Co3 O8'
_cell_volume   206.32772363
_cell_formula_units_Z   1
loop_
 _symmetry_equiv_pos_site_id
 _symmetry_equiv_pos_as_xyz
  1  'x, y, z'
loop_
 _atom_site_type_symbol
 _atom_site_label
 _atom_site_symmetry_multiplicity
 _atom_site_fract_x
 _atom_site_fract_y
 _atom_site_fract_z
 _atom_site_occupancy
  Sr  Sr0  1  0.49999999  0.36477201  0.72954402  1
  Sr  Sr1  1  0.49999999  0.63522802  0.27045600  1
  Ca  Ca2  1  0.49999999  0.50000001  -0.00000000  1
  Li  Li3  1  0.00000000  0.93988503  0.87977002  1
  Co  Co4  1  0.00000000  0.06011500  0.12023000  1
  Co  Co5  1  0.00000000  0.78745302  0.57490601  1
  Co  Co6  1  0.00000000  0.21254701  0.42509401  1
  O  O7  1  0.00000000  0.28153801  0.56307601  1
  O  O8  1  0.00000000  0.71846202  0.43692401  1
  O  O9  1  0.00000000  0.44934201  0.89868402  1
  O  O10  1  0.00000000  0.55065801  0.10131600  1
  O  O11  1  0.49999999  0.94930803  0.89861602  1
  O  O12  1  0.49999999  0.05069200  0.10138400  1
  O  O13  1  0.00000000  0.85487802  0.70975601  1
  O  O14  1  0.00000000  0.14512200  0.29024401  1
