# generated using pymatgen
data_Eu2S3
_symmetry_space_group_name_H-M   'P 1'
_cell_length_a   3.70333600
_cell_length_b   7.85207224
_cell_length_c   9.25490379
_cell_angle_alpha   76.58281708
_cell_angle_beta   78.45870209
_cell_angle_gamma   76.36009216
_symmetry_Int_Tables_number   1
_chemical_formula_structural   Eu2S3
_chemical_formula_sum   'Eu4 S6'
_cell_volume   251.36824802
_cell_formula_units_Z   2
loop_
 _symmetry_equiv_pos_site_id
 _symmetry_equiv_pos_as_xyz
  1  'x, y, z'
loop_
 _atom_site_type_symbol
 _atom_site_label
 _atom_site_symmetry_multiplicity
 _atom_site_fract_x
 _atom_site_fract_y
 _atom_site_fract_z
 _atom_site_occupancy
  Eu  Eu0  1  0.33358597  0.45147700  0.88135102  1
  Eu  Eu1  1  0.66641396  0.54852300  0.11864901  1
  Eu  Eu2  1  0.24387894  0.88613799  0.62610400  1
  Eu  Eu3  1  0.75612098  0.11386200  0.37389602  1
  S  S4  1  0.58901198  0.14437900  0.67759702  1
  S  S5  1  0.12881095  0.78601999  0.95635801  1
  S  S6  1  0.87712595  0.59658100  0.64916702  1
  S  S7  1  0.12287397  0.40341900  0.35083300  1
  S  S8  1  0.41098794  0.85562099  0.32240300  1
  S  S9  1  0.87118898  0.21398000  0.04364202  1
