# generated using pymatgen
data_LiMg2
_symmetry_space_group_name_H-M   'P 1'
_cell_length_a   5.14184809
_cell_length_b   5.27820635
_cell_length_c   5.53533316
_cell_angle_alpha   74.18968964
_cell_angle_beta   62.32491684
_cell_angle_gamma   60.85097122
_symmetry_Int_Tables_number   1
_chemical_formula_structural   LiMg2
_chemical_formula_sum   'Li2 Mg4'
_cell_volume   115.98425802
_cell_formula_units_Z   2
loop_
 _symmetry_equiv_pos_site_id
 _symmetry_equiv_pos_as_xyz
  1  'x, y, z'
loop_
 _atom_site_type_symbol
 _atom_site_label
 _atom_site_symmetry_multiplicity
 _atom_site_fract_x
 _atom_site_fract_y
 _atom_site_fract_z
 _atom_site_occupancy
  Li  Li0  1  0.89757199  0.75000003  0.24999995  1
  Li  Li1  1  0.10242800  0.25000001  0.75000001  1
  Mg  Mg2  1  0.43194099  0.58761203  0.74539299  1
  Mg  Mg3  1  0.76494599  0.91238804  0.75460697  1
  Mg  Mg4  1  0.23505400  0.08761200  0.24539300  1
  Mg  Mg5  1  0.56805899  0.41238802  0.25460698  1
