# generated using pymatgen
data_MgGa
_symmetry_space_group_name_H-M   'P 1'
_cell_length_a   3.43738008
_cell_length_b   4.34382820
_cell_length_c   5.49822903
_cell_angle_alpha   90.00000000
_cell_angle_beta   108.21537018
_cell_angle_gamma   90.00000000
_symmetry_Int_Tables_number   1
_chemical_formula_structural   MgGa
_chemical_formula_sum   'Mg2 Ga2'
_cell_volume   77.98220817
_cell_formula_units_Z   2
loop_
 _symmetry_equiv_pos_site_id
 _symmetry_equiv_pos_as_xyz
  1  'x, y, z'
loop_
 _atom_site_type_symbol
 _atom_site_label
 _atom_site_symmetry_multiplicity
 _atom_site_fract_x
 _atom_site_fract_y
 _atom_site_fract_z
 _atom_site_occupancy
  Mg  Mg0  1  0.85880698  0.74999997  0.71761399  1
  Mg  Mg1  1  0.14119300  0.24999999  0.28238600  1
  Ga  Ga2  1  0.59151499  0.74999997  0.18303000  1
  Ga  Ga3  1  0.40848499  0.24999999  0.81696999  1
