# generated using pymatgen
data_Li2MnO4
_symmetry_space_group_name_H-M   'P 1'
_cell_length_a   5.85755825
_cell_length_b   5.85755825
_cell_length_c   5.85755825
_cell_angle_alpha   61.09813690
_cell_angle_beta   61.09813690
_cell_angle_gamma   61.09814072
_symmetry_Int_Tables_number   1
_chemical_formula_structural   Li2MnO4
_chemical_formula_sum   'Li4 Mn2 O8'
_cell_volume   145.62623294
_cell_formula_units_Z   2
loop_
 _symmetry_equiv_pos_site_id
 _symmetry_equiv_pos_as_xyz
  1  'x, y, z'
loop_
 _atom_site_type_symbol
 _atom_site_label
 _atom_site_symmetry_multiplicity
 _atom_site_fract_x
 _atom_site_fract_y
 _atom_site_fract_z
 _atom_site_occupancy
  Li  Li0  1  0.12518999  0.12519000  0.12519001  1
  Li  Li1  1  0.87480994  0.87481001  0.87481009  1
  Li  Li2  1  0.49999999  0.00000000  0.50000002  1
  Li  Li3  1  -0.00000003  0.50000000  0.50000003  1
  Mn  Mn4  1  0.49999996  0.50000000  0.00000005  1
  Mn  Mn5  1  0.49999996  0.50000000  0.50000005  1
  O  O6  1  0.26211698  0.26211700  0.26211703  1
  O  O7  1  0.27071498  0.27071500  0.71053403  1
  O  O8  1  0.71053397  0.27071500  0.27071504  1
  O  O9  1  0.27071495  0.71053400  0.27071505  1
  O  O10  1  0.72928497  0.28946600  0.72928505  1
  O  O11  1  0.28946595  0.72928500  0.72928506  1
  O  O12  1  0.72928495  0.72928500  0.28946607  1
  O  O13  1  0.73788295  0.73788300  0.73788308  1
