# generated using pymatgen
data_Zr10AgSn7
_symmetry_space_group_name_H-M   'P 1'
_cell_length_a   5.91211414
_cell_length_b   8.77427197
_cell_length_c   8.77427197
_cell_angle_alpha   120.00000000
_cell_angle_beta   90.00000000
_cell_angle_gamma   90.00000000
_symmetry_Int_Tables_number   1
_chemical_formula_structural   Zr10AgSn7
_chemical_formula_sum   'Zr10 Ag1 Sn7'
_cell_volume   394.18094385
_cell_formula_units_Z   1
loop_
 _symmetry_equiv_pos_site_id
 _symmetry_equiv_pos_as_xyz
  1  'x, y, z'
loop_
 _atom_site_type_symbol
 _atom_site_label
 _atom_site_symmetry_multiplicity
 _atom_site_fract_x
 _atom_site_fract_y
 _atom_site_fract_z
 _atom_site_occupancy
  Zr  Zr0  1  -0.00000000  0.66666666  0.33333330  1
  Zr  Zr1  1  0.49999999  0.33333333  0.66666663  1
  Zr  Zr2  1  0.99999998  0.33333333  0.66666663  1
  Zr  Zr3  1  0.49999999  0.66666666  0.33333330  1
  Zr  Zr4  1  0.74999998  0.71770699  0.71770695  1
  Zr  Zr5  1  0.24999999  0.71770699  0.99999994  1
  Zr  Zr6  1  0.24999999  0.00000000  0.71770697  1
  Zr  Zr7  1  0.74999998  0.00000000  0.28229299  1
  Zr  Zr8  1  0.74999998  0.28229300  0.99999995  1
  Zr  Zr9  1  0.24999999  0.28229300  0.28229298  1
  Ag  Ag10  1  0.00000000  0.00000000  0.00000000  1
  Sn  Sn11  1  0.49999999  0.00000000  -0.00000000  1
  Sn  Sn12  1  0.74999998  0.38656400  0.38656397  1
  Sn  Sn13  1  0.24999999  0.38656400  0.99999995  1
  Sn  Sn14  1  0.24999999  0.00000000  0.38656398  1
  Sn  Sn15  1  0.74999998  0.00000000  0.61343598  1
  Sn  Sn16  1  0.74999998  0.61343599  -0.00000002  1
  Sn  Sn17  1  0.24999999  0.61343599  0.61343596  1
