# generated using pymatgen
data_La(CoGe)2
_symmetry_space_group_name_H-M   'P 1'
_cell_length_a   3.86461997
_cell_length_b   3.86461997
_cell_length_c   7.33830404
_cell_angle_alpha   105.26705170
_cell_angle_beta   105.26705170
_cell_angle_gamma   90.00000000
_symmetry_Int_Tables_number   1
_chemical_formula_structural   La(CoGe)2
_chemical_formula_sum   'La1 Co2 Ge2'
_cell_volume   101.71694260
_cell_formula_units_Z   1
loop_
 _symmetry_equiv_pos_site_id
 _symmetry_equiv_pos_as_xyz
  1  'x, y, z'
loop_
 _atom_site_type_symbol
 _atom_site_label
 _atom_site_symmetry_multiplicity
 _atom_site_fract_x
 _atom_site_fract_y
 _atom_site_fract_z
 _atom_site_occupancy
  La  La0  1  0.00000000  0.00000000  0.00000000  1
  Co  Co1  1  0.75000000  0.25000000  0.49999998  1
  Co  Co2  1  0.25000000  0.75000000  0.49999998  1
  Ge  Ge3  1  0.65290800  0.65290800  0.30581599  1
  Ge  Ge4  1  0.34709200  0.34709200  0.69418398  1
