# generated using pymatgen
data_Sr2CaLaO6
_symmetry_space_group_name_H-M   'P 1'
_cell_length_a   6.21952629
_cell_length_b   6.21952629
_cell_length_c   6.21952581
_cell_angle_alpha   60.59563065
_cell_angle_beta   60.59563065
_cell_angle_gamma   60.59563065
_symmetry_Int_Tables_number   1
_chemical_formula_structural   Sr2CaLaO6
_chemical_formula_sum   'Sr2 Ca1 La1 O6'
_cell_volume   172.40918532
_cell_formula_units_Z   1
loop_
 _symmetry_equiv_pos_site_id
 _symmetry_equiv_pos_as_xyz
  1  'x, y, z'
loop_
 _atom_site_type_symbol
 _atom_site_label
 _atom_site_symmetry_multiplicity
 _atom_site_fract_x
 _atom_site_fract_y
 _atom_site_fract_z
 _atom_site_occupancy
  Sr  Sr0  1  0.75031000  0.75030999  0.75031005  1
  Sr  Sr1  1  0.24969000  0.24969000  0.24969002  1
  La  La2  1  0.00000000  0.00000000  0.00000000  1
  Ca  Ca3  1  0.50000000  0.49999999  0.50000003  1
  O  O4  1  0.75954299  0.30461799  0.17961203  1
  O  O5  1  0.30461800  0.17961200  0.75954303  1
  O  O6  1  0.17961201  0.75954299  0.30461803  1
  O  O7  1  0.24045701  0.69538199  0.82038804  1
  O  O8  1  0.82038799  0.24045700  0.69538204  1
  O  O9  1  0.69538200  0.82038799  0.24045704  1
