# generated using pymatgen
data_Li2ZnO3
_symmetry_space_group_name_H-M   'P 1'
_cell_length_a   5.27993059
_cell_length_b   5.38461447
_cell_length_c   5.38461447
_cell_angle_alpha   60.17668533
_cell_angle_beta   80.04927063
_cell_angle_gamma   99.95072937
_symmetry_Int_Tables_number   1
_chemical_formula_structural   Li2ZnO3
_chemical_formula_sum   'Li4 Zn2 O6'
_cell_volume   124.67354779
_cell_formula_units_Z   2
loop_
 _symmetry_equiv_pos_site_id
 _symmetry_equiv_pos_as_xyz
  1  'x, y, z'
loop_
 _atom_site_type_symbol
 _atom_site_label
 _atom_site_symmetry_multiplicity
 _atom_site_fract_x
 _atom_site_fract_y
 _atom_site_fract_z
 _atom_site_occupancy
  Li  Li0  1  0.99999998  0.15810999  0.15810999  1
  Li  Li1  1  0.99999998  0.84188997  0.84188996  1
  Li  Li2  1  0.99999998  0.49999998  0.49999997  1
  Li  Li3  1  0.49999999  0.00000000  -0.00000000  1
  Zn  Zn4  1  0.49999999  0.66640798  0.66640797  1
  Zn  Zn5  1  0.49999999  0.33359199  0.33359198  1
  O  O6  1  0.26852400  0.92093797  0.43079198  1
  O  O7  1  0.73147598  0.07906200  0.56920797  1
  O  O8  1  0.26852400  0.56920798  0.07906199  1
  O  O9  1  0.73566899  0.72367397  0.27632598  1
  O  O10  1  0.73147599  0.43079198  0.92093796  1
  O  O11  1  0.26433100  0.27632599  0.72367397  1
