# generated using pymatgen
data_Mg4Ga11
_symmetry_space_group_name_H-M   'P 1'
_cell_length_a   6.46669579
_cell_length_b   6.46669579
_cell_length_c   6.46669579
_cell_angle_alpha   90.00000000
_cell_angle_beta   90.00000000
_cell_angle_gamma   90.00000000
_symmetry_Int_Tables_number   1
_chemical_formula_structural   Mg4Ga11
_chemical_formula_sum   'Mg4 Ga11'
_cell_volume   270.42528270
_cell_formula_units_Z   1
loop_
 _symmetry_equiv_pos_site_id
 _symmetry_equiv_pos_as_xyz
  1  'x, y, z'
loop_
 _atom_site_type_symbol
 _atom_site_label
 _atom_site_symmetry_multiplicity
 _atom_site_fract_x
 _atom_site_fract_y
 _atom_site_fract_z
 _atom_site_occupancy
  Mg  Mg0  1  0.50000002  0.50000002  0.00000000  1
  Mg  Mg1  1  0.50000002  0.00000000  0.50000002  1
  Mg  Mg2  1  -0.00000000  0.50000002  0.50000002  1
  Mg  Mg3  1  0.50000002  0.50000002  0.50000002  1
  Ga  Ga4  1  0.21073001  0.21073001  0.78927003  1
  Ga  Ga5  1  0.21073001  0.78927003  0.21073001  1
  Ga  Ga6  1  0.78927003  0.21073001  0.21073001  1
  Ga  Ga7  1  0.78927003  0.78927003  0.78927003  1
  Ga  Ga8  1  0.78927003  0.78927003  0.21073001  1
  Ga  Ga9  1  0.78927003  0.21073001  0.78927003  1
  Ga  Ga10  1  0.21073001  0.78927003  0.78927003  1
  Ga  Ga11  1  0.21073001  0.21073001  0.21073001  1
  Ga  Ga12  1  0.00000000  0.00000000  0.50000002  1
  Ga  Ga13  1  -0.00000000  0.50000002  0.00000000  1
  Ga  Ga14  1  0.50000002  0.00000000  0.00000000  1
