# generated using pymatgen
data_EuCoSb3
_symmetry_space_group_name_H-M   'P 1'
_cell_length_a   5.96559000
_cell_length_b   6.25535011
_cell_length_c   12.83522224
_cell_angle_alpha   90.00000000
_cell_angle_beta   90.00000000
_cell_angle_gamma   90.00000000
_symmetry_Int_Tables_number   1
_chemical_formula_structural   EuCoSb3
_chemical_formula_sum   'Eu4 Co4 Sb12'
_cell_volume   478.97011559
_cell_formula_units_Z   4
loop_
 _symmetry_equiv_pos_site_id
 _symmetry_equiv_pos_as_xyz
  1  'x, y, z'
loop_
 _atom_site_type_symbol
 _atom_site_label
 _atom_site_symmetry_multiplicity
 _atom_site_fract_x
 _atom_site_fract_y
 _atom_site_fract_z
 _atom_site_occupancy
  Eu  Eu0  1  0.75000000  0.49625899  0.31047699  1
  Eu  Eu1  1  0.25000000  0.50374099  0.68952299  1
  Eu  Eu2  1  0.25000000  0.00374100  0.31047699  1
  Eu  Eu3  1  0.75000000  0.99625898  0.68952299  1
  Co  Co4  1  0.50000000  0.25000000  0.90018798  1
  Co  Co5  1  -0.00000000  0.74999999  0.09981200  1
  Co  Co6  1  0.50000000  0.74999999  0.09981200  1
  Co  Co7  1  0.00000000  0.25000000  0.90018798  1
  Sb  Sb8  1  0.75000000  0.39437199  0.06603800  1
  Sb  Sb9  1  0.25000000  0.60562799  0.93396198  1
  Sb  Sb10  1  0.25000000  0.10562800  0.06603800  1
  Sb  Sb11  1  0.75000000  0.89437198  0.93396198  1
  Sb  Sb12  1  0.75000000  0.00549800  0.22718400  1
  Sb  Sb13  1  0.25000000  0.99450198  0.77281599  1
  Sb  Sb14  1  0.25000000  0.49450199  0.22718400  1
  Sb  Sb15  1  0.75000000  0.50549799  0.77281599  1
  Sb  Sb16  1  0.50000000  0.25000000  0.50178599  1
  Sb  Sb17  1  -0.00000000  0.74999999  0.49821399  1
  Sb  Sb18  1  0.50000000  0.74999999  0.49821399  1
  Sb  Sb19  1  0.00000000  0.25000000  0.50178599  1
