# generated using pymatgen
data_SrCa3(CoO3)4
_symmetry_space_group_name_H-M   'P 1'
_cell_length_a   5.44390583
_cell_length_b   5.46117592
_cell_length_c   7.68021917
_cell_angle_alpha   90.00000000
_cell_angle_beta   90.00000000
_cell_angle_gamma   89.83322906
_symmetry_Int_Tables_number   1
_chemical_formula_structural   SrCa3(CoO3)4
_chemical_formula_sum   'Sr1 Ca3 Co4 O12'
_cell_volume   228.33292743
_cell_formula_units_Z   1
loop_
 _symmetry_equiv_pos_site_id
 _symmetry_equiv_pos_as_xyz
  1  'x, y, z'
loop_
 _atom_site_type_symbol
 _atom_site_label
 _atom_site_symmetry_multiplicity
 _atom_site_fract_x
 _atom_site_fract_y
 _atom_site_fract_z
 _atom_site_occupancy
  Sr  Sr0  1  0.49181003  0.45945402  0.49999999  1
  Ca  Ca1  1  0.00856803  0.96093004  0.49999999  1
  Ca  Ca2  1  0.50860103  0.53886702  -0.00000000  1
  Ca  Ca3  1  0.99335103  0.03938900  -0.00000000  1
  Co  Co4  1  0.00068602  0.49966702  0.25367999  1
  Co  Co5  1  0.50008202  0.00099300  0.74601298  1
  Co  Co6  1  0.00068602  0.49966702  0.74631998  1
  Co  Co7  1  0.50008202  0.00099300  0.25398699  1
  O  O8  1  0.57073502  0.01690400  0.49999999  1
  O  O9  1  0.91923304  0.50888002  0.49999999  1
  O  O10  1  0.43465804  0.99306604  0.99999998  1
  O  O11  1  0.07037002  0.49860802  -0.00000000  1
  O  O12  1  0.28251903  0.71529203  0.28910599  1
  O  O13  1  0.21094001  0.21340401  0.71803598  1
  O  O14  1  0.72360903  0.28030801  0.79003298  1
  O  O15  1  0.78350205  0.78228803  0.21301300  1
  O  O16  1  0.72360903  0.28030801  0.20996700  1
  O  O17  1  0.78350205  0.78228803  0.78698698  1
  O  O18  1  0.28251903  0.71529203  0.71089398  1
  O  O19  1  0.21094001  0.21340401  0.28196399  1
