# generated using pymatgen
data_Sm7Ir3
_symmetry_space_group_name_H-M   'P 1'
_cell_length_a   6.39636803
_cell_length_b   9.95601559
_cell_length_c   9.95601559
_cell_angle_alpha   119.96784210
_cell_angle_beta   90.00000000
_cell_angle_gamma   90.00000000
_symmetry_Int_Tables_number   1
_chemical_formula_structural   Sm7Ir3
_chemical_formula_sum   'Sm14 Ir6'
_cell_volume   549.25731631
_cell_formula_units_Z   2
loop_
 _symmetry_equiv_pos_site_id
 _symmetry_equiv_pos_as_xyz
  1  'x, y, z'
loop_
 _atom_site_type_symbol
 _atom_site_label
 _atom_site_symmetry_multiplicity
 _atom_site_fract_x
 _atom_site_fract_y
 _atom_site_fract_z
 _atom_site_occupancy
  Sm  Sm0  1  0.46414500  0.33333332  0.66666664  1
  Sm  Sm1  1  0.96414500  0.66666664  0.33333330  1
  Sm  Sm2  1  0.25036200  0.12533600  0.87466398  1
  Sm  Sm3  1  0.25034100  0.74930797  0.87465495  1
  Sm  Sm4  1  0.25034100  0.12534500  0.25069199  1
  Sm  Sm5  1  0.75036200  0.87466397  0.12533597  1
  Sm  Sm6  1  0.75034100  0.25069199  0.12534499  1
  Sm  Sm7  1  0.75034100  0.87465497  0.74930795  1
  Sm  Sm8  1  0.43587300  0.53916298  0.46083697  1
  Sm  Sm9  1  0.43581300  0.92169296  0.46084096  1
  Sm  Sm10  1  0.43581300  0.53915898  0.07830698  1
  Sm  Sm11  1  0.93587300  0.46083698  0.53916297  1
  Sm  Sm12  1  0.93581300  0.07830700  0.53915899  1
  Sm  Sm13  1  0.93581300  0.46084098  0.92169296  1
  Ir  Ir14  1  0.19009200  0.81178297  0.18821697  1
  Ir  Ir15  1  0.19011100  0.37642199  0.18820298  1
  Ir  Ir16  1  0.19011100  0.81179697  0.62357796  1
  Ir  Ir17  1  0.69009200  0.18821699  0.81178298  1
  Ir  Ir18  1  0.69011100  0.62357798  0.81179696  1
  Ir  Ir19  1  0.69011100  0.18820299  0.37642199  1
