# generated using pymatgen
data_Yb2Pd
_symmetry_space_group_name_H-M   'P 1'
_cell_length_a   4.74468994
_cell_length_b   7.09391212
_cell_length_c   8.71767235
_cell_angle_alpha   90.00000000
_cell_angle_beta   90.00000000
_cell_angle_gamma   90.00000000
_symmetry_Int_Tables_number   1
_chemical_formula_structural   Yb2Pd
_chemical_formula_sum   'Yb8 Pd4'
_cell_volume   293.42302067
_cell_formula_units_Z   4
loop_
 _symmetry_equiv_pos_site_id
 _symmetry_equiv_pos_as_xyz
  1  'x, y, z'
loop_
 _atom_site_type_symbol
 _atom_site_label
 _atom_site_symmetry_multiplicity
 _atom_site_fract_x
 _atom_site_fract_y
 _atom_site_fract_z
 _atom_site_occupancy
  Yb  Yb0  1  0.75000001  0.64404499  0.42037398  1
  Yb  Yb1  1  0.25000000  0.35595499  0.57962598  1
  Yb  Yb2  1  0.75000001  0.14404500  0.07962600  1
  Yb  Yb3  1  0.25000000  0.85595498  0.92037396  1
  Yb  Yb4  1  0.75000001  0.51042799  0.83235497  1
  Yb  Yb5  1  0.25000000  0.48957199  0.16764499  1
  Yb  Yb6  1  0.75000001  0.01042800  0.66764497  1
  Yb  Yb7  1  0.25000000  0.98957198  0.33235499  1
  Pd  Pd8  1  0.75000001  0.24083800  0.40593898  1
  Pd  Pd9  1  0.25000000  0.75916199  0.59406098  1
  Pd  Pd10  1  0.75000001  0.74083799  0.09406100  1
  Pd  Pd11  1  0.25000000  0.25916200  0.90593896  1
