# generated using pymatgen
data_YbGe2
_symmetry_space_group_name_H-M   'P 1'
_cell_length_a   4.33180618
_cell_length_b   4.33180618
_cell_length_c   15.88872147
_cell_angle_alpha   90.00000000
_cell_angle_beta   90.00000000
_cell_angle_gamma   120.00000000
_symmetry_Int_Tables_number   1
_chemical_formula_structural   YbGe2
_chemical_formula_sum   'Yb4 Ge8'
_cell_volume   258.20081999
_cell_formula_units_Z   4
loop_
 _symmetry_equiv_pos_site_id
 _symmetry_equiv_pos_as_xyz
  1  'x, y, z'
loop_
 _atom_site_type_symbol
 _atom_site_label
 _atom_site_symmetry_multiplicity
 _atom_site_fract_x
 _atom_site_fract_y
 _atom_site_fract_z
 _atom_site_occupancy
  Yb  Yb0  1  0.00000000  0.00000000  0.49999999  1
  Yb  Yb1  1  0.00000000  0.00000000  0.00000000  1
  Yb  Yb2  1  0.00000000  0.00000000  0.74999998  1
  Yb  Yb3  1  0.00000000  0.00000000  0.24999999  1
  Ge  Ge4  1  0.66666664  0.33333332  0.11826900  1
  Ge  Ge5  1  0.33333332  0.66666663  0.88173097  1
  Ge  Ge6  1  0.33333332  0.66666663  0.61826898  1
  Ge  Ge7  1  0.66666664  0.33333332  0.38173099  1
  Ge  Ge8  1  0.66666664  0.33333332  0.63296098  1
  Ge  Ge9  1  0.33333332  0.66666663  0.36703899  1
  Ge  Ge10  1  0.33333332  0.66666663  0.13296100  1
  Ge  Ge11  1  0.66666664  0.33333332  0.86703897  1
