# generated using pymatgen
data_Pr2Si5Ge
_symmetry_space_group_name_H-M   'P 1'
_cell_length_a   4.08913803
_cell_length_b   4.12652016
_cell_length_c   9.13276672
_cell_angle_alpha   103.05689240
_cell_angle_beta   90.00000000
_cell_angle_gamma   90.00000000
_symmetry_Int_Tables_number   1
_chemical_formula_structural   Pr2Si5Ge
_chemical_formula_sum   'Pr2 Si5 Ge1'
_cell_volume   150.12127856
_cell_formula_units_Z   1
loop_
 _symmetry_equiv_pos_site_id
 _symmetry_equiv_pos_as_xyz
  1  'x, y, z'
loop_
 _atom_site_type_symbol
 _atom_site_label
 _atom_site_symmetry_multiplicity
 _atom_site_fract_x
 _atom_site_fract_y
 _atom_site_fract_z
 _atom_site_occupancy
  Pr  Pr0  1  0.00000000  0.85749498  0.71499000  1
  Pr  Pr1  1  0.99999999  0.14250500  0.28500999  1
  Ge  Ge2  1  0.50000000  0.00000000  -0.00000000  1
  Si  Si3  1  0.99999999  0.49999999  0.00000001  1
  Si  Si4  1  0.50000000  0.70805098  0.41610200  1
  Si  Si5  1  0.50000000  0.29194899  0.58389799  1
  Si  Si6  1  0.50000000  0.57331799  0.14663601  1
  Si  Si7  1  0.50000000  0.42668199  0.85336398  1
