# generated using pymatgen
data_BaSnSe3
_symmetry_space_group_name_H-M   'P 1'
_cell_length_a   6.15193605
_cell_length_b   6.31559086
_cell_length_c   13.42559338
_cell_angle_alpha   90.00000000
_cell_angle_beta   90.00000000
_cell_angle_gamma   90.00000000
_symmetry_Int_Tables_number   1
_chemical_formula_structural   BaSnSe3
_chemical_formula_sum   'Ba4 Sn4 Se12'
_cell_volume   521.62607111
_cell_formula_units_Z   4
loop_
 _symmetry_equiv_pos_site_id
 _symmetry_equiv_pos_as_xyz
  1  'x, y, z'
loop_
 _atom_site_type_symbol
 _atom_site_label
 _atom_site_symmetry_multiplicity
 _atom_site_fract_x
 _atom_site_fract_y
 _atom_site_fract_z
 _atom_site_occupancy
  Ba  Ba0  1  0.25000000  0.50207201  0.30851599  1
  Ba  Ba1  1  0.74999999  0.49792801  0.69148398  1
  Ba  Ba2  1  0.25000000  0.00207200  0.69148398  1
  Ba  Ba3  1  0.74999999  0.99792802  0.30851599  1
  Sn  Sn4  1  -0.00000000  0.75000002  0.90783297  1
  Sn  Sn5  1  -0.00000000  0.25000001  0.09216700  1
  Sn  Sn6  1  0.50000000  0.25000001  0.09216700  1
  Sn  Sn7  1  0.50000000  0.75000002  0.90783297  1
  Se  Se8  1  -0.00000000  0.75000002  0.50090899  1
  Se  Se9  1  -0.00000000  0.25000001  0.49909099  1
  Se  Se10  1  0.50000000  0.25000001  0.49909099  1
  Se  Se11  1  0.50000000  0.75000002  0.50090899  1
  Se  Se12  1  0.25000000  0.60203301  0.06323600  1
  Se  Se13  1  0.74999999  0.39796701  0.93676397  1
  Se  Se14  1  0.25000000  0.10203300  0.93676397  1
  Se  Se15  1  0.74999999  0.89796702  0.06323600  1
  Se  Se16  1  0.25000000  0.00037100  0.21476499  1
  Se  Se17  1  0.74999999  0.99962902  0.78523498  1
  Se  Se18  1  0.25000000  0.50037101  0.78523498  1
  Se  Se19  1  0.74999999  0.49962901  0.21476499  1
