# generated using pymatgen
data_Ti7Al6
_symmetry_space_group_name_H-M   'P 1'
_cell_length_a   5.63220406
_cell_length_b   6.67733812
_cell_length_c   6.67733860
_cell_angle_alpha   60.00000381
_cell_angle_beta   90.00000000
_cell_angle_gamma   90.00000000
_symmetry_Int_Tables_number   1
_chemical_formula_structural   Ti7Al6
_chemical_formula_sum   'Ti7 Al6'
_cell_volume   217.47823369
_cell_formula_units_Z   1
loop_
 _symmetry_equiv_pos_site_id
 _symmetry_equiv_pos_as_xyz
  1  'x, y, z'
loop_
 _atom_site_type_symbol
 _atom_site_label
 _atom_site_symmetry_multiplicity
 _atom_site_fract_x
 _atom_site_fract_y
 _atom_site_fract_z
 _atom_site_occupancy
  Ti  Ti0  1  -0.00000000  0.59589798  1.00000001  1
  Ti  Ti1  1  0.00000000  0.00000000  0.40410200  1
  Ti  Ti2  1  0.00000000  0.40410199  0.59589801  1
  Ti  Ti3  1  0.50000000  0.66666665  0.66666668  1
  Ti  Ti4  1  0.50000000  0.33333332  0.33333334  1
  Ti  Ti5  1  0.50000000  0.00000000  -0.00000000  1
  Ti  Ti6  1  0.00000000  0.00000000  0.00000000  1
  Al  Al7  1  0.25285900  0.00000000  0.74885000  1
  Al  Al8  1  0.74714099  0.25114999  1.00000000  1
  Al  Al9  1  0.74714099  0.74884998  0.25115001  1
  Al  Al10  1  0.74714099  0.00000000  0.74885000  1
  Al  Al11  1  0.25285900  0.25114999  1.00000000  1
  Al  Al12  1  0.25285900  0.74884998  0.25115001  1
