# generated using pymatgen
data_LiCo5Te8
_symmetry_space_group_name_H-M   'P 1'
_cell_length_a   7.93751955
_cell_length_b   7.93751955
_cell_length_c   7.93751955
_cell_angle_alpha   60.00000000
_cell_angle_beta   60.00000000
_cell_angle_gamma   60.00000000
_symmetry_Int_Tables_number   1
_chemical_formula_structural   LiCo5Te8
_chemical_formula_sum   'Li1 Co5 Te8'
_cell_volume   353.62212216
_cell_formula_units_Z   1
loop_
 _symmetry_equiv_pos_site_id
 _symmetry_equiv_pos_as_xyz
  1  'x, y, z'
loop_
 _atom_site_type_symbol
 _atom_site_label
 _atom_site_symmetry_multiplicity
 _atom_site_fract_x
 _atom_site_fract_y
 _atom_site_fract_z
 _atom_site_occupancy
  Li  Li0  1  0.75000001  0.75000001  0.75000001  1
  Co  Co1  1  0.00000000  0.00000000  0.00000000  1
  Co  Co2  1  0.37500001  0.37500001  0.87500002  1
  Co  Co3  1  0.37500001  0.37500001  0.37500001  1
  Co  Co4  1  0.37500001  0.87500002  0.37500001  1
  Co  Co5  1  0.87500002  0.37500001  0.37500001  1
  Te  Te6  1  0.61714501  0.61714401  0.14856700  1
  Te  Te7  1  0.61714501  0.61714401  0.61714401  1
  Te  Te8  1  0.61714501  0.14856700  0.61714401  1
  Te  Te9  1  0.14856800  0.61714401  0.61714401  1
  Te  Te10  1  0.13285500  0.13285600  0.60143301  1
  Te  Te11  1  0.13285500  0.13285600  0.13285600  1
  Te  Te12  1  0.13285500  0.60143301  0.13285600  1
  Te  Te13  1  0.60143201  0.13285600  0.13285600  1
