# generated using pymatgen
data_Eu5Ir2
_symmetry_space_group_name_H-M   'P 1'
_cell_length_a   6.51114178
_cell_length_b   7.36948967
_cell_length_c   8.70824051
_cell_angle_alpha   96.18707275
_cell_angle_beta   111.95321655
_cell_angle_gamma   90.00000000
_symmetry_Int_Tables_number   1
_chemical_formula_structural   Eu5Ir2
_chemical_formula_sum   'Eu10 Ir4'
_cell_volume   384.93013419
_cell_formula_units_Z   2
loop_
 _symmetry_equiv_pos_site_id
 _symmetry_equiv_pos_as_xyz
  1  'x, y, z'
loop_
 _atom_site_type_symbol
 _atom_site_label
 _atom_site_symmetry_multiplicity
 _atom_site_fract_x
 _atom_site_fract_y
 _atom_site_fract_z
 _atom_site_occupancy
  Eu  Eu0  1  0.20728199  0.91571202  0.18652799  1
  Eu  Eu1  1  0.02075399  0.58428802  0.81347202  1
  Eu  Eu2  1  0.79271801  0.08428800  0.81347199  1
  Eu  Eu3  1  0.97924601  0.41571201  0.18652796  1
  Eu  Eu4  1  0.79287000  0.81424202  0.43443597  1
  Eu  Eu5  1  0.35843400  0.68575802  0.56556399  1
  Eu  Eu6  1  0.20713000  0.18575800  0.56556400  1
  Eu  Eu7  1  0.64156600  0.31424201  0.43443598  1
  Eu  Eu8  1  0.57740100  0.75000002  -0.00000003  1
  Eu  Eu9  1  0.42259900  0.25000001  -0.00000002  1
  Ir  Ir10  1  0.39666100  0.57435601  0.22081398  1
  Ir  Ir11  1  0.17584699  0.92564402  0.77918600  1
  Ir  Ir12  1  0.60333900  0.42564401  0.77918599  1
  Ir  Ir13  1  0.82415301  0.07435600  0.22081397  1
