# generated using pymatgen
data_Li3Cu2PO9
_symmetry_space_group_name_H-M   'P 1'
_cell_length_a   3.71376896
_cell_length_b   6.15421104
_cell_length_c   10.04939270
_cell_angle_alpha   100.10322571
_cell_angle_beta   90.00000000
_cell_angle_gamma   107.56129456
_symmetry_Int_Tables_number   1
_chemical_formula_structural   Li3Cu2PO9
_chemical_formula_sum   'Li3 Cu2 P1 O9'
_cell_volume   215.23900163
_cell_formula_units_Z   1
loop_
 _symmetry_equiv_pos_site_id
 _symmetry_equiv_pos_as_xyz
  1  'x, y, z'
loop_
 _atom_site_type_symbol
 _atom_site_label
 _atom_site_symmetry_multiplicity
 _atom_site_fract_x
 _atom_site_fract_y
 _atom_site_fract_z
 _atom_site_occupancy
  Li  Li0  1  0.49999901  0.00000000  0.50000002  1
  Li  Li1  1  0.91105799  0.82211800  0.84403303  1
  Cu  Cu2  1  0.08894100  0.17788200  0.15596700  1
  Li  Li3  1  0.20581499  0.41163100  0.83868803  1
  Cu  Cu4  1  0.79418399  0.58837000  0.16131300  1
  P  P5  1  0.84076599  0.68153400  0.32507601  1
  O  O6  1  0.15923299  0.31846500  0.67492402  1
  O  O7  1  0.74186099  0.48372500  0.88122303  1
  O  O8  1  0.25813699  0.51627500  0.11877700  1
  O  O9  1  0.93477799  0.86955700  0.09520900  1
  O  O10  1  0.37880698  0.75761500  0.87024903  1
  O  O11  1  0.62119100  0.24238500  0.12975100  1
  O  O12  1  0.06522100  0.13044200  0.90479103  1
  O  O13  1  0.90165499  0.80331200  0.67948802  1
  O  O14  1  0.09834400  0.19668700  0.32051201  1
