# generated using pymatgen
data_DyAl2
_symmetry_space_group_name_H-M   'P 1'
_cell_length_a   5.46269464
_cell_length_b   5.46269464
_cell_length_c   5.46269464
_cell_angle_alpha   88.78836823
_cell_angle_beta   60.43741989
_cell_angle_gamma   119.04396820
_symmetry_Int_Tables_number   1
_chemical_formula_structural   DyAl2
_chemical_formula_sum   'Dy2 Al4'
_cell_volume   116.45000357
_cell_formula_units_Z   2
loop_
 _symmetry_equiv_pos_site_id
 _symmetry_equiv_pos_as_xyz
  1  'x, y, z'
loop_
 _atom_site_type_symbol
 _atom_site_label
 _atom_site_symmetry_multiplicity
 _atom_site_fract_x
 _atom_site_fract_y
 _atom_site_fract_z
 _atom_site_occupancy
  Dy  Dy0  1  0.24999998  0.37100100  0.87899906  1
  Dy  Dy1  1  0.74999998  0.62899900  0.12100107  1
  Al  Al2  1  0.00000000  0.00000000  0.50000002  1
  Al  Al3  1  0.49999995  1.00000000  0.00000009  1
  Al  Al4  1  0.50000001  0.00000000  0.50000002  1
  Al  Al5  1  -0.00000003  0.50000000  0.50000006  1
