# generated using pymatgen
data_DyZnPd
_symmetry_space_group_name_H-M   'P 1'
_cell_length_a   3.77304792
_cell_length_b   7.89538813
_cell_length_c   7.89538813
_cell_angle_alpha   120.00000000
_cell_angle_beta   90.00000000
_cell_angle_gamma   90.00000000
_symmetry_Int_Tables_number   1
_chemical_formula_structural   DyZnPd
_chemical_formula_sum   'Dy3 Zn3 Pd3'
_cell_volume   203.69010008
_cell_formula_units_Z   3
loop_
 _symmetry_equiv_pos_site_id
 _symmetry_equiv_pos_as_xyz
  1  'x, y, z'
loop_
 _atom_site_type_symbol
 _atom_site_label
 _atom_site_symmetry_multiplicity
 _atom_site_fract_x
 _atom_site_fract_y
 _atom_site_fract_z
 _atom_site_occupancy
  Dy  Dy0  1  1.00000002  0.40333300  0.40333302  1
  Dy  Dy1  1  0.00000000  0.00000000  0.59666702  1
  Dy  Dy2  1  1.00000002  0.59666700  1.00000005  1
  Zn  Zn3  1  0.50000001  0.73300900  0.73300904  1
  Zn  Zn4  1  0.50000001  0.00000000  0.26699101  1
  Zn  Zn5  1  0.50000001  0.26699100  1.00000004  1
  Pd  Pd6  1  0.50000001  0.66666667  0.33333336  1
  Pd  Pd7  1  0.50000001  0.33333333  0.66666670  1
  Pd  Pd8  1  0.00000000  0.00000000  0.00000000  1
