# generated using pymatgen
data_Li3Gd(ReC)6
_symmetry_space_group_name_H-M   'P 1'
_cell_length_a   4.69522810
_cell_length_b   6.77926636
_cell_length_c   6.77926636
_cell_angle_alpha   118.97183990
_cell_angle_beta   90.00000000
_cell_angle_gamma   90.00000000
_symmetry_Int_Tables_number   1
_chemical_formula_structural   Li3Gd(ReC)6
_chemical_formula_sum   'Li3 Gd1 Re6 C6'
_cell_volume   188.78157209
_cell_formula_units_Z   1
loop_
 _symmetry_equiv_pos_site_id
 _symmetry_equiv_pos_as_xyz
  1  'x, y, z'
loop_
 _atom_site_type_symbol
 _atom_site_label
 _atom_site_symmetry_multiplicity
 _atom_site_fract_x
 _atom_site_fract_y
 _atom_site_fract_z
 _atom_site_occupancy
  Li  Li0  1  -0.00000000  0.76521099  0.99801797  1
  Li  Li1  1  -0.00000000  0.99801799  0.76521096  1
  Li  Li2  1  0.49999999  0.75696599  0.75696597  1
  Gd  Gd3  1  0.49999999  0.22844300  0.99926600  1
  Re  Re4  1  0.49999999  0.99926599  0.22844296  1
  Re  Re5  1  0.74951098  0.33254700  0.67054999  1
  Re  Re6  1  0.74951098  0.67054999  0.33254697  1
  Re  Re7  1  0.25048899  0.67054999  0.33254697  1
  Re  Re8  1  0.25048899  0.33254700  0.67054999  1
  Re  Re9  1  -0.00000000  0.24988600  0.24988599  1
  C  C10  1  -0.00000000  0.59470799  0.59470798  1
  C  C11  1  -0.00000000  0.39885800  0.00530998  1
  C  C12  1  -0.00000000  0.00531000  0.39885800  1
  C  C13  1  0.49999999  0.40164700  0.40164699  1
  C  C14  1  0.49999999  0.59682699  0.99928498  1
  C  C15  1  0.49999999  0.99928499  0.59682696  1
