# generated using pymatgen
data_La2Co3Si5
_symmetry_space_group_name_H-M   'P 1'
_cell_length_a   4.13709307
_cell_length_b   4.13709307
_cell_length_c   10.25968361
_cell_angle_alpha   90.00000000
_cell_angle_beta   90.00000000
_cell_angle_gamma   90.00000000
_symmetry_Int_Tables_number   1
_chemical_formula_structural   La2Co3Si5
_chemical_formula_sum   'La2 Co3 Si5'
_cell_volume   175.60001541
_cell_formula_units_Z   1
loop_
 _symmetry_equiv_pos_site_id
 _symmetry_equiv_pos_as_xyz
  1  'x, y, z'
loop_
 _atom_site_type_symbol
 _atom_site_label
 _atom_site_symmetry_multiplicity
 _atom_site_fract_x
 _atom_site_fract_y
 _atom_site_fract_z
 _atom_site_occupancy
  La  La0  1  0.00000000  0.00000000  0.99269604  1
  La  La1  1  0.49999999  0.49999999  0.50730402  1
  Co  Co2  1  0.49999999  0.49999999  0.11045400  1
  Co  Co3  1  0.00000000  0.00000000  0.62801402  1
  Co  Co4  1  0.00000000  0.00000000  0.38954601  1
  Si  Si5  1  0.49999999  0.49999999  0.87198603  1
  Si  Si6  1  0.00000000  0.49999999  0.25000001  1
  Si  Si7  1  0.49999999  0.00000000  0.75000003  1
  Si  Si8  1  0.49999999  0.00000000  0.25000001  1
  Si  Si9  1  0.00000000  0.49999999  0.75000003  1
