# generated using pymatgen
data_Sm2CdGa2
_symmetry_space_group_name_H-M   'P 1'
_cell_length_a   4.48573112
_cell_length_b   7.45522499
_cell_length_c   7.45522499
_cell_angle_alpha   90.00000000
_cell_angle_beta   90.00000000
_cell_angle_gamma   90.00000000
_symmetry_Int_Tables_number   1
_chemical_formula_structural   Sm2CdGa2
_chemical_formula_sum   'Sm4 Cd2 Ga4'
_cell_volume   249.31863899
_cell_formula_units_Z   2
loop_
 _symmetry_equiv_pos_site_id
 _symmetry_equiv_pos_as_xyz
  1  'x, y, z'
loop_
 _atom_site_type_symbol
 _atom_site_label
 _atom_site_symmetry_multiplicity
 _atom_site_fract_x
 _atom_site_fract_y
 _atom_site_fract_z
 _atom_site_occupancy
  Sm  Sm0  1  0.49999999  0.67729900  0.17729900  1
  Sm  Sm1  1  0.49999999  0.32270100  0.82270100  1
  Sm  Sm2  1  0.49999999  0.17729900  0.32270100  1
  Sm  Sm3  1  0.49999999  0.82270100  0.67729900  1
  Cd  Cd4  1  0.00000000  0.50000000  0.50000000  1
  Cd  Cd5  1  0.00000000  0.00000000  0.00000000  1
  Ga  Ga6  1  -0.00000000  0.11937300  0.61937300  1
  Ga  Ga7  1  0.00000000  0.88062700  0.38062700  1
  Ga  Ga8  1  -0.00000000  0.61937300  0.88062700  1
  Ga  Ga9  1  -0.00000000  0.38062700  0.11937300  1
