# generated using pymatgen
data_Eu3Tl2
_symmetry_space_group_name_H-M   'P 1'
_cell_length_a   8.60992146
_cell_length_b   8.60992146
_cell_length_c   8.60992146
_cell_angle_alpha   90.00000000
_cell_angle_beta   90.00000000
_cell_angle_gamma   90.00000000
_symmetry_Int_Tables_number   1
_chemical_formula_structural   Eu3Tl2
_chemical_formula_sum   'Eu12 Tl8'
_cell_volume   638.25991313
_cell_formula_units_Z   4
loop_
 _symmetry_equiv_pos_site_id
 _symmetry_equiv_pos_as_xyz
  1  'x, y, z'
loop_
 _atom_site_type_symbol
 _atom_site_label
 _atom_site_symmetry_multiplicity
 _atom_site_fract_x
 _atom_site_fract_y
 _atom_site_fract_z
 _atom_site_occupancy
  Eu  Eu0  1  0.37499998  0.20485899  0.54514097  1
  Eu  Eu1  1  0.56087797  0.56087797  0.56087797  1
  Eu  Eu2  1  0.70485896  0.95485895  0.62499997  1
  Eu  Eu3  1  0.31087798  0.81087796  0.68912196  1
  Eu  Eu4  1  0.95485895  0.62499997  0.70485896  1
  Eu  Eu5  1  0.04514100  0.12499999  0.79514096  1
  Eu  Eu6  1  0.68912196  0.31087798  0.81087796  1
  Eu  Eu7  1  0.29514098  0.45485898  0.87499995  1
  Eu  Eu8  1  0.43912198  0.06087800  0.93912195  1
  Eu  Eu9  1  0.62499997  0.70485896  0.95485895  1
  Eu  Eu10  1  0.12499999  0.79514096  0.04514100  1
  Eu  Eu11  1  0.93912195  0.43912198  0.06087800  1
  Tl  Tl12  1  0.79514096  0.04514100  0.12499999  1
  Tl  Tl13  1  0.18912199  0.18912199  0.18912199  1
  Tl  Tl14  1  0.54514097  0.37499998  0.20485899  1
  Tl  Tl15  1  0.45485898  0.87499995  0.29514098  1
  Tl  Tl16  1  0.81087796  0.68912196  0.31087798  1
  Tl  Tl17  1  0.20485899  0.54514097  0.37499998  1
  Tl  Tl18  1  0.06087800  0.93912195  0.43912198  1
  Tl  Tl19  1  0.87499995  0.29514098  0.45485898  1
