# generated using pymatgen
data_Li2CuO3
_symmetry_space_group_name_H-M   'P 1'
_cell_length_a   3.12716293
_cell_length_b   6.67698193
_cell_length_c   10.54007053
_cell_angle_alpha   108.41313171
_cell_angle_beta   90.00000000
_cell_angle_gamma   90.00000000
_symmetry_Int_Tables_number   1
_chemical_formula_structural   Li2CuO3
_chemical_formula_sum   'Li6 Cu3 O9'
_cell_volume   208.80965261
_cell_formula_units_Z   3
loop_
 _symmetry_equiv_pos_site_id
 _symmetry_equiv_pos_as_xyz
  1  'x, y, z'
loop_
 _atom_site_type_symbol
 _atom_site_label
 _atom_site_symmetry_multiplicity
 _atom_site_fract_x
 _atom_site_fract_y
 _atom_site_fract_z
 _atom_site_occupancy
  Li  Li0  1  -0.00000000  0.97633001  0.99298597  1
  Li  Li1  1  0.50000001  0.52245701  0.00609500  1
  Li  Li2  1  -0.00000000  0.67399501  0.34959499  1
  Li  Li3  1  0.50000001  0.82722901  0.65313898  1
  Li  Li4  1  0.50000001  0.16592700  0.33166799  1
  Li  Li5  1  -0.00000000  0.33396500  0.66862498  1
  O  O6  1  -0.00000000  0.70480301  0.00309200  1
  Cu  Cu7  1  0.50000001  0.73319001  0.46674399  1
  O  O8  1  -0.00000000  0.29556000  0.00069100  1
  Cu  Cu9  1  -0.00000000  0.96806501  0.32741800  1
  Cu  Cu10  1  0.50000001  0.60509101  0.21617900  1
  O  O11  1  0.50000001  0.06692100  0.12414300  1
  O  O12  1  1.00000002  0.35980301  0.33054799  1
  O  O13  1  -0.00000000  0.63780501  0.66765498  1
  O  O14  1  0.50000001  0.93404701  0.85963098  1
  O  O15  1  0.50000001  0.26811000  0.53608498  1
  O  O16  1  0.50000001  0.39824901  0.80093697  1
  O  O17  1  -0.00000000  0.02845000  0.66476798  1
