# generated using pymatgen
data_Dy2U2BC10
_symmetry_space_group_name_H-M   'P 1'
_cell_length_a   5.55630207
_cell_length_b   6.66945887
_cell_length_c   6.95109129
_cell_angle_alpha   78.34454346
_cell_angle_beta   66.44237518
_cell_angle_gamma   65.38314819
_symmetry_Int_Tables_number   1
_chemical_formula_structural   Dy2U2BC10
_chemical_formula_sum   'Dy2 U2 B1 C10'
_cell_volume   214.46667900
_cell_formula_units_Z   1
loop_
 _symmetry_equiv_pos_site_id
 _symmetry_equiv_pos_as_xyz
  1  'x, y, z'
loop_
 _atom_site_type_symbol
 _atom_site_label
 _atom_site_symmetry_multiplicity
 _atom_site_fract_x
 _atom_site_fract_y
 _atom_site_fract_z
 _atom_site_occupancy
  Dy  Dy0  1  0.40026699  0.29721600  0.90224999  1
  Dy  Dy1  1  -0.00000001  0.50000000  0.50000000  1
  U  U2  1  0.59973298  0.70278400  0.09775001  1
  U  U3  1  0.19013698  0.90937200  0.71035400  1
  B  B4  1  0.80986298  0.09062800  0.28964601  1
  C  C5  1  0.77673899  0.00000000  0.00000001  1
  C  C6  1  0.35059699  0.17134900  0.61296400  1
  C  C7  1  0.22326100  0.00000000  0.00000000  1
  C  C8  1  0.94493798  0.36450200  0.21565701  1
  C  C9  1  0.52509698  0.63549800  0.78434300  1
  C  C10  1  0.86508998  0.17134900  0.61296400  1
  C  C11  1  0.13490998  0.82865100  0.38703600  1
  C  C12  1  0.47490298  0.36450200  0.21565700  1
  C  C13  1  0.05506199  0.63549800  0.78434299  1
  C  C14  1  0.64940297  0.82865100  0.38703601  1
