# generated using pymatgen
data_Sr2InBiO6
_symmetry_space_group_name_H-M   'P 1'
_cell_length_a   6.16068029
_cell_length_b   6.16068029
_cell_length_c   6.17191124
_cell_angle_alpha   90.21945190
_cell_angle_beta   119.73575592
_cell_angle_gamma   119.95092010
_symmetry_Int_Tables_number   1
_chemical_formula_structural   Sr2InBiO6
_chemical_formula_sum   'Sr2 In1 Bi1 O6'
_cell_volume   166.10410333
_cell_formula_units_Z   1
loop_
 _symmetry_equiv_pos_site_id
 _symmetry_equiv_pos_as_xyz
  1  'x, y, z'
loop_
 _atom_site_type_symbol
 _atom_site_label
 _atom_site_symmetry_multiplicity
 _atom_site_fract_x
 _atom_site_fract_y
 _atom_site_fract_z
 _atom_site_occupancy
  Sr  Sr0  1  0.99686699  0.24904400  0.24591096  1
  Sr  Sr1  1  0.00313295  0.75095599  0.75408897  1
  In  In2  1  0.50000001  0.00000000  0.49999999  1
  Bi  Bi3  1  0.49999997  0.50000000  -0.00000003  1
  O  O4  1  0.01285098  0.28385000  0.78553899  1
  O  O5  1  0.49831099  0.22731200  0.21446098  1
  O  O6  1  0.50168896  0.77268799  0.78553896  1
  O  O7  1  0.44666899  0.25689500  0.70356398  1
  O  O8  1  0.55333096  0.74310499  0.29643596  1
  O  O9  1  0.98714897  0.71614999  0.21446095  1
