# generated using pymatgen
data_Na2HCO3
_symmetry_space_group_name_H-M   'P 1'
_cell_length_a   3.96289992
_cell_length_b   3.96289992
_cell_length_c   8.40891171
_cell_angle_alpha   90.00000000
_cell_angle_beta   90.00000000
_cell_angle_gamma   120.00000000
_symmetry_Int_Tables_number   1
_chemical_formula_structural   Na2HCO3
_chemical_formula_sum   'Na2 H1 C1 O3'
_cell_volume   114.36592164
_cell_formula_units_Z   1
loop_
 _symmetry_equiv_pos_site_id
 _symmetry_equiv_pos_as_xyz
  1  'x, y, z'
loop_
 _atom_site_type_symbol
 _atom_site_label
 _atom_site_symmetry_multiplicity
 _atom_site_fract_x
 _atom_site_fract_y
 _atom_site_fract_z
 _atom_site_occupancy
  Na  Na0  1  0.33333333  0.66666667  0.18117201  1
  Na  Na1  1  0.66666668  0.33333333  0.81882803  1
  C  C2  1  0.00000000  0.00000000  0.50000002  1
  H  H3  1  0.00000000  0.00000000  0.64719902  1
  O  O4  1  0.00000000  0.00000000  0.35280101  1
  O  O5  1  0.33333333  0.66666667  0.89629103  1
  O  O6  1  0.66666668  0.33333333  0.10370900  1
