# generated using pymatgen
data_La2Sb5
_symmetry_space_group_name_H-M   'P 1'
_cell_length_a   4.38018990
_cell_length_b   4.54572582
_cell_length_c   21.30188560
_cell_angle_alpha   90.00000000
_cell_angle_beta   90.00000000
_cell_angle_gamma   90.00000000
_symmetry_Int_Tables_number   1
_chemical_formula_structural   La2Sb5
_chemical_formula_sum   'La4 Sb10'
_cell_volume   424.14487587
_cell_formula_units_Z   2
loop_
 _symmetry_equiv_pos_site_id
 _symmetry_equiv_pos_as_xyz
  1  'x, y, z'
loop_
 _atom_site_type_symbol
 _atom_site_label
 _atom_site_symmetry_multiplicity
 _atom_site_fract_x
 _atom_site_fract_y
 _atom_site_fract_z
 _atom_site_occupancy
  La  La0  1  0.00000000  0.50000002  0.13620000  1
  La  La1  1  0.50000001  0.00000000  0.86380002  1
  La  La2  1  0.00000000  0.50000002  0.60091101  1
  La  La3  1  0.50000001  0.00000000  0.39908901  1
  Sb  Sb4  1  0.50000001  0.50000002  0.00051300  1
  Sb  Sb5  1  0.00000000  0.00000000  0.99948702  1
  Sb  Sb6  1  0.50000001  0.50000002  0.27629001  1
  Sb  Sb7  1  0.00000000  0.00000000  0.72371001  1
  Sb  Sb8  1  0.00000000  0.50000002  0.44220701  1
  Sb  Sb9  1  0.50000001  0.00000000  0.55779301  1
  Sb  Sb10  1  0.50000001  0.50000002  0.72442401  1
  Sb  Sb11  1  0.00000000  0.00000000  0.27557601  1
  Sb  Sb12  1  0.00000000  0.50000002  0.91263702  1
  Sb  Sb13  1  0.50000001  0.00000000  0.08736300  1
