# generated using pymatgen
data_La2Sn5
_symmetry_space_group_name_H-M   'P 1'
_cell_length_a   4.44489384
_cell_length_b   4.44489384
_cell_length_c   9.87223339
_cell_angle_alpha   90.00000000
_cell_angle_beta   90.00000000
_cell_angle_gamma   90.00000000
_symmetry_Int_Tables_number   1
_chemical_formula_structural   La2Sn5
_chemical_formula_sum   'La2 Sn5'
_cell_volume   195.04651694
_cell_formula_units_Z   1
loop_
 _symmetry_equiv_pos_site_id
 _symmetry_equiv_pos_as_xyz
  1  'x, y, z'
loop_
 _atom_site_type_symbol
 _atom_site_label
 _atom_site_symmetry_multiplicity
 _atom_site_fract_x
 _atom_site_fract_y
 _atom_site_fract_z
 _atom_site_occupancy
  La  La0  1  0.50000002  0.00000000  0.76309997  1
  La  La1  1  0.00000000  0.50000002  0.23689999  1
  Sn  Sn2  1  0.50000002  0.50000002  0.00000000  1
  Sn  Sn3  1  0.50000002  0.00000000  0.11604600  1
  Sn  Sn4  1  0.00000000  0.50000002  0.88395397  1
  Sn  Sn5  1  0.50000002  0.50000002  0.49999998  1
  Sn  Sn6  1  0.00000000  0.00000000  0.49999998  1
