# generated using pymatgen
data_Li2EuZn2(GaGe2)2
_symmetry_space_group_name_H-M   'P 1'
_cell_length_a   6.95509386
_cell_length_b   6.97599554
_cell_length_c   6.95509386
_cell_angle_alpha   60.09906387
_cell_angle_beta   90.00000000
_cell_angle_gamma   119.90093994
_symmetry_Int_Tables_number   1
_chemical_formula_structural   Li2EuZn2(GaGe2)2
_chemical_formula_sum   'Li2 Eu1 Zn2 Ga2 Ge4'
_cell_volume   239.32748185
_cell_formula_units_Z   1
loop_
 _symmetry_equiv_pos_site_id
 _symmetry_equiv_pos_as_xyz
  1  'x, y, z'
loop_
 _atom_site_type_symbol
 _atom_site_label
 _atom_site_symmetry_multiplicity
 _atom_site_fract_x
 _atom_site_fract_y
 _atom_site_fract_z
 _atom_site_occupancy
  Eu  Eu0  1  0.00000000  0.00000000  0.00000000  1
  Li  Li1  1  0.47060506  0.58918002  0.88142500  1
  Li  Li2  1  0.11857605  0.58918202  0.52939400  1
  Zn  Zn3  1  0.52939404  0.41081901  0.47060600  1
  Zn  Zn4  1  0.88142505  0.41081901  0.11857499  1
  Ga  Ga5  1  0.50000001  0.00000000  0.00000000  1
  Ga  Ga6  1  0.00000008  1.00000003  0.49999999  1
  Ge  Ge7  1  0.40570802  0.15578500  0.24992300  1
  Ge  Ge8  1  0.75007703  0.15578500  0.59429201  1
  Ge  Ge9  1  0.59429208  0.84421502  0.40570799  1
  Ge  Ge10  1  0.24992307  0.84421502  0.75007700  1
