# generated using pymatgen
data_Sm3Ir5Ru2
_symmetry_space_group_name_H-M   'P 1'
_cell_length_a   8.12554550
_cell_length_b   8.12554550
_cell_length_c   8.12554550
_cell_angle_alpha   109.47122192
_cell_angle_beta   109.47122192
_cell_angle_gamma   109.47122192
_symmetry_Int_Tables_number   1
_chemical_formula_structural   Sm3Ir5Ru2
_chemical_formula_sum   'Sm6 Ru4 Ir10'
_cell_volume   412.98632221
_cell_formula_units_Z   2
loop_
 _symmetry_equiv_pos_site_id
 _symmetry_equiv_pos_as_xyz
  1  'x, y, z'
loop_
 _atom_site_type_symbol
 _atom_site_label
 _atom_site_symmetry_multiplicity
 _atom_site_fract_x
 _atom_site_fract_y
 _atom_site_fract_z
 _atom_site_occupancy
  Sm  Sm0  1  0.87500004  0.12500001  0.75000005  1
  Sm  Sm1  1  0.62500004  0.37500002  0.25000004  1
  Sm  Sm2  1  0.12500002  0.25000002  0.37500003  1
  Sm  Sm3  1  0.37500006  0.75000005  0.12500005  1
  Sm  Sm4  1  0.75000006  0.62500004  0.87500007  1
  Sm  Sm5  1  0.25000006  0.87500006  0.62500007  1
  Ru  Ru6  1  0.37500005  0.62500004  0.75000006  1
  Ir  Ir7  1  0.12500006  0.87500006  0.25000006  1
  Ir  Ir8  1  0.62500004  0.25000002  0.87500005  1
  Ru  Ru9  1  0.87500008  0.75000005  0.62500008  1
  Ru  Ru10  1  0.75000003  0.12500001  0.37500003  1
  Ru  Ru11  1  0.25000003  0.37500002  0.12500003  1
  Ir  Ir12  1  0.00000003  0.50000003  0.66828904  1
  Ir  Ir13  1  0.33171103  0.33171102  0.83171105  1
  Ir  Ir14  1  0.50000003  0.16828901  0.50000003  1
  Ir  Ir15  1  0.16828901  0.00000000  0.00000000  1
  Ir  Ir16  1  0.83171108  0.83171105  0.33171107  1
  Ir  Ir17  1  0.00000003  0.50000003  0.16828903  1
  Ir  Ir18  1  0.50000006  0.66828904  0.50000006  1
  Ir  Ir19  1  0.66828902  0.00000000  0.00000002  1
