# generated using pymatgen
data_Nb3BP2OsNO
_symmetry_space_group_name_H-M   'P 1'
_cell_length_a   4.75511408
_cell_length_b   6.98201799
_cell_length_c   8.41418362
_cell_angle_alpha   104.37270355
_cell_angle_beta   97.31228638
_cell_angle_gamma   91.85321808
_symmetry_Int_Tables_number   1
_chemical_formula_structural   Nb3BP2OsNO
_chemical_formula_sum   'Nb3 B1 P2 Os1 N1 O1'
_cell_volume   267.81434078
_cell_formula_units_Z   1
loop_
 _symmetry_equiv_pos_site_id
 _symmetry_equiv_pos_as_xyz
  1  'x, y, z'
loop_
 _atom_site_type_symbol
 _atom_site_label
 _atom_site_symmetry_multiplicity
 _atom_site_fract_x
 _atom_site_fract_y
 _atom_site_fract_z
 _atom_site_occupancy
  Os  Os0  1  0.00000000  0.00000000  0.00000000  1
  Nb  Nb1  1  0.29379100  0.22595099  0.20659997  1
  Nb  Nb2  1  0.70620901  0.77404898  0.79339992  1
  Nb  Nb3  1  0.74552501  0.81784098  0.56702392  1
  N  N4  1  0.28762600  0.12877900  0.84131595  1
  O  O5  1  0.71237401  0.87122098  0.15868394  1
  P  P6  1  0.08994101  0.48175999  0.21556597  1
  P  P7  1  0.91005900  0.51823999  0.78443392  1
  B  B8  1  0.25447500  0.18215900  0.43297597  1
