# generated using pymatgen
data_PrOs5
_symmetry_space_group_name_H-M   'P 1'
_cell_length_a   2.93068409
_cell_length_b   5.57108593
_cell_length_c   5.57108498
_cell_angle_alpha   120.00000763
_cell_angle_beta   90.00000000
_cell_angle_gamma   90.00000000
_symmetry_Int_Tables_number   1
_chemical_formula_structural   PrOs5
_chemical_formula_sum   'Pr1 Os5'
_cell_volume   78.77333726
_cell_formula_units_Z   1
loop_
 _symmetry_equiv_pos_site_id
 _symmetry_equiv_pos_as_xyz
  1  'x, y, z'
loop_
 _atom_site_type_symbol
 _atom_site_label
 _atom_site_symmetry_multiplicity
 _atom_site_fract_x
 _atom_site_fract_y
 _atom_site_fract_z
 _atom_site_occupancy
  Pr  Pr0  1  0.49999998  0.00000000  -0.00000000  1
  Os  Os1  1  0.49999998  0.33333335  0.66666670  1
  Os  Os2  1  0.49999998  0.66666669  0.33333338  1
  Os  Os3  1  -0.00000000  0.00000000  0.50000001  1
  Os  Os4  1  -0.00000000  0.50000002  0.00000002  1
  Os  Os5  1  0.99999997  0.50000002  0.50000004  1
