# generated using pymatgen
data_Dy2In9
_symmetry_space_group_name_H-M   'P 1'
_cell_length_a   4.70149899
_cell_length_b   4.70149899
_cell_length_c   12.38498878
_cell_angle_alpha   90.00000000
_cell_angle_beta   90.00000000
_cell_angle_gamma   90.00000000
_symmetry_Int_Tables_number   1
_chemical_formula_structural   Dy2In9
_chemical_formula_sum   'Dy2 In9'
_cell_volume   273.75894030
_cell_formula_units_Z   1
loop_
 _symmetry_equiv_pos_site_id
 _symmetry_equiv_pos_as_xyz
  1  'x, y, z'
loop_
 _atom_site_type_symbol
 _atom_site_label
 _atom_site_symmetry_multiplicity
 _atom_site_fract_x
 _atom_site_fract_y
 _atom_site_fract_z
 _atom_site_occupancy
  Dy  Dy0  1  0.00000000  0.00000000  0.69537701  1
  Dy  Dy1  1  0.00000000  0.00000000  0.30462301  1
  In  In2  1  0.50000000  0.00000000  0.88356402  1
  In  In3  1  0.00000000  0.50000000  0.88356402  1
  In  In4  1  0.50000000  0.00000000  0.11643600  1
  In  In5  1  0.00000000  0.50000000  0.11643600  1
  In  In6  1  0.50000000  0.00000000  0.50000001  1
  In  In7  1  0.00000000  0.50000000  0.50000001  1
  In  In8  1  0.50000000  0.50000000  0.69750001  1
  In  In9  1  0.50000000  0.50000000  0.30250001  1
  In  In10  1  0.00000000  0.00000000  0.00000000  1
