# generated using pymatgen
data_Sr2CaTa(RuO3)2
_symmetry_space_group_name_H-M   'P 1'
_cell_length_a   5.29257393
_cell_length_b   5.29257345
_cell_length_c   7.93140507
_cell_angle_alpha   90.00000000
_cell_angle_beta   90.00000000
_cell_angle_gamma   120.00000000
_symmetry_Int_Tables_number   1
_chemical_formula_structural   Sr2CaTa(RuO3)2
_chemical_formula_sum   'Sr2 Ca1 Ta1 Ru2 O6'
_cell_volume   192.40421827
_cell_formula_units_Z   1
loop_
 _symmetry_equiv_pos_site_id
 _symmetry_equiv_pos_as_xyz
  1  'x, y, z'
loop_
 _atom_site_type_symbol
 _atom_site_label
 _atom_site_symmetry_multiplicity
 _atom_site_fract_x
 _atom_site_fract_y
 _atom_site_fract_z
 _atom_site_occupancy
  Ca  Ca0  1  0.50000001  0.00000000  0.16666700  1
  Sr  Sr1  1  0.49999998  0.49999999  0.50000000  1
  Sr  Sr2  1  -0.00000003  0.49999999  0.83333299  1
  Ta  Ta3  1  0.50000001  0.00000000  0.66666666  1
  Ru  Ru4  1  0.49999998  0.49999999  -0.00000000  1
  Ru  Ru5  1  -0.00000003  0.49999999  0.33333333  1
  O  O6  1  0.84831297  0.69662599  0.16666700  1
  O  O7  1  0.84831300  0.15168700  0.50000000  1
  O  O8  1  0.30337400  0.15168700  0.83333299  1
  O  O9  1  0.15168698  0.30337400  0.16666700  1
  O  O10  1  0.15168695  0.84831299  0.50000000  1
  O  O11  1  0.69662596  0.84831299  0.83333299  1
