# generated using pymatgen
data_Na2Ti3O7
_symmetry_space_group_name_H-M   'P 1'
_cell_length_a   5.66784000
_cell_length_b   5.66784000
_cell_length_c   6.68873978
_cell_angle_alpha   115.06746674
_cell_angle_beta   115.06746674
_cell_angle_gamma   90.00000000
_symmetry_Int_Tables_number   1
_chemical_formula_structural   Na2Ti3O7
_chemical_formula_sum   'Na2 Ti3 O7'
_cell_volume   172.02925282
_cell_formula_units_Z   1
loop_
 _symmetry_equiv_pos_site_id
 _symmetry_equiv_pos_as_xyz
  1  'x, y, z'
loop_
 _atom_site_type_symbol
 _atom_site_label
 _atom_site_symmetry_multiplicity
 _atom_site_fract_x
 _atom_site_fract_y
 _atom_site_fract_z
 _atom_site_occupancy
  Na  Na0  1  0.24999998  0.24999999  0.49999995  1
  Na  Na1  1  0.74999994  0.74999997  0.49999989  1
  Ti  Ti2  1  0.49999999  0.00000000  -0.00000002  1
  Ti  Ti3  1  -0.00000003  0.49999998  0.99999993  1
  Ti  Ti4  1  0.44968697  0.30440999  0.25409695  1
  O  O5  1  0.19558999  0.05031300  0.74590296  1
  O  O6  1  0.55031295  0.69558997  0.74590290  1
  O  O7  1  0.05031297  0.55031298  0.74590293  1
  O  O8  1  0.80440992  0.94968696  0.25409688  1
  O  O9  1  0.30440994  0.80440997  0.25409692  1
  O  O10  1  0.94968695  0.44968698  0.25409691  1
  O  O11  1  0.69558997  0.19558999  0.74590293  1
