# generated using pymatgen
data_B3C2NO
_symmetry_space_group_name_H-M   'P 1'
_cell_length_a   3.34142971
_cell_length_b   5.95966005
_cell_length_c   5.95966005
_cell_angle_alpha   116.59027100
_cell_angle_beta   100.77143860
_cell_angle_gamma   100.77143860
_symmetry_Int_Tables_number   1
_chemical_formula_structural   B3C2NO
_chemical_formula_sum   'B3 C2 N1 O1'
_cell_volume   99.18944122
_cell_formula_units_Z   1
loop_
 _symmetry_equiv_pos_site_id
 _symmetry_equiv_pos_as_xyz
  1  'x, y, z'
loop_
 _atom_site_type_symbol
 _atom_site_label
 _atom_site_symmetry_multiplicity
 _atom_site_fract_x
 _atom_site_fract_y
 _atom_site_fract_z
 _atom_site_occupancy
  B  B0  1  0.50938600  0.01877200  0.50938598  1
  B  B1  1  0.49061393  0.49061400  0.98122800  1
  B  B2  1  -0.00000007  0.49061400  0.50938601  1
  C  C3  1  0.00000000  0.00000000  0.00000000  1
  C  C4  1  0.86346788  0.86346800  0.72693599  1
  O  O5  1  -0.00000012  0.86346800  0.13653202  1
  N  N6  1  0.13653196  0.27306400  0.13653200  1
