# generated using pymatgen
data_Yb6Al2Si7
_symmetry_space_group_name_H-M   'P 1'
_cell_length_a   4.09304190
_cell_length_b   5.61493254
_cell_length_c   14.99199390
_cell_angle_alpha   90.77514648
_cell_angle_beta   90.00000000
_cell_angle_gamma   111.37548065
_symmetry_Int_Tables_number   1
_chemical_formula_structural   Yb6Al2Si7
_chemical_formula_sum   'Yb6 Al2 Si7'
_cell_volume   320.81362247
_cell_formula_units_Z   1
loop_
 _symmetry_equiv_pos_site_id
 _symmetry_equiv_pos_as_xyz
  1  'x, y, z'
loop_
 _atom_site_type_symbol
 _atom_site_label
 _atom_site_symmetry_multiplicity
 _atom_site_fract_x
 _atom_site_fract_y
 _atom_site_fract_z
 _atom_site_occupancy
  Yb  Yb0  1  0.31296404  0.62592802  0.90662601  1
  Yb  Yb1  1  0.97358807  0.94717602  0.23904699  1
  Yb  Yb2  1  0.64116503  0.28233001  0.57191501  1
  Yb  Yb3  1  0.02641200  0.05282400  0.76095301  1
  Yb  Yb4  1  0.68703603  0.37407201  0.09337400  1
  Yb  Yb5  1  0.35883504  0.71767002  0.42808500  1
  Al  Al6  1  0.66616803  0.33233601  0.33374200  1
  Al  Al7  1  0.33383204  0.66766402  0.66625800  1
  Si  Si8  1  0.60022402  0.20044800  0.90026501  1
  Si  Si9  1  0.25952203  0.51904401  0.23913100  1
  Si  Si10  1  0.92873506  0.85747002  0.57068200  1
  Si  Si11  1  0.74047804  0.48095601  0.76086901  1
  Si  Si12  1  0.39977605  0.79955202  0.09973499  1
  Si  Si13  1  0.07126501  0.14253000  0.42931801  1
  Si  Si14  1  0.00000000  0.00000000  0.00000000  1
