# generated using pymatgen
data_TmPt2
_symmetry_space_group_name_H-M   'P 1'
_cell_length_a   5.35169649
_cell_length_b   5.35169649
_cell_length_c   5.35169649
_cell_angle_alpha   60.00000000
_cell_angle_beta   60.00000000
_cell_angle_gamma   60.00000000
_symmetry_Int_Tables_number   1
_chemical_formula_structural   TmPt2
_chemical_formula_sum   'Tm2 Pt4'
_cell_volume   108.38256593
_cell_formula_units_Z   2
loop_
 _symmetry_equiv_pos_site_id
 _symmetry_equiv_pos_as_xyz
  1  'x, y, z'
loop_
 _atom_site_type_symbol
 _atom_site_label
 _atom_site_symmetry_multiplicity
 _atom_site_fract_x
 _atom_site_fract_y
 _atom_site_fract_z
 _atom_site_occupancy
  Tm  Tm0  1  0.50000002  0.50000002  0.50000002  1
  Tm  Tm1  1  0.25000001  0.25000001  0.25000001  1
  Pt  Pt2  1  0.37500001  0.87500003  0.87500003  1
  Pt  Pt3  1  0.87500003  0.87500003  0.37500001  1
  Pt  Pt4  1  0.87500003  0.87500003  0.87500003  1
  Pt  Pt5  1  0.87500003  0.37500001  0.87500003  1
