# generated using pymatgen
data_UTiP2
_symmetry_space_group_name_H-M   'P 1'
_cell_length_a   3.57162023
_cell_length_b   3.57162023
_cell_length_c   6.97969341
_cell_angle_alpha   75.17556763
_cell_angle_beta   75.17556763
_cell_angle_gamma   59.99999619
_symmetry_Int_Tables_number   1
_chemical_formula_structural   UTiP2
_chemical_formula_sum   'U1 Ti1 P2'
_cell_volume   73.66568628
_cell_formula_units_Z   1
loop_
 _symmetry_equiv_pos_site_id
 _symmetry_equiv_pos_as_xyz
  1  'x, y, z'
loop_
 _atom_site_type_symbol
 _atom_site_label
 _atom_site_symmetry_multiplicity
 _atom_site_fract_x
 _atom_site_fract_y
 _atom_site_fract_z
 _atom_site_occupancy
  U  U0  1  0.16621200  0.16621200  0.50136399  1
  Ti  Ti1  1  0.99775699  0.99775699  0.00672896  1
  P  P2  1  0.59772499  0.59772500  0.20682497  1
  P  P3  1  0.39830600  0.39830600  0.80508198  1
