# generated using pymatgen
data_Ti2Ni
_symmetry_space_group_name_H-M   'P 1'
_cell_length_a   4.71777534
_cell_length_b   4.71777534
_cell_length_c   7.57046986
_cell_angle_alpha   90.00000000
_cell_angle_beta   90.00000000
_cell_angle_gamma   119.20596313
_symmetry_Int_Tables_number   1
_chemical_formula_structural   Ti2Ni
_chemical_formula_sum   'Ti8 Ni4'
_cell_volume   147.07794747
_cell_formula_units_Z   4
loop_
 _symmetry_equiv_pos_site_id
 _symmetry_equiv_pos_as_xyz
  1  'x, y, z'
loop_
 _atom_site_type_symbol
 _atom_site_label
 _atom_site_symmetry_multiplicity
 _atom_site_fract_x
 _atom_site_fract_y
 _atom_site_fract_z
 _atom_site_occupancy
  Ti  Ti0  1  0.33585602  0.17091101  1.00000002  1
  Ti  Ti1  1  0.82908905  0.66414403  -0.00000000  1
  Ti  Ti2  1  0.81819503  0.18180501  1.00000002  1
  Ti  Ti3  1  0.66119205  0.83089004  0.50000001  1
  Ti  Ti4  1  0.16911002  0.33880802  0.50000001  1
  Ti  Ti5  1  0.16960604  0.83039404  0.50000001  1
  Ti  Ti6  1  0.00666305  0.99333705  0.75899301  1
  Ti  Ti7  1  0.00666305  0.99333705  0.24100700  1
  Ni  Ni8  1  0.66492703  0.33507302  0.31710301  1
  Ni  Ni9  1  0.33694704  0.66305303  0.18908500  1
  Ni  Ni10  1  0.33694704  0.66305303  0.81091502  1
  Ni  Ni11  1  0.66492703  0.33507302  0.68289701  1
