# generated using pymatgen
data_SbPbBr
_symmetry_space_group_name_H-M   'P 1'
_cell_length_a   3.69303203
_cell_length_b   3.69303250
_cell_length_c   7.19333220
_cell_angle_alpha   90.00000000
_cell_angle_beta   90.00000000
_cell_angle_gamma   120.00000000
_symmetry_Int_Tables_number   1
_chemical_formula_structural   SbPbBr
_chemical_formula_sum   'Sb1 Pb1 Br1'
_cell_volume   84.96243536
_cell_formula_units_Z   1
loop_
 _symmetry_equiv_pos_site_id
 _symmetry_equiv_pos_as_xyz
  1  'x, y, z'
loop_
 _atom_site_type_symbol
 _atom_site_label
 _atom_site_symmetry_multiplicity
 _atom_site_fract_x
 _atom_site_fract_y
 _atom_site_fract_z
 _atom_site_occupancy
  Sb  Sb0  1  0.00000000  0.00000000  0.00000000  1
  Pb  Pb1  1  0.33333338  0.66666667  0.25594499  1
  Br  Br2  1  0.66666669  0.33333334  0.74405498  1
