# generated using pymatgen
data_HfCo2
_symmetry_space_group_name_H-M   'P 1'
_cell_length_a   4.90164375
_cell_length_b   4.90181589
_cell_length_c   8.04999256
_cell_angle_alpha   90.00000000
_cell_angle_beta   90.00000000
_cell_angle_gamma   119.34064484
_symmetry_Int_Tables_number   1
_chemical_formula_structural   HfCo2
_chemical_formula_sum   'Hf4 Co8'
_cell_volume   168.60566838
_cell_formula_units_Z   4
loop_
 _symmetry_equiv_pos_site_id
 _symmetry_equiv_pos_as_xyz
  1  'x, y, z'
loop_
 _atom_site_type_symbol
 _atom_site_label
 _atom_site_symmetry_multiplicity
 _atom_site_fract_x
 _atom_site_fract_y
 _atom_site_fract_z
 _atom_site_occupancy
  Hf  Hf0  1  0.33487402  0.66511204  0.55343803  1
  Hf  Hf1  1  0.66689702  0.33311202  0.43016302  1
  Hf  Hf2  1  0.66689702  0.33311202  0.06983700  1
  Hf  Hf3  1  0.33487402  0.66511204  0.94656205  1
  Co  Co4  1  0.99362102  0.00636000  0.49207103  1
  Co  Co5  1  0.99362102  0.00636000  0.00792900  1
  Co  Co6  1  0.34736501  0.16785901  0.75000004  1
  Co  Co7  1  0.83213003  0.65263003  0.75000004  1
  Co  Co8  1  0.83518002  0.16487801  0.75000004  1
  Co  Co9  1  0.65213803  0.82807204  0.25000001  1
  Co  Co10  1  0.17190101  0.34785502  0.25000001  1
  Co  Co11  1  0.17050202  0.82953904  0.25000001  1
