# generated using pymatgen
data_K2AsF3
_symmetry_space_group_name_H-M   'P 1'
_cell_length_a   4.26037788
_cell_length_b   4.26037788
_cell_length_c   7.16706610
_cell_angle_alpha   90.00000000
_cell_angle_beta   90.00000000
_cell_angle_gamma   90.00000000
_symmetry_Int_Tables_number   1
_chemical_formula_structural   K2AsF3
_chemical_formula_sum   'K2 As1 F3'
_cell_volume   130.08812461
_cell_formula_units_Z   1
loop_
 _symmetry_equiv_pos_site_id
 _symmetry_equiv_pos_as_xyz
  1  'x, y, z'
loop_
 _atom_site_type_symbol
 _atom_site_label
 _atom_site_symmetry_multiplicity
 _atom_site_fract_x
 _atom_site_fract_y
 _atom_site_fract_z
 _atom_site_occupancy
  K  K0  1  0.00000000  0.50000001  0.31566300  1
  K  K1  1  0.50000001  0.00000000  0.68433699  1
  As  As2  1  0.00000000  0.50000001  0.83341399  1
  F  F3  1  0.50000001  0.00000000  0.16658600  1
  F  F4  1  0.00000000  0.00000000  0.00000000  1
  F  F5  1  0.50000001  0.50000001  0.00000000  1
