# generated using pymatgen
data_EuGa5
_symmetry_space_group_name_H-M   'P 1'
_cell_length_a   4.51762295
_cell_length_b   5.53266096
_cell_length_c   9.84327030
_cell_angle_alpha   90.00000000
_cell_angle_beta   90.00000000
_cell_angle_gamma   90.00000000
_symmetry_Int_Tables_number   1
_chemical_formula_structural   EuGa5
_chemical_formula_sum   'Eu2 Ga10'
_cell_volume   246.02738450
_cell_formula_units_Z   2
loop_
 _symmetry_equiv_pos_site_id
 _symmetry_equiv_pos_as_xyz
  1  'x, y, z'
loop_
 _atom_site_type_symbol
 _atom_site_label
 _atom_site_symmetry_multiplicity
 _atom_site_fract_x
 _atom_site_fract_y
 _atom_site_fract_z
 _atom_site_occupancy
  Eu  Eu0  1  -0.00000000  0.50000000  -0.00000000  1
  Eu  Eu1  1  0.00000000  0.00000000  0.49999998  1
  Ga  Ga2  1  0.50000001  0.00000000  0.00000000  1
  Ga  Ga3  1  0.50000001  0.74955501  0.25082799  1
  Ga  Ga4  1  0.50000001  0.25044500  0.74917198  1
  Ga  Ga5  1  0.50000001  0.25044500  0.25082799  1
  Ga  Ga6  1  0.50000001  0.74955501  0.74917198  1
  Ga  Ga7  1  -0.00000000  0.50000000  0.32469599  1
  Ga  Ga8  1  0.00000000  0.00000000  0.83302197  1
  Ga  Ga9  1  0.00000000  0.00000000  0.16697799  1
  Ga  Ga10  1  -0.00000000  0.50000000  0.67530398  1
  Ga  Ga11  1  0.50000001  0.50000000  0.49999998  1
