# generated using pymatgen
data_NaV3O8
_symmetry_space_group_name_H-M   'P 1'
_cell_length_a   5.14955378
_cell_length_b   5.14955425
_cell_length_c   9.07224083
_cell_angle_alpha   90.00000000
_cell_angle_beta   90.00000000
_cell_angle_gamma   120.00000000
_symmetry_Int_Tables_number   1
_chemical_formula_structural   NaV3O8
_chemical_formula_sum   'Na1 V3 O8'
_cell_volume   208.34565021
_cell_formula_units_Z   1
loop_
 _symmetry_equiv_pos_site_id
 _symmetry_equiv_pos_as_xyz
  1  'x, y, z'
loop_
 _atom_site_type_symbol
 _atom_site_label
 _atom_site_symmetry_multiplicity
 _atom_site_fract_x
 _atom_site_fract_y
 _atom_site_fract_z
 _atom_site_occupancy
  Na  Na0  1  0.00000000  0.00000000  0.50000001  1
  V  V1  1  0.00000000  0.00000000  0.00000000  1
  V  V2  1  0.33333338  0.66666670  0.19986900  1
  V  V3  1  0.66666671  0.33333335  0.80013102  1
  O  O4  1  0.06824402  0.32631801  0.14164500  1
  O  O5  1  0.67368306  0.74192703  0.14164500  1
  O  O6  1  0.32631702  0.06824300  0.85835502  1
  O  O7  1  0.25807405  0.93175704  0.14164500  1
  O  O8  1  0.74192606  0.67368203  0.85835502  1
  O  O9  1  0.93175605  0.25807301  0.85835502  1
  O  O10  1  0.33333338  0.66666670  0.38108701  1
  O  O11  1  0.66666671  0.33333335  0.61891301  1
