# generated using pymatgen
data_Ho3Cd
_symmetry_space_group_name_H-M   'P 1'
_cell_length_a   5.47118521
_cell_length_b   6.75496197
_cell_length_c   6.75496244
_cell_angle_alpha   60.00000000
_cell_angle_beta   90.00000000
_cell_angle_gamma   90.00000000
_symmetry_Int_Tables_number   1
_chemical_formula_structural   Ho3Cd
_chemical_formula_sum   'Ho6 Cd2'
_cell_volume   216.20109797
_cell_formula_units_Z   2
loop_
 _symmetry_equiv_pos_site_id
 _symmetry_equiv_pos_as_xyz
  1  'x, y, z'
loop_
 _atom_site_type_symbol
 _atom_site_label
 _atom_site_symmetry_multiplicity
 _atom_site_fract_x
 _atom_site_fract_y
 _atom_site_fract_z
 _atom_site_occupancy
  Ho  Ho0  1  0.24999999  0.83110402  0.33779197  1
  Ho  Ho1  1  0.24999999  0.83110402  0.83110296  1
  Ho  Ho2  1  0.24999999  0.33779301  0.83110297  1
  Ho  Ho3  1  0.74999997  0.16889600  0.66220798  1
  Ho  Ho4  1  0.74999997  0.16889600  0.16889699  1
  Ho  Ho5  1  0.74999997  0.66220701  0.16889698  1
  Cd  Cd6  1  0.74999997  0.66666668  0.66666663  1
  Cd  Cd7  1  0.24999999  0.33333334  0.33333332  1
