# generated using pymatgen
data_CdSe
_symmetry_space_group_name_H-M   'P 1'
_cell_length_a   5.91649008
_cell_length_b   5.91649008
_cell_length_c   7.53739023
_cell_angle_alpha   113.10865021
_cell_angle_beta   113.10865021
_cell_angle_gamma   90.00000000
_symmetry_Int_Tables_number   1
_chemical_formula_structural   CdSe
_chemical_formula_sum   'Cd4 Se4'
_cell_volume   219.47186688
_cell_formula_units_Z   4
loop_
 _symmetry_equiv_pos_site_id
 _symmetry_equiv_pos_as_xyz
  1  'x, y, z'
loop_
 _atom_site_type_symbol
 _atom_site_label
 _atom_site_symmetry_multiplicity
 _atom_site_fract_x
 _atom_site_fract_y
 _atom_site_fract_z
 _atom_site_occupancy
  Cd  Cd0  1  0.00000000  0.00000000  0.00000000  1
  Cd  Cd1  1  0.74999997  0.24999999  0.49999997  1
  Cd  Cd2  1  0.24999996  0.74999997  0.49999997  1
  Cd  Cd3  1  0.49999996  0.49999998  -0.00000004  1
  Se  Se4  1  0.63741995  0.63741998  0.76162997  1
  Se  Se5  1  0.12420999  0.12421000  0.76163001  1
  Se  Se6  1  0.36257995  0.87578997  0.23836995  1
  Se  Se7  1  0.87578996  0.36257999  0.23836996  1
