# generated using pymatgen
data_LiHO2
_symmetry_space_group_name_H-M   'P 1'
_cell_length_a   3.81156111
_cell_length_b   5.46329689
_cell_length_c   10.17318153
_cell_angle_alpha   101.55713654
_cell_angle_beta   90.00000000
_cell_angle_gamma   90.00000000
_symmetry_Int_Tables_number   1
_chemical_formula_structural   LiHO2
_chemical_formula_sum   'Li4 H4 O8'
_cell_volume   207.54814309
_cell_formula_units_Z   4
loop_
 _symmetry_equiv_pos_site_id
 _symmetry_equiv_pos_as_xyz
  1  'x, y, z'
loop_
 _atom_site_type_symbol
 _atom_site_label
 _atom_site_symmetry_multiplicity
 _atom_site_fract_x
 _atom_site_fract_y
 _atom_site_fract_z
 _atom_site_occupancy
  Li  Li0  1  0.24999999  0.59533902  0.35630399  1
  Li  Li1  1  0.74999998  0.40466101  0.64369598  1
  Li  Li2  1  0.74999998  0.97980103  0.19336601  1
  Li  Li3  1  0.24999999  0.02019900  0.80663396  1
  H  H4  1  0.24999999  0.42576801  0.11001600  1
  H  H5  1  0.74999998  0.57423202  0.88998397  1
  H  H6  1  0.24999999  0.21827901  0.47295198  1
  H  H7  1  0.74999998  0.78172102  0.52704799  1
  O  O8  1  0.24999999  0.65125602  0.15884800  1
  O  O9  1  0.74999998  0.34874401  0.84115197  1
  O  O10  1  0.74999998  0.80271602  0.93370197  1
  O  O11  1  0.24999999  0.19728401  0.06629800  1
  O  O12  1  0.74999998  0.75681302  0.40437400  1
  O  O13  1  0.24999999  0.24318701  0.59562598  1
  O  O14  1  0.24999999  0.20568801  0.34900399  1
  O  O15  1  0.74999998  0.79431202  0.65099598  1
