# generated using pymatgen
data_TmInGe
_symmetry_space_group_name_H-M   'P 1'
_cell_length_a   4.08123398
_cell_length_b   7.41029978
_cell_length_c   7.41029978
_cell_angle_alpha   120.00000000
_cell_angle_beta   90.00000000
_cell_angle_gamma   90.00000000
_symmetry_Int_Tables_number   1
_chemical_formula_structural   TmInGe
_chemical_formula_sum   'Tm3 In3 Ge3'
_cell_volume   194.08576341
_cell_formula_units_Z   3
loop_
 _symmetry_equiv_pos_site_id
 _symmetry_equiv_pos_as_xyz
  1  'x, y, z'
loop_
 _atom_site_type_symbol
 _atom_site_label
 _atom_site_symmetry_multiplicity
 _atom_site_fract_x
 _atom_site_fract_y
 _atom_site_fract_z
 _atom_site_occupancy
  Tm  Tm0  1  -0.00000000  0.41661101  0.41661101  1
  Tm  Tm1  1  -0.00000000  0.00000000  0.58338901  1
  Tm  Tm2  1  1.00000001  0.58338902  -0.00000000  1
  In  In3  1  0.50000000  0.76003202  0.76003202  1
  In  In4  1  0.50000000  0.00000000  0.23996801  1
  In  In5  1  0.50000000  0.23996801  -0.00000000  1
  Ge  Ge6  1  0.50000000  0.66666669  0.33333334  1
  Ge  Ge7  1  0.50000000  0.33333334  0.66666668  1
  Ge  Ge8  1  0.00000000  0.00000000  0.00000000  1
