# generated using pymatgen
data_Sr3TiCr2O9
_symmetry_space_group_name_H-M   'P 1'
_cell_length_a   5.72531223
_cell_length_b   5.72531128
_cell_length_c   7.07413912
_cell_angle_alpha   90.00000000
_cell_angle_beta   90.00000000
_cell_angle_gamma   120.00000000
_symmetry_Int_Tables_number   1
_chemical_formula_structural   Sr3TiCr2O9
_chemical_formula_sum   'Sr3 Ti1 Cr2 O9'
_cell_volume   200.81794008
_cell_formula_units_Z   1
loop_
 _symmetry_equiv_pos_site_id
 _symmetry_equiv_pos_as_xyz
  1  'x, y, z'
loop_
 _atom_site_type_symbol
 _atom_site_label
 _atom_site_symmetry_multiplicity
 _atom_site_fract_x
 _atom_site_fract_y
 _atom_site_fract_z
 _atom_site_occupancy
  Sr  Sr0  1  0.00000000  0.00000000  0.00000000  1
  Sr  Sr1  1  0.33333328  0.66666667  0.66219499  1
  Sr  Sr2  1  0.66666662  0.33333333  0.33780499  1
  Ti  Ti3  1  0.33333328  0.66666667  0.17650100  1
  Cr  Cr4  1  0.66666662  0.33333333  0.82349899  1
  Cr  Cr5  1  0.00000000  0.00000000  0.49999999  1
  O  O6  1  0.49999995  0.50000000  0.99999998  1
  O  O7  1  0.49999998  0.00000000  -0.00000000  1
  O  O8  1  0.99999993  0.50000000  -0.00000000  1
  O  O9  1  0.16964394  0.83035600  0.32322099  1
  O  O10  1  0.16964397  0.33928800  0.32322099  1
  O  O11  1  0.66071192  0.83035600  0.32322099  1
  O  O12  1  0.83035596  0.16964400  0.67677899  1
  O  O13  1  0.83035592  0.66071200  0.67677899  1
  O  O14  1  0.33928798  0.16964400  0.67677899  1
