# generated using pymatgen
data_TmV7Si5
_symmetry_space_group_name_H-M   'P 1'
_cell_length_a   4.69991779
_cell_length_b   6.44717407
_cell_length_c   6.44717407
_cell_angle_alpha   82.42172241
_cell_angle_beta   68.62352753
_cell_angle_gamma   68.62352753
_symmetry_Int_Tables_number   1
_chemical_formula_structural   TmV7Si5
_chemical_formula_sum   'Tm1 V7 Si5'
_cell_volume   169.40253589
_cell_formula_units_Z   1
loop_
 _symmetry_equiv_pos_site_id
 _symmetry_equiv_pos_as_xyz
  1  'x, y, z'
loop_
 _atom_site_type_symbol
 _atom_site_label
 _atom_site_symmetry_multiplicity
 _atom_site_fract_x
 _atom_site_fract_y
 _atom_site_fract_z
 _atom_site_occupancy
  Tm  Tm0  1  0.00000000  0.00000000  0.00000000  1
  V  V1  1  0.50000000  0.78760300  0.21239703  1
  V  V2  1  0.50000002  0.21239700  0.78760301  1
  V  V3  1  0.72032101  0.77967900  0.77967903  1
  V  V4  1  0.27967901  0.22032100  0.22032101  1
  V  V5  1  1.00000005  0.00000000  0.49999999  1
  V  V6  1  0.50000002  0.00000000  0.50000000  1
  V  V7  1  0.50000001  0.50000000  0.00000002  1
  Si  Si8  1  -0.00000002  0.50000000  0.00000002  1
  Si  Si9  1  -0.00000001  0.35918200  0.64081802  1
  Si  Si10  1  -0.00000002  0.64081800  0.35918203  1
  Si  Si11  1  0.64186602  0.35813400  0.35813401  1
  Si  Si12  1  0.35813399  0.64186600  0.64186603  1
