# generated using pymatgen
data_HfFe2
_symmetry_space_group_name_H-M   'P 1'
_cell_length_a   4.83953714
_cell_length_b   4.83953714
_cell_length_c   8.10703945
_cell_angle_alpha   90.00000000
_cell_angle_beta   90.00000000
_cell_angle_gamma   118.52352142
_symmetry_Int_Tables_number   1
_chemical_formula_structural   HfFe2
_chemical_formula_sum   'Hf4 Fe8'
_cell_volume   166.82901892
_cell_formula_units_Z   4
loop_
 _symmetry_equiv_pos_site_id
 _symmetry_equiv_pos_as_xyz
  1  'x, y, z'
loop_
 _atom_site_type_symbol
 _atom_site_label
 _atom_site_symmetry_multiplicity
 _atom_site_fract_x
 _atom_site_fract_y
 _atom_site_fract_z
 _atom_site_occupancy
  Hf  Hf0  1  0.33012997  0.66986998  0.68356696  1
  Hf  Hf1  1  0.66176297  0.33823699  0.80400596  1
  Hf  Hf2  1  0.66176297  0.33823699  0.19599399  1
  Hf  Hf3  1  0.33012997  0.66986998  0.31643298  1
  Fe  Fe4  1  0.83655598  0.16344399  0.49999997  1
  Fe  Fe5  1  0.16418499  0.33730099  -0.00000000  1
  Fe  Fe6  1  0.66269896  0.83581497  -0.00000000  1
  Fe  Fe7  1  0.17025397  0.82974597  0.99999994  1
  Fe  Fe8  1  0.99992798  0.00007200  0.74195496  1
  Fe  Fe9  1  0.99992798  0.00007200  0.25804499  1
  Fe  Fe10  1  0.83877896  0.65646098  0.49999997  1
  Fe  Fe11  1  0.34353899  0.16122099  0.49999997  1
