# generated using pymatgen
data_Sm2SnRh2
_symmetry_space_group_name_H-M   'P 1'
_cell_length_a   3.72758698
_cell_length_b   7.73218918
_cell_length_c   7.73218918
_cell_angle_alpha   90.00000000
_cell_angle_beta   90.00000000
_cell_angle_gamma   90.00000000
_symmetry_Int_Tables_number   1
_chemical_formula_structural   Sm2SnRh2
_chemical_formula_sum   'Sm4 Sn2 Rh4'
_cell_volume   222.86030926
_cell_formula_units_Z   2
loop_
 _symmetry_equiv_pos_site_id
 _symmetry_equiv_pos_as_xyz
  1  'x, y, z'
loop_
 _atom_site_type_symbol
 _atom_site_label
 _atom_site_symmetry_multiplicity
 _atom_site_fract_x
 _atom_site_fract_y
 _atom_site_fract_z
 _atom_site_occupancy
  Sm  Sm0  1  0.50000000  0.32668399  0.82668398  1
  Sm  Sm1  1  0.50000000  0.82668398  0.67331598  1
  Sm  Sm2  1  0.50000000  0.17331600  0.32668399  1
  Sm  Sm3  1  0.50000000  0.67331598  0.17331600  1
  Sn  Sn4  1  0.00000000  0.00000000  0.00000000  1
  Sn  Sn5  1  0.00000000  0.49999999  0.49999999  1
  Rh  Rh6  1  0.00000000  0.37177999  0.12822000  1
  Rh  Rh7  1  0.00000000  0.87177998  0.37177999  1
  Rh  Rh8  1  0.00000000  0.12822000  0.62821999  1
  Rh  Rh9  1  0.00000000  0.62821999  0.87177998  1
