# generated using pymatgen
data_KBrO
_symmetry_space_group_name_H-M   'P 1'
_cell_length_a   4.12451506
_cell_length_b   4.12451506
_cell_length_c   9.89015198
_cell_angle_alpha   90.00000000
_cell_angle_beta   90.00000000
_cell_angle_gamma   90.00000000
_symmetry_Int_Tables_number   1
_chemical_formula_structural   KBrO
_chemical_formula_sum   'K2 Br2 O2'
_cell_volume   168.24755122
_cell_formula_units_Z   2
loop_
 _symmetry_equiv_pos_site_id
 _symmetry_equiv_pos_as_xyz
  1  'x, y, z'
loop_
 _atom_site_type_symbol
 _atom_site_label
 _atom_site_symmetry_multiplicity
 _atom_site_fract_x
 _atom_site_fract_y
 _atom_site_fract_z
 _atom_site_occupancy
  K  K0  1  -0.00000000  0.49999999  0.88056400  1
  K  K1  1  0.49999999  0.00000000  0.11943600  1
  Br  Br2  1  0.49999999  0.00000000  0.68610900  1
  Br  Br3  1  -0.00000000  0.49999999  0.31389100  1
  O  O4  1  0.00000000  0.00000000  0.00000000  1
  O  O5  1  0.49999999  0.49999999  0.00000000  1
