# generated using pymatgen
data_NaAgO
_symmetry_space_group_name_H-M   'P 1'
_cell_length_a   4.42254400
_cell_length_b   4.42254400
_cell_length_c   11.21450996
_cell_angle_alpha   90.00000000
_cell_angle_beta   90.00000000
_cell_angle_gamma   90.00000000
_symmetry_Int_Tables_number   1
_chemical_formula_structural   NaAgO
_chemical_formula_sum   'Na4 Ag4 O4'
_cell_volume   219.34342796
_cell_formula_units_Z   4
loop_
 _symmetry_equiv_pos_site_id
 _symmetry_equiv_pos_as_xyz
  1  'x, y, z'
loop_
 _atom_site_type_symbol
 _atom_site_label
 _atom_site_symmetry_multiplicity
 _atom_site_fract_x
 _atom_site_fract_y
 _atom_site_fract_z
 _atom_site_occupancy
  Na  Na0  1  -0.00000000  0.50000000  0.63231700  1
  Na  Na1  1  0.50000000  0.00000000  0.36768300  1
  Na  Na2  1  -0.00000000  0.50000000  0.12868400  1
  Na  Na3  1  0.50000000  0.00000000  0.87131600  1
  Ag  Ag4  1  0.00000000  0.00000000  0.81295500  1
  Ag  Ag5  1  0.50000000  0.50000000  0.81295500  1
  Ag  Ag6  1  0.50000000  0.50000000  0.18704500  1
  Ag  Ag7  1  0.00000000  0.00000000  0.18704500  1
  O  O8  1  0.00000000  0.00000000  0.50000000  1
  O  O9  1  0.50000000  0.50000000  0.50000000  1
  O  O10  1  -0.00000000  0.50000000  0.31701000  1
  O  O11  1  0.50000000  0.00000000  0.68299000  1
