# generated using pymatgen
data_SrFeO3
_symmetry_space_group_name_H-M   'P 1'
_cell_length_a   5.50009489
_cell_length_b   5.50009489
_cell_length_c   5.50009489
_cell_angle_alpha   60.63094330
_cell_angle_beta   60.63094330
_cell_angle_gamma   60.63094330
_symmetry_Int_Tables_number   1
_chemical_formula_structural   SrFeO3
_chemical_formula_sum   'Sr2 Fe2 O6'
_cell_volume   119.32715369
_cell_formula_units_Z   2
loop_
 _symmetry_equiv_pos_site_id
 _symmetry_equiv_pos_as_xyz
  1  'x, y, z'
loop_
 _atom_site_type_symbol
 _atom_site_label
 _atom_site_symmetry_multiplicity
 _atom_site_fract_x
 _atom_site_fract_y
 _atom_site_fract_z
 _atom_site_occupancy
  Sr  Sr0  1  0.75014103  0.75014100  0.75014096  1
  Sr  Sr1  1  0.24985901  0.24985900  0.24985899  1
  Fe  Fe2  1  0.50000002  0.50000000  0.49999997  1
  Fe  Fe3  1  0.00000000  0.00000000  0.00000000  1
  O  O4  1  0.19233701  0.30765900  0.75071698  1
  O  O5  1  0.30765903  0.75071700  0.19233697  1
  O  O6  1  0.75071702  0.19233700  0.30765898  1
  O  O7  1  0.69234102  0.24928300  0.80766297  1
  O  O8  1  0.24928303  0.80766300  0.69234096  1
  O  O9  1  0.80766303  0.69234100  0.24928297  1
