# generated using pymatgen
data_Tm2InCu2
_symmetry_space_group_name_H-M   'P 1'
_cell_length_a   3.57406211
_cell_length_b   7.56691408
_cell_length_c   7.56691408
_cell_angle_alpha   90.00000000
_cell_angle_beta   90.00000000
_cell_angle_gamma   90.00000000
_symmetry_Int_Tables_number   1
_chemical_formula_structural   Tm2InCu2
_chemical_formula_sum   'Tm4 In2 Cu4'
_cell_volume   204.64432273
_cell_formula_units_Z   2
loop_
 _symmetry_equiv_pos_site_id
 _symmetry_equiv_pos_as_xyz
  1  'x, y, z'
loop_
 _atom_site_type_symbol
 _atom_site_label
 _atom_site_symmetry_multiplicity
 _atom_site_fract_x
 _atom_site_fract_y
 _atom_site_fract_z
 _atom_site_occupancy
  Tm  Tm0  1  0.49999998  0.67157699  0.17157700  1
  Tm  Tm1  1  0.49999998  0.32842300  0.82842299  1
  Tm  Tm2  1  0.49999998  0.17157700  0.32842300  1
  Tm  Tm3  1  0.49999998  0.82842299  0.67157699  1
  In  In4  1  -0.00000000  0.49999999  0.49999999  1
  In  In5  1  0.00000000  0.00000000  0.00000000  1
  Cu  Cu6  1  0.00000000  0.12143000  0.62142999  1
  Cu  Cu7  1  0.00000000  0.87856999  0.37857000  1
  Cu  Cu8  1  -0.00000000  0.62142999  0.87856999  1
  Cu  Cu9  1  -0.00000000  0.37857000  0.12143000  1
