# generated using pymatgen
data_Ba2EuIrO6
_symmetry_space_group_name_H-M   'P 1'
_cell_length_a   6.18981123
_cell_length_b   6.31874084
_cell_length_c   8.84791756
_cell_angle_alpha   90.00000000
_cell_angle_beta   89.78031921
_cell_angle_gamma   90.00000000
_symmetry_Int_Tables_number   1
_chemical_formula_structural   Ba2EuIrO6
_chemical_formula_sum   'Ba4 Eu2 Ir2 O12'
_cell_volume   346.05555361
_cell_formula_units_Z   2
loop_
 _symmetry_equiv_pos_site_id
 _symmetry_equiv_pos_as_xyz
  1  'x, y, z'
loop_
 _atom_site_type_symbol
 _atom_site_label
 _atom_site_symmetry_multiplicity
 _atom_site_fract_x
 _atom_site_fract_y
 _atom_site_fract_z
 _atom_site_occupancy
  Ba  Ba0  1  0.49320602  0.46149601  0.75073898  1
  Ba  Ba1  1  0.99320604  0.03850400  0.25073902  1
  Ba  Ba2  1  0.99925604  0.49198701  0.50004701  1
  Ba  Ba3  1  0.49925602  0.00801300  0.00004702  1
  Eu  Eu4  1  0.50386602  0.54908701  0.25222700  1
  Eu  Eu5  1  0.00386600  0.95091302  0.75222696  1
  Ir  Ir6  1  0.00041300  0.50500601  0.00081000  1
  Ir  Ir7  1  0.50041302  0.99499402  0.50080999  1
  O  O8  1  0.32621601  0.71583002  0.54560399  1
  O  O9  1  0.82621603  0.78417002  0.04560403  1
  O  O10  1  0.66422402  0.27781101  0.44171500  1
  O  O11  1  0.16422401  0.22218901  0.94171496  1
  O  O12  1  0.77579103  0.81324002  0.45756000  1
  O  O13  1  0.27579101  0.68676002  0.95755996  1
  O  O14  1  0.21502801  0.16204900  0.55163798  1
  O  O15  1  0.71502803  0.33795101  0.05163802  1
  O  O16  1  0.41603402  0.95186602  0.27232300  1
  O  O17  1  0.91603403  0.54813401  0.77232299  1
  O  O18  1  0.60596502  0.02899800  0.72733599  1
  O  O19  1  0.10596500  0.47100201  0.22733599  1
