# generated using pymatgen
data_Li4CoPO10
_symmetry_space_group_name_H-M   'P 1'
_cell_length_a   5.38702917
_cell_length_b   5.38707829
_cell_length_c   7.18729925
_cell_angle_alpha   111.68062592
_cell_angle_beta   111.68029022
_cell_angle_gamma   90.28775787
_symmetry_Int_Tables_number   1
_chemical_formula_structural   Li4CoPO10
_chemical_formula_sum   'Li4 Co1 P1 O10'
_cell_volume   177.67694289
_cell_formula_units_Z   1
loop_
 _symmetry_equiv_pos_site_id
 _symmetry_equiv_pos_as_xyz
  1  'x, y, z'
loop_
 _atom_site_type_symbol
 _atom_site_label
 _atom_site_symmetry_multiplicity
 _atom_site_fract_x
 _atom_site_fract_y
 _atom_site_fract_z
 _atom_site_occupancy
  Li  Li0  1  0.49998794  0.49999498  0.99998496  1
  Li  Li1  1  0.00000592  0.99998995  0.49999897  1
  Li  Li2  1  0.50000490  0.99999295  0.50000996  1
  Li  Li3  1  0.49999898  0.00001900  0.00000398  1
  P  P4  1  0.11991496  0.38007898  0.24999598  1
  Co  Co5  1  0.88008892  0.61990997  0.75000195  1
  O  O6  1  0.36592698  0.13407499  0.75000297  1
  O  O7  1  0.63406591  0.86592996  0.24999996  1
  O  O8  1  0.70071392  0.68271197  0.88179995  1
  O  O9  1  0.18271198  0.20069599  0.38180398  1
  O  O10  1  0.29929196  0.31729098  0.11820298  1
  O  O11  1  0.81728691  0.79928996  0.61819895  1
  O  O12  1  0.18805894  0.68833797  0.39137597  1
  O  O13  1  0.18832894  0.68806197  0.89137497  1
  O  O14  1  0.81194095  0.31167198  0.60862096  1
  O  O15  1  0.81166995  0.31194698  0.10862397  1
