# generated using pymatgen
data_La2Al2SnGe
_symmetry_space_group_name_H-M   'P 1'
_cell_length_a   4.52967596
_cell_length_b   4.52967596
_cell_length_c   7.31486177
_cell_angle_alpha   90.00000000
_cell_angle_beta   90.00000000
_cell_angle_gamma   90.00000000
_symmetry_Int_Tables_number   1
_chemical_formula_structural   La2Al2SnGe
_chemical_formula_sum   'La2 Al2 Sn1 Ge1'
_cell_volume   150.08607280
_cell_formula_units_Z   1
loop_
 _symmetry_equiv_pos_site_id
 _symmetry_equiv_pos_as_xyz
  1  'x, y, z'
loop_
 _atom_site_type_symbol
 _atom_site_label
 _atom_site_symmetry_multiplicity
 _atom_site_fract_x
 _atom_site_fract_y
 _atom_site_fract_z
 _atom_site_occupancy
  La  La0  1  0.50000000  0.00000000  0.66184402  1
  La  La1  1  0.00000000  0.50000000  0.33815601  1
  Al  Al2  1  0.50000000  0.50000000  0.00000000  1
  Al  Al3  1  0.00000000  0.00000000  0.00000000  1
  Ge  Ge4  1  0.50000000  0.00000000  0.19220401  1
  Sn  Sn5  1  0.00000000  0.50000000  0.80779602  1
