# generated using pymatgen
data_Li5S3O10
_symmetry_space_group_name_H-M   'P 1'
_cell_length_a   5.60899687
_cell_length_b   5.75965929
_cell_length_c   6.83233309
_cell_angle_alpha   98.16151428
_cell_angle_beta   94.41162109
_cell_angle_gamma   107.46035004
_symmetry_Int_Tables_number   1
_chemical_formula_structural   Li5S3O10
_chemical_formula_sum   'Li5 S3 O10'
_cell_volume   206.74602947
_cell_formula_units_Z   1
loop_
 _symmetry_equiv_pos_site_id
 _symmetry_equiv_pos_as_xyz
  1  'x, y, z'
loop_
 _atom_site_type_symbol
 _atom_site_label
 _atom_site_symmetry_multiplicity
 _atom_site_fract_x
 _atom_site_fract_y
 _atom_site_fract_z
 _atom_site_occupancy
  Li  Li0  1  0.63206303  0.72861300  0.21868096  1
  Li  Li1  1  0.36793701  0.27138700  0.78131896  1
  Li  Li2  1  0.73836004  0.87874401  0.74083694  1
  Li  Li3  1  0.26164001  0.12125600  0.25916298  1
  Li  Li4  1  0.88422403  0.36170200  0.26236595  1
  S  S5  1  0.11577602  0.63829800  0.73763397  1
  S  S6  1  0.07035802  0.62146800  0.22098799  1
  S  S7  1  0.92964203  0.37853200  0.77901194  1
  O  O8  1  0.64411703  0.65043000  0.88942995  1
  O  O9  1  0.35588302  0.34957000  0.11056998  1
  O  O10  1  0.68944502  0.14643600  0.85196495  1
  O  O11  1  0.31055503  0.85356401  0.14803497  1
  O  O12  1  0.55362903  0.76196500  0.51904496  1
  O  O13  1  0.44637102  0.23803500  0.48095497  1
  O  O14  1  0.05682903  0.92909801  0.73809297  1
  O  O15  1  0.94317102  0.07090200  0.26190695  1
  O  O16  1  0.91298403  0.54331900  0.27701795  1
  O  O17  1  0.08701601  0.45668100  0.72298198  1
