# generated using pymatgen
data_Ti9Ru7
_symmetry_space_group_name_H-M   'P 1'
_cell_length_a   5.12706804
_cell_length_b   7.52763367
_cell_length_c   7.52763367
_cell_angle_alpha   83.34018707
_cell_angle_beta   70.08963013
_cell_angle_gamma   70.08963013
_symmetry_Int_Tables_number   1
_chemical_formula_structural   Ti9Ru7
_chemical_formula_sum   'Ti9 Ru7'
_cell_volume   256.83311215
_cell_formula_units_Z   1
loop_
 _symmetry_equiv_pos_site_id
 _symmetry_equiv_pos_as_xyz
  1  'x, y, z'
loop_
 _atom_site_type_symbol
 _atom_site_label
 _atom_site_symmetry_multiplicity
 _atom_site_fract_x
 _atom_site_fract_y
 _atom_site_fract_z
 _atom_site_occupancy
  Ti  Ti0  1  0.72016804  0.85483800  0.70482607  1
  Ti  Ti1  1  0.25000003  0.50000000  0.50000003  1
  Ti  Ti2  1  0.77983300  0.29517300  0.14516204  1
  Ti  Ti3  1  0.22016704  0.70482700  0.85483805  1
  Ti  Ti4  1  0.75000001  0.50000000  0.50000005  1
  Ti  Ti5  1  0.42499501  0.29517300  0.85483804  1
  Ti  Ti6  1  0.27983200  0.14516200  0.29517402  1
  Ru  Ru7  1  0.92499403  0.85483800  0.29517407  1
  Ti  Ti8  1  0.57500503  0.70482700  0.14516205  1
  Ti  Ti9  1  0.07500601  0.14516200  0.70482602  1
  Ru  Ru10  1  0.33442705  0.83114600  0.50000005  1
  Ru  Ru11  1  0.74999998  0.00000000  0.00000003  1
  Ru  Ru12  1  0.16557303  0.50000000  0.16885403  1
  Ru  Ru13  1  0.66557299  0.16885400  0.50000004  1
  Ru  Ru14  1  0.25000006  1.00000000  0.00000005  1
  Ru  Ru15  1  0.83442701  0.50000000  0.83114606  1
