# generated using pymatgen
data_Sr2LiCaCo4O7
_symmetry_space_group_name_H-M   'P 1'
_cell_length_a   3.88129401
_cell_length_b   3.91390395
_cell_length_c   13.99946880
_cell_angle_alpha   90.00000000
_cell_angle_beta   97.96817017
_cell_angle_gamma   90.00000000
_symmetry_Int_Tables_number   1
_chemical_formula_structural   Sr2LiCaCo4O7
_chemical_formula_sum   'Sr2 Li1 Ca1 Co4 O7'
_cell_volume   210.61285624
_cell_formula_units_Z   1
loop_
 _symmetry_equiv_pos_site_id
 _symmetry_equiv_pos_as_xyz
  1  'x, y, z'
loop_
 _atom_site_type_symbol
 _atom_site_label
 _atom_site_symmetry_multiplicity
 _atom_site_fract_x
 _atom_site_fract_y
 _atom_site_fract_z
 _atom_site_occupancy
  Sr  Sr0  1  0.63536400  0.50000001  0.27072800  1
  Sr  Sr1  1  0.36463600  0.50000001  0.72927199  1
  Ca  Ca2  1  0.50000000  0.50000001  0.00000001  1
  Li  Li3  1  0.93722400  0.00000000  0.87444800  1
  Co  Co4  1  0.06277600  0.00000000  0.12555200  1
  Co  Co5  1  0.78729700  0.00000000  0.57459400  1
  Co  Co6  1  0.21270300  1.00000001  0.42540599  1
  Co  Co7  1  0.85407400  0.00000000  0.70814800  1
  O  O8  1  0.14592600  0.00000000  0.29185200  1
  O  O9  1  0.55440700  0.00000000  0.10881401  1
  O  O10  1  0.44559300  0.00000000  0.89118599  1
  O  O11  1  0.71918500  0.00000000  0.43837000  1
  O  O12  1  0.28081500  1.00000001  0.56162999  1
  O  O13  1  0.94508000  0.50000001  0.89016000  1
  O  O14  1  0.05492000  0.50000001  0.10984000  1
