# generated using pymatgen
data_SmGa12
_symmetry_space_group_name_H-M   'P 1'
_cell_length_a   5.61206818
_cell_length_b   7.26278305
_cell_length_c   7.26278305
_cell_angle_alpha   80.87600708
_cell_angle_beta   67.27193451
_cell_angle_gamma   67.27193451
_symmetry_Int_Tables_number   1
_chemical_formula_structural   SmGa12
_chemical_formula_sum   'Sm1 Ga12'
_cell_volume   251.82198802
_cell_formula_units_Z   1
loop_
 _symmetry_equiv_pos_site_id
 _symmetry_equiv_pos_as_xyz
  1  'x, y, z'
loop_
 _atom_site_type_symbol
 _atom_site_label
 _atom_site_symmetry_multiplicity
 _atom_site_fract_x
 _atom_site_fract_y
 _atom_site_fract_z
 _atom_site_occupancy
  Sm  Sm0  1  0.00277913  0.99722100  0.99722094  1
  Ga  Ga1  1  0.65894801  0.34105200  0.34105201  1
  Ga  Ga2  1  0.33196307  0.66803700  0.66803698  1
  Ga  Ga3  1  0.98749799  0.35304400  0.67196004  1
  Ga  Ga4  1  0.98749703  0.67196000  0.35304500  1
  Ga  Ga5  1  0.27327701  0.22672300  0.22672300  1
  Ga  Ga6  1  0.51221307  0.78610200  0.18947097  1
  Ga  Ga7  1  0.51221399  0.18947000  0.78610203  1
  Ga  Ga8  1  0.00661313  0.99079200  0.50562493  1
  Ga  Ga9  1  0.49697110  0.99079100  0.50562496  1
  Ga  Ga10  1  0.00661206  0.50562600  0.99079198  1
  Ga  Ga11  1  0.49697004  0.50562500  0.99079201  1
  Ga  Ga12  1  0.72644406  0.77355600  0.77355599  1
