# generated using pymatgen
data_YbSi2
_symmetry_space_group_name_H-M   'P 1'
_cell_length_a   4.47480822
_cell_length_b   7.17251396
_cell_length_c   7.65955305
_cell_angle_alpha   90.00000000
_cell_angle_beta   90.00000000
_cell_angle_gamma   90.00000000
_symmetry_Int_Tables_number   1
_chemical_formula_structural   YbSi2
_chemical_formula_sum   'Yb4 Si8'
_cell_volume   245.83813784
_cell_formula_units_Z   4
loop_
 _symmetry_equiv_pos_site_id
 _symmetry_equiv_pos_as_xyz
  1  'x, y, z'
loop_
 _atom_site_type_symbol
 _atom_site_label
 _atom_site_symmetry_multiplicity
 _atom_site_fract_x
 _atom_site_fract_y
 _atom_site_fract_z
 _atom_site_occupancy
  Yb  Yb0  1  0.24999999  0.98546001  0.80077099  1
  Yb  Yb1  1  0.24999999  0.48546000  0.69922900  1
  Yb  Yb2  1  0.74999996  0.01454000  0.19922900  1
  Yb  Yb3  1  0.74999996  0.51454000  0.30077100  1
  Si  Si4  1  0.24999999  0.81770200  0.41412700  1
  Si  Si5  1  0.24999999  0.31770200  0.08587300  1
  Si  Si6  1  0.74999996  0.18229800  0.58587300  1
  Si  Si7  1  0.74999996  0.68229800  0.91412699  1
  Si  Si8  1  0.24999999  0.19690300  0.41341400  1
  Si  Si9  1  0.24999999  0.69690300  0.08658600  1
  Si  Si10  1  0.74999996  0.80309700  0.58658600  1
  Si  Si11  1  0.74999996  0.30309700  0.91341399  1
