# generated using pymatgen
data_FeAs
_symmetry_space_group_name_H-M   'P 1'
_cell_length_a   3.56725907
_cell_length_b   5.68879080
_cell_length_c   6.28667307
_cell_angle_alpha   90.00000000
_cell_angle_beta   90.00000000
_cell_angle_gamma   90.00000000
_symmetry_Int_Tables_number   1
_chemical_formula_structural   FeAs
_chemical_formula_sum   'Fe4 As4'
_cell_volume   127.57791211
_cell_formula_units_Z   4
loop_
 _symmetry_equiv_pos_site_id
 _symmetry_equiv_pos_as_xyz
  1  'x, y, z'
loop_
 _atom_site_type_symbol
 _atom_site_label
 _atom_site_symmetry_multiplicity
 _atom_site_fract_x
 _atom_site_fract_y
 _atom_site_fract_z
 _atom_site_occupancy
  Fe  Fe0  1  0.24999999  0.50172402  0.71670099  1
  Fe  Fe1  1  0.74999998  0.49827602  0.28329900  1
  Fe  Fe2  1  0.24999999  0.00172400  0.78329899  1
  Fe  Fe3  1  0.74999998  0.99827604  0.21670100  1
  As  As4  1  0.24999999  0.71495103  0.07984200  1
  As  As5  1  0.74999998  0.28504901  0.92015799  1
  As  As6  1  0.24999999  0.21495101  0.42015800  1
  As  As7  1  0.74999998  0.78504903  0.57984199  1
