# generated using pymatgen
data_Li2CuO4
_symmetry_space_group_name_H-M   'P 1'
_cell_length_a   6.01075602
_cell_length_b   6.02724648
_cell_length_c   6.02724648
_cell_angle_alpha   60.03599930
_cell_angle_beta   60.09046555
_cell_angle_gamma   60.09046555
_symmetry_Int_Tables_number   1
_chemical_formula_structural   Li2CuO4
_chemical_formula_sum   'Li4 Cu2 O8'
_cell_volume   154.65459969
_cell_formula_units_Z   2
loop_
 _symmetry_equiv_pos_site_id
 _symmetry_equiv_pos_as_xyz
  1  'x, y, z'
loop_
 _atom_site_type_symbol
 _atom_site_label
 _atom_site_symmetry_multiplicity
 _atom_site_fract_x
 _atom_site_fract_y
 _atom_site_fract_z
 _atom_site_occupancy
  Li  Li0  1  0.13583200  0.61416802  0.11416799  1
  Li  Li1  1  1.00000000  0.00000000  0.50000002  1
  Li  Li2  1  0.50000000  0.00000000  0.50000001  1
  Li  Li3  1  0.86416800  0.38583201  0.88583202  1
  Cu  Cu4  1  0.50000001  1.00000003  -0.00000002  1
  Cu  Cu5  1  0.50000000  0.50000001  0.50000000  1
  O  O6  1  0.72263000  0.75151602  0.25151599  1
  O  O7  1  0.27433801  0.75151602  0.25151599  1
  O  O8  1  0.27264801  0.74236602  0.71233800  1
  O  O9  1  0.27264800  0.21233801  0.24236600  1
  O  O10  1  0.72735200  0.78766202  0.75763401  1
  O  O11  1  0.72566200  0.24848401  0.74848402  1
  O  O12  1  0.72735200  0.25763401  0.28766200  1
  O  O13  1  0.27737000  0.24848401  0.74848401  1
