# generated using pymatgen
data_BeTc
_symmetry_space_group_name_H-M   'P 1'
_cell_length_a   4.38646698
_cell_length_b   5.52119780
_cell_length_c   5.52119732
_cell_angle_alpha   120.00000000
_cell_angle_beta   90.00000000
_cell_angle_gamma   90.00000000
_symmetry_Int_Tables_number   1
_chemical_formula_structural   BeTc
_chemical_formula_sum   'Be4 Tc4'
_cell_volume   115.80093621
_cell_formula_units_Z   4
loop_
 _symmetry_equiv_pos_site_id
 _symmetry_equiv_pos_as_xyz
  1  'x, y, z'
loop_
 _atom_site_type_symbol
 _atom_site_label
 _atom_site_symmetry_multiplicity
 _atom_site_fract_x
 _atom_site_fract_y
 _atom_site_fract_z
 _atom_site_occupancy
  Tc  Tc0  1  0.75000000  0.66666667  0.33333329  1
  Be  Be1  1  0.25000000  0.33333333  0.66666665  1
  Be  Be2  1  0.75000000  0.16712700  0.83287299  1
  Tc  Tc3  1  0.25000000  0.83287300  0.66574594  1
  Tc  Tc4  1  0.25000000  0.33425400  0.16712698  1
  Be  Be5  1  0.75000000  0.66574600  0.83287296  1
  Be  Be6  1  0.75000000  0.16712700  0.33425399  1
  Tc  Tc7  1  0.25000000  0.83287300  0.16712694  1
