# generated using pymatgen
data_AgTe
_symmetry_space_group_name_H-M   'P 1'
_cell_length_a   6.37858009
_cell_length_b   6.37858009
_cell_length_c   7.80392218
_cell_angle_alpha   114.12180328
_cell_angle_beta   114.12180328
_cell_angle_gamma   90.00000000
_symmetry_Int_Tables_number   1
_chemical_formula_structural   AgTe
_chemical_formula_sum   'Ag4 Te4'
_cell_volume   259.11146512
_cell_formula_units_Z   4
loop_
 _symmetry_equiv_pos_site_id
 _symmetry_equiv_pos_as_xyz
  1  'x, y, z'
loop_
 _atom_site_type_symbol
 _atom_site_label
 _atom_site_symmetry_multiplicity
 _atom_site_fract_x
 _atom_site_fract_y
 _atom_site_fract_z
 _atom_site_occupancy
  Ag  Ag0  1  0.00000000  0.00000000  0.00000000  1
  Ag  Ag1  1  0.74999997  0.24999999  0.49999996  1
  Ag  Ag2  1  0.49999996  0.49999998  -0.00000004  1
  Ag  Ag3  1  0.24999996  0.74999997  0.49999995  1
  Te  Te4  1  0.13012897  0.64401897  0.74177296  1
  Te  Te5  1  0.61164398  0.09775400  0.74177297  1
  Te  Te6  1  0.35598097  0.38835598  0.25822697  1
  Te  Te7  1  0.90224594  0.86987097  0.25822693  1
