# generated using pymatgen
data_SmThCo11
_symmetry_space_group_name_H-M   'P 1'
_cell_length_a   4.92988539
_cell_length_b   4.93464327
_cell_length_c   7.87086821
_cell_angle_alpha   89.99088287
_cell_angle_beta   89.98768616
_cell_angle_gamma   60.22027206
_symmetry_Int_Tables_number   1
_chemical_formula_structural   SmThCo11
_chemical_formula_sum   'Sm1 Th1 Co11'
_cell_volume   166.19024832
_cell_formula_units_Z   1
loop_
 _symmetry_equiv_pos_site_id
 _symmetry_equiv_pos_as_xyz
  1  'x, y, z'
loop_
 _atom_site_type_symbol
 _atom_site_label
 _atom_site_symmetry_multiplicity
 _atom_site_fract_x
 _atom_site_fract_y
 _atom_site_fract_z
 _atom_site_occupancy
  Sm  Sm0  1  0.00075200  0.00079300  0.00859000  1
  Th  Th1  1  0.00068600  0.00075800  0.49087199  1
  Co  Co2  1  0.66455404  0.66442201  0.00072002  1
  Co  Co3  1  0.33440302  0.33463500  0.00089301  1
  Co  Co4  1  0.50194203  0.50216301  0.74949600  1
  Co  Co5  1  0.49579302  0.00470900  0.74949401  1
  Co  Co6  1  0.00472901  0.49544901  0.74950598  1
  Co  Co7  1  0.66448704  0.66438201  0.49817901  1
  Co  Co8  1  0.33442502  0.33458900  0.49801000  1
  Co  Co9  1  0.50037203  0.50042101  0.24941901  1
  Co  Co10  1  0.50081302  0.00023800  0.24942002  1
  Co  Co11  1  0.00020901  0.50084601  0.24942999  1
  Co  Co12  1  0.86093506  0.86049501  0.74997001  1
