# generated using pymatgen
data_Pr2Sn5
_symmetry_space_group_name_H-M   'P 1'
_cell_length_a   4.63623619
_cell_length_b   4.66437721
_cell_length_c   17.53071594
_cell_angle_alpha   90.00000000
_cell_angle_beta   97.59857941
_cell_angle_gamma   90.00000000
_symmetry_Int_Tables_number   1
_chemical_formula_structural   Pr2Sn5
_chemical_formula_sum   'Pr4 Sn10'
_cell_volume   375.77545504
_cell_formula_units_Z   2
loop_
 _symmetry_equiv_pos_site_id
 _symmetry_equiv_pos_as_xyz
  1  'x, y, z'
loop_
 _atom_site_type_symbol
 _atom_site_label
 _atom_site_symmetry_multiplicity
 _atom_site_fract_x
 _atom_site_fract_y
 _atom_site_fract_z
 _atom_site_occupancy
  Pr  Pr0  1  0.43162198  0.00000000  0.86324397  1
  Pr  Pr1  1  0.56837798  0.99999995  0.13675600  1
  Pr  Pr2  1  0.29721899  0.00000000  0.59443798  1
  Pr  Pr3  1  0.70278097  0.99999995  0.40556199  1
  Sn  Sn4  1  0.00000000  0.00000000  0.00000000  1
  Sn  Sn5  1  0.49999998  0.49999998  0.00000000  1
  Sn  Sn6  1  0.13747299  0.00000000  0.27494599  1
  Sn  Sn7  1  0.86252697  0.00000000  0.72505398  1
  Sn  Sn8  1  0.36213999  0.49999998  0.72427998  1
  Sn  Sn9  1  0.63785998  0.49999998  0.27571999  1
  Sn  Sn10  1  0.07042700  0.49999998  0.14085400  1
  Sn  Sn11  1  0.92957296  0.49999998  0.85914597  1
  Sn  Sn12  1  0.21985199  0.49999998  0.43970399  1
  Sn  Sn13  1  0.78014797  0.49999998  0.56029598  1
