# generated using pymatgen
data_ZnGa
_symmetry_space_group_name_H-M   'P 1'
_cell_length_a   2.62672997
_cell_length_b   2.62673092
_cell_length_c   5.20723391
_cell_angle_alpha   90.00000000
_cell_angle_beta   90.00000000
_cell_angle_gamma   119.99998474
_symmetry_Int_Tables_number   1
_chemical_formula_structural   ZnGa
_chemical_formula_sum   'Zn1 Ga1'
_cell_volume   31.11492793
_cell_formula_units_Z   1
loop_
 _symmetry_equiv_pos_site_id
 _symmetry_equiv_pos_as_xyz
  1  'x, y, z'
loop_
 _atom_site_type_symbol
 _atom_site_label
 _atom_site_symmetry_multiplicity
 _atom_site_fract_x
 _atom_site_fract_y
 _atom_site_fract_z
 _atom_site_occupancy
  Ga  Ga0  1  0.66666665  0.33333332  0.75000001  1
  Zn  Zn1  1  0.33333329  0.66666665  0.25000000  1
