# generated using pymatgen
data_KScS3
_symmetry_space_group_name_H-M   'P 1'
_cell_length_a   7.59988785
_cell_length_b   7.80710220
_cell_length_c   7.59988785
_cell_angle_alpha   60.87417984
_cell_angle_beta   90.00000000
_cell_angle_gamma   119.12582397
_symmetry_Int_Tables_number   1
_chemical_formula_structural   KScS3
_chemical_formula_sum   'K2 Sc2 S6'
_cell_volume   327.09607251
_cell_formula_units_Z   2
loop_
 _symmetry_equiv_pos_site_id
 _symmetry_equiv_pos_as_xyz
  1  'x, y, z'
loop_
 _atom_site_type_symbol
 _atom_site_label
 _atom_site_symmetry_multiplicity
 _atom_site_fract_x
 _atom_site_fract_y
 _atom_site_fract_z
 _atom_site_occupancy
  K  K0  1  0.25000003  0.50000002  0.25000001  1
  K  K1  1  0.75000004  0.50000002  0.75000002  1
  Sc  Sc2  1  0.50000001  0.00000000  0.50000001  1
  Sc  Sc3  1  0.00000000  0.00000000  0.00000000  1
  S  S4  1  0.29517104  0.59034202  0.70482902  1
  S  S5  1  0.70482903  0.40965802  0.29517101  1
  S  S6  1  0.78033302  0.00000000  0.78033302  1
  S  S7  1  0.78033302  0.00000000  0.21966700  1
  S  S8  1  0.21966700  0.00000000  0.21966700  1
  S  S9  1  0.21966700  0.00000000  0.78033302  1
