# generated using pymatgen
data_Zr2Al3W4N7
_symmetry_space_group_name_H-M   'P 1'
_cell_length_a   5.44068193
_cell_length_b   5.44068193
_cell_length_c   6.29318571
_cell_angle_alpha   115.61156464
_cell_angle_beta   115.61156464
_cell_angle_gamma   90.00000000
_symmetry_Int_Tables_number   1
_chemical_formula_structural   Zr2Al3W4N7
_chemical_formula_sum   'Zr2 Al3 W4 N7'
_cell_volume   147.42280454
_cell_formula_units_Z   1
loop_
 _symmetry_equiv_pos_site_id
 _symmetry_equiv_pos_as_xyz
  1  'x, y, z'
loop_
 _atom_site_type_symbol
 _atom_site_label
 _atom_site_symmetry_multiplicity
 _atom_site_fract_x
 _atom_site_fract_y
 _atom_site_fract_z
 _atom_site_occupancy
  Zr  Zr0  1  0.68286707  0.52514903  0.70801610  1
  Zr  Zr1  1  0.97485111  0.81713305  0.29198414  1
  Al  Al2  1  0.50000006  0.50000003  0.00000008  1
  Al  Al3  1  0.00000000  0.00000000  0.00000000  1
  Al  Al4  1  0.02514902  0.18286701  0.70801603  1
  W  W5  1  0.52514902  0.02514900  0.70801604  1
  W  W6  1  0.18286706  0.68286704  0.70801609  1
  W  W7  1  0.47485110  0.97485106  0.29198413  1
  W  W8  1  0.81713306  0.31713302  0.29198408  1
  N  N9  1  0.31713305  0.47485103  0.29198407  1
  N  N10  1  0.38218203  0.11781801  0.00000003  1
  N  N11  1  0.88218207  0.38218202  0.00000009  1
  N  N12  1  0.11781805  0.61781804  0.00000007  1
  N  N13  1  0.61781810  0.88218205  0.00000012  1
  N  N14  1  0.25000003  0.25000002  0.50000005  1
  N  N15  1  0.75000009  0.75000005  0.50000012  1
