# generated using pymatgen
data_BaSr3Cu3O10
_symmetry_space_group_name_H-M   'P 1'
_cell_length_a   3.93942809
_cell_length_b   3.93942809
_cell_length_c   14.23831654
_cell_angle_alpha   97.95174408
_cell_angle_beta   97.95174408
_cell_angle_gamma   90.00000000
_symmetry_Int_Tables_number   1
_chemical_formula_structural   BaSr3Cu3O10
_chemical_formula_sum   'Ba1 Sr3 Cu3 O10'
_cell_volume   216.69573697
_cell_formula_units_Z   1
loop_
 _symmetry_equiv_pos_site_id
 _symmetry_equiv_pos_as_xyz
  1  'x, y, z'
loop_
 _atom_site_type_symbol
 _atom_site_label
 _atom_site_symmetry_multiplicity
 _atom_site_fract_x
 _atom_site_fract_y
 _atom_site_fract_z
 _atom_site_occupancy
  Ba  Ba0  1  0.29828500  0.29828500  0.59657002  1
  Sr  Sr1  1  0.70171500  0.70171499  0.40343003  1
  Sr  Sr2  1  0.43194300  0.43194299  0.86388603  1
  Sr  Sr3  1  0.56805700  0.56805699  0.13611402  1
  Cu  Cu4  1  0.14074100  0.14074100  0.28148201  1
  Cu  Cu5  1  0.85925900  0.85925899  0.71851804  1
  Cu  Cu6  1  0.00000000  0.00000000  0.00000000  1
  O  O7  1  0.21208000  0.21208000  0.42416001  1
  O  O8  1  0.78792000  0.78791999  0.57584003  1
  O  O9  1  0.63997199  0.13997200  0.27994402  1
  O  O10  1  0.36002801  0.86002799  0.72005603  1
  O  O11  1  0.13997201  0.63997199  0.27994402  1
  O  O12  1  0.86002799  0.36002799  0.72005603  1
  O  O13  1  0.06999600  0.06999600  0.13999200  1
  O  O14  1  0.93000400  0.93000399  0.86000804  1
  O  O15  1  0.49999999  0.00000000  0.00000001  1
  O  O16  1  0.99999999  0.49999999  0.00000003  1
