# generated using pymatgen
data_EuIn2Pd
_symmetry_space_group_name_H-M   'P 1'
_cell_length_a   4.45175219
_cell_length_b   5.71725416
_cell_length_c   7.95823002
_cell_angle_alpha   90.00000000
_cell_angle_beta   90.00000000
_cell_angle_gamma   112.91256714
_symmetry_Int_Tables_number   1
_chemical_formula_structural   EuIn2Pd
_chemical_formula_sum   'Eu2 In4 Pd2'
_cell_volume   186.56998029
_cell_formula_units_Z   2
loop_
 _symmetry_equiv_pos_site_id
 _symmetry_equiv_pos_as_xyz
  1  'x, y, z'
loop_
 _atom_site_type_symbol
 _atom_site_label
 _atom_site_symmetry_multiplicity
 _atom_site_fract_x
 _atom_site_fract_y
 _atom_site_fract_z
 _atom_site_occupancy
  Eu  Eu0  1  0.06723499  0.13447000  0.25000000  1
  Eu  Eu1  1  0.93276489  0.86553000  0.75000000  1
  In  In2  1  0.35604593  0.71209200  0.05145500  1
  In  In3  1  0.35604593  0.71209200  0.44854500  1
  In  In4  1  0.64395395  0.28790800  0.94854500  1
  In  In5  1  0.64395395  0.28790800  0.55145500  1
  Pd  Pd6  1  0.78265592  0.56531200  0.25000000  1
  Pd  Pd7  1  0.21734396  0.43468800  0.75000000  1
