# generated using pymatgen
data_KNbCuS3
_symmetry_space_group_name_H-M   'P 1'
_cell_length_a   4.01135397
_cell_length_b   7.56607962
_cell_length_c   10.26608562
_cell_angle_alpha   90.00000000
_cell_angle_beta   90.00000000
_cell_angle_gamma   105.37218475
_symmetry_Int_Tables_number   1
_chemical_formula_structural   KNbCuS3
_chemical_formula_sum   'K2 Nb2 Cu2 S6'
_cell_volume   300.43104422
_cell_formula_units_Z   2
loop_
 _symmetry_equiv_pos_site_id
 _symmetry_equiv_pos_as_xyz
  1  'x, y, z'
loop_
 _atom_site_type_symbol
 _atom_site_label
 _atom_site_symmetry_multiplicity
 _atom_site_fract_x
 _atom_site_fract_y
 _atom_site_fract_z
 _atom_site_occupancy
  K  K0  1  0.25835703  0.51671399  0.75000003  1
  K  K1  1  0.74164304  0.48328599  0.25000001  1
  Nb  Nb2  1  0.00000000  0.00000000  0.50000002  1
  Nb  Nb3  1  0.00000000  0.00000000  0.00000000  1
  Cu  Cu4  1  0.53491501  0.06983000  0.75000003  1
  Cu  Cu5  1  0.46508506  0.93016998  0.25000001  1
  S  S6  1  0.61766602  0.23533200  0.55947402  1
  S  S7  1  0.94472106  0.88944198  0.75000003  1
  S  S8  1  0.61766602  0.23533200  0.94052603  1
  S  S9  1  0.38233405  0.76466799  0.05947400  1
  S  S10  1  0.05527901  0.11055800  0.25000001  1
  S  S11  1  0.38233405  0.76466799  0.44052602  1
