# generated using pymatgen
data_Li4NiO5
_symmetry_space_group_name_H-M   'P 1'
_cell_length_a   5.10318804
_cell_length_b   5.10318804
_cell_length_c   5.53134060
_cell_angle_alpha   62.52912140
_cell_angle_beta   62.52912140
_cell_angle_gamma   60.00000000
_symmetry_Int_Tables_number   1
_chemical_formula_structural   Li4NiO5
_chemical_formula_sum   'Li4 Ni1 O5'
_cell_volume   105.58040672
_cell_formula_units_Z   1
loop_
 _symmetry_equiv_pos_site_id
 _symmetry_equiv_pos_as_xyz
  1  'x, y, z'
loop_
 _atom_site_type_symbol
 _atom_site_label
 _atom_site_symmetry_multiplicity
 _atom_site_fract_x
 _atom_site_fract_y
 _atom_site_fract_z
 _atom_site_occupancy
  Li  Li0  1  0.64526902  0.64526900  0.06419301  1
  Li  Li1  1  0.35473101  0.35473100  0.93580697  1
  Li  Li2  1  0.85638903  0.85638900  0.43083300  1
  Li  Li3  1  0.14361100  0.14361100  0.56916698  1
  Ni  Ni4  1  0.95183502  0.56299000  0.25993001  1
  O  O5  1  0.22524503  0.95183500  0.25993000  1
  O  O6  1  0.56299001  0.22524500  0.25993000  1
  O  O7  1  0.04816501  0.43701000  0.74006998  1
  O  O8  1  0.43701002  0.77475500  0.74006998  1
  O  O9  1  0.77475501  0.04816500  0.74006998  1
