# generated using pymatgen
data_Sr4TiRu2O13
_symmetry_space_group_name_H-M   'P 1'
_cell_length_a   5.51783562
_cell_length_b   5.51783562
_cell_length_c   9.58207035
_cell_angle_alpha   73.26623535
_cell_angle_beta   73.26623535
_cell_angle_gamma   60.00000381
_symmetry_Int_Tables_number   1
_chemical_formula_structural   Sr4TiRu2O13
_chemical_formula_sum   'Sr4 Ti1 Ru2 O13'
_cell_volume   238.28247940
_cell_formula_units_Z   1
loop_
 _symmetry_equiv_pos_site_id
 _symmetry_equiv_pos_as_xyz
  1  'x, y, z'
loop_
 _atom_site_type_symbol
 _atom_site_label
 _atom_site_symmetry_multiplicity
 _atom_site_fract_x
 _atom_site_fract_y
 _atom_site_fract_z
 _atom_site_occupancy
  Sr  Sr0  1  0.25097999  0.25098000  0.24706002  1
  Sr  Sr1  1  0.49960197  0.49960200  0.50119403  1
  Sr  Sr2  1  0.00036600  0.00036600  0.99890198  1
  Sr  Sr3  1  0.74913796  0.74913800  0.75258605  1
  Ti  Ti4  1  0.12418499  0.12418500  0.62744500  1
  Ru  Ru5  1  0.87500396  0.87500400  0.37498806  1
  Ru  Ru6  1  0.62608597  0.62608600  0.12174205  1
  O  O7  1  0.37523798  0.37523800  0.87428601  1
  O  O8  1  0.49826799  0.00111900  0.49949401  1
  O  O9  1  0.75558398  0.24814300  0.74813003  1
  O  O10  1  0.25770697  0.74745000  0.24739304  1
  O  O11  1  0.98758697  0.50341500  0.00558306  1
  O  O12  1  0.74744996  0.74745000  0.24739306  1
  O  O13  1  0.00111900  0.00111900  0.49949399  1
  O  O14  1  0.50341497  0.50341500  0.00558304  1
  O  O15  1  0.24814299  0.24814300  0.74813001  1
  O  O16  1  0.74744998  0.25770700  0.24739304  1
  O  O17  1  0.00111898  0.49826800  0.49949401  1
  O  O18  1  0.50341496  0.98758700  0.00558306  1
  O  O19  1  0.24814297  0.75558400  0.74813003  1
