# generated using pymatgen
data_Ba5OsN8
_symmetry_space_group_name_H-M   'P 1'
_cell_length_a   5.33719778
_cell_length_b   7.81617212
_cell_length_c   7.81617165
_cell_angle_alpha   120.00000000
_cell_angle_beta   90.00000000
_cell_angle_gamma   90.00000000
_symmetry_Int_Tables_number   1
_chemical_formula_structural   Ba5OsN8
_chemical_formula_sum   'Ba5 Os1 N8'
_cell_volume   282.37882784
_cell_formula_units_Z   1
loop_
 _symmetry_equiv_pos_site_id
 _symmetry_equiv_pos_as_xyz
  1  'x, y, z'
loop_
 _atom_site_type_symbol
 _atom_site_label
 _atom_site_symmetry_multiplicity
 _atom_site_fract_x
 _atom_site_fract_y
 _atom_site_fract_z
 _atom_site_occupancy
  Ba  Ba0  1  0.75000003  0.09317800  0.73486899  1
  Ba  Ba1  1  0.75000003  0.26513099  0.35830899  1
  Ba  Ba2  1  0.75000003  0.64169098  0.90682197  1
  Ba  Ba3  1  0.25000001  0.90682197  0.26513096  1
  Ba  Ba4  1  0.25000001  0.73486897  0.64169097  1
  Os  Os5  1  0.25000001  0.35830899  0.09317799  1
  N  N6  1  0.25000001  0.33333332  0.66666665  1
  N  N7  1  0.75000003  0.66666664  0.33333330  1
  N  N8  1  0.25000001  0.10949600  0.69531399  1
  N  N9  1  0.25000001  0.30468599  0.41418198  1
  N  N10  1  0.25000001  0.58581798  0.89050397  1
  N  N11  1  0.75000003  0.89050397  0.30468596  1
  N  N12  1  0.75000003  0.69531398  0.58581797  1
  N  N13  1  0.75000003  0.41418199  0.10949598  1
