# generated using pymatgen
data_Tm2(AlSi)3
_symmetry_space_group_name_H-M   'P 1'
_cell_length_a   4.05210018
_cell_length_b   5.54463053
_cell_length_c   13.41981316
_cell_angle_alpha   90.00000000
_cell_angle_beta   90.00000000
_cell_angle_gamma   111.43267059
_symmetry_Int_Tables_number   1
_chemical_formula_structural   Tm2(AlSi)3
_chemical_formula_sum   'Tm4 Al6 Si6'
_cell_volume   280.65826896
_cell_formula_units_Z   2
loop_
 _symmetry_equiv_pos_site_id
 _symmetry_equiv_pos_as_xyz
  1  'x, y, z'
loop_
 _atom_site_type_symbol
 _atom_site_label
 _atom_site_symmetry_multiplicity
 _atom_site_fract_x
 _atom_site_fract_y
 _atom_site_fract_z
 _atom_site_occupancy
  Tm  Tm0  1  0.36088502  0.72176999  0.74999999  1
  Tm  Tm1  1  0.63911499  0.27823000  0.25000000  1
  Tm  Tm2  1  0.07973401  0.15946800  0.88748599  1
  Tm  Tm3  1  0.92026601  0.84053199  0.11251400  1
  Al  Al4  1  0.92026601  0.84053199  0.38748600  1
  Al  Al5  1  0.07973401  0.15946800  0.61251399  1
  Al  Al6  1  0.21388501  0.42776999  0.41841600  1
  Al  Al7  1  0.78611500  0.57222999  0.58158399  1
  Al  Al8  1  0.78611500  0.57222999  0.91841599  1
  Al  Al9  1  0.21388501  0.42776999  0.08158400  1
  Si  Si10  1  0.66926599  0.33853200  0.74999999  1
  Si  Si11  1  0.33073402  0.66146799  0.25000000  1
  Si  Si12  1  0.38051803  0.76103599  0.96131899  1
  Si  Si13  1  0.61948199  0.23896400  0.03868100  1
  Si  Si14  1  0.61948199  0.23896400  0.46131899  1
  Si  Si15  1  0.38051803  0.76103599  0.53868099  1
