# generated using pymatgen
data_CaB3Ru2
_symmetry_space_group_name_H-M   'P 1'
_cell_length_a   2.92881203
_cell_length_b   5.63075781
_cell_length_c   5.63075829
_cell_angle_alpha   120.00000000
_cell_angle_beta   90.00000000
_cell_angle_gamma   90.00000000
_symmetry_Int_Tables_number   1
_chemical_formula_structural   CaB3Ru2
_chemical_formula_sum   'Ca1 B3 Ru2'
_cell_volume   80.41848058
_cell_formula_units_Z   1
loop_
 _symmetry_equiv_pos_site_id
 _symmetry_equiv_pos_as_xyz
  1  'x, y, z'
loop_
 _atom_site_type_symbol
 _atom_site_label
 _atom_site_symmetry_multiplicity
 _atom_site_fract_x
 _atom_site_fract_y
 _atom_site_fract_z
 _atom_site_occupancy
  Ca  Ca0  1  0.50000000  0.00000000  -0.00000000  1
  B  B1  1  0.50000000  0.33333335  0.66666671  1
  B  B2  1  0.50000000  0.66666671  0.33333338  1
  Ru  Ru3  1  0.00000000  0.00000000  0.50000002  1
  B  B4  1  0.99999999  0.50000003  1.00000006  1
  Ru  Ru5  1  0.99999999  0.50000003  0.50000004  1
