# generated using pymatgen
data_Na3AgS6
_symmetry_space_group_name_H-M   'P 1'
_cell_length_a   7.02998781
_cell_length_b   7.04755688
_cell_length_c   7.10043383
_cell_angle_alpha   101.32445526
_cell_angle_beta   101.40386200
_cell_angle_gamma   105.06279755
_symmetry_Int_Tables_number   1
_chemical_formula_structural   Na3AgS6
_chemical_formula_sum   'Na3 Ag1 S6'
_cell_volume   321.38459530
_cell_formula_units_Z   1
loop_
 _symmetry_equiv_pos_site_id
 _symmetry_equiv_pos_as_xyz
  1  'x, y, z'
loop_
 _atom_site_type_symbol
 _atom_site_label
 _atom_site_symmetry_multiplicity
 _atom_site_fract_x
 _atom_site_fract_y
 _atom_site_fract_z
 _atom_site_occupancy
  Na  Na0  1  0.00000000  0.00000000  0.50000000  1
  Na  Na1  1  0.50000001  0.00000000  0.00000000  1
  Na  Na2  1  0.00000001  0.50000002  0.00000003  1
  Ag  Ag3  1  0.00000000  0.00000000  0.00000000  1
  S  S4  1  0.96150603  0.20601501  0.20642502  1
  S  S5  1  0.03849401  0.79398502  0.79357506  1
  S  S6  1  0.19678502  0.93577003  0.19531807  1
  S  S7  1  0.80321502  0.06423000  0.80468201  1
  S  S8  1  0.21372701  0.20228501  0.94225002  1
  S  S9  1  0.78627303  0.79771502  0.05775006  1
