# generated using pymatgen
data_Cs2InBr5
_symmetry_space_group_name_H-M   'P 1'
_cell_length_a   8.93002224
_cell_length_b   10.07392979
_cell_length_c   8.93002224
_cell_angle_alpha   63.69021225
_cell_angle_beta   90.00000000
_cell_angle_gamma   116.30979156
_symmetry_Int_Tables_number   1
_chemical_formula_structural   Cs2InBr5
_chemical_formula_sum   'Cs4 In2 Br10'
_cell_volume   625.94426857
_cell_formula_units_Z   2
loop_
 _symmetry_equiv_pos_site_id
 _symmetry_equiv_pos_as_xyz
  1  'x, y, z'
loop_
 _atom_site_type_symbol
 _atom_site_label
 _atom_site_symmetry_multiplicity
 _atom_site_fract_x
 _atom_site_fract_y
 _atom_site_fract_z
 _atom_site_occupancy
  Cs  Cs0  1  0.24603302  0.49206601  0.75396699  1
  Cs  Cs1  1  0.74603301  0.49206601  0.25396700  1
  Cs  Cs2  1  0.99567403  0.99134802  0.00432601  1
  Cs  Cs3  1  0.49567404  0.99134802  0.50432600  1
  In  In4  1  0.24707002  0.49414001  0.25293000  1
  In  In5  1  0.74707001  0.49414001  0.75292999  1
  Br  Br6  1  0.96053599  0.26733201  0.19320400  1
  Br  Br7  1  0.46053600  0.26733201  0.03946400  1
  Br  Br8  1  0.80679599  0.26733201  0.69320399  1
  Br  Br9  1  0.30679601  0.26733201  0.53946399  1
  Br  Br10  1  0.68654202  0.72003002  0.46651200  1
  Br  Br11  1  0.18654203  0.72003002  0.31345800  1
  Br  Br12  1  0.53348802  0.72003002  0.96651198  1
  Br  Br13  1  0.03348804  0.72003002  0.81345799  1
  Br  Br14  1  0.99696103  0.99392202  0.50303900  1
  Br  Br15  1  0.49696104  0.99392202  0.00303901  1
