# generated using pymatgen
data_TmAl2
_symmetry_space_group_name_H-M   'P 1'
_cell_length_a   5.35341597
_cell_length_b   5.35341597
_cell_length_c   8.86738777
_cell_angle_alpha   90.00000000
_cell_angle_beta   90.00000000
_cell_angle_gamma   120.00000000
_symmetry_Int_Tables_number   1
_chemical_formula_structural   TmAl2
_chemical_formula_sum   'Tm4 Al8'
_cell_volume   220.08391956
_cell_formula_units_Z   4
loop_
 _symmetry_equiv_pos_site_id
 _symmetry_equiv_pos_as_xyz
  1  'x, y, z'
loop_
 _atom_site_type_symbol
 _atom_site_label
 _atom_site_symmetry_multiplicity
 _atom_site_fract_x
 _atom_site_fract_y
 _atom_site_fract_z
 _atom_site_occupancy
  Tm  Tm0  1  0.66666666  0.33333332  0.56372401  1
  Tm  Tm1  1  0.33333332  0.66666663  0.43627601  1
  Tm  Tm2  1  0.33333332  0.66666663  0.06372400  1
  Tm  Tm3  1  0.66666666  0.33333332  0.93627602  1
  Al  Al4  1  0.00000000  0.00000000  0.50000001  1
  Al  Al5  1  0.00000000  0.00000000  0.00000000  1
  Al  Al6  1  0.17155299  0.34310598  0.75000002  1
  Al  Al7  1  0.17155298  0.82844796  0.75000002  1
  Al  Al8  1  0.65689498  0.82844796  0.75000002  1
  Al  Al9  1  0.82844699  0.65689397  0.25000001  1
  Al  Al10  1  0.82844700  0.17155199  0.25000001  1
  Al  Al11  1  0.34310500  0.17155199  0.25000001  1
