# generated using pymatgen
data_Li6VO11
_symmetry_space_group_name_H-M   'P 1'
_cell_length_a   5.47920465
_cell_length_b   5.47920465
_cell_length_c   7.23141336
_cell_angle_alpha   71.74156952
_cell_angle_beta   71.74156952
_cell_angle_gamma   71.54261780
_symmetry_Int_Tables_number   1
_chemical_formula_structural   Li6VO11
_chemical_formula_sum   'Li6 V1 O11'
_cell_volume   189.95881717
_cell_formula_units_Z   1
loop_
 _symmetry_equiv_pos_site_id
 _symmetry_equiv_pos_as_xyz
  1  'x, y, z'
loop_
 _atom_site_type_symbol
 _atom_site_label
 _atom_site_symmetry_multiplicity
 _atom_site_fract_x
 _atom_site_fract_y
 _atom_site_fract_z
 _atom_site_occupancy
  Li  Li0  1  0.67326900  0.67326899  0.83048401  1
  Li  Li1  1  0.33937600  0.33937599  0.66831101  1
  Li  Li2  1  0.65115200  0.65115199  0.33025700  1
  Li  Li3  1  0.33077100  0.33077099  0.15818800  1
  Li  Li4  1  0.00449400  0.00449400  0.51073601  1
  Li  Li5  1  0.00166600  0.00166600  0.98555502  1
  O  O6  1  0.62713799  0.02494700  0.67411401  1
  V  V7  1  0.96583399  0.37630199  0.32827400  1
  O  O8  1  0.23726500  0.23726500  0.96807302  1
  O  O9  1  0.55906300  0.55906299  0.63497201  1
  O  O10  1  0.10699500  0.10699500  0.70316801  1
  O  O11  1  0.76913400  0.76913399  0.03336899  1
  O  O12  1  0.42746200  0.42746199  0.36838400  1
  O  O13  1  0.70644199  0.29976899  0.00176399  1
  O  O14  1  0.02494701  0.62713799  0.67411401  1
  O  O15  1  0.37630201  0.96583398  0.32827400  1
  O  O16  1  0.29976900  0.70644199  0.00176399  1
  O  O17  1  0.89892000  0.89891998  0.30020099  1
