# generated using pymatgen
data_HfAl
_symmetry_space_group_name_H-M   'P 1'
_cell_length_a   5.87679100
_cell_length_b   8.70704174
_cell_length_c   8.70704174
_cell_angle_alpha   120.00000000
_cell_angle_beta   90.00000000
_cell_angle_gamma   90.00000000
_symmetry_Int_Tables_number   1
_chemical_formula_structural   HfAl
_chemical_formula_sum   'Hf9 Al9'
_cell_volume   385.84433693
_cell_formula_units_Z   9
loop_
 _symmetry_equiv_pos_site_id
 _symmetry_equiv_pos_as_xyz
  1  'x, y, z'
loop_
 _atom_site_type_symbol
 _atom_site_label
 _atom_site_symmetry_multiplicity
 _atom_site_fract_x
 _atom_site_fract_y
 _atom_site_fract_z
 _atom_site_occupancy
  Hf  Hf0  1  -0.00000000  0.33333334  0.66666664  1
  Hf  Hf1  1  0.75000000  0.00000000  0.25724299  1
  Hf  Hf2  1  0.25000000  0.25724300  0.25724298  1
  Hf  Hf3  1  0.25000000  0.74275701  -0.00000003  1
  Hf  Hf4  1  0.50000000  0.66666667  0.33333330  1
  Hf  Hf5  1  1.00000000  0.66666667  0.33333330  1
  Hf  Hf6  1  0.25000000  0.00000000  0.74275698  1
  Al  Al7  1  0.50000000  0.33333334  0.66666664  1
  Hf  Hf8  1  0.75000000  0.25724300  -0.00000001  1
  Hf  Hf9  1  0.75000000  0.74275701  0.74275695  1
  Al  Al10  1  0.00000000  0.00000000  0.00000000  1
  Al  Al11  1  0.50000000  0.00000000  -0.00000000  1
  Al  Al12  1  0.25000000  0.38906300  -0.00000001  1
  Al  Al13  1  0.25000000  0.61093701  0.61093696  1
  Al  Al14  1  0.75000000  0.00000000  0.61093698  1
  Al  Al15  1  0.75000000  0.61093701  -0.00000002  1
  Al  Al16  1  0.25000000  0.00000000  0.38906299  1
  Al  Al17  1  0.75000000  0.38906300  0.38906298  1
