# generated using pymatgen
data_Sm2Ni3Ge5
_symmetry_space_group_name_H-M   'P 1'
_cell_length_a   4.17046022
_cell_length_b   4.17046022
_cell_length_c   9.89471245
_cell_angle_alpha   90.00000000
_cell_angle_beta   90.00000000
_cell_angle_gamma   90.00000000
_symmetry_Int_Tables_number   1
_chemical_formula_structural   Sm2Ni3Ge5
_chemical_formula_sum   'Sm2 Ni3 Ge5'
_cell_volume   172.09614596
_cell_formula_units_Z   1
loop_
 _symmetry_equiv_pos_site_id
 _symmetry_equiv_pos_as_xyz
  1  'x, y, z'
loop_
 _atom_site_type_symbol
 _atom_site_label
 _atom_site_symmetry_multiplicity
 _atom_site_fract_x
 _atom_site_fract_y
 _atom_site_fract_z
 _atom_site_occupancy
  Sm  Sm0  1  0.00000000  0.49999997  0.25565699  1
  Sm  Sm1  1  0.49999997  0.00000000  0.74434297  1
  Ni  Ni2  1  0.00000000  0.00000000  0.49999998  1
  Ni  Ni3  1  0.49999997  0.49999997  0.49999998  1
  Ni  Ni4  1  0.00000000  0.49999997  0.86977296  1
  Ge  Ge5  1  0.49999997  0.00000000  0.13022699  1
  Ge  Ge6  1  0.00000000  0.00000000  0.00000000  1
  Ge  Ge7  1  0.49999997  0.49999997  0.00000000  1
  Ge  Ge8  1  0.00000000  0.49999997  0.62728897  1
  Ge  Ge9  1  0.49999997  0.00000000  0.37271098  1
