# generated using pymatgen
data_Ga2Ni
_symmetry_space_group_name_H-M   'P 1'
_cell_length_a   4.25207520
_cell_length_b   4.25207520
_cell_length_c   6.02405596
_cell_angle_alpha   90.00000000
_cell_angle_beta   90.00000000
_cell_angle_gamma   89.82401276
_symmetry_Int_Tables_number   1
_chemical_formula_structural   Ga2Ni
_chemical_formula_sum   'Ga4 Ni2'
_cell_volume   108.91528219
_cell_formula_units_Z   2
loop_
 _symmetry_equiv_pos_site_id
 _symmetry_equiv_pos_as_xyz
  1  'x, y, z'
loop_
 _atom_site_type_symbol
 _atom_site_label
 _atom_site_symmetry_multiplicity
 _atom_site_fract_x
 _atom_site_fract_y
 _atom_site_fract_z
 _atom_site_occupancy
  Ga  Ga0  1  0.97747890  0.97747895  0.50000000  1
  Ga  Ga1  1  0.47747895  0.47747897  1.00000001  1
  Ga  Ga2  1  0.45866592  0.97360795  0.23522700  1
  Ga  Ga3  1  0.97360792  0.45866598  0.76477301  1
  Ni  Ni4  1  0.95866592  0.47360797  0.26477300  1
  Ni  Ni5  1  0.47360792  0.95866595  0.73522701  1
