# generated using pymatgen
data_YbGe2
_symmetry_space_group_name_H-M   'P 1'
_cell_length_a   4.24290609
_cell_length_b   4.24290657
_cell_length_c   15.79467010
_cell_angle_alpha   90.00000000
_cell_angle_beta   90.00000000
_cell_angle_gamma   119.99999237
_symmetry_Int_Tables_number   1
_chemical_formula_structural   YbGe2
_chemical_formula_sum   'Yb4 Ge8'
_cell_volume   246.24539240
_cell_formula_units_Z   4
loop_
 _symmetry_equiv_pos_site_id
 _symmetry_equiv_pos_as_xyz
  1  'x, y, z'
loop_
 _atom_site_type_symbol
 _atom_site_label
 _atom_site_symmetry_multiplicity
 _atom_site_fract_x
 _atom_site_fract_y
 _atom_site_fract_z
 _atom_site_occupancy
  Yb  Yb0  1  0.00000000  0.00000000  0.25000000  1
  Yb  Yb1  1  0.00000000  0.00000000  0.75000000  1
  Yb  Yb2  1  0.00000000  0.00000000  0.50000000  1
  Yb  Yb3  1  0.00000000  0.00000000  0.00000000  1
  Ge  Ge4  1  0.33333328  0.66666664  0.14734100  1
  Ge  Ge5  1  0.33333328  0.66666664  0.35265900  1
  Ge  Ge6  1  0.66666663  0.33333332  0.85265899  1
  Ge  Ge7  1  0.66666663  0.33333332  0.64734100  1
  Ge  Ge8  1  0.33333328  0.66666664  0.88635499  1
  Ge  Ge9  1  0.33333328  0.66666664  0.61364500  1
  Ge  Ge10  1  0.66666663  0.33333332  0.11364500  1
  Ge  Ge11  1  0.66666663  0.33333332  0.38635500  1
