# generated using pymatgen
data_SrGa2
_symmetry_space_group_name_H-M   'P 1'
_cell_length_a   6.89885712
_cell_length_b   6.89885712
_cell_length_c   6.89885712
_cell_angle_alpha   90.00000000
_cell_angle_beta   90.00000000
_cell_angle_gamma   90.00000000
_symmetry_Int_Tables_number   1
_chemical_formula_structural   SrGa2
_chemical_formula_sum   'Sr4 Ga8'
_cell_volume   328.34578901
_cell_formula_units_Z   4
loop_
 _symmetry_equiv_pos_site_id
 _symmetry_equiv_pos_as_xyz
  1  'x, y, z'
loop_
 _atom_site_type_symbol
 _atom_site_label
 _atom_site_symmetry_multiplicity
 _atom_site_fract_x
 _atom_site_fract_y
 _atom_site_fract_z
 _atom_site_occupancy
  Sr  Sr0  1  0.37389699  0.87389699  0.62610299  1
  Sr  Sr1  1  0.62610299  0.37389699  0.87389699  1
  Sr  Sr2  1  0.87389699  0.62610299  0.37389699  1
  Sr  Sr3  1  0.12610300  0.12610300  0.12610300  1
  Ga  Ga4  1  0.07723600  0.57723599  0.92276398  1
  Ga  Ga5  1  0.57723599  0.92276398  0.07723600  1
  Ga  Ga6  1  0.92276398  0.07723600  0.57723599  1
  Ga  Ga7  1  0.42276399  0.42276399  0.42276399  1
  Ga  Ga8  1  0.67199799  0.17199800  0.32800199  1
  Ga  Ga9  1  0.32800199  0.67199799  0.17199800  1
  Ga  Ga10  1  0.17199800  0.32800199  0.67199799  1
  Ga  Ga11  1  0.82800199  0.82800199  0.82800199  1
