# generated using pymatgen
data_Li2SiO5
_symmetry_space_group_name_H-M   'P 1'
_cell_length_a   4.59008408
_cell_length_b   6.32735252
_cell_length_c   6.32735252
_cell_angle_alpha   91.53468323
_cell_angle_beta   90.00000000
_cell_angle_gamma   90.00000000
_symmetry_Int_Tables_number   1
_chemical_formula_structural   Li2SiO5
_chemical_formula_sum   'Li4 Si2 O10'
_cell_volume   183.69988839
_cell_formula_units_Z   2
loop_
 _symmetry_equiv_pos_site_id
 _symmetry_equiv_pos_as_xyz
  1  'x, y, z'
loop_
 _atom_site_type_symbol
 _atom_site_label
 _atom_site_symmetry_multiplicity
 _atom_site_fract_x
 _atom_site_fract_y
 _atom_site_fract_z
 _atom_site_occupancy
  Li  Li0  1  0.01852900  0.51598298  0.98401695  1
  Li  Li1  1  0.98147098  0.01598300  0.48401698  1
  Li  Li2  1  0.57932199  0.75153698  0.74846294  1
  Li  Li3  1  0.42067799  0.25153699  0.24846298  1
  Si  Si4  1  0.49999999  0.25262099  0.74737897  1
  Si  Si5  1  0.49999999  0.75262098  0.24737896  1
  O  O6  1  0.29714200  0.24847599  0.55082197  1
  O  O7  1  0.69948499  0.05462300  0.74171797  1
  O  O8  1  0.22577800  0.74329998  0.75669994  1
  O  O9  1  0.70285799  0.44917799  0.75152396  1
  O  O10  1  0.30051500  0.25828199  0.94537696  1
  O  O11  1  0.70285799  0.74847598  0.05082196  1
  O  O12  1  0.30051500  0.55462298  0.24171797  1
  O  O13  1  0.29714200  0.94917797  0.25152395  1
  O  O14  1  0.77422199  0.24329999  0.25669998  1
  O  O15  1  0.69948499  0.75828198  0.44537695  1
