# generated using pymatgen
data_Sr2LiCaCo2O7
_symmetry_space_group_name_H-M   'P 1'
_cell_length_a   3.82618999
_cell_length_b   3.94062710
_cell_length_c   11.74884415
_cell_angle_alpha   90.00000000
_cell_angle_beta   90.00000000
_cell_angle_gamma   90.00000000
_symmetry_Int_Tables_number   1
_chemical_formula_structural   Sr2LiCaCo2O7
_chemical_formula_sum   'Sr2 Li1 Ca1 Co2 O7'
_cell_volume   177.14423124
_cell_formula_units_Z   1
loop_
 _symmetry_equiv_pos_site_id
 _symmetry_equiv_pos_as_xyz
  1  'x, y, z'
loop_
 _atom_site_type_symbol
 _atom_site_label
 _atom_site_symmetry_multiplicity
 _atom_site_fract_x
 _atom_site_fract_y
 _atom_site_fract_z
 _atom_site_occupancy
  Sr  Sr0  1  0.50000000  0.49999999  0.17663100  1
  Sr  Sr1  1  0.50000000  0.49999999  0.82030699  1
  Ca  Ca2  1  0.50000000  0.49999999  0.50305999  1
  Li  Li3  1  0.00000000  0.00000000  0.34495600  1
  Co  Co4  1  0.00000000  0.00000000  0.66065799  1
  Co  Co5  1  0.00000000  0.00000000  0.99629599  1
  O  O6  1  0.00000000  0.00000000  0.15579600  1
  O  O7  1  0.00000000  0.00000000  0.83843799  1
  O  O8  1  0.00000000  0.49999999  0.37003200  1
  O  O9  1  0.50000000  0.00000000  0.37215300  1
  O  O10  1  0.00000000  0.49999999  0.63866599  1
  O  O11  1  0.50000000  0.00000000  0.63454599  1
  O  O12  1  0.00000000  0.49999999  0.98846199  1
