# generated using pymatgen
data_EuFeC2
_symmetry_space_group_name_H-M   'P 1'
_cell_length_a   5.35950613
_cell_length_b   5.35950565
_cell_length_c   7.99425697
_cell_angle_alpha   90.00000000
_cell_angle_beta   90.00000000
_cell_angle_gamma   120.00000000
_symmetry_Int_Tables_number   1
_chemical_formula_structural   EuFeC2
_chemical_formula_sum   'Eu3 Fe3 C6'
_cell_volume   198.86494823
_cell_formula_units_Z   3
loop_
 _symmetry_equiv_pos_site_id
 _symmetry_equiv_pos_as_xyz
  1  'x, y, z'
loop_
 _atom_site_type_symbol
 _atom_site_label
 _atom_site_symmetry_multiplicity
 _atom_site_fract_x
 _atom_site_fract_y
 _atom_site_fract_z
 _atom_site_occupancy
  Eu  Eu0  1  0.49999999  0.00000000  0.66666667  1
  Eu  Eu1  1  -0.00000002  0.49999999  0.33333333  1
  Eu  Eu2  1  0.49999997  0.49999999  1.00000000  1
  Fe  Fe3  1  -0.00000002  0.49999999  0.83333300  1
  Fe  Fe4  1  0.49999999  0.00000000  0.16666700  1
  Fe  Fe5  1  0.49999997  0.49999999  0.50000000  1
  C  C6  1  0.69519095  0.84759599  0.33333333  1
  C  C7  1  0.84759495  0.69518999  0.66666667  1
  C  C8  1  0.15240496  0.84759599  -0.00000000  1
  C  C9  1  0.15240498  0.30481000  0.66666667  1
  C  C10  1  0.84759497  0.15240400  -0.00000000  1
  C  C11  1  0.30480899  0.15240400  0.33333333  1
