# generated using pymatgen
data_Na3LiYVO4
_symmetry_space_group_name_H-M   'P 1'
_cell_length_a   3.31187391
_cell_length_b   3.31187391
_cell_length_c   13.80327892
_cell_angle_alpha   83.10980988
_cell_angle_beta   83.10980988
_cell_angle_gamma   60.00000381
_symmetry_Int_Tables_number   1
_chemical_formula_structural   Na3LiYVO4
_chemical_formula_sum   'Na3 Li1 Y1 V1 O4'
_cell_volume   129.85332562
_cell_formula_units_Z   1
loop_
 _symmetry_equiv_pos_site_id
 _symmetry_equiv_pos_as_xyz
  1  'x, y, z'
loop_
 _atom_site_type_symbol
 _atom_site_label
 _atom_site_symmetry_multiplicity
 _atom_site_fract_x
 _atom_site_fract_y
 _atom_site_fract_z
 _atom_site_occupancy
  Li  Li0  1  0.59615298  0.59615298  0.21154100  1
  Na  Na1  1  0.19870899  0.19870899  0.40387299  1
  Na  Na2  1  0.80129097  0.80129097  0.59612699  1
  Na  Na3  1  0.40384699  0.40384699  0.78845898  1
  Y  Y4  1  0.00000000  0.00000000  0.00000000  1
  V  V5  1  0.70269698  0.70269698  0.89190898  1
  O  O6  1  0.49999998  0.49999998  0.49999999  1
  O  O7  1  0.10151700  0.10151700  0.69544898  1
  O  O8  1  0.29730299  0.29730299  0.10809100  1
  O  O9  1  0.89848297  0.89848297  0.30455099  1
