# generated using pymatgen
data_Cu3SnS4
_symmetry_space_group_name_H-M   'P 1'
_cell_length_a   5.59604216
_cell_length_b   5.59604216
_cell_length_c   6.86404800
_cell_angle_alpha   113.82117462
_cell_angle_beta   113.82117462
_cell_angle_gamma   90.52722168
_symmetry_Int_Tables_number   1
_chemical_formula_structural   Cu3SnS4
_chemical_formula_sum   'Cu3 Sn1 S4'
_cell_volume   176.03402720
_cell_formula_units_Z   1
loop_
 _symmetry_equiv_pos_site_id
 _symmetry_equiv_pos_as_xyz
  1  'x, y, z'
loop_
 _atom_site_type_symbol
 _atom_site_label
 _atom_site_symmetry_multiplicity
 _atom_site_fract_x
 _atom_site_fract_y
 _atom_site_fract_z
 _atom_site_occupancy
  Cu  Cu0  1  0.00906900  0.00906900  0.01813800  1
  Cu  Cu1  1  0.23933807  0.73933803  0.47867604  1
  Cu  Cu2  1  0.73933803  0.23933801  0.47867602  1
  Sn  Sn3  1  0.50559805  0.50559802  0.01119604  1
  S  S4  1  0.10646606  0.62781902  0.73428502  1
  S  S5  1  0.62781902  0.10646600  0.73428501  1
  S  S6  1  0.37936504  0.37936501  0.27237202  1
  S  S7  1  0.89300710  0.89300703  0.27237206  1
