# generated using pymatgen
data_K4Cu3O5
_symmetry_space_group_name_H-M   'P 1'
_cell_length_a   3.55986691
_cell_length_b   6.60523319
_cell_length_c   9.11751366
_cell_angle_alpha   90.00000000
_cell_angle_beta   90.00000000
_cell_angle_gamma   90.00000000
_symmetry_Int_Tables_number   1
_chemical_formula_structural   K4Cu3O5
_chemical_formula_sum   'K4 Cu3 O5'
_cell_volume   214.38694625
_cell_formula_units_Z   1
loop_
 _symmetry_equiv_pos_site_id
 _symmetry_equiv_pos_as_xyz
  1  'x, y, z'
loop_
 _atom_site_type_symbol
 _atom_site_label
 _atom_site_symmetry_multiplicity
 _atom_site_fract_x
 _atom_site_fract_y
 _atom_site_fract_z
 _atom_site_occupancy
  K  K0  1  0.25000001  0.99576297  0.82297903  1
  K  K1  1  0.75000002  0.00423700  0.17702101  1
  K  K2  1  0.25000001  0.49576299  0.67702103  1
  K  K3  1  0.75000002  0.50423699  0.32297901  1
  Cu  Cu4  1  0.75000002  0.89756297  0.49733402  1
  Cu  Cu5  1  0.25000001  0.60243698  0.99733404  1
  Cu  Cu6  1  0.75000002  0.39756299  0.00266600  1
  O  O7  1  0.25000001  0.10243700  0.50266602  1
  O  O8  1  0.25000001  0.81082598  0.45326902  1
  O  O9  1  0.75000002  0.68917398  0.95326904  1
  O  O10  1  0.25000001  0.31082599  0.04673100  1
  O  O11  1  0.75000002  0.18917399  0.54673102  1
