# generated using pymatgen
data_Tm5Si3(GeP3)3
_symmetry_space_group_name_H-M   'P 1'
_cell_length_a   3.51448107
_cell_length_b   6.49518204
_cell_length_c   16.55313683
_cell_angle_alpha   90.00000000
_cell_angle_beta   90.00000000
_cell_angle_gamma   90.00000000
_symmetry_Int_Tables_number   1
_chemical_formula_structural   Tm5Si3(GeP3)3
_chemical_formula_sum   'Tm5 Si3 Ge3 P9'
_cell_volume   377.86167061
_cell_formula_units_Z   1
loop_
 _symmetry_equiv_pos_site_id
 _symmetry_equiv_pos_as_xyz
  1  'x, y, z'
loop_
 _atom_site_type_symbol
 _atom_site_label
 _atom_site_symmetry_multiplicity
 _atom_site_fract_x
 _atom_site_fract_y
 _atom_site_fract_z
 _atom_site_occupancy
  Tm  Tm0  1  0.25000000  0.90816099  0.72129596  1
  Tm  Tm1  1  0.74999999  0.09183900  0.27870399  1
  Tm  Tm2  1  0.25000000  0.40816100  0.77870396  1
  Tm  Tm3  1  0.74999999  0.59183900  0.22129599  1
  Ge  Ge4  1  0.74999999  0.60333900  0.68044997  1
  Tm  Tm5  1  0.25000000  0.39666100  0.31954998  1
  Si  Si6  1  0.25000000  0.89666099  0.18044999  1
  Si  Si7  1  0.25000000  0.78562900  0.32071398  1
  Ge  Ge8  1  0.74999999  0.71437100  0.82071396  1
  Ge  Ge9  1  0.74999999  0.10333900  0.81954996  1
  P  P10  1  0.74999999  0.21437100  0.67928597  1
  Si  Si11  1  0.25000000  0.28562900  0.17928599  1
  P  P12  1  0.25000000  0.90965099  0.90291095  1
  P  P13  1  0.74999999  0.59034900  0.40291098  1
  P  P14  1  0.74999999  0.09034900  0.09708900  1
  P  P15  1  0.25000000  0.40965100  0.59708897  1
  P  P16  1  0.74999999  0.90895399  0.59988697  1
  P  P17  1  0.25000000  0.59104600  0.09988700  1
  P  P18  1  0.74999999  0.40895400  0.90011296  1
  P  P19  1  0.25000000  0.09104600  0.40011298  1
