# generated using pymatgen
data_Yb(GaSi)2
_symmetry_space_group_name_H-M   'P 1'
_cell_length_a   4.26327181
_cell_length_b   4.26327181
_cell_length_c   5.95088720
_cell_angle_alpha   110.98998260
_cell_angle_beta   110.98998260
_cell_angle_gamma   90.00000000
_symmetry_Int_Tables_number   1
_chemical_formula_structural   Yb(GaSi)2
_chemical_formula_sum   'Yb1 Ga2 Si2'
_cell_volume   93.25515244
_cell_formula_units_Z   1
loop_
 _symmetry_equiv_pos_site_id
 _symmetry_equiv_pos_as_xyz
  1  'x, y, z'
loop_
 _atom_site_type_symbol
 _atom_site_label
 _atom_site_symmetry_multiplicity
 _atom_site_fract_x
 _atom_site_fract_y
 _atom_site_fract_z
 _atom_site_occupancy
  Yb  Yb0  1  0.00000000  0.00000000  0.00000000  1
  Ga  Ga1  1  0.24999999  0.75000002  0.49999997  1
  Ga  Ga2  1  0.75000002  0.25000001  0.49999998  1
  Si  Si3  1  0.61593001  0.61593002  0.23185997  1
  Si  Si4  1  0.38407001  0.38407001  0.76813998  1
