# generated using pymatgen
data_LiZnO2
_symmetry_space_group_name_H-M   'P 1'
_cell_length_a   3.18054008
_cell_length_b   5.08430576
_cell_length_c   5.26442480
_cell_angle_alpha   90.00000000
_cell_angle_beta   90.00000000
_cell_angle_gamma   90.00000000
_symmetry_Int_Tables_number   1
_chemical_formula_structural   LiZnO2
_chemical_formula_sum   'Li2 Zn2 O4'
_cell_volume   85.13016211
_cell_formula_units_Z   2
loop_
 _symmetry_equiv_pos_site_id
 _symmetry_equiv_pos_as_xyz
  1  'x, y, z'
loop_
 _atom_site_type_symbol
 _atom_site_label
 _atom_site_symmetry_multiplicity
 _atom_site_fract_x
 _atom_site_fract_y
 _atom_site_fract_z
 _atom_site_occupancy
  Li  Li0  1  0.00000000  0.50000002  -0.00000000  1
  Li  Li1  1  0.49999999  0.00000000  0.50000002  1
  Zn  Zn2  1  0.00000000  0.50000002  0.50000002  1
  Zn  Zn3  1  0.49999999  0.00000000  0.00000000  1
  O  O4  1  0.00000000  0.82866904  0.23059201  1
  O  O5  1  0.49999999  0.67133103  0.73059203  1
  O  O6  1  0.00000000  0.17133101  0.76940803  1
  O  O7  1  0.49999999  0.32866902  0.26940801  1
