# generated using pymatgen
data_NaZr3H11
_symmetry_space_group_name_H-M   'P 1'
_cell_length_a   5.44932222
_cell_length_b   5.44932222
_cell_length_c   6.63125181
_cell_angle_alpha   114.26024628
_cell_angle_beta   114.26024628
_cell_angle_gamma   90.00000000
_symmetry_Int_Tables_number   1
_chemical_formula_structural   NaZr3H11
_chemical_formula_sum   'Na1 Zr3 H11'
_cell_volume   160.25993681
_cell_formula_units_Z   1
loop_
 _symmetry_equiv_pos_site_id
 _symmetry_equiv_pos_as_xyz
  1  'x, y, z'
loop_
 _atom_site_type_symbol
 _atom_site_label
 _atom_site_symmetry_multiplicity
 _atom_site_fract_x
 _atom_site_fract_y
 _atom_site_fract_z
 _atom_site_occupancy
  Zr  Zr0  1  0.49999999  0.00000000  0.00000003  1
  Zr  Zr1  1  0.25876801  0.25876800  0.51753604  1
  Na  Na2  1  0.00000003  0.50000000  0.00000004  1
  Zr  Zr3  1  0.74123204  0.74123200  0.48246411  1
  H  H4  1  0.64181004  0.64181000  0.75888410  1
  H  H5  1  0.35819006  0.88292600  0.24111610  1
  H  H6  1  0.11707401  0.11707400  0.75888403  1
  H  H7  1  0.88292601  0.35819000  0.24111608  1
  H  H8  1  0.88292605  0.88292600  0.24111613  1
  H  H9  1  0.64181000  0.11707400  0.75888406  1
  H  H10  1  0.35819002  0.35819000  0.24111605  1
  H  H11  1  0.11707404  0.64181000  0.75888407  1
  H  H12  1  0.75000001  0.25000000  0.50000007  1
  H  H13  1  0.50000003  0.50000000  0.00000007  1
  H  H14  1  0.25000005  0.75000000  0.50000008  1
