# generated using pymatgen
data_Ti3Tl(CuSe4)3
_symmetry_space_group_name_H-M   'P 1'
_cell_length_a   3.44049406
_cell_length_b   7.21617365
_cell_length_c   18.37682533
_cell_angle_alpha   87.83000183
_cell_angle_beta   84.62870026
_cell_angle_gamma   76.20860291
_symmetry_Int_Tables_number   1
_chemical_formula_structural   Ti3Tl(CuSe4)3
_chemical_formula_sum   'Ti3 Tl1 Cu3 Se12'
_cell_volume   441.08898505
_cell_formula_units_Z   1
loop_
 _symmetry_equiv_pos_site_id
 _symmetry_equiv_pos_as_xyz
  1  'x, y, z'
loop_
 _atom_site_type_symbol
 _atom_site_label
 _atom_site_symmetry_multiplicity
 _atom_site_fract_x
 _atom_site_fract_y
 _atom_site_fract_z
 _atom_site_occupancy
  Ti  Ti0  1  0.62412409  0.90262800  0.84912399  1
  Tl  Tl1  1  0.37587600  0.09737200  0.15087600  1
  Ti  Ti2  1  0.74623109  0.91359800  0.59394000  1
  Ti  Ti3  1  0.25376901  0.08640200  0.40605999  1
  Cu  Cu4  1  0.22940208  0.82542100  0.71577500  1
  Cu  Cu5  1  0.77059801  0.17457900  0.28422499  1
  Cu  Cu6  1  0.00000000  0.00000000  0.00000000  1
  Se  Se7  1  0.97438700  0.17064300  0.88058298  1
  Se  Se8  1  0.02561309  0.82935700  0.11941701  1
  Se  Se9  1  0.62538403  0.35496900  0.39426299  1
  Se  Se10  1  0.37461606  0.64503100  0.60573699  1
  Se  Se11  1  0.13726302  0.17511100  0.55036299  1
  Se  Se12  1  0.86273707  0.82488900  0.44963700  1
  Se  Se13  1  0.80683305  0.62245800  0.76387599  1
  Se  Se14  1  0.19316704  0.37754200  0.23612400  1
  Se  Se15  1  0.18473607  0.70413600  0.92639199  1
  Se  Se16  1  0.81526402  0.29586400  0.07360800  1
  Se  Se17  1  0.60607200  0.06897800  0.71887798  1
  Se  Se18  1  0.39392809  0.93102200  0.28112201  1
