# generated using pymatgen
data_Eu5Sn11
_symmetry_space_group_name_H-M   'P 1'
_cell_length_a   6.42161512
_cell_length_b   6.42161512
_cell_length_c   10.39387894
_cell_angle_alpha   90.00000000
_cell_angle_beta   90.00000000
_cell_angle_gamma   102.16551208
_symmetry_Int_Tables_number   1
_chemical_formula_structural   Eu5Sn11
_chemical_formula_sum   'Eu5 Sn11'
_cell_volume   418.98843341
_cell_formula_units_Z   1
loop_
 _symmetry_equiv_pos_site_id
 _symmetry_equiv_pos_as_xyz
  1  'x, y, z'
loop_
 _atom_site_type_symbol
 _atom_site_label
 _atom_site_symmetry_multiplicity
 _atom_site_fract_x
 _atom_site_fract_y
 _atom_site_fract_z
 _atom_site_occupancy
  Eu  Eu0  1  0.20163802  0.79836200  1.00000001  1
  Eu  Eu1  1  0.79836200  0.20163800  1.00000001  1
  Eu  Eu2  1  0.79836200  0.20163800  0.50000000  1
  Eu  Eu3  1  0.20163802  0.79836200  0.50000000  1
  Eu  Eu4  1  0.62771001  0.62771000  0.75000000  1
  Sn  Sn5  1  0.37229001  0.37229000  0.25000000  1
  Sn  Sn6  1  0.51075200  0.07011700  0.75000000  1
  Sn  Sn7  1  0.48924802  0.92988300  0.25000000  1
  Sn  Sn8  1  0.07011701  0.51075200  0.75000000  1
  Sn  Sn9  1  0.92988300  0.48924800  0.25000000  1
  Sn  Sn10  1  0.01368900  0.01368900  0.75000000  1
  Sn  Sn11  1  0.98631102  0.98631100  0.25000000  1
  Sn  Sn12  1  0.31095100  0.31095100  0.95326101  1
  Sn  Sn13  1  0.68904901  0.68904900  0.04673900  1
  Sn  Sn14  1  0.68904901  0.68904900  0.45326100  1
  Sn  Sn15  1  0.31095100  0.31095100  0.54673900  1
