# generated using pymatgen
data_Mn2Ni3
_symmetry_space_group_name_H-M   'P 1'
_cell_length_a   2.89428401
_cell_length_b   2.89428401
_cell_length_c   14.57079220
_cell_angle_alpha   90.00000000
_cell_angle_beta   90.00000000
_cell_angle_gamma   90.00000000
_symmetry_Int_Tables_number   1
_chemical_formula_structural   Mn2Ni3
_chemical_formula_sum   'Mn4 Ni6'
_cell_volume   122.05777673
_cell_formula_units_Z   2
loop_
 _symmetry_equiv_pos_site_id
 _symmetry_equiv_pos_as_xyz
  1  'x, y, z'
loop_
 _atom_site_type_symbol
 _atom_site_label
 _atom_site_symmetry_multiplicity
 _atom_site_fract_x
 _atom_site_fract_y
 _atom_site_fract_z
 _atom_site_occupancy
  Mn  Mn0  1  0.00000000  0.00000000  0.20242000  1
  Mn  Mn1  1  0.00000000  0.00000000  0.40025499  1
  Mn  Mn2  1  0.00000000  0.00000000  0.59974499  1
  Mn  Mn3  1  0.00000000  0.00000000  0.79757999  1
  Ni  Ni4  1  0.50000000  0.50000000  0.09710300  1
  Ni  Ni5  1  0.50000000  0.50000000  0.30083900  1
  Ni  Ni6  1  0.50000000  0.50000000  0.49999999  1
  Ni  Ni7  1  0.50000000  0.50000000  0.69916099  1
  Ni  Ni8  1  0.50000000  0.50000000  0.90289699  1
  Ni  Ni9  1  0.00000000  0.00000000  0.00000000  1
