# generated using pymatgen
data_HoAg
_symmetry_space_group_name_H-M   'P 1'
_cell_length_a   5.28681707
_cell_length_b   6.43059397
_cell_length_c   6.43059397
_cell_angle_alpha   60.00000000
_cell_angle_beta   90.00000000
_cell_angle_gamma   90.00000000
_symmetry_Int_Tables_number   1
_chemical_formula_structural   HoAg
_chemical_formula_sum   'Ho4 Ag4'
_cell_volume   189.33333862
_cell_formula_units_Z   4
loop_
 _symmetry_equiv_pos_site_id
 _symmetry_equiv_pos_as_xyz
  1  'x, y, z'
loop_
 _atom_site_type_symbol
 _atom_site_label
 _atom_site_symmetry_multiplicity
 _atom_site_fract_x
 _atom_site_fract_y
 _atom_site_fract_z
 _atom_site_occupancy
  Ho  Ho0  1  0.74999999  0.66369801  0.16815099  1
  Ho  Ho1  1  0.74999999  0.16815100  0.16815100  1
  Ho  Ho2  1  0.74999999  0.16815100  0.66369802  1
  Ho  Ho3  1  0.25000000  0.33630201  0.83184902  1
  Ag  Ag4  1  0.25000000  0.83184901  0.83184901  1
  Ag  Ag5  1  0.25000000  0.83184901  0.33630199  1
  Ag  Ag6  1  0.25000000  0.33333334  0.33333334  1
  Ag  Ag7  1  0.74999999  0.66666668  0.66666668  1
