# generated using pymatgen
data_LiZrN2
_symmetry_space_group_name_H-M   'P 1'
_cell_length_a   3.15557981
_cell_length_b   3.15557981
_cell_length_c   5.44617510
_cell_angle_alpha   73.15964508
_cell_angle_beta   73.15964508
_cell_angle_gamma   60.00000381
_symmetry_Int_Tables_number   1
_chemical_formula_structural   LiZrN2
_chemical_formula_sum   'Li1 Zr1 N2'
_cell_volume   44.25985958
_cell_formula_units_Z   1
loop_
 _symmetry_equiv_pos_site_id
 _symmetry_equiv_pos_as_xyz
  1  'x, y, z'
loop_
 _atom_site_type_symbol
 _atom_site_label
 _atom_site_symmetry_multiplicity
 _atom_site_fract_x
 _atom_site_fract_y
 _atom_site_fract_z
 _atom_site_occupancy
  Li  Li0  1  0.00028600  0.00028600  0.99914204  1
  Zr  Zr1  1  0.49837302  0.49837300  0.50488100  1
  N  N2  1  0.75403503  0.75403501  0.73789500  1
  N  N3  1  0.24730501  0.24730500  0.25808500  1
