# generated using pymatgen
data_SrCaCrO3
_symmetry_space_group_name_H-M   'P 1'
_cell_length_a   5.51255798
_cell_length_b   5.84674978
_cell_length_c   6.28111649
_cell_angle_alpha   62.26240921
_cell_angle_beta   86.55403137
_cell_angle_gamma   82.57978058
_symmetry_Int_Tables_number   1
_chemical_formula_structural   SrCaCrO3
_chemical_formula_sum   'Sr2 Ca2 Cr2 O6'
_cell_volume   177.68016813
_cell_formula_units_Z   2
loop_
 _symmetry_equiv_pos_site_id
 _symmetry_equiv_pos_as_xyz
  1  'x, y, z'
loop_
 _atom_site_type_symbol
 _atom_site_label
 _atom_site_symmetry_multiplicity
 _atom_site_fract_x
 _atom_site_fract_y
 _atom_site_fract_z
 _atom_site_occupancy
  Sr  Sr0  1  0.74999996  0.73712104  0.52575800  1
  Sr  Sr1  1  0.24999999  0.26287902  0.47424201  1
  Ca  Ca2  1  0.74999998  0.42241603  0.15516800  1
  Ca  Ca3  1  0.24999996  0.57758404  0.84483201  1
  Cr  Cr4  1  0.24999994  0.94707106  0.10585798  1
  Cr  Cr5  1  0.75000001  0.05292900  0.89414204  1
  O  O6  1  0.50462699  0.18938501  0.04901100  1
  O  O7  1  0.00462698  0.23839601  0.95098903  1
  O  O8  1  0.99537296  0.76160405  0.04901099  1
  O  O9  1  0.49537295  0.81061505  0.95098901  1
  O  O10  1  0.74999999  0.21323101  0.57353802  1
  O  O11  1  0.24999995  0.78676905  0.42646199  1
