# generated using pymatgen
data_Pr2GaGe3
_symmetry_space_group_name_H-M   'P 1'
_cell_length_a   4.10243988
_cell_length_b   4.26291513
_cell_length_c   7.77739620
_cell_angle_alpha   105.90588379
_cell_angle_beta   105.29216766
_cell_angle_gamma   90.00000000
_symmetry_Int_Tables_number   1
_chemical_formula_structural   Pr2GaGe3
_chemical_formula_sum   'Pr2 Ga1 Ge3'
_cell_volume   125.79132768
_cell_formula_units_Z   1
loop_
 _symmetry_equiv_pos_site_id
 _symmetry_equiv_pos_as_xyz
  1  'x, y, z'
loop_
 _atom_site_type_symbol
 _atom_site_label
 _atom_site_symmetry_multiplicity
 _atom_site_fract_x
 _atom_site_fract_y
 _atom_site_fract_z
 _atom_site_occupancy
  Pr  Pr0  1  0.74094701  0.24094799  0.48189499  1
  Pr  Pr1  1  0.00905300  0.00905200  0.01810500  1
  Ga  Ga2  1  0.33376298  0.83376396  0.66752698  1
  Ge  Ge3  1  0.41623700  0.41623598  0.83247300  1
  Ge  Ge4  1  0.16634599  0.66634597  0.33269198  1
  Ge  Ge5  1  0.58365400  0.58365397  0.16730797  1
