# generated using pymatgen
data_Sc5CdSe8
_symmetry_space_group_name_H-M   'P 1'
_cell_length_a   8.00789547
_cell_length_b   8.00789547
_cell_length_c   8.00789547
_cell_angle_alpha   60.00000000
_cell_angle_beta   60.00000000
_cell_angle_gamma   60.00000000
_symmetry_Int_Tables_number   1
_chemical_formula_structural   Sc5CdSe8
_chemical_formula_sum   'Sc5 Cd1 Se8'
_cell_volume   363.11165474
_cell_formula_units_Z   1
loop_
 _symmetry_equiv_pos_site_id
 _symmetry_equiv_pos_as_xyz
  1  'x, y, z'
loop_
 _atom_site_type_symbol
 _atom_site_label
 _atom_site_symmetry_multiplicity
 _atom_site_fract_x
 _atom_site_fract_y
 _atom_site_fract_z
 _atom_site_occupancy
  Sc  Sc0  1  0.00000000  0.00000000  0.00000000  1
  Sc  Sc1  1  0.74999997  0.74999997  0.74999997  1
  Sc  Sc2  1  0.37170599  0.37170699  0.88487997  1
  Sc  Sc3  1  0.37170599  0.37170699  0.37170699  1
  Sc  Sc4  1  0.37170599  0.88487997  0.37170699  1
  Cd  Cd5  1  0.88487897  0.37170699  0.37170699  1
  Se  Se6  1  0.61573598  0.61573498  0.15279399  1
  Se  Se7  1  0.61573598  0.61573498  0.61573498  1
  Se  Se8  1  0.61573598  0.15279399  0.61573498  1
  Se  Se9  1  0.15279499  0.61573498  0.61573498  1
  Se  Se10  1  0.13523500  0.13523400  0.59429698  1
  Se  Se11  1  0.13523500  0.13523400  0.13523400  1
  Se  Se12  1  0.13523500  0.59429698  0.13523400  1
  Se  Se13  1  0.59429798  0.13523400  0.13523400  1
