# generated using pymatgen
data_EuCdSn
_symmetry_space_group_name_H-M   'P 1'
_cell_length_a   4.82274389
_cell_length_b   4.82274342
_cell_length_c   7.67600489
_cell_angle_alpha   90.00000000
_cell_angle_beta   90.00000000
_cell_angle_gamma   120.00000763
_symmetry_Int_Tables_number   1
_chemical_formula_structural   EuCdSn
_chemical_formula_sum   'Eu2 Cd2 Sn2'
_cell_volume   154.61591588
_cell_formula_units_Z   2
loop_
 _symmetry_equiv_pos_site_id
 _symmetry_equiv_pos_as_xyz
  1  'x, y, z'
loop_
 _atom_site_type_symbol
 _atom_site_label
 _atom_site_symmetry_multiplicity
 _atom_site_fract_x
 _atom_site_fract_y
 _atom_site_fract_z
 _atom_site_occupancy
  Eu  Eu0  1  0.00000000  0.00000000  0.23880400  1
  Eu  Eu1  1  0.00000000  0.00000000  0.73880401  1
  Cd  Cd2  1  0.33333338  0.66666667  0.04196400  1
  Cd  Cd3  1  0.66666670  0.33333333  0.54196401  1
  Sn  Sn4  1  0.66666670  0.33333333  0.95923201  1
  Sn  Sn5  1  0.33333338  0.66666667  0.45923201  1
