# generated using pymatgen
data_TmMgGa
_symmetry_space_group_name_H-M   'P 1'
_cell_length_a   4.05399084
_cell_length_b   7.58952618
_cell_length_c   7.58952665
_cell_angle_alpha   120.00000000
_cell_angle_beta   90.00000000
_cell_angle_gamma   90.00000000
_symmetry_Int_Tables_number   1
_chemical_formula_structural   TmMgGa
_chemical_formula_sum   'Tm3 Mg3 Ga3'
_cell_volume   202.22868067
_cell_formula_units_Z   3
loop_
 _symmetry_equiv_pos_site_id
 _symmetry_equiv_pos_as_xyz
  1  'x, y, z'
loop_
 _atom_site_type_symbol
 _atom_site_label
 _atom_site_symmetry_multiplicity
 _atom_site_fract_x
 _atom_site_fract_y
 _atom_site_fract_z
 _atom_site_occupancy
  Tm  Tm0  1  -0.00000000  0.40850800  0.40850802  1
  Tm  Tm1  1  1.00000004  0.00000000  0.59149200  1
  Tm  Tm2  1  -0.00000000  0.59149200  0.00000003  1
  Mg  Mg3  1  0.50000002  0.75046300  0.75046303  1
  Mg  Mg4  1  0.50000002  0.00000000  0.24953700  1
  Mg  Mg5  1  0.50000002  0.24953700  0.00000001  1
  Ga  Ga6  1  0.50000002  0.66666667  0.33333337  1
  Ga  Ga7  1  0.50000002  0.33333333  0.66666668  1
  Ga  Ga8  1  0.00000000  0.00000000  0.00000000  1
