# generated using pymatgen
data_La2TlIn3Pb2
_symmetry_space_group_name_H-M   'P 1'
_cell_length_a   5.07293081
_cell_length_b   5.07293081
_cell_length_c   9.84826088
_cell_angle_alpha   90.00000000
_cell_angle_beta   90.00000000
_cell_angle_gamma   90.00000000
_symmetry_Int_Tables_number   1
_chemical_formula_structural   La2TlIn3Pb2
_chemical_formula_sum   'La2 Tl1 In3 Pb2'
_cell_volume   253.44132065
_cell_formula_units_Z   1
loop_
 _symmetry_equiv_pos_site_id
 _symmetry_equiv_pos_as_xyz
  1  'x, y, z'
loop_
 _atom_site_type_symbol
 _atom_site_label
 _atom_site_symmetry_multiplicity
 _atom_site_fract_x
 _atom_site_fract_y
 _atom_site_fract_z
 _atom_site_occupancy
  La  La0  1  0.00000000  0.00000000  0.50000001  1
  La  La1  1  0.00000000  0.00000000  0.00000000  1
  Tl  Tl2  1  0.50000002  0.00000000  0.24577800  1
  In  In3  1  0.50000002  0.00000000  0.75422201  1
  In  In4  1  0.00000000  0.50000002  0.24577800  1
  In  In5  1  0.00000000  0.50000002  0.75422201  1
  Pb  Pb6  1  0.50000002  0.50000002  0.00000000  1
  Pb  Pb7  1  0.50000002  0.50000002  0.50000001  1
