# generated using pymatgen
data_Li3Eu5(OsN3)3
_symmetry_space_group_name_H-M   'P 1'
_cell_length_a   5.14337206
_cell_length_b   6.45722008
_cell_length_c   9.83736324
_cell_angle_alpha   90.00000000
_cell_angle_beta   90.00000000
_cell_angle_gamma   90.00000000
_symmetry_Int_Tables_number   1
_chemical_formula_structural   Li3Eu5(OsN3)3
_chemical_formula_sum   'Li3 Eu5 Os3 N9'
_cell_volume   326.71737993
_cell_formula_units_Z   1
loop_
 _symmetry_equiv_pos_site_id
 _symmetry_equiv_pos_as_xyz
  1  'x, y, z'
loop_
 _atom_site_type_symbol
 _atom_site_label
 _atom_site_symmetry_multiplicity
 _atom_site_fract_x
 _atom_site_fract_y
 _atom_site_fract_z
 _atom_site_occupancy
  Eu  Eu0  1  0.25000000  0.68672699  0.55208299  1
  Eu  Eu1  1  0.74999999  0.31327300  0.44791699  1
  Eu  Eu2  1  0.74999999  0.81327299  0.05208300  1
  Li  Li3  1  0.25000000  0.18672700  0.94791698  1
  Eu  Eu4  1  0.25000000  0.52338599  0.22165399  1
  Eu  Eu5  1  0.74999999  0.47661399  0.77834598  1
  Li  Li6  1  0.74999999  0.97661399  0.72165398  1
  Li  Li7  1  0.25000000  0.02338600  0.27834599  1
  Os  Os8  1  0.25000000  0.72916999  0.86387298  1
  N  N9  1  0.74999999  0.27083000  0.13612700  1
  Os  Os10  1  0.74999999  0.77082999  0.36387299  1
  Os  Os11  1  0.25000000  0.22917000  0.63612698  1
  N  N12  1  0.25000000  0.46594399  0.75789098  1
  N  N13  1  0.74999999  0.53405599  0.24210899  1
  N  N14  1  0.74999999  0.03405600  0.25789099  1
  N  N15  1  0.25000000  0.96594399  0.74210898  1
  N  N16  1  0.25000000  0.82230799  0.05138900  1
  N  N17  1  0.74999999  0.17769200  0.94861098  1
  N  N18  1  0.74999999  0.67769199  0.55138899  1
  N  N19  1  0.25000000  0.32230800  0.44861099  1
