# generated using pymatgen
data_Dy5Ge3
_symmetry_space_group_name_H-M   'P 1'
_cell_length_a   6.38433790
_cell_length_b   8.48770809
_cell_length_c   8.48770714
_cell_angle_alpha   120.00000000
_cell_angle_beta   90.00000000
_cell_angle_gamma   90.00000000
_symmetry_Int_Tables_number   1
_chemical_formula_structural   Dy5Ge3
_chemical_formula_sum   'Dy10 Ge6'
_cell_volume   398.31560153
_cell_formula_units_Z   2
loop_
 _symmetry_equiv_pos_site_id
 _symmetry_equiv_pos_as_xyz
  1  'x, y, z'
loop_
 _atom_site_type_symbol
 _atom_site_label
 _atom_site_symmetry_multiplicity
 _atom_site_fract_x
 _atom_site_fract_y
 _atom_site_fract_z
 _atom_site_occupancy
  Dy  Dy0  1  -0.00000000  0.33333332  0.66666667  1
  Dy  Dy1  1  1.00000002  0.66666664  0.33333331  1
  Dy  Dy2  1  0.50000001  0.66666664  0.33333331  1
  Dy  Dy3  1  0.50000001  0.33333332  0.66666667  1
  Dy  Dy4  1  0.25000000  0.24357699  -0.00000001  1
  Dy  Dy5  1  0.25000000  0.75642297  0.75642298  1
  Dy  Dy6  1  0.25000000  0.99999996  0.24357696  1
  Dy  Dy7  1  0.75000001  0.75642297  -0.00000004  1
  Dy  Dy8  1  0.75000001  0.24357699  0.24357699  1
  Dy  Dy9  1  0.75000001  0.99999996  0.75642297  1
  Ge  Ge10  1  0.25000000  0.60847798  -0.00000003  1
  Ge  Ge11  1  0.25000000  0.39152199  0.39152199  1
  Ge  Ge12  1  0.25000000  0.99999996  0.60847796  1
  Ge  Ge13  1  0.75000001  0.39152199  -0.00000002  1
  Ge  Ge14  1  0.75000001  0.60847798  0.60847798  1
  Ge  Ge15  1  0.75000001  0.99999996  0.39152196  1
