# generated using pymatgen
data_Na(LiSn)2
_symmetry_space_group_name_H-M   'P 1'
_cell_length_a   5.88267517
_cell_length_b   5.88982582
_cell_length_c   8.01599884
_cell_angle_alpha   111.55409241
_cell_angle_beta   90.00000000
_cell_angle_gamma   90.00000000
_symmetry_Int_Tables_number   1
_chemical_formula_structural   Na(LiSn)2
_chemical_formula_sum   'Na2 Li4 Sn4'
_cell_volume   258.31589792
_cell_formula_units_Z   2
loop_
 _symmetry_equiv_pos_site_id
 _symmetry_equiv_pos_as_xyz
  1  'x, y, z'
loop_
 _atom_site_type_symbol
 _atom_site_label
 _atom_site_symmetry_multiplicity
 _atom_site_fract_x
 _atom_site_fract_y
 _atom_site_fract_z
 _atom_site_occupancy
  Na  Na0  1  0.75092198  0.50000002  0.49999999  1
  Na  Na1  1  0.24907799  0.00000000  0.49999998  1
  Li  Li2  1  0.49999999  0.50000002  0.00000001  1
  Li  Li3  1  -0.00000000  0.50000002  0.00000001  1
  Li  Li4  1  0.49999999  0.00000000  -0.00000000  1
  Li  Li5  1  0.00000000  0.00000000  0.00000000  1
  Sn  Sn6  1  0.24285999  0.34531901  0.20554900  1
  Sn  Sn7  1  0.75713998  0.86023004  0.20554901  1
  Sn  Sn8  1  0.75713998  0.13977001  0.79445097  1
  Sn  Sn9  1  0.24285999  0.65468103  0.79445098  1
