# generated using pymatgen
data_RbPb2
_symmetry_space_group_name_H-M   'P 1'
_cell_length_a   5.42580795
_cell_length_b   6.49943781
_cell_length_c   8.75899029
_cell_angle_alpha   90.00000000
_cell_angle_beta   90.00000000
_cell_angle_gamma   114.67092133
_symmetry_Int_Tables_number   1
_chemical_formula_structural   RbPb2
_chemical_formula_sum   'Rb2 Pb4'
_cell_volume   280.68836225
_cell_formula_units_Z   2
loop_
 _symmetry_equiv_pos_site_id
 _symmetry_equiv_pos_as_xyz
  1  'x, y, z'
loop_
 _atom_site_type_symbol
 _atom_site_label
 _atom_site_symmetry_multiplicity
 _atom_site_fract_x
 _atom_site_fract_y
 _atom_site_fract_z
 _atom_site_occupancy
  Rb  Rb0  1  0.51581300  0.03162600  0.54137898  1
  Rb  Rb1  1  0.48418699  0.96837400  0.04137900  1
  Pb  Pb2  1  0.19232200  0.38464400  0.82284897  1
  Pb  Pb3  1  0.80767800  0.61535600  0.32284899  1
  Pb  Pb4  1  0.87946200  0.75892400  0.76077198  1
  Pb  Pb5  1  0.12053800  0.24107600  0.26077199  1
