# generated using pymatgen
data_Ba2SrCaTi4O12
_symmetry_space_group_name_H-M   'P 1'
_cell_length_a   3.98618507
_cell_length_b   3.98661709
_cell_length_c   15.84886742
_cell_angle_alpha   90.00000000
_cell_angle_beta   90.00000000
_cell_angle_gamma   89.98474884
_symmetry_Int_Tables_number   1
_chemical_formula_structural   Ba2SrCaTi4O12
_chemical_formula_sum   'Ba2 Sr1 Ca1 Ti4 O12'
_cell_volume   251.86058024
_cell_formula_units_Z   1
loop_
 _symmetry_equiv_pos_site_id
 _symmetry_equiv_pos_as_xyz
  1  'x, y, z'
loop_
 _atom_site_type_symbol
 _atom_site_label
 _atom_site_symmetry_multiplicity
 _atom_site_fract_x
 _atom_site_fract_y
 _atom_site_fract_z
 _atom_site_occupancy
  Ba  Ba0  1  0.49999898  0.49999999  0.37476899  1
  Ba  Ba1  1  0.50000098  0.49999999  0.87521798  1
  Sr  Sr2  1  0.49999998  0.49999899  0.12484300  1
  Ca  Ca3  1  0.49999898  0.49999999  0.62516098  1
  Ti  Ti4  1  0.99999799  0.00000100  0.50161497  1
  Ti  Ti5  1  0.99999799  0.00000400  0.74837496  1
  Ti  Ti6  1  0.00000197  0.99999899  0.00169502  1
  Ti  Ti7  1  -0.00000000  0.00000100  0.24832799  1
  O  O8  1  -0.00000003  0.99999899  0.12509801  1
  O  O9  1  0.00000100  0.00000000  0.62490698  1
  O  O10  1  -0.00000003  0.99999899  0.37501301  1
  O  O11  1  0.00000000  0.00000000  0.87498598  1
  O  O12  1  0.50000097  0.99999999  0.00545701  1
  O  O13  1  0.50000000  0.00000000  0.50544898  1
  O  O14  1  0.49999997  0.99999899  0.24458500  1
  O  O15  1  0.49999897  0.99999999  0.74450399  1
  O  O16  1  0.00000099  0.49999899  0.00544501  1
  O  O17  1  -0.00000001  0.49999999  0.50546199  1
  O  O18  1  -0.00000001  0.49999999  0.24459700  1
  O  O19  1  -0.00000001  0.50000099  0.74449299  1
