# generated using pymatgen
data_HfAl3Ag
_symmetry_space_group_name_H-M   'P 1'
_cell_length_a   4.33915615
_cell_length_b   5.20561695
_cell_length_c   5.20561695
_cell_angle_alpha   79.99684143
_cell_angle_beta   65.36876678
_cell_angle_gamma   65.36876678
_symmetry_Int_Tables_number   1
_chemical_formula_structural   HfAl3Ag
_chemical_formula_sum   'Hf1 Al3 Ag1'
_cell_volume   97.15968743
_cell_formula_units_Z   1
loop_
 _symmetry_equiv_pos_site_id
 _symmetry_equiv_pos_as_xyz
  1  'x, y, z'
loop_
 _atom_site_type_symbol
 _atom_site_label
 _atom_site_symmetry_multiplicity
 _atom_site_fract_x
 _atom_site_fract_y
 _atom_site_fract_z
 _atom_site_occupancy
  Hf  Hf0  1  0.00000000  0.00000000  0.00000000  1
  Al  Al1  1  0.59329697  0.20703100  0.60637499  1
  Al  Al2  1  0.40670293  0.79296900  0.39362505  1
  Al  Al3  1  0.80032693  0.60637600  0.79296902  1
  Ag  Ag4  1  0.19967296  0.39362400  0.20703103  1
