# generated using pymatgen
data_La2Co2C5
_symmetry_space_group_name_H-M   'P 1'
_cell_length_a   3.91493607
_cell_length_b   3.93980598
_cell_length_c   7.89822817
_cell_angle_alpha   90.00000000
_cell_angle_beta   90.00000000
_cell_angle_gamma   90.00000000
_symmetry_Int_Tables_number   1
_chemical_formula_structural   La2Co2C5
_chemical_formula_sum   'La2 Co2 C5'
_cell_volume   121.82297058
_cell_formula_units_Z   1
loop_
 _symmetry_equiv_pos_site_id
 _symmetry_equiv_pos_as_xyz
  1  'x, y, z'
loop_
 _atom_site_type_symbol
 _atom_site_label
 _atom_site_symmetry_multiplicity
 _atom_site_fract_x
 _atom_site_fract_y
 _atom_site_fract_z
 _atom_site_occupancy
  La  La0  1  0.49999999  0.50000000  0.49669699  1
  La  La1  1  0.49999999  0.50000000  0.99951198  1
  Co  Co2  1  0.00000000  0.00000000  0.24037899  1
  Co  Co3  1  0.00000000  0.00000000  0.75932298  1
  C  C4  1  0.49999999  0.00000000  0.19250400  1
  C  C5  1  0.00000000  0.50000000  0.19441800  1
  C  C6  1  0.49999999  0.00000000  0.81417498  1
  C  C7  1  0.00000000  0.00000000  0.50081099  1
  C  C8  1  0.00000000  0.50000000  0.80218098  1
