# generated using pymatgen
data_Li2CuO4
_symmetry_space_group_name_H-M   'P 1'
_cell_length_a   5.88441801
_cell_length_b   6.07912445
_cell_length_c   5.91299820
_cell_angle_alpha   60.77428436
_cell_angle_beta   89.73603821
_cell_angle_gamma   61.11203766
_symmetry_Int_Tables_number   1
_chemical_formula_structural   Li2CuO4
_chemical_formula_sum   'Li4 Cu2 O8'
_cell_volume   154.04417628
_cell_formula_units_Z   2
loop_
 _symmetry_equiv_pos_site_id
 _symmetry_equiv_pos_as_xyz
  1  'x, y, z'
loop_
 _atom_site_type_symbol
 _atom_site_label
 _atom_site_symmetry_multiplicity
 _atom_site_fract_x
 _atom_site_fract_y
 _atom_site_fract_z
 _atom_site_occupancy
  Li  Li0  1  0.50004099  0.99993099  0.50004701  1
  Li  Li1  1  0.49997499  0.50005600  0.50007802  1
  Li  Li2  1  0.00009800  0.99998999  0.49999300  1
  Li  Li3  1  0.50001299  0.50004800  0.99985202  1
  Cu  Cu4  1  0.87189399  0.75385699  0.12306202  1
  Cu  Cu5  1  0.12809300  0.24633500  0.87682501  1
  O  O6  1  0.25355600  0.52459100  0.73811301  1
  O  O7  1  0.73903099  0.02171200  0.71409303  1
  O  O8  1  0.74027399  0.02038600  0.26555702  1
  O  O9  1  0.28189400  0.50050200  0.25005101  1
  O  O10  1  0.25961299  0.97972799  0.73462401  1
  O  O11  1  0.71830799  0.49928200  0.75006302  1
  O  O12  1  0.74633899  0.47517300  0.26200502  1
  O  O13  1  0.26086699  0.97841299  0.28563701  1
