# generated using pymatgen
data_ZrNi(PRu)2
_symmetry_space_group_name_H-M   'P 1'
_cell_length_a   3.79749107
_cell_length_b   3.79749107
_cell_length_c   6.21707916
_cell_angle_alpha   90.00000000
_cell_angle_beta   90.00000000
_cell_angle_gamma   90.00000000
_symmetry_Int_Tables_number   1
_chemical_formula_structural   ZrNi(PRu)2
_chemical_formula_sum   'Zr1 Ni1 P2 Ru2'
_cell_volume   89.65611597
_cell_formula_units_Z   1
loop_
 _symmetry_equiv_pos_site_id
 _symmetry_equiv_pos_as_xyz
  1  'x, y, z'
loop_
 _atom_site_type_symbol
 _atom_site_label
 _atom_site_symmetry_multiplicity
 _atom_site_fract_x
 _atom_site_fract_y
 _atom_site_fract_z
 _atom_site_occupancy
  Zr  Zr0  1  0.00000000  0.49999999  0.79068398  1
  Ni  Ni1  1  0.49999999  0.00000000  0.20931599  1
  P  P2  1  0.00000000  0.00000000  0.00000000  1
  P  P3  1  0.49999999  0.49999999  0.00000000  1
  Ru  Ru4  1  0.49999999  0.00000000  0.64355298  1
  Ru  Ru5  1  0.00000000  0.49999999  0.35644699  1
