# generated using pymatgen
data_CaAg2
_symmetry_space_group_name_H-M   'P 1'
_cell_length_a   4.86093187
_cell_length_b   4.86093140
_cell_length_c   11.04473877
_cell_angle_alpha   90.00000000
_cell_angle_beta   90.00000000
_cell_angle_gamma   120.00000000
_symmetry_Int_Tables_number   1
_chemical_formula_structural   CaAg2
_chemical_formula_sum   'Ca3 Ag6'
_cell_volume   226.00867349
_cell_formula_units_Z   3
loop_
 _symmetry_equiv_pos_site_id
 _symmetry_equiv_pos_as_xyz
  1  'x, y, z'
loop_
 _atom_site_type_symbol
 _atom_site_label
 _atom_site_symmetry_multiplicity
 _atom_site_fract_x
 _atom_site_fract_y
 _atom_site_fract_z
 _atom_site_occupancy
  Ca  Ca0  1  0.00000000  0.00000000  0.17207500  1
  Ca  Ca1  1  0.00000000  0.00000000  0.50442601  1
  Ca  Ca2  1  0.00000000  0.00000000  0.83684102  1
  Ag  Ag3  1  0.33333329  0.66666665  0.01166100  1
  Ag  Ag4  1  0.66666666  0.33333333  0.31678801  1
  Ag  Ag5  1  0.66666666  0.33333333  0.69499201  1
  Ag  Ag6  1  0.33333329  0.66666665  0.35562301  1
  Ag  Ag7  1  0.33333329  0.66666665  0.65003701  1
  Ag  Ag8  1  0.66666666  0.33333333  0.00155800  1
