# generated using pymatgen
data_Sm2Sn3
_symmetry_space_group_name_H-M   'P 1'
_cell_length_a   4.16576576
_cell_length_b   7.83904696
_cell_length_c   7.83904696
_cell_angle_alpha   90.00000000
_cell_angle_beta   90.00000000
_cell_angle_gamma   90.00000000
_symmetry_Int_Tables_number   1
_chemical_formula_structural   Sm2Sn3
_chemical_formula_sum   'Sm4 Sn6'
_cell_volume   255.98904369
_cell_formula_units_Z   2
loop_
 _symmetry_equiv_pos_site_id
 _symmetry_equiv_pos_as_xyz
  1  'x, y, z'
loop_
 _atom_site_type_symbol
 _atom_site_label
 _atom_site_symmetry_multiplicity
 _atom_site_fract_x
 _atom_site_fract_y
 _atom_site_fract_z
 _atom_site_occupancy
  Sm  Sm0  1  -0.00000000  0.50000000  0.50000000  1
  Sm  Sm1  1  0.00000000  0.00000000  0.00000000  1
  Sm  Sm2  1  0.50000003  0.68121500  0.18121500  1
  Sm  Sm3  1  0.50000003  0.31878500  0.81878500  1
  Sn  Sn4  1  0.50000003  0.18121500  0.31878500  1
  Sn  Sn5  1  0.50000003  0.81878500  0.68121500  1
  Sn  Sn6  1  -0.00000000  0.11253300  0.61253300  1
  Sn  Sn7  1  -0.00000000  0.88746701  0.38746700  1
  Sn  Sn8  1  -0.00000000  0.61253300  0.88746701  1
  Sn  Sn9  1  -0.00000000  0.38746700  0.11253300  1
