# generated using pymatgen
data_TmAl2
_symmetry_space_group_name_H-M   'P 1'
_cell_length_a   5.52877617
_cell_length_b   5.52877569
_cell_length_c   8.68538284
_cell_angle_alpha   90.00000000
_cell_angle_beta   90.00000000
_cell_angle_gamma   120.00000000
_symmetry_Int_Tables_number   1
_chemical_formula_structural   TmAl2
_chemical_formula_sum   'Tm4 Al8'
_cell_volume   229.92043724
_cell_formula_units_Z   4
loop_
 _symmetry_equiv_pos_site_id
 _symmetry_equiv_pos_as_xyz
  1  'x, y, z'
loop_
 _atom_site_type_symbol
 _atom_site_label
 _atom_site_symmetry_multiplicity
 _atom_site_fract_x
 _atom_site_fract_y
 _atom_site_fract_z
 _atom_site_occupancy
  Tm  Tm0  1  0.66666663  0.33333332  0.55861001  1
  Tm  Tm1  1  0.33333329  0.66666664  0.44139001  1
  Tm  Tm2  1  0.33333329  0.66666664  0.05861000  1
  Tm  Tm3  1  0.66666663  0.33333332  0.94139002  1
  Al  Al4  1  0.00000000  0.00000000  0.50000001  1
  Al  Al5  1  0.00000000  0.00000000  0.00000000  1
  Al  Al6  1  0.16971398  0.33942799  0.75000001  1
  Al  Al7  1  0.16971395  0.83028696  0.75000001  1
  Al  Al8  1  0.66057294  0.83028696  0.75000001  1
  Al  Al9  1  0.83028594  0.66057197  0.25000000  1
  Al  Al10  1  0.83028597  0.16971299  0.25000000  1
  Al  Al11  1  0.33942698  0.16971299  0.25000000  1
