# generated using pymatgen
data_Sr3Li2Ca3O4
_symmetry_space_group_name_H-M   'P 1'
_cell_length_a   4.95878792
_cell_length_b   5.36517000
_cell_length_c   9.43815422
_cell_angle_alpha   90.00000000
_cell_angle_beta   90.00000000
_cell_angle_gamma   102.12277222
_symmetry_Int_Tables_number   1
_chemical_formula_structural   Sr3Li2Ca3O4
_chemical_formula_sum   'Sr3 Li2 Ca3 O4'
_cell_volume   245.50008035
_cell_formula_units_Z   1
loop_
 _symmetry_equiv_pos_site_id
 _symmetry_equiv_pos_as_xyz
  1  'x, y, z'
loop_
 _atom_site_type_symbol
 _atom_site_label
 _atom_site_symmetry_multiplicity
 _atom_site_fract_x
 _atom_site_fract_y
 _atom_site_fract_z
 _atom_site_occupancy
  Sr  Sr0  1  0.00347501  0.34637201  0.74999998  1
  Sr  Sr1  1  0.99652504  0.65362801  0.24999999  1
  Sr  Sr2  1  0.27668504  0.89222702  0.74999998  1
  Li  Li3  1  0.72331502  0.10777300  0.24999999  1
  Li  Li4  1  0.61594104  0.95482102  0.59251699  1
  Ca  Ca5  1  0.38405901  0.04517900  0.09251700  1
  Ca  Ca6  1  0.38405901  0.04517900  0.40748299  1
  Ca  Ca7  1  0.61594104  0.95482102  0.90748298  1
  O  O8  1  0.71393003  0.59494301  0.52837199  1
  O  O9  1  0.28607002  0.40505701  0.02837200  1
  O  O10  1  0.28607002  0.40505701  0.47162799  1
  O  O11  1  0.71393003  0.59494301  0.97162798  1
