# generated using pymatgen
data_Li5ScO6
_symmetry_space_group_name_H-M   'P 1'
_cell_length_a   5.56197023
_cell_length_b   5.78593779
_cell_length_c   6.44723940
_cell_angle_alpha   63.33877182
_cell_angle_beta   73.68537140
_cell_angle_gamma   90.00000000
_symmetry_Int_Tables_number   1
_chemical_formula_structural   Li5ScO6
_chemical_formula_sum   'Li5 Sc1 O6'
_cell_volume   176.02130939
_cell_formula_units_Z   1
loop_
 _symmetry_equiv_pos_site_id
 _symmetry_equiv_pos_as_xyz
  1  'x, y, z'
loop_
 _atom_site_type_symbol
 _atom_site_label
 _atom_site_symmetry_multiplicity
 _atom_site_fract_x
 _atom_site_fract_y
 _atom_site_fract_z
 _atom_site_occupancy
  Li  Li0  1  0.24999999  0.10387200  0.00000002  1
  Li  Li1  1  0.74999994  0.89612801  0.00000008  1
  Li  Li2  1  -0.00000002  0.50000001  0.50000001  1
  Li  Li3  1  0.49999999  0.00000000  0.50000002  1
  Li  Li4  1  0.70269896  0.56294401  0.70438305  1
  O  O5  1  0.96947394  0.81665001  0.21155608  1
  O  O6  1  0.46947395  0.97179401  0.21155606  1
  Sc  Sc7  1  0.20269896  0.73267301  0.70438303  1
  O  O8  1  0.79730097  0.26732700  0.29561705  1
  O  O9  1  0.53052598  0.02820600  0.78844402  1
  O  O10  1  0.03052599  0.18335000  0.78844400  1
  O  O11  1  0.29730097  0.43705601  0.29561703  1
