# generated using pymatgen
data_CrCuS2
_symmetry_space_group_name_H-M   'P 1'
_cell_length_a   4.13685989
_cell_length_b   5.60004044
_cell_length_c   6.11016035
_cell_angle_alpha   64.06991577
_cell_angle_beta   73.58531952
_cell_angle_gamma   86.88552094
_symmetry_Int_Tables_number   1
_chemical_formula_structural   CrCuS2
_chemical_formula_sum   'Cr2 Cu2 S4'
_cell_volume   121.71877835
_cell_formula_units_Z   2
loop_
 _symmetry_equiv_pos_site_id
 _symmetry_equiv_pos_as_xyz
  1  'x, y, z'
loop_
 _atom_site_type_symbol
 _atom_site_label
 _atom_site_symmetry_multiplicity
 _atom_site_fract_x
 _atom_site_fract_y
 _atom_site_fract_z
 _atom_site_occupancy
  Cr  Cr0  1  0.72546013  0.72964000  0.52928996  1
  Cr  Cr1  1  0.27454005  0.27036000  0.47070998  1
  Cu  Cu2  1  0.50000002  0.00000000  -0.00000002  1
  Cu  Cu3  1  0.00000006  0.50000000  -0.00000000  1
  S  S4  1  0.32225012  0.83801000  0.80854998  1
  S  S5  1  0.67775005  0.16199000  0.19144997  1
  S  S6  1  0.28100011  0.71846000  0.36008998  1
  S  S7  1  0.71900007  0.28154000  0.63990996  1
