# generated using pymatgen
data_Ba2ZnCu2
_symmetry_space_group_name_H-M   'P 1'
_cell_length_a   6.09743977
_cell_length_b   6.11129570
_cell_length_c   8.41900253
_cell_angle_alpha   101.87551117
_cell_angle_beta   90.00000000
_cell_angle_gamma   119.92502594
_symmetry_Int_Tables_number   1
_chemical_formula_structural   Ba2ZnCu2
_chemical_formula_sum   'Ba4 Zn2 Cu4'
_cell_volume   264.11834623
_cell_formula_units_Z   2
loop_
 _symmetry_equiv_pos_site_id
 _symmetry_equiv_pos_as_xyz
  1  'x, y, z'
loop_
 _atom_site_type_symbol
 _atom_site_label
 _atom_site_symmetry_multiplicity
 _atom_site_fract_x
 _atom_site_fract_y
 _atom_site_fract_z
 _atom_site_occupancy
  Ba  Ba0  1  0.49101398  0.70284298  0.35212904  1
  Ba  Ba1  1  0.78817101  0.29715699  0.14787102  1
  Ba  Ba2  1  0.50898600  0.29715699  0.64787103  1
  Ba  Ba3  1  0.21182896  0.70284298  0.85212906  1
  Zn  Zn4  1  0.13508001  0.00000000  0.25000001  1
  Zn  Zn5  1  0.86492003  0.00000000  0.75000002  1
  Cu  Cu6  1  0.26986699  0.26747199  0.00302901  1
  Cu  Cu7  1  0.00239495  0.73252798  0.49697105  1
  Cu  Cu8  1  0.73013298  0.73252798  0.99697106  1
  Cu  Cu9  1  0.99760502  0.26747199  0.50302903  1
