# generated using pymatgen
data_US
_symmetry_space_group_name_H-M   'P 1'
_cell_length_a   4.07857466
_cell_length_b   4.07857466
_cell_length_c   7.02877045
_cell_angle_alpha   73.13399506
_cell_angle_beta   73.13399506
_cell_angle_gamma   59.99998856
_symmetry_Int_Tables_number   1
_chemical_formula_structural   US
_chemical_formula_sum   'U2 S2'
_cell_volume   95.40589683
_cell_formula_units_Z   2
loop_
 _symmetry_equiv_pos_site_id
 _symmetry_equiv_pos_as_xyz
  1  'x, y, z'
loop_
 _atom_site_type_symbol
 _atom_site_label
 _atom_site_symmetry_multiplicity
 _atom_site_fract_x
 _atom_site_fract_y
 _atom_site_fract_z
 _atom_site_occupancy
  U  U0  1  0.00000000  0.00000000  0.00000000  1
  U  U1  1  0.50000004  0.50000001  0.49999996  1
  S  S2  1  0.25872202  0.25872201  0.22383398  1
  S  S3  1  0.74127805  0.74127802  0.77616594  1
