# generated using pymatgen
data_EuS
_symmetry_space_group_name_H-M   'P 1'
_cell_length_a   7.20690298
_cell_length_b   7.20690298
_cell_length_c   7.65355492
_cell_angle_alpha   87.47129059
_cell_angle_beta   87.47129059
_cell_angle_gamma   76.15618896
_symmetry_Int_Tables_number   1
_chemical_formula_structural   EuS
_chemical_formula_sum   'Eu5 S5'
_cell_volume   385.36733707
_cell_formula_units_Z   5
loop_
 _symmetry_equiv_pos_site_id
 _symmetry_equiv_pos_as_xyz
  1  'x, y, z'
loop_
 _atom_site_type_symbol
 _atom_site_label
 _atom_site_symmetry_multiplicity
 _atom_site_fract_x
 _atom_site_fract_y
 _atom_site_fract_z
 _atom_site_occupancy
  Eu  Eu0  1  0.19595800  0.19595800  0.55775299  1
  Eu  Eu1  1  0.80404199  0.80404199  0.44224693  1
  Eu  Eu2  1  0.44973199  0.83156599  0.65121595  1
  Eu  Eu3  1  0.16843400  0.55026799  0.34878397  1
  S  S4  1  0.05014600  0.05014600  0.26801100  1
  Eu  Eu5  1  0.94985399  0.94985399  0.73198892  1
  S  S6  1  0.67718299  0.67718299  0.16082693  1
  S  S7  1  0.32281700  0.32281700  0.83917299  1
  S  S8  1  0.83156599  0.44973199  0.65121595  1
  S  S9  1  0.55026799  0.16843400  0.34878397  1
