# generated using pymatgen
data_Ta7TeS12
_symmetry_space_group_name_H-M   'P 1'
_cell_length_a   5.96677017
_cell_length_b   5.99011803
_cell_length_c   11.81159019
_cell_angle_alpha   104.63219452
_cell_angle_beta   90.00000000
_cell_angle_gamma   119.87114716
_symmetry_Int_Tables_number   1
_chemical_formula_structural   Ta7TeS12
_chemical_formula_sum   'Ta7 Te1 S12'
_cell_volume   350.20218032
_cell_formula_units_Z   1
loop_
 _symmetry_equiv_pos_site_id
 _symmetry_equiv_pos_as_xyz
  1  'x, y, z'
loop_
 _atom_site_type_symbol
 _atom_site_label
 _atom_site_symmetry_multiplicity
 _atom_site_fract_x
 _atom_site_fract_y
 _atom_site_fract_z
 _atom_site_occupancy
  Ta  Ta0  1  0.46070200  0.75404001  0.38023698  1
  Ta  Ta1  1  0.12697900  0.08965300  0.38249899  1
  Ta  Ta2  1  0.87302099  0.91034702  0.61750097  1
  Ta  Ta3  1  0.53929799  0.24596000  0.61976298  1
  Ta  Ta4  1  0.29333800  0.75404001  0.88023696  1
  Ta  Ta5  1  0.96267397  0.08965300  0.88249897  1
  Ta  Ta6  1  0.70666198  0.24596000  0.11976299  1
  Te  Te7  1  0.03732601  0.91034702  0.11750098  1
  S  S8  1  0.24621600  0.32953001  0.74837197  1
  S  S9  1  0.58567398  0.00000000  0.74999998  1
  S  S10  1  0.91668598  0.67047001  0.75162797  1
  S  S11  1  0.41432599  0.00000000  0.24999999  1
  S  S12  1  0.75378399  0.67047001  0.25162798  1
  S  S13  1  0.08331400  0.32953001  0.24837199  1
  S  S14  1  0.49999999  0.50000001  0.49999998  1
  S  S15  1  0.83840598  0.17983600  0.49972598  1
  S  S16  1  0.16159401  0.82016401  0.50027397  1
  S  S17  1  0.65856999  0.82016401  0.00027399  1
  S  S18  1  0.99999998  0.50000001  -0.00000001  1
  S  S19  1  0.34142999  0.17983600  0.99972596  1
