# generated using pymatgen
data_Ti5Ge9
_symmetry_space_group_name_H-M   'P 1'
_cell_length_a   2.70190811
_cell_length_b   8.84707355
_cell_length_c   8.84707355
_cell_angle_alpha   90.00000000
_cell_angle_beta   90.00000000
_cell_angle_gamma   90.00000000
_symmetry_Int_Tables_number   1
_chemical_formula_structural   Ti5Ge9
_chemical_formula_sum   'Ti5 Ge9'
_cell_volume   211.48026756
_cell_formula_units_Z   1
loop_
 _symmetry_equiv_pos_site_id
 _symmetry_equiv_pos_as_xyz
  1  'x, y, z'
loop_
 _atom_site_type_symbol
 _atom_site_label
 _atom_site_symmetry_multiplicity
 _atom_site_fract_x
 _atom_site_fract_y
 _atom_site_fract_z
 _atom_site_occupancy
  Ti  Ti0  1  0.49999998  0.67865103  0.17865101  1
  Ti  Ti1  1  0.49999998  0.32134902  0.82134904  1
  Ti  Ti2  1  0.49999998  0.17865101  0.32134902  1
  Ti  Ti3  1  0.49999998  0.82134904  0.67865103  1
  Ge  Ge4  1  -0.00000000  0.50000003  -0.00000000  1
  Ti  Ti5  1  0.00000000  0.00000000  0.50000003  1
  Ge  Ge6  1  0.00000000  0.56478503  0.70687004  1
  Ge  Ge7  1  0.00000000  0.43521502  0.29313001  1
  Ge  Ge8  1  0.00000000  0.06478500  0.79313004  1
  Ge  Ge9  1  -0.00000000  0.93521505  0.20687001  1
  Ge  Ge10  1  0.00000000  0.29313001  0.56478503  1
  Ge  Ge11  1  -0.00000000  0.70687004  0.43521502  1
  Ge  Ge12  1  -0.00000000  0.20687001  0.06478500  1
  Ge  Ge13  1  -0.00000000  0.79313004  0.93521505  1
