# generated using pymatgen
data_Zr(TiAl3)3
_symmetry_space_group_name_H-M   'P 1'
_cell_length_a   5.04994488
_cell_length_b   6.70973635
_cell_length_c   6.70973682
_cell_angle_alpha   81.85881805
_cell_angle_beta   67.89440155
_cell_angle_gamma   67.89440918
_symmetry_Int_Tables_number   1
_chemical_formula_structural   Zr(TiAl3)3
_chemical_formula_sum   'Zr1 Ti3 Al9'
_cell_volume   195.15551260
_cell_formula_units_Z   1
loop_
 _symmetry_equiv_pos_site_id
 _symmetry_equiv_pos_as_xyz
  1  'x, y, z'
loop_
 _atom_site_type_symbol
 _atom_site_label
 _atom_site_symmetry_multiplicity
 _atom_site_fract_x
 _atom_site_fract_y
 _atom_site_fract_z
 _atom_site_occupancy
  Zr  Zr0  1  0.00000000  0.00000000  0.00000000  1
  Ti  Ti1  1  0.34206099  0.65793901  0.65793897  1
  Ti  Ti2  1  0.65793901  0.34206100  0.34206097  1
  Ti  Ti3  1  -0.00000003  0.65793901  0.34206098  1
  Al  Al4  1  -0.00000001  0.34206100  0.65793898  1
  Al  Al5  1  0.27667700  0.22332300  0.22332298  1
  Al  Al6  1  0.72332300  0.77667701  0.77667695  1
  Al  Al7  1  0.50000001  0.22332300  0.77667697  1
  Al  Al8  1  0.49999999  0.77667701  0.22332297  1
  Al  Al9  1  0.50000002  0.00000000  0.49999998  1
  Al  Al10  1  0.00000000  0.00000000  0.49999999  1
  Al  Al11  1  0.50000000  0.50000000  -0.00000002  1
  Al  Al12  1  1.00000002  0.50000000  -0.00000003  1
