# generated using pymatgen
data_Ta6SbTeS7
_symmetry_space_group_name_H-M   'P 1'
_cell_length_a   6.96426296
_cell_length_b   6.96426296
_cell_length_c   6.96426392
_cell_angle_alpha   88.76341248
_cell_angle_beta   88.76341248
_cell_angle_gamma   88.76342010
_symmetry_Int_Tables_number   1
_chemical_formula_structural   Ta6SbTeS7
_chemical_formula_sum   'Ta6 Sb1 Te1 S7'
_cell_volume   337.54082330
_cell_formula_units_Z   1
loop_
 _symmetry_equiv_pos_site_id
 _symmetry_equiv_pos_as_xyz
  1  'x, y, z'
loop_
 _atom_site_type_symbol
 _atom_site_label
 _atom_site_symmetry_multiplicity
 _atom_site_fract_x
 _atom_site_fract_y
 _atom_site_fract_z
 _atom_site_occupancy
  Ta  Ta0  1  0.00000000  0.00000000  0.00000000  1
  Ta  Ta1  1  0.42079402  0.24324001  0.56224000  1
  Ta  Ta2  1  0.24324001  0.56224002  0.42079400  1
  Ta  Ta3  1  0.56224002  0.42079401  0.24324001  1
  Ta  Ta4  1  0.57920603  0.75676002  0.43776001  1
  Ta  Ta5  1  0.75676003  0.43776001  0.57920600  1
  Te  Te6  1  0.43776002  0.57920602  0.75676000  1
  Sb  Sb7  1  0.24725101  0.24725101  0.24725100  1
  S  S8  1  0.75274903  0.75274902  0.75274900  1
  S  S9  1  0.39041402  0.74055002  0.12130502  1
  S  S10  1  0.74055003  0.12130500  0.39041400  1
  S  S11  1  0.12130501  0.39041401  0.74054999  1
  S  S12  1  0.60958602  0.25945001  0.87869499  1
  S  S13  1  0.25945002  0.87869503  0.60958600  1
  S  S14  1  0.87869504  0.60958602  0.25945002  1
