# generated using pymatgen
data_Eu5Cd2Sb5
_symmetry_space_group_name_H-M   'P 1'
_cell_length_a   4.52349997
_cell_length_b   4.52349997
_cell_length_c   18.81717682
_cell_angle_alpha   90.00000000
_cell_angle_beta   90.00000000
_cell_angle_gamma   90.00000000
_symmetry_Int_Tables_number   1
_chemical_formula_structural   Eu5Cd2Sb5
_chemical_formula_sum   'Eu5 Cd2 Sb5'
_cell_volume   385.03804942
_cell_formula_units_Z   1
loop_
 _symmetry_equiv_pos_site_id
 _symmetry_equiv_pos_as_xyz
  1  'x, y, z'
loop_
 _atom_site_type_symbol
 _atom_site_label
 _atom_site_symmetry_multiplicity
 _atom_site_fract_x
 _atom_site_fract_y
 _atom_site_fract_z
 _atom_site_occupancy
  Eu  Eu0  1  0.50000000  0.00000000  0.13889999  1
  Eu  Eu1  1  0.50000000  0.00000000  0.63663597  1
  Eu  Eu2  1  -0.00000000  0.50000000  0.36336398  1
  Eu  Eu3  1  -0.00000000  0.50000000  0.86109996  1
  Eu  Eu4  1  0.50000000  0.50000000  0.00000000  1
  Cd  Cd5  1  0.50000000  0.00000000  0.31715099  1
  Cd  Cd6  1  0.50000000  0.00000000  0.81577896  1
  Sb  Sb7  1  -0.00000000  0.50000000  0.18422099  1
  Sb  Sb8  1  -0.00000000  0.50000000  0.68284897  1
  Sb  Sb9  1  0.50000000  0.50000000  0.49999998  1
  Sb  Sb10  1  0.00000000  0.00000000  0.49999998  1
  Sb  Sb11  1  0.00000000  0.00000000  0.00000000  1
