# generated using pymatgen
data_Ba3WO10
_symmetry_space_group_name_H-M   'P 1'
_cell_length_a   6.26139736
_cell_length_b   6.26139736
_cell_length_c   6.87600946
_cell_angle_alpha   75.76437378
_cell_angle_beta   75.76437378
_cell_angle_gamma   70.65583801
_symmetry_Int_Tables_number   1
_chemical_formula_structural   Ba3WO10
_chemical_formula_sum   'Ba3 W1 O10'
_cell_volume   242.52681352
_cell_formula_units_Z   1
loop_
 _symmetry_equiv_pos_site_id
 _symmetry_equiv_pos_as_xyz
  1  'x, y, z'
loop_
 _atom_site_type_symbol
 _atom_site_label
 _atom_site_symmetry_multiplicity
 _atom_site_fract_x
 _atom_site_fract_y
 _atom_site_fract_z
 _atom_site_occupancy
  Ba  Ba0  1  0.22167999  0.22168001  0.88725996  1
  Ba  Ba1  1  0.77831998  0.77832002  0.11273995  1
  Ba  Ba2  1  0.63777098  0.63777102  0.73094694  1
  W  W3  1  0.36222899  0.36222901  0.26905297  1
  O  O4  1  0.01035300  0.01035300  0.23160699  1
  O  O5  1  0.98964697  0.98964703  0.76839292  1
  O  O6  1  0.29350799  0.29350801  0.53795597  1
  O  O7  1  0.70649198  0.70649202  0.46204394  1
  O  O8  1  0.10625198  0.49215801  0.15370798  1
  O  O9  1  0.54503798  0.54503801  0.19963296  1
  O  O10  1  0.50784197  0.89374802  0.84629193  1
  O  O11  1  0.49215800  0.10625200  0.15370798  1
  O  O12  1  0.45496199  0.45496201  0.80036695  1
  O  O13  1  0.89374799  0.50784201  0.84629193  1
