# generated using pymatgen
data_HoIn3
_symmetry_space_group_name_H-M   'P 1'
_cell_length_a   5.34469604
_cell_length_b   6.83172989
_cell_length_c   6.83173037
_cell_angle_alpha   60.00000000
_cell_angle_beta   90.00000000
_cell_angle_gamma   90.00000000
_symmetry_Int_Tables_number   1
_chemical_formula_structural   HoIn3
_chemical_formula_sum   'Ho2 In6'
_cell_volume   216.03048853
_cell_formula_units_Z   2
loop_
 _symmetry_equiv_pos_site_id
 _symmetry_equiv_pos_as_xyz
  1  'x, y, z'
loop_
 _atom_site_type_symbol
 _atom_site_label
 _atom_site_symmetry_multiplicity
 _atom_site_fract_x
 _atom_site_fract_y
 _atom_site_fract_z
 _atom_site_occupancy
  Ho  Ho0  1  0.74999999  0.66666668  0.66666664  1
  Ho  Ho1  1  0.25000000  0.33333334  0.33333332  1
  In  In2  1  0.74999999  0.68149102  0.15925398  1
  In  In3  1  0.74999999  0.15925500  0.68148998  1
  In  In4  1  0.74999999  0.15925500  0.15925399  1
  In  In5  1  0.25000000  0.84074502  0.84074596  1
  In  In6  1  0.25000000  0.84074502  0.31850997  1
  In  In7  1  0.25000000  0.31850901  0.84074598  1
