# generated using pymatgen
data_VO2
_symmetry_space_group_name_H-M   'P 1'
_cell_length_a   3.19117785
_cell_length_b   4.66514635
_cell_length_c   4.66514635
_cell_angle_alpha   86.68630219
_cell_angle_beta   87.21933746
_cell_angle_gamma   87.21933746
_symmetry_Int_Tables_number   1
_chemical_formula_structural   VO2
_chemical_formula_sum   'V2 O4'
_cell_volume   69.18093216
_cell_formula_units_Z   2
loop_
 _symmetry_equiv_pos_site_id
 _symmetry_equiv_pos_as_xyz
  1  'x, y, z'
loop_
 _atom_site_type_symbol
 _atom_site_label
 _atom_site_symmetry_multiplicity
 _atom_site_fract_x
 _atom_site_fract_y
 _atom_site_fract_z
 _atom_site_occupancy
  V  V0  1  0.99999999  0.50000000  0.50000001  1
  V  V1  1  0.50000001  0.00000000  -0.00000001  1
  O  O2  1  0.49999997  0.70873000  0.29127004  1
  O  O3  1  0.49999999  0.29127000  0.70873001  1
  O  O4  1  0.96376497  0.80642401  0.80642404  1
  O  O5  1  0.03623499  0.19357600  0.19357601  1
