# generated using pymatgen
data_CaTiO3
_symmetry_space_group_name_H-M   'P 1'
_cell_length_a   5.61676598
_cell_length_b   5.74626398
_cell_length_c   7.80758858
_cell_angle_alpha   90.00000000
_cell_angle_beta   89.68681335
_cell_angle_gamma   90.00000000
_symmetry_Int_Tables_number   1
_chemical_formula_structural   CaTiO3
_chemical_formula_sum   'Ca4 Ti4 O12'
_cell_volume   251.98943605
_cell_formula_units_Z   4
loop_
 _symmetry_equiv_pos_site_id
 _symmetry_equiv_pos_as_xyz
  1  'x, y, z'
loop_
 _atom_site_type_symbol
 _atom_site_label
 _atom_site_symmetry_multiplicity
 _atom_site_fract_x
 _atom_site_fract_y
 _atom_site_fract_z
 _atom_site_occupancy
  Ca  Ca0  1  0.48839100  0.54706000  0.25100000  1
  Ca  Ca1  1  0.01160900  0.04706000  0.24900000  1
  Ca  Ca2  1  0.51160900  0.45294000  0.74900000  1
  Ca  Ca3  1  0.98839100  0.95294000  0.75099999  1
  Ti  Ti4  1  0.00000000  0.50000000  0.50000000  1
  Ti  Ti5  1  0.50000000  1.00000000  1.00000000  1
  Ti  Ti6  1  0.00000000  0.50000000  -0.00000000  1
  Ti  Ti7  1  0.50000000  1.00000000  0.50000000  1
  O  O8  1  0.58798000  0.97506700  0.24583899  1
  O  O9  1  0.91202000  0.47506700  0.25416099  1
  O  O10  1  0.41202000  0.02493300  0.75416100  1
  O  O11  1  0.08798000  0.52493300  0.74583900  1
  O  O12  1  0.22325100  0.79947700  0.04660300  1
  O  O13  1  0.27674900  0.29947700  0.45339700  1
  O  O14  1  0.79972000  0.22230800  0.54907099  1
  O  O15  1  0.70028000  0.72230800  0.95092900  1
  O  O16  1  0.77674900  0.20052300  0.95339700  1
  O  O17  1  0.72325100  0.70052300  0.54660299  1
  O  O18  1  0.20028000  0.77769200  0.45092900  1
  O  O19  1  0.29972000  0.27769200  0.04907100  1
