# generated using pymatgen
data_TmAl2
_symmetry_space_group_name_H-M   'P 1'
_cell_length_a   5.55028200
_cell_length_b   5.55028200
_cell_length_c   9.00001144
_cell_angle_alpha   90.00000000
_cell_angle_beta   90.00000000
_cell_angle_gamma   120.00000000
_symmetry_Int_Tables_number   1
_chemical_formula_structural   TmAl2
_chemical_formula_sum   'Tm4 Al8'
_cell_volume   240.10643106
_cell_formula_units_Z   4
loop_
 _symmetry_equiv_pos_site_id
 _symmetry_equiv_pos_as_xyz
  1  'x, y, z'
loop_
 _atom_site_type_symbol
 _atom_site_label
 _atom_site_symmetry_multiplicity
 _atom_site_fract_x
 _atom_site_fract_y
 _atom_site_fract_z
 _atom_site_occupancy
  Tm  Tm0  1  0.66666666  0.33333332  0.56126097  1
  Tm  Tm1  1  0.33333332  0.66666664  0.43873898  1
  Tm  Tm2  1  0.33333332  0.66666664  0.06126100  1
  Tm  Tm3  1  0.66666666  0.33333332  0.93873895  1
  Al  Al4  1  0.00000000  0.00000000  0.49999998  1
  Al  Al5  1  0.00000000  0.00000000  0.00000000  1
  Al  Al6  1  0.16999999  0.33999999  0.74999996  1
  Al  Al7  1  0.16999998  0.82999996  0.74999996  1
  Al  Al8  1  0.65999998  0.82999996  0.74999996  1
  Al  Al9  1  0.82999999  0.65999997  0.24999999  1
  Al  Al10  1  0.83000000  0.16999999  0.24999999  1
  Al  Al11  1  0.34000000  0.16999999  0.24999999  1
