# generated using pymatgen
data_LiEuP3H
_symmetry_space_group_name_H-M   'P 1'
_cell_length_a   3.98336005
_cell_length_b   3.98336005
_cell_length_c   6.60895395
_cell_angle_alpha   90.00000000
_cell_angle_beta   90.00000000
_cell_angle_gamma   120.00000000
_symmetry_Int_Tables_number   1
_chemical_formula_structural   LiEuP3H
_chemical_formula_sum   'Li1 Eu1 P3 H1'
_cell_volume   90.81602416
_cell_formula_units_Z   1
loop_
 _symmetry_equiv_pos_site_id
 _symmetry_equiv_pos_as_xyz
  1  'x, y, z'
loop_
 _atom_site_type_symbol
 _atom_site_label
 _atom_site_symmetry_multiplicity
 _atom_site_fract_x
 _atom_site_fract_y
 _atom_site_fract_z
 _atom_site_occupancy
  Li  Li0  1  0.00000000  0.00000000  0.50000000  1
  Eu  Eu1  1  0.00000000  0.00000000  0.00000000  1
  P  P2  1  0.66666666  0.33333333  0.33578800  1
  P  P3  1  0.33333333  0.66666667  0.66421200  1
  H  H4  1  0.66666666  0.33333333  0.72763501  1
  P  P5  1  0.33333333  0.66666667  0.27236500  1
