# generated using pymatgen
data_H2
_symmetry_space_group_name_H-M   'P 1'
_cell_length_a   5.00159025
_cell_length_b   5.00159025
_cell_length_c   5.00159025
_cell_angle_alpha   89.89952087
_cell_angle_beta   60.05799484
_cell_angle_gamma   119.94200897
_symmetry_Int_Tables_number   1
_chemical_formula_structural   H2
_chemical_formula_sum   H6
_cell_volume   88.55011238
_cell_formula_units_Z   3
loop_
 _symmetry_equiv_pos_site_id
 _symmetry_equiv_pos_as_xyz
  1  'x, y, z'
loop_
 _atom_site_type_symbol
 _atom_site_label
 _atom_site_symmetry_multiplicity
 _atom_site_fract_x
 _atom_site_fract_y
 _atom_site_fract_z
 _atom_site_occupancy
  H  H0  1  0.00000005  0.50000003  0.49999998  1
  H  H1  1  0.00000000  0.00000000  0.00000000  1
  H  H2  1  0.66457308  0.70980505  0.29019497  1
  H  H3  1  0.33542701  0.04523200  0.95476802  1
  H  H4  1  0.00000010  0.95476806  0.70980495  1
  H  H5  1  0.00000003  0.29019502  0.04523198  1
