# generated using pymatgen
data_Li2Zn5Pt
_symmetry_space_group_name_H-M   'P 1'
_cell_length_a   5.57122087
_cell_length_b   5.57122087
_cell_length_c   5.57122087
_cell_angle_alpha   60.00000000
_cell_angle_beta   60.00000000
_cell_angle_gamma   60.00000000
_symmetry_Int_Tables_number   1
_chemical_formula_structural   Li2Zn5Pt
_chemical_formula_sum   'Li2 Zn5 Pt1'
_cell_volume   122.27456663
_cell_formula_units_Z   1
loop_
 _symmetry_equiv_pos_site_id
 _symmetry_equiv_pos_as_xyz
  1  'x, y, z'
loop_
 _atom_site_type_symbol
 _atom_site_label
 _atom_site_symmetry_multiplicity
 _atom_site_fract_x
 _atom_site_fract_y
 _atom_site_fract_z
 _atom_site_occupancy
  Li  Li0  1  0.49999999  0.49999999  0.49999999  1
  Li  Li1  1  0.00000000  0.00000000  0.00000000  1
  Zn  Zn2  1  0.49999999  0.00000000  0.99999998  1
  Zn  Zn3  1  0.49999999  0.00000000  0.49999999  1
  Zn  Zn4  1  -0.00000000  0.49999999  0.00000000  1
  Zn  Zn5  1  -0.00000000  0.49999999  0.49999999  1
  Zn  Zn6  1  0.49999999  0.49999999  -0.00000000  1
  Pt  Pt7  1  -0.00000000  0.00000000  0.49999999  1
