# generated using pymatgen
data_Hf5CuSn3
_symmetry_space_group_name_H-M   'P 1'
_cell_length_a   5.82988501
_cell_length_b   8.58799362
_cell_length_c   8.58799362
_cell_angle_alpha   120.00000000
_cell_angle_beta   90.00000000
_cell_angle_gamma   90.00000000
_symmetry_Int_Tables_number   1
_chemical_formula_structural   Hf5CuSn3
_chemical_formula_sum   'Hf10 Cu2 Sn6'
_cell_volume   372.36945278
_cell_formula_units_Z   2
loop_
 _symmetry_equiv_pos_site_id
 _symmetry_equiv_pos_as_xyz
  1  'x, y, z'
loop_
 _atom_site_type_symbol
 _atom_site_label
 _atom_site_symmetry_multiplicity
 _atom_site_fract_x
 _atom_site_fract_y
 _atom_site_fract_z
 _atom_site_occupancy
  Hf  Hf0  1  -0.00000000  0.66666667  0.33333327  1
  Hf  Hf1  1  0.50000000  0.33333334  0.66666661  1
  Hf  Hf2  1  -0.00000000  0.33333334  0.66666661  1
  Hf  Hf3  1  0.50000000  0.66666667  0.33333327  1
  Hf  Hf4  1  0.75000000  0.73739501  0.73739491  1
  Hf  Hf5  1  0.25000000  0.73739501  0.99999990  1
  Hf  Hf6  1  0.25000000  1.00000001  0.73739490  1
  Hf  Hf7  1  0.75000000  1.00000001  0.26260492  1
  Hf  Hf8  1  0.75000000  0.26260500  0.99999993  1
  Hf  Hf9  1  0.25000000  0.26260500  0.26260497  1
  Cu  Cu10  1  0.00000000  0.00000000  0.00000000  1
  Cu  Cu11  1  0.50000000  0.00000000  -0.00000000  1
  Sn  Sn12  1  0.75000000  0.38739600  0.38739595  1
  Sn  Sn13  1  0.25000000  0.38739600  -0.00000003  1
  Sn  Sn14  1  0.25000000  1.00000001  0.38739591  1
  Sn  Sn15  1  0.75000000  1.00000001  0.61260390  1
  Sn  Sn16  1  0.75000000  0.61260401  -0.00000004  1
  Sn  Sn17  1  0.25000000  0.61260401  0.61260393  1
