# generated using pymatgen
data_Li6AlSiP9
_symmetry_space_group_name_H-M   'P 1'
_cell_length_a   3.93259501
_cell_length_b   6.87375212
_cell_length_c   9.67567348
_cell_angle_alpha   89.95646667
_cell_angle_beta   90.00000000
_cell_angle_gamma   90.00000000
_symmetry_Int_Tables_number   1
_chemical_formula_structural   Li6AlSiP9
_chemical_formula_sum   'Li6 Al1 Si1 P9'
_cell_volume   261.54966593
_cell_formula_units_Z   1
loop_
 _symmetry_equiv_pos_site_id
 _symmetry_equiv_pos_as_xyz
  1  'x, y, z'
loop_
 _atom_site_type_symbol
 _atom_site_label
 _atom_site_symmetry_multiplicity
 _atom_site_fract_x
 _atom_site_fract_y
 _atom_site_fract_z
 _atom_site_occupancy
  Li  Li0  1  0.50000000  0.16974800  0.65586501  1
  Li  Li1  1  0.50000000  0.51547299  0.00021098  1
  Li  Li2  1  0.00000000  0.98716898  0.00628796  1
  Li  Li3  1  0.00000000  0.66180799  0.67267999  1
  Li  Li4  1  0.00000000  0.33213099  0.32855600  1
  Li  Li5  1  0.50000000  0.83313199  0.33559498  1
  Si  Si6  1  0.50000000  0.16692800  0.41311101  1
  Al  Al7  1  0.00000000  0.66845499  0.91795900  1
  P  P8  1  0.50000000  0.48358699  0.75854600  1
  P  P9  1  0.00000000  0.33791499  0.57603800  1
  P  P10  1  0.00000000  0.01967700  0.76778702  1
  P  P11  1  0.50000000  0.82869099  0.58907198  1
  P  P12  1  0.00000000  0.66603999  0.41759899  1
  P  P13  1  0.50000000  0.50287499  0.24531599  1
  P  P14  1  0.00000000  0.31396599  0.06569299  1
  P  P15  1  0.00000000  0.99691798  0.25483297  1
  P  P16  1  0.50000000  0.84881899  0.07818497  1
