# generated using pymatgen
data_Sc(VGe)6
_symmetry_space_group_name_H-M   'P 1'
_cell_length_a   5.16699982
_cell_length_b   5.16700077
_cell_length_c   8.13119602
_cell_angle_alpha   90.00000000
_cell_angle_beta   90.00000000
_cell_angle_gamma   119.99999237
_symmetry_Int_Tables_number   1
_chemical_formula_structural   Sc(VGe)6
_chemical_formula_sum   'Sc1 V6 Ge6'
_cell_volume   188.00182644
_cell_formula_units_Z   1
loop_
 _symmetry_equiv_pos_site_id
 _symmetry_equiv_pos_as_xyz
  1  'x, y, z'
loop_
 _atom_site_type_symbol
 _atom_site_label
 _atom_site_symmetry_multiplicity
 _atom_site_fract_x
 _atom_site_fract_y
 _atom_site_fract_z
 _atom_site_occupancy
  Sc  Sc0  1  0.00000000  0.00000000  0.00000000  1
  V  V1  1  -0.00000004  0.49999997  0.25040100  1
  V  V2  1  0.49999998  0.49999997  0.74959900  1
  V  V3  1  0.50000002  0.00000000  0.74959900  1
  V  V4  1  -0.00000004  0.49999997  0.74959900  1
  V  V5  1  0.49999998  0.49999997  0.25040100  1
  V  V6  1  0.50000002  0.00000000  0.25040100  1
  Ge  Ge7  1  0.00000000  0.00000000  0.34333700  1
  Ge  Ge8  1  0.66666667  0.33333331  0.50000000  1
  Ge  Ge9  1  0.33333330  0.66666663  0.50000000  1
  Ge  Ge10  1  0.66666667  0.33333331  -0.00000000  1
  Ge  Ge11  1  0.33333330  0.66666663  -0.00000000  1
  Ge  Ge12  1  0.00000000  0.00000000  0.65666300  1
