# generated using pymatgen
data_LiCoO3
_symmetry_space_group_name_H-M   'P 1'
_cell_length_a   5.84011984
_cell_length_b   6.96085978
_cell_length_c   6.96085978
_cell_angle_alpha   83.13341522
_cell_angle_beta   74.16035461
_cell_angle_gamma   74.16035461
_symmetry_Int_Tables_number   1
_chemical_formula_structural   LiCoO3
_chemical_formula_sum   'Li4 Co4 O12'
_cell_volume   261.58261399
_cell_formula_units_Z   4
loop_
 _symmetry_equiv_pos_site_id
 _symmetry_equiv_pos_as_xyz
  1  'x, y, z'
loop_
 _atom_site_type_symbol
 _atom_site_label
 _atom_site_symmetry_multiplicity
 _atom_site_fract_x
 _atom_site_fract_y
 _atom_site_fract_z
 _atom_site_occupancy
  Li  Li0  1  0.50000008  0.90023699  0.09976296  1
  Li  Li1  1  0.00000007  0.75492799  0.24507194  1
  Li  Li2  1  0.50000002  0.23761600  0.76238401  1
  Li  Li3  1  0.00000001  0.08541100  0.91458899  1
  Co  Co4  1  0.47852404  0.39292099  0.20135600  1
  Co  Co5  1  0.97809802  0.19725500  0.39009504  1
  Co  Co6  1  0.52147607  0.79864399  0.60707897  1
  Co  Co7  1  0.02190206  0.60990499  0.80274495  1
  O  O8  1  0.60385102  0.22235300  0.01587102  1
  O  O9  1  0.41913806  0.62897199  0.10306698  1
  O  O10  1  0.08678700  0.02011100  0.20927200  1
  O  O11  1  0.68709703  0.36232199  0.35696701  1
  O  O12  1  0.58086208  0.89693299  0.37102796  1
  O  O13  1  0.19090803  0.35718199  0.35312798  1
  O  O14  1  0.31290306  0.64303299  0.63767797  1
  O  O15  1  0.91214501  0.10309500  0.63264704  1
  O  O16  1  0.80909206  0.64687199  0.64281799  1
  O  O17  1  0.39614909  0.98412898  0.77764695  1
  O  O18  1  0.08785503  0.36735299  0.89690497  1
  O  O19  1  0.91321307  0.79072799  0.97988899  1
