# generated using pymatgen
data_La3Bi2
_symmetry_space_group_name_H-M   'P 1'
_cell_length_a   3.25486875
_cell_length_b   3.25486875
_cell_length_c   14.89369774
_cell_angle_alpha   89.74221039
_cell_angle_beta   89.74221039
_cell_angle_gamma   66.20932007
_symmetry_Int_Tables_number   1
_chemical_formula_structural   La3Bi2
_chemical_formula_sum   'La3 Bi2'
_cell_volume   144.37644140
_cell_formula_units_Z   1
loop_
 _symmetry_equiv_pos_site_id
 _symmetry_equiv_pos_as_xyz
  1  'x, y, z'
loop_
 _atom_site_type_symbol
 _atom_site_label
 _atom_site_symmetry_multiplicity
 _atom_site_fract_x
 _atom_site_fract_y
 _atom_site_fract_z
 _atom_site_occupancy
  La  La0  1  0.59810303  0.59810302  0.20364199  1
  La  La1  1  0.20056101  0.20056101  0.40074600  1
  La  La2  1  0.79943905  0.79943902  0.59925398  1
  Bi  Bi3  1  0.40189702  0.40189701  0.79635799  1
  Bi  Bi4  1  0.00000000  0.00000000  0.00000000  1
