# generated using pymatgen
data_EuS2
_symmetry_space_group_name_H-M   'P 1'
_cell_length_a   4.04871607
_cell_length_b   8.06723785
_cell_length_c   8.14597702
_cell_angle_alpha   89.87090302
_cell_angle_beta   90.00000000
_cell_angle_gamma   90.00000000
_symmetry_Int_Tables_number   1
_chemical_formula_structural   EuS2
_chemical_formula_sum   'Eu4 S8'
_cell_volume   266.06286378
_cell_formula_units_Z   4
loop_
 _symmetry_equiv_pos_site_id
 _symmetry_equiv_pos_as_xyz
  1  'x, y, z'
loop_
 _atom_site_type_symbol
 _atom_site_label
 _atom_site_symmetry_multiplicity
 _atom_site_fract_x
 _atom_site_fract_y
 _atom_site_fract_z
 _atom_site_occupancy
  Eu  Eu0  1  0.28881500  0.37118301  0.27575298  1
  Eu  Eu1  1  0.78881499  0.12881700  0.72424697  1
  Eu  Eu2  1  0.71118499  0.62881701  0.72424695  1
  Eu  Eu3  1  0.21118500  0.87118302  0.27575296  1
  S  S4  1  0.84405799  0.39195001  0.00270899  1
  S  S5  1  0.34405799  0.10805000  0.99729096  1
  S  S6  1  0.15594200  0.60805001  0.99729094  1
  S  S7  1  0.65594199  0.89195002  0.00270897  1
  S  S8  1  0.23916200  0.87436802  0.63284995  1
  S  S9  1  0.73916199  0.62563201  0.36714997  1
  S  S10  1  0.76083799  0.12563200  0.36714998  1
  S  S11  1  0.26083800  0.37436801  0.63284996  1
