# generated using pymatgen
data_LaSn
_symmetry_space_group_name_H-M   'P 1'
_cell_length_a   6.22921610
_cell_length_b   9.18106747
_cell_length_c   9.18106747
_cell_angle_alpha   83.39144897
_cell_angle_beta   70.16927338
_cell_angle_gamma   70.16927338
_symmetry_Int_Tables_number   1
_chemical_formula_structural   LaSn
_chemical_formula_sum   'La8 Sn8'
_cell_volume   464.64481648
_cell_formula_units_Z   8
loop_
 _symmetry_equiv_pos_site_id
 _symmetry_equiv_pos_as_xyz
  1  'x, y, z'
loop_
 _atom_site_type_symbol
 _atom_site_label
 _atom_site_symmetry_multiplicity
 _atom_site_fract_x
 _atom_site_fract_y
 _atom_site_fract_z
 _atom_site_occupancy
  La  La0  1  0.58282399  0.13428900  0.70006201  1
  La  La1  1  0.41717600  0.86571099  0.29993805  1
  La  La2  1  0.08282501  0.70006199  0.13428903  1
  La  La3  1  0.91717498  0.29993800  0.86571103  1
  La  La4  1  0.28288600  0.29993800  0.13428902  1
  La  La5  1  0.71711399  0.70006199  0.86571104  1
  La  La6  1  0.21711301  0.86571099  0.70006204  1
  La  La7  1  0.78288698  0.13428900  0.29993802  1
  Sn  Sn8  1  0.74999999  0.49999999  0.50000003  1
  Sn  Sn9  1  0.25000000  0.49999999  0.50000003  1
  Sn  Sn10  1  0.66137499  0.49999999  0.17725004  1
  Sn  Sn11  1  0.33862500  0.49999999  0.82275002  1
  Sn  Sn12  1  0.16137500  0.17725000  0.50000001  1
  Sn  Sn13  1  0.83862499  0.82274999  0.50000005  1
  Sn  Sn14  1  0.74999998  0.00000000  0.00000001  1
  Sn  Sn15  1  0.24999999  0.00000000  0.00000000  1
