# generated using pymatgen
data_Gd2Tc2B5Os3
_symmetry_space_group_name_H-M   'P 1'
_cell_length_a   5.09533978
_cell_length_b   5.09534025
_cell_length_c   6.99565887
_cell_angle_alpha   90.00000000
_cell_angle_beta   90.00000000
_cell_angle_gamma   120.00000000
_symmetry_Int_Tables_number   1
_chemical_formula_structural   Gd2Tc2B5Os3
_chemical_formula_sum   'Gd2 Tc2 B5 Os3'
_cell_volume   157.29162368
_cell_formula_units_Z   1
loop_
 _symmetry_equiv_pos_site_id
 _symmetry_equiv_pos_as_xyz
  1  'x, y, z'
loop_
 _atom_site_type_symbol
 _atom_site_label
 _atom_site_symmetry_multiplicity
 _atom_site_fract_x
 _atom_site_fract_y
 _atom_site_fract_z
 _atom_site_occupancy
  Gd  Gd0  1  0.00000000  0.00000000  0.50000001  1
  Gd  Gd1  1  0.00000000  0.00000000  0.00000000  1
  Tc  Tc2  1  0.66666670  0.33333333  1.00000002  1
  Tc  Tc3  1  0.33333336  0.66666665  1.00000002  1
  B  B4  1  0.50000003  0.49999999  0.70534901  1
  B  B5  1  0.50000004  0.99999998  0.70534901  1
  B  B6  1  0.00000001  0.49999999  0.70534901  1
  B  B7  1  0.50000003  0.49999999  0.29465101  1
  B  B8  1  0.50000004  0.99999998  0.29465101  1
  Os  Os9  1  0.00000001  0.49999999  0.29465101  1
  Os  Os10  1  0.33333336  0.66666665  0.50000001  1
  Os  Os11  1  0.66666670  0.33333333  0.50000001  1
