# generated using pymatgen
data_Tm3Ge5
_symmetry_space_group_name_H-M   'P 1'
_cell_length_a   4.31890011
_cell_length_b   5.69856930
_cell_length_c   14.33181953
_cell_angle_alpha   90.00000000
_cell_angle_beta   90.00000000
_cell_angle_gamma   112.26840973
_symmetry_Int_Tables_number   1
_chemical_formula_structural   Tm3Ge5
_chemical_formula_sum   'Tm6 Ge10'
_cell_volume   326.42141171
_cell_formula_units_Z   2
loop_
 _symmetry_equiv_pos_site_id
 _symmetry_equiv_pos_as_xyz
  1  'x, y, z'
loop_
 _atom_site_type_symbol
 _atom_site_label
 _atom_site_symmetry_multiplicity
 _atom_site_fract_x
 _atom_site_fract_y
 _atom_site_fract_z
 _atom_site_occupancy
  Tm  Tm0  1  0.08333199  0.16666400  0.61074602  1
  Tm  Tm1  1  0.91666796  0.83333598  0.38925401  1
  Tm  Tm2  1  0.08333199  0.16666400  0.88925403  1
  Tm  Tm3  1  0.91666796  0.83333598  0.11074600  1
  Tm  Tm4  1  0.35985697  0.71971398  0.75000002  1
  Tm  Tm5  1  0.64014298  0.28028599  0.25000001  1
  Ge  Ge6  1  0.37670997  0.75341998  0.53509602  1
  Ge  Ge7  1  0.62328998  0.24657999  0.46490402  1
  Ge  Ge8  1  0.37670997  0.75341998  0.96490403  1
  Ge  Ge9  1  0.62328998  0.24657999  0.03509600  1
  Ge  Ge10  1  0.65774598  0.31549199  0.75000002  1
  Ge  Ge11  1  0.34225398  0.68450798  0.25000001  1
  Ge  Ge12  1  0.20081899  0.40163799  0.10155000  1
  Ge  Ge13  1  0.79918097  0.59836199  0.89845003  1
  Ge  Ge14  1  0.20081899  0.40163799  0.39845001  1
  Ge  Ge15  1  0.79918097  0.59836199  0.60155002  1
