# generated using pymatgen
data_NaCoP2
_symmetry_space_group_name_H-M   'P 1'
_cell_length_a   3.98335004
_cell_length_b   3.98335052
_cell_length_c   9.88753319
_cell_angle_alpha   90.00000000
_cell_angle_beta   90.00000000
_cell_angle_gamma   119.99999237
_symmetry_Int_Tables_number   1
_chemical_formula_structural   NaCoP2
_chemical_formula_sum   'Na2 Co2 P4'
_cell_volume   135.86750962
_cell_formula_units_Z   2
loop_
 _symmetry_equiv_pos_site_id
 _symmetry_equiv_pos_as_xyz
  1  'x, y, z'
loop_
 _atom_site_type_symbol
 _atom_site_label
 _atom_site_symmetry_multiplicity
 _atom_site_fract_x
 _atom_site_fract_y
 _atom_site_fract_z
 _atom_site_occupancy
  Na  Na0  1  0.33333330  0.66666667  0.25000000  1
  Na  Na1  1  0.66666664  0.33333333  0.74999999  1
  Co  Co2  1  0.00000000  0.00000000  0.49999999  1
  Co  Co3  1  0.00000000  0.00000000  0.00000000  1
  P  P4  1  0.33333330  0.66666667  0.54167799  1
  P  P5  1  0.66666664  0.33333333  0.45832199  1
  P  P6  1  0.66666664  0.33333333  0.04167800  1
  P  P7  1  0.33333330  0.66666667  0.95832198  1
