# generated using pymatgen
data_TbGa5
_symmetry_space_group_name_H-M   'P 1'
_cell_length_a   4.21761513
_cell_length_b   4.21761513
_cell_length_c   12.61050129
_cell_angle_alpha   90.00000000
_cell_angle_beta   90.00000000
_cell_angle_gamma   90.00000000
_symmetry_Int_Tables_number   1
_chemical_formula_structural   TbGa5
_chemical_formula_sum   'Tb2 Ga10'
_cell_volume   224.31909464
_cell_formula_units_Z   2
loop_
 _symmetry_equiv_pos_site_id
 _symmetry_equiv_pos_as_xyz
  1  'x, y, z'
loop_
 _atom_site_type_symbol
 _atom_site_label
 _atom_site_symmetry_multiplicity
 _atom_site_fract_x
 _atom_site_fract_y
 _atom_site_fract_z
 _atom_site_occupancy
  Tb  Tb0  1  0.00000000  0.00000000  0.32857099  1
  Tb  Tb1  1  0.00000000  0.00000000  0.67142898  1
  Ga  Ga2  1  0.00000000  0.00000000  0.00000000  1
  Ga  Ga3  1  0.49999998  0.49999998  -0.00000000  1
  Ga  Ga4  1  0.49999998  0.49999998  0.33220799  1
  Ga  Ga5  1  0.49999998  0.49999998  0.66779198  1
  Ga  Ga6  1  0.49999998  0.00000000  0.15792700  1
  Ga  Ga7  1  0.49999998  0.00000000  0.49999999  1
  Ga  Ga8  1  0.49999998  0.00000000  0.84207298  1
  Ga  Ga9  1  0.00000000  0.49999998  0.15792700  1
  Ga  Ga10  1  0.00000000  0.49999998  0.49999999  1
  Ga  Ga11  1  0.00000000  0.49999998  0.84207298  1
