# generated using pymatgen
data_MnSi2
_symmetry_space_group_name_H-M   'P 1'
_cell_length_a   3.96038795
_cell_length_b   5.02267790
_cell_length_c   5.02267838
_cell_angle_alpha   60.00000000
_cell_angle_beta   90.00000000
_cell_angle_gamma   90.00000000
_symmetry_Int_Tables_number   1
_chemical_formula_structural   MnSi2
_chemical_formula_sum   'Mn2 Si4'
_cell_volume   86.52449213
_cell_formula_units_Z   2
loop_
 _symmetry_equiv_pos_site_id
 _symmetry_equiv_pos_as_xyz
  1  'x, y, z'
loop_
 _atom_site_type_symbol
 _atom_site_label
 _atom_site_symmetry_multiplicity
 _atom_site_fract_x
 _atom_site_fract_y
 _atom_site_fract_z
 _atom_site_occupancy
  Mn  Mn0  1  0.00000000  0.00000000  0.00000000  1
  Mn  Mn1  1  0.00000000  0.66666669  0.66666663  1
  Si  Si2  1  0.00000000  0.33333334  0.33333331  1
  Si  Si3  1  0.50000001  0.50000002  -0.00000001  1
  Si  Si4  1  0.50000001  0.00000000  0.49999998  1
  Si  Si5  1  0.50000001  0.50000002  0.49999997  1
