# generated using pymatgen
data_La2Ge9Pt2
_symmetry_space_group_name_H-M   'P 1'
_cell_length_a   4.39334583
_cell_length_b   4.39334583
_cell_length_c   13.51326847
_cell_angle_alpha   99.35533142
_cell_angle_beta   99.35533142
_cell_angle_gamma   90.00000000
_symmetry_Int_Tables_number   1
_chemical_formula_structural   La2Ge9Pt2
_chemical_formula_sum   'La2 Ge9 Pt2'
_cell_volume   253.84037783
_cell_formula_units_Z   1
loop_
 _symmetry_equiv_pos_site_id
 _symmetry_equiv_pos_as_xyz
  1  'x, y, z'
loop_
 _atom_site_type_symbol
 _atom_site_label
 _atom_site_symmetry_multiplicity
 _atom_site_fract_x
 _atom_site_fract_y
 _atom_site_fract_z
 _atom_site_occupancy
  La  La0  1  0.64535003  0.64535003  0.29070002  1
  La  La1  1  0.35465002  0.35465001  0.70930003  1
  Ge  Ge2  1  0.75000003  0.25000001  0.50000002  1
  Ge  Ge3  1  0.25000002  0.75000003  0.50000002  1
  Ge  Ge4  1  0.54953202  0.04953200  0.09906401  1
  Ge  Ge5  1  0.04953201  0.54953202  0.09906401  1
  Ge  Ge6  1  0.45046803  0.95046804  0.90093604  1
  Ge  Ge7  1  0.95046804  0.45046802  0.90093604  1
  Ge  Ge8  1  0.89564004  0.89564004  0.79128004  1
  Ge  Ge9  1  0.10436001  0.10436000  0.20872001  1
  Pt  Pt10  1  0.80264804  0.80264803  0.60529603  1
  Ge  Ge11  1  0.19735201  0.19735201  0.39470402  1
  Pt  Pt12  1  0.50000002  0.50000002  0.00000001  1
