# generated using pymatgen
data_Hf4Al5Ge7
_symmetry_space_group_name_H-M   'P 1'
_cell_length_a   4.08587885
_cell_length_b   4.08587885
_cell_length_c   20.44765282
_cell_angle_alpha   90.00000000
_cell_angle_beta   90.00000000
_cell_angle_gamma   89.97872162
_symmetry_Int_Tables_number   1
_chemical_formula_structural   Hf4Al5Ge7
_chemical_formula_sum   'Hf4 Al5 Ge7'
_cell_volume   341.36139369
_cell_formula_units_Z   1
loop_
 _symmetry_equiv_pos_site_id
 _symmetry_equiv_pos_as_xyz
  1  'x, y, z'
loop_
 _atom_site_type_symbol
 _atom_site_label
 _atom_site_symmetry_multiplicity
 _atom_site_fract_x
 _atom_site_fract_y
 _atom_site_fract_z
 _atom_site_occupancy
  Hf  Hf0  1  0.74308298  0.25691699  0.38864498  1
  Hf  Hf1  1  0.25691700  0.74308298  0.61135498  1
  Hf  Hf2  1  0.24308300  0.75691698  0.11135500  1
  Hf  Hf3  1  0.75691698  0.24308299  0.88864496  1
  Al  Al4  1  0.26191499  0.23808499  0.74999997  1
  Al  Al5  1  0.23808500  0.26191499  0.24999999  1
  Al  Al6  1  0.73808499  0.76191498  0.24999999  1
  Al  Al7  1  0.76191498  0.73808498  0.74999997  1
  Al  Al8  1  0.25872300  0.74127698  0.84347297  1
  Ge  Ge9  1  0.74127698  0.25872299  0.15652699  1
  Ge  Ge10  1  0.75872298  0.24127699  0.65652697  1
  Ge  Ge11  1  0.24127700  0.75872298  0.34347299  1
  Ge  Ge12  1  0.25291499  0.25291499  -0.00000000  1
  Ge  Ge13  1  0.24708499  0.24708499  0.49999998  1
  Ge  Ge14  1  0.74708498  0.74708498  -0.00000000  1
  Ge  Ge15  1  0.75291498  0.75291498  0.49999998  1
