# generated using pymatgen
data_TmSnRh
_symmetry_space_group_name_H-M   'P 1'
_cell_length_a   3.35431600
_cell_length_b   7.87857008
_cell_length_c   7.87857008
_cell_angle_alpha   120.00000000
_cell_angle_beta   90.00000000
_cell_angle_gamma   90.00000000
_symmetry_Int_Tables_number   1
_chemical_formula_structural   TmSnRh
_chemical_formula_sum   'Tm3 Sn3 Rh3'
_cell_volume   180.31398428
_cell_formula_units_Z   3
loop_
 _symmetry_equiv_pos_site_id
 _symmetry_equiv_pos_as_xyz
  1  'x, y, z'
loop_
 _atom_site_type_symbol
 _atom_site_label
 _atom_site_symmetry_multiplicity
 _atom_site_fract_x
 _atom_site_fract_y
 _atom_site_fract_z
 _atom_site_occupancy
  Tm  Tm0  1  -0.00000000  0.75030200  0.75030202  1
  Tm  Tm1  1  -0.00000000  0.24969800  0.00000000  1
  Tm  Tm2  1  -0.00000000  1.00000000  0.24969802  1
  Sn  Sn3  1  0.50000000  0.00000000  0.59497101  1
  Sn  Sn4  1  0.50000000  0.59497100  0.00000001  1
  Sn  Sn5  1  0.50000000  0.40502900  0.40502901  1
  Rh  Rh6  1  -0.00000000  0.66666667  0.33333335  1
  Rh  Rh7  1  -0.00000000  0.33333333  0.66666668  1
  Rh  Rh8  1  0.50000000  0.00000000  -0.00000000  1
