# generated using pymatgen
data_NaVO4
_symmetry_space_group_name_H-M   'P 1'
_cell_length_a   6.13047123
_cell_length_b   6.13047123
_cell_length_c   6.13047123
_cell_angle_alpha   106.84824371
_cell_angle_beta   106.84824371
_cell_angle_gamma   114.85507965
_symmetry_Int_Tables_number   1
_chemical_formula_structural   NaVO4
_chemical_formula_sum   'Na2 V2 O8'
_cell_volume   176.17594004
_cell_formula_units_Z   2
loop_
 _symmetry_equiv_pos_site_id
 _symmetry_equiv_pos_as_xyz
  1  'x, y, z'
loop_
 _atom_site_type_symbol
 _atom_site_label
 _atom_site_symmetry_multiplicity
 _atom_site_fract_x
 _atom_site_fract_y
 _atom_site_fract_z
 _atom_site_occupancy
  Na  Na0  1  0.50000004  0.50000001  0.00000005  1
  Na  Na1  1  0.25000007  0.75000002  0.50000004  1
  V  V2  1  0.75000000  0.25000001  0.50000002  1
  V  V3  1  0.00000000  0.00000000  0.00000000  1
  O  O4  1  0.17867103  0.36068901  0.18201802  1
  O  O5  1  0.11068904  0.42867101  0.68201801  1
  O  O6  1  0.74665302  0.42867101  0.31798204  1
  O  O7  1  0.17867110  0.99665303  0.81798205  1
  O  O8  1  0.63931107  0.82132902  0.81798204  1
  O  O9  1  0.57132908  0.88931103  0.31798207  1
  O  O10  1  0.57132901  0.25334701  0.68201801  1
  O  O11  1  0.00334709  0.82132902  0.18201805  1
