# generated using pymatgen
data_Ti4Si5Ru3
_symmetry_space_group_name_H-M   'P 1'
_cell_length_a   3.83265305
_cell_length_b   6.27602577
_cell_length_c   7.27958488
_cell_angle_alpha   90.00000000
_cell_angle_beta   90.00000000
_cell_angle_gamma   90.00000000
_symmetry_Int_Tables_number   1
_chemical_formula_structural   Ti4Si5Ru3
_chemical_formula_sum   'Ti4 Si5 Ru3'
_cell_volume   175.10189212
_cell_formula_units_Z   1
loop_
 _symmetry_equiv_pos_site_id
 _symmetry_equiv_pos_as_xyz
  1  'x, y, z'
loop_
 _atom_site_type_symbol
 _atom_site_label
 _atom_site_symmetry_multiplicity
 _atom_site_fract_x
 _atom_site_fract_y
 _atom_site_fract_z
 _atom_site_occupancy
  Ti  Ti0  1  0.74999999  0.02450300  0.18248400  1
  Ti  Ti1  1  0.74999999  0.52450302  0.31751601  1
  Ti  Ti2  1  0.25000000  0.47549702  0.68248401  1
  Ti  Ti3  1  0.25000000  0.97549704  0.81751601  1
  Si  Si4  1  0.25000000  0.23156701  0.37829101  1
  Si  Si5  1  0.74999999  0.76843303  0.62170901  1
  Si  Si6  1  0.25000000  0.73156703  0.12170900  1
  Si  Si7  1  0.74999999  0.26843301  0.87829101  1
  Ru  Ru8  1  0.74999999  0.15308601  0.56366201  1
  Si  Si9  1  0.25000000  0.34691401  0.06366200  1
  Ru  Ru10  1  0.74999999  0.65308602  0.93633801  1
  Ru  Ru11  1  0.25000000  0.84691403  0.43633801  1
