# generated using pymatgen
data_Sr2CaCd2
_symmetry_space_group_name_H-M   'P 1'
_cell_length_a   7.98471594
_cell_length_b   8.90399456
_cell_length_c   8.90399456
_cell_angle_alpha   90.00000000
_cell_angle_beta   90.00000000
_cell_angle_gamma   90.00000000
_symmetry_Int_Tables_number   1
_chemical_formula_structural   Sr2CaCd2
_chemical_formula_sum   'Sr8 Ca4 Cd8'
_cell_volume   633.03721554
_cell_formula_units_Z   4
loop_
 _symmetry_equiv_pos_site_id
 _symmetry_equiv_pos_as_xyz
  1  'x, y, z'
loop_
 _atom_site_type_symbol
 _atom_site_label
 _atom_site_symmetry_multiplicity
 _atom_site_fract_x
 _atom_site_fract_y
 _atom_site_fract_z
 _atom_site_occupancy
  Sr  Sr0  1  0.00000000  0.14608101  0.14608101  1
  Sr  Sr1  1  0.50000000  0.64608103  0.35391902  1
  Sr  Sr2  1  0.50000000  0.35391902  0.64608103  1
  Sr  Sr3  1  -0.00000000  0.85391904  0.85391904  1
  Sr  Sr4  1  0.50000000  0.19713201  0.19713201  1
  Sr  Sr5  1  -0.00000000  0.69713203  0.30286801  1
  Sr  Sr6  1  0.00000000  0.30286801  0.69713203  1
  Ca  Ca7  1  0.50000000  0.80286804  0.80286804  1
  Ca  Ca8  1  0.25000000  0.50000002  -0.00000000  1
  Sr  Sr9  1  0.75000001  0.50000002  0.00000000  1
  Ca  Ca10  1  0.75000001  0.00000000  0.50000002  1
  Ca  Ca11  1  0.25000000  0.00000000  0.50000002  1
  Cd  Cd12  1  0.80203501  0.37531202  0.37531202  1
  Cd  Cd13  1  0.30203500  0.87531204  0.12468801  1
  Cd  Cd14  1  0.30203500  0.12468801  0.87531204  1
  Cd  Cd15  1  0.80203501  0.62468803  0.62468803  1
  Cd  Cd16  1  0.19796500  0.37531202  0.37531202  1
  Cd  Cd17  1  0.69796501  0.87531204  0.12468801  1
  Cd  Cd18  1  0.69796501  0.12468801  0.87531204  1
  Cd  Cd19  1  0.19796500  0.62468803  0.62468803  1
