# generated using pymatgen
data_Li2Ti2CuWO12
_symmetry_space_group_name_H-M   'P 1'
_cell_length_a   4.61641216
_cell_length_b   4.61641216
_cell_length_c   9.35829258
_cell_angle_alpha   90.00000000
_cell_angle_beta   90.00000000
_cell_angle_gamma   90.00000000
_symmetry_Int_Tables_number   1
_chemical_formula_structural   Li2Ti2CuWO12
_chemical_formula_sum   'Li2 Ti2 Cu1 W1 O12'
_cell_volume   199.43701808
_cell_formula_units_Z   1
loop_
 _symmetry_equiv_pos_site_id
 _symmetry_equiv_pos_as_xyz
  1  'x, y, z'
loop_
 _atom_site_type_symbol
 _atom_site_label
 _atom_site_symmetry_multiplicity
 _atom_site_fract_x
 _atom_site_fract_y
 _atom_site_fract_z
 _atom_site_occupancy
  Li  Li0  1  0.00000000  0.00000000  0.00000000  1
  Li  Li1  1  0.49999998  0.49999998  0.50000002  1
  Ti  Ti2  1  0.00000000  0.00000000  0.33310701  1
  Ti  Ti3  1  0.00000000  0.00000000  0.66689303  1
  Cu  Cu4  1  0.49999998  0.49999998  0.83310704  1
  W  W5  1  0.49999998  0.49999998  0.16689301  1
  O  O6  1  0.29806699  0.29806699  -0.00000000  1
  O  O7  1  0.70193298  0.70193298  0.00000000  1
  O  O8  1  0.20193299  0.79806697  0.50000002  1
  O  O9  1  0.79806697  0.20193299  0.50000002  1
  O  O10  1  0.30926499  0.30926499  0.34107902  1
  O  O11  1  0.69073498  0.69073498  0.65892103  1
  O  O12  1  0.69073498  0.69073498  0.34107902  1
  O  O13  1  0.19073499  0.80926497  0.84107904  1
  O  O14  1  0.19073499  0.80926497  0.15892101  1
  O  O15  1  0.30926499  0.30926499  0.65892103  1
  O  O16  1  0.80926497  0.19073499  0.15892101  1
  O  O17  1  0.80926497  0.19073499  0.84107904  1
