# generated using pymatgen
data_SrHO
_symmetry_space_group_name_H-M   'P 1'
_cell_length_a   4.19343376
_cell_length_b   4.24075794
_cell_length_c   6.14856434
_cell_angle_alpha   69.82689667
_cell_angle_beta   90.00000000
_cell_angle_gamma   90.00000000
_symmetry_Int_Tables_number   1
_chemical_formula_structural   SrHO
_chemical_formula_sum   'Sr2 H2 O2'
_cell_volume   102.63441187
_cell_formula_units_Z   2
loop_
 _symmetry_equiv_pos_site_id
 _symmetry_equiv_pos_as_xyz
  1  'x, y, z'
loop_
 _atom_site_type_symbol
 _atom_site_label
 _atom_site_symmetry_multiplicity
 _atom_site_fract_x
 _atom_site_fract_y
 _atom_site_fract_z
 _atom_site_occupancy
  Sr  Sr0  1  0.73679604  0.64177702  0.71644601  1
  Sr  Sr1  1  0.23679601  0.35822301  0.28355400  1
  H  H2  1  0.61257403  0.95701103  0.08597798  1
  H  H3  1  0.11257401  0.04298900  0.91402203  1
  O  O4  1  0.75523804  0.88955002  0.22089998  1
  O  O5  1  0.25523801  0.11045000  0.77910002  1
