# generated using pymatgen
data_HoSi2
_symmetry_space_group_name_H-M   'P 1'
_cell_length_a   4.23604298
_cell_length_b   5.32831860
_cell_length_c   5.38198280
_cell_angle_alpha   74.91289520
_cell_angle_beta   66.82508850
_cell_angle_gamma   66.57785034
_symmetry_Int_Tables_number   1
_chemical_formula_structural   HoSi2
_chemical_formula_sum   'Ho2 Si4'
_cell_volume   101.69301342
_cell_formula_units_Z   2
loop_
 _symmetry_equiv_pos_site_id
 _symmetry_equiv_pos_as_xyz
  1  'x, y, z'
loop_
 _atom_site_type_symbol
 _atom_site_label
 _atom_site_symmetry_multiplicity
 _atom_site_fract_x
 _atom_site_fract_y
 _atom_site_fract_z
 _atom_site_occupancy
  Ho  Ho0  1  0.47348606  0.77078598  0.28224200  1
  Ho  Ho1  1  0.52651403  0.22921399  0.71775799  1
  Si  Si2  1  0.16944105  0.79184998  0.86926702  1
  Si  Si3  1  0.83055904  0.20815000  0.13073296  1
  Si  Si4  1  0.83364707  0.63143299  0.70127198  1
  Si  Si5  1  0.16635303  0.36856699  0.29872800  1
