# generated using pymatgen
data_Sr2BrO2
_symmetry_space_group_name_H-M   'P 1'
_cell_length_a   4.04837608
_cell_length_b   4.04837608
_cell_length_c   7.18963909
_cell_angle_alpha   104.94016266
_cell_angle_beta   104.94016266
_cell_angle_gamma   90.01132965
_symmetry_Int_Tables_number   1
_chemical_formula_structural   Sr2BrO2
_chemical_formula_sum   'Sr2 Br1 O2'
_cell_volume   109.72074441
_cell_formula_units_Z   1
loop_
 _symmetry_equiv_pos_site_id
 _symmetry_equiv_pos_as_xyz
  1  'x, y, z'
loop_
 _atom_site_type_symbol
 _atom_site_label
 _atom_site_symmetry_multiplicity
 _atom_site_fract_x
 _atom_site_fract_y
 _atom_site_fract_z
 _atom_site_occupancy
  Sr  Sr0  1  0.32937397  0.32937398  0.67704697  1
  Sr  Sr1  1  0.67062594  0.67062595  0.32295295  1
  Br  Br2  1  0.00000000  0.00000000  0.00000000  1
  O  O3  1  0.75018594  0.24981398  0.49999996  1
  O  O4  1  0.24981397  0.75018594  0.49999996  1
