# generated using pymatgen
data_Li2Co5O7
_symmetry_space_group_name_H-M   'P 1'
_cell_length_a   5.93292618
_cell_length_b   5.93982792
_cell_length_c   5.93982792
_cell_angle_alpha   60.45112610
_cell_angle_beta   60.62312698
_cell_angle_gamma   60.62312698
_symmetry_Int_Tables_number   1
_chemical_formula_structural   Li2Co5O7
_chemical_formula_sum   'Li2 Co5 O7'
_cell_volume   149.90454874
_cell_formula_units_Z   1
loop_
 _symmetry_equiv_pos_site_id
 _symmetry_equiv_pos_as_xyz
  1  'x, y, z'
loop_
 _atom_site_type_symbol
 _atom_site_label
 _atom_site_symmetry_multiplicity
 _atom_site_fract_x
 _atom_site_fract_y
 _atom_site_fract_z
 _atom_site_occupancy
  Li  Li0  1  0.37497899  0.37404899  0.37404900  1
  Li  Li1  1  0.75097298  0.75465299  0.75465301  1
  Co  Co2  1  0.38355099  0.85580699  0.37331701  1
  Co  Co3  1  0.38355099  0.37331699  0.85580700  1
  Co  Co4  1  0.87358898  0.37653699  0.37653701  1
  Co  Co5  1  0.99490298  0.99229099  0.99229101  1
  Co  Co6  1  0.13620000  0.12835900  0.12835900  1
  O  O7  1  0.60068499  0.12758000  0.12758001  1
  O  O8  1  0.12946000  0.60132099  0.12522601  1
  O  O9  1  0.12946000  0.12522600  0.60132100  1
  O  O10  1  0.60389199  0.62262399  0.62262401  1
  O  O11  1  0.16053400  0.62513299  0.62513300  1
  O  O12  1  0.61411199  0.16071400  0.63239100  1
  O  O13  1  0.61411199  0.63239099  0.16071401  1
