# generated using pymatgen
data_Li6Sn
_symmetry_space_group_name_H-M   'P 1'
_cell_length_a   4.02846289
_cell_length_b   7.85124207
_cell_length_c   10.91463852
_cell_angle_alpha   102.88083649
_cell_angle_beta   90.00000000
_cell_angle_gamma   90.00000000
_symmetry_Int_Tables_number   1
_chemical_formula_structural   Li6Sn
_chemical_formula_sum   'Li12 Sn2'
_cell_volume   336.52595506
_cell_formula_units_Z   2
loop_
 _symmetry_equiv_pos_site_id
 _symmetry_equiv_pos_as_xyz
  1  'x, y, z'
loop_
 _atom_site_type_symbol
 _atom_site_label
 _atom_site_symmetry_multiplicity
 _atom_site_fract_x
 _atom_site_fract_y
 _atom_site_fract_z
 _atom_site_occupancy
  Li  Li0  1  0.75000002  0.05885600  0.40630998  1
  Li  Li1  1  0.25000001  0.94114399  0.59368996  1
  Li  Li2  1  0.75000002  0.54082399  0.34589397  1
  Li  Li3  1  0.25000001  0.45917599  0.65410596  1
  Li  Li4  1  0.25000001  0.81299599  0.07288698  1
  Li  Li5  1  0.75000002  0.18700400  0.92711296  1
  Li  Li6  1  0.75000002  0.04049200  0.14583499  1
  Li  Li7  1  0.25000001  0.31775299  0.41358998  1
  Li  Li8  1  0.75000002  0.68224699  0.58640996  1
  Li  Li9  1  0.25000001  0.95950798  0.85416495  1
  Li  Li10  1  0.25000001  0.80004699  0.33818997  1
  Li  Li11  1  0.75000002  0.19995300  0.66180997  1
  Sn  Sn12  1  0.75000002  0.59569699  0.89794395  1
  Sn  Sn13  1  0.25000001  0.40430299  0.10205599  1
