# generated using pymatgen
data_Zr4Co3P5
_symmetry_space_group_name_H-M   'P 1'
_cell_length_a   3.87347198
_cell_length_b   6.49594212
_cell_length_c   7.28600597
_cell_angle_alpha   90.00000000
_cell_angle_beta   90.00000000
_cell_angle_gamma   90.00000000
_symmetry_Int_Tables_number   1
_chemical_formula_structural   Zr4Co3P5
_chemical_formula_sum   'Zr4 Co3 P5'
_cell_volume   183.32938751
_cell_formula_units_Z   1
loop_
 _symmetry_equiv_pos_site_id
 _symmetry_equiv_pos_as_xyz
  1  'x, y, z'
loop_
 _atom_site_type_symbol
 _atom_site_label
 _atom_site_symmetry_multiplicity
 _atom_site_fract_x
 _atom_site_fract_y
 _atom_site_fract_z
 _atom_site_occupancy
  Zr  Zr0  1  0.25000000  0.01609800  0.18818000  1
  Zr  Zr1  1  0.25000000  0.51609799  0.31182000  1
  Zr  Zr2  1  0.75000000  0.98390198  0.81182000  1
  Zr  Zr3  1  0.75000000  0.48390199  0.68818000  1
  Co  Co4  1  0.25000000  0.14307200  0.56341000  1
  Co  Co5  1  0.25000000  0.64307199  0.93659000  1
  P  P6  1  0.75000000  0.85692798  0.43659000  1
  Co  Co7  1  0.75000000  0.35692799  0.06341000  1
  P  P8  1  0.25000000  0.76943999  0.61507700  1
  P  P9  1  0.25000000  0.26944000  0.88492300  1
  P  P10  1  0.75000000  0.23056000  0.38492300  1
  P  P11  1  0.75000000  0.73055999  0.11507700  1
