# generated using pymatgen
data_Eu5Cd3Pd4
_symmetry_space_group_name_H-M   'P 1'
_cell_length_a   4.85743999
_cell_length_b   7.77782679
_cell_length_c   8.62702370
_cell_angle_alpha   90.00000000
_cell_angle_beta   90.00000000
_cell_angle_gamma   90.00000000
_symmetry_Int_Tables_number   1
_chemical_formula_structural   Eu5Cd3Pd4
_chemical_formula_sum   'Eu5 Cd3 Pd4'
_cell_volume   325.93177547
_cell_formula_units_Z   1
loop_
 _symmetry_equiv_pos_site_id
 _symmetry_equiv_pos_as_xyz
  1  'x, y, z'
loop_
 _atom_site_type_symbol
 _atom_site_label
 _atom_site_symmetry_multiplicity
 _atom_site_fract_x
 _atom_site_fract_y
 _atom_site_fract_z
 _atom_site_occupancy
  Eu  Eu0  1  0.75000000  0.97738003  0.68529302  1
  Eu  Eu1  1  0.25000000  0.02262000  0.31470701  1
  Eu  Eu2  1  0.75000000  0.47738001  0.81470703  1
  Eu  Eu3  1  0.25000000  0.52262001  0.18529301  1
  Eu  Eu4  1  0.75000000  0.34204301  0.43209802  1
  Cd  Cd5  1  0.25000000  0.15795700  0.93209803  1
  Cd  Cd6  1  0.25000000  0.65795702  0.56790202  1
  Cd  Cd7  1  0.75000000  0.84204302  0.06790200  1
  Pd  Pd8  1  0.25000000  0.78260902  0.88619203  1
  Pd  Pd9  1  0.25000000  0.28260901  0.61380802  1
  Pd  Pd10  1  0.75000000  0.71739102  0.38619201  1
  Pd  Pd11  1  0.75000000  0.21739101  0.11380800  1
