# generated using pymatgen
data_HfSn2
_symmetry_space_group_name_H-M   'P 1'
_cell_length_a   6.56835079
_cell_length_b   7.95140409
_cell_length_c   7.95140505
_cell_angle_alpha   60.00000381
_cell_angle_beta   90.00000000
_cell_angle_gamma   90.00000000
_symmetry_Int_Tables_number   1
_chemical_formula_structural   HfSn2
_chemical_formula_sum   'Hf6 Sn12'
_cell_volume   359.64554876
_cell_formula_units_Z   6
loop_
 _symmetry_equiv_pos_site_id
 _symmetry_equiv_pos_as_xyz
  1  'x, y, z'
loop_
 _atom_site_type_symbol
 _atom_site_label
 _atom_site_symmetry_multiplicity
 _atom_site_fract_x
 _atom_site_fract_y
 _atom_site_fract_z
 _atom_site_occupancy
  Hf  Hf0  1  0.00000000  0.00000000  0.70899399  1
  Hf  Hf1  1  0.50000002  0.29100600  0.99999999  1
  Hf  Hf2  1  0.50000002  0.70899399  0.29100599  1
  Hf  Hf3  1  0.00000000  0.70899399  0.29100599  1
  Hf  Hf4  1  0.00000000  0.29100600  0.99999999  1
  Hf  Hf5  1  0.50000002  0.00000000  0.70899399  1
  Sn  Sn6  1  0.75000002  0.99010899  0.37256999  1
  Sn  Sn7  1  0.75000002  0.63732099  0.99010899  1
  Sn  Sn8  1  0.75000002  0.37257000  0.63732099  1
  Sn  Sn9  1  0.25000001  0.00989100  0.36267900  1
  Sn  Sn10  1  0.25000001  0.62742999  0.00989100  1
  Sn  Sn11  1  0.25000001  0.36267900  0.62742999  1
  Sn  Sn12  1  0.75000002  0.00000000  0.00000000  1
  Sn  Sn13  1  0.25000001  0.00000000  0.00000000  1
  Sn  Sn14  1  0.97622803  0.33333333  0.33333333  1
  Sn  Sn15  1  0.52377202  0.33333333  0.33333333  1
  Sn  Sn16  1  0.02377200  0.66666666  0.66666666  1
  Sn  Sn17  1  0.47622802  0.66666666  0.66666666  1
