# generated using pymatgen
data_K3NaV2O8
_symmetry_space_group_name_H-M   'P 1'
_cell_length_a   6.17995214
_cell_length_b   6.17995167
_cell_length_c   7.91888523
_cell_angle_alpha   90.00000000
_cell_angle_beta   90.00000000
_cell_angle_gamma   120.00000000
_symmetry_Int_Tables_number   1
_chemical_formula_structural   K3NaV2O8
_chemical_formula_sum   'K3 Na1 V2 O8'
_cell_volume   261.91771370
_cell_formula_units_Z   1
loop_
 _symmetry_equiv_pos_site_id
 _symmetry_equiv_pos_as_xyz
  1  'x, y, z'
loop_
 _atom_site_type_symbol
 _atom_site_label
 _atom_site_symmetry_multiplicity
 _atom_site_fract_x
 _atom_site_fract_y
 _atom_site_fract_z
 _atom_site_occupancy
  K  K0  1  0.66666664  0.33333332  0.29313199  1
  K  K1  1  0.33333330  0.66666665  0.70686798  1
  K  K2  1  0.00000000  0.00000000  0.00000000  1
  Na  Na3  1  0.00000000  0.00000000  0.49999999  1
  V  V4  1  0.66666664  0.33333332  0.75506298  1
  V  V5  1  0.33333330  0.66666665  0.24493699  1
  O  O6  1  0.66666664  0.33333332  0.96758797  1
  O  O7  1  0.33333330  0.66666665  0.03241200  1
  O  O8  1  0.82169596  0.64339198  0.67824998  1
  O  O9  1  0.17830398  0.35660799  0.32174999  1
  O  O10  1  0.82169597  0.17830300  0.67824998  1
  O  O11  1  0.17830396  0.82169698  0.32174999  1
  O  O12  1  0.35660698  0.17830300  0.67824998  1
  O  O13  1  0.64339295  0.82169698  0.32174999  1
