# generated using pymatgen
data_Yb4AlSi7
_symmetry_space_group_name_H-M   'P 1'
_cell_length_a   4.42083693
_cell_length_b   7.06945181
_cell_length_c   7.60708284
_cell_angle_alpha   90.00000000
_cell_angle_beta   90.00000000
_cell_angle_gamma   90.00000000
_symmetry_Int_Tables_number   1
_chemical_formula_structural   Yb4AlSi7
_chemical_formula_sum   'Yb4 Al1 Si7'
_cell_volume   237.74335072
_cell_formula_units_Z   1
loop_
 _symmetry_equiv_pos_site_id
 _symmetry_equiv_pos_as_xyz
  1  'x, y, z'
loop_
 _atom_site_type_symbol
 _atom_site_label
 _atom_site_symmetry_multiplicity
 _atom_site_fract_x
 _atom_site_fract_y
 _atom_site_fract_z
 _atom_site_occupancy
  Yb  Yb0  1  0.50000001  0.51461601  0.54962901  1
  Yb  Yb1  1  0.50000001  0.01461600  0.45037101  1
  Yb  Yb2  1  0.00000000  0.48744701  0.94903202  1
  Yb  Yb3  1  0.00000000  0.98744803  0.05096800  1
  Si  Si4  1  0.50000001  0.18150100  0.83410202  1
  Al  Al5  1  0.50000001  0.68150102  0.16589800  1
  Si  Si6  1  0.00000000  0.81899802  0.66666668  1
  Si  Si7  1  0.00000000  0.31899801  0.33333334  1
  Si  Si8  1  0.50000001  0.78798102  0.83824102  1
  Si  Si9  1  0.50000001  0.28798101  0.16175900  1
  Si  Si10  1  -0.00000000  0.20945701  0.66101901  1
  Si  Si11  1  0.00000000  0.70945702  0.33898101  1
