# generated using pymatgen
data_TmNi3Ge
_symmetry_space_group_name_H-M   'P 1'
_cell_length_a   3.97725201
_cell_length_b   3.97725201
_cell_length_c   5.52761507
_cell_angle_alpha   111.08557892
_cell_angle_beta   111.08557892
_cell_angle_gamma   90.00000000
_symmetry_Int_Tables_number   1
_chemical_formula_structural   TmNi3Ge
_chemical_formula_sum   'Tm1 Ni3 Ge1'
_cell_volume   75.27571886
_cell_formula_units_Z   1
loop_
 _symmetry_equiv_pos_site_id
 _symmetry_equiv_pos_as_xyz
  1  'x, y, z'
loop_
 _atom_site_type_symbol
 _atom_site_label
 _atom_site_symmetry_multiplicity
 _atom_site_fract_x
 _atom_site_fract_y
 _atom_site_fract_z
 _atom_site_occupancy
  Tm  Tm0  1  0.00000000  0.00000000  0.00000000  1
  Ni  Ni1  1  0.62709297  0.62709299  0.25418596  1
  Ge  Ge2  1  0.37290698  0.37290699  0.74581400  1
  Ni  Ni3  1  0.24999997  0.74999998  0.49999998  1
  Ni  Ni4  1  0.74999998  0.24999999  0.49999998  1
