# generated using pymatgen
data_K2WNO4
_symmetry_space_group_name_H-M   'P 1'
_cell_length_a   5.88685274
_cell_length_b   5.88685274
_cell_length_c   5.88685274
_cell_angle_alpha   79.54563141
_cell_angle_beta   65.69070435
_cell_angle_gamma   114.00932312
_symmetry_Int_Tables_number   1
_chemical_formula_structural   K2WNO4
_chemical_formula_sum   'K2 W1 N1 O4'
_cell_volume   154.19461425
_cell_formula_units_Z   1
loop_
 _symmetry_equiv_pos_site_id
 _symmetry_equiv_pos_as_xyz
  1  'x, y, z'
loop_
 _atom_site_type_symbol
 _atom_site_label
 _atom_site_symmetry_multiplicity
 _atom_site_fract_x
 _atom_site_fract_y
 _atom_site_fract_z
 _atom_site_occupancy
  K  K0  1  0.24804296  0.24804298  0.00000004  1
  K  K1  1  0.24804292  0.74804294  0.50000007  1
  W  W2  1  0.74912691  0.50138496  0.25225809  1
  N  N3  1  0.75364295  0.00138500  0.74774202  1
  O  O4  1  0.75113690  0.63471195  0.38357510  1
  O  O5  1  0.01828799  0.13471299  0.61642499  1
  O  O6  1  0.75059392  0.36585897  0.11526508  1
  O  O7  1  0.48112490  0.86585993  0.88473408  1
