# generated using pymatgen
data_Li6CuS7
_symmetry_space_group_name_H-M   'P 1'
_cell_length_a   5.30430508
_cell_length_b   6.42453098
_cell_length_c   8.34769154
_cell_angle_alpha   97.87936401
_cell_angle_beta   90.00000000
_cell_angle_gamma   114.38188934
_symmetry_Int_Tables_number   1
_chemical_formula_structural   Li6CuS7
_chemical_formula_sum   'Li6 Cu1 S7'
_cell_volume   256.14763778
_cell_formula_units_Z   1
loop_
 _symmetry_equiv_pos_site_id
 _symmetry_equiv_pos_as_xyz
  1  'x, y, z'
loop_
 _atom_site_type_symbol
 _atom_site_label
 _atom_site_symmetry_multiplicity
 _atom_site_fract_x
 _atom_site_fract_y
 _atom_site_fract_z
 _atom_site_occupancy
  Li  Li0  1  0.12201198  0.28253200  0.43153300  1
  Li  Li1  1  0.83947895  0.71746801  0.56846702  1
  Li  Li2  1  0.70531497  0.42034100  0.13909802  1
  Li  Li3  1  0.28497397  0.57965900  0.86090201  1
  Li  Li4  1  0.00020000  0.00000000  -0.00000000  1
  Li  Li5  1  0.43200395  0.85039501  0.27882203  1
  Cu  Cu6  1  0.58160898  0.14960500  0.72117799  1
  S  S7  1  0.24844600  0.00000000  0.49999999  1
  S  S8  1  0.82163998  0.13772300  0.20798700  1
  S  S9  1  0.68391695  0.86227701  0.79201302  1
  S  S10  1  0.52091697  0.56208000  0.35419102  1
  S  S11  1  0.95883696  0.43792000  0.64580901  1
  S  S12  1  0.09665396  0.71765701  0.07327903  1
  S  S13  1  0.37899798  0.28234300  0.92672099  1
