# generated using pymatgen
data_Fe2N
_symmetry_space_group_name_H-M   'P 1'
_cell_length_a   2.55130434
_cell_length_b   2.55130434
_cell_length_c   4.43369389
_cell_angle_alpha   73.27864075
_cell_angle_beta   73.27864075
_cell_angle_gamma   59.99999237
_symmetry_Int_Tables_number   1
_chemical_formula_structural   Fe2N
_chemical_formula_sum   'Fe2 N1'
_cell_volume   23.57351165
_cell_formula_units_Z   1
loop_
 _symmetry_equiv_pos_site_id
 _symmetry_equiv_pos_as_xyz
  1  'x, y, z'
loop_
 _atom_site_type_symbol
 _atom_site_label
 _atom_site_symmetry_multiplicity
 _atom_site_fract_x
 _atom_site_fract_y
 _atom_site_fract_z
 _atom_site_occupancy
  Fe  Fe0  1  0.25267299  0.25267300  0.24198099  1
  Fe  Fe1  1  0.74732698  0.74732699  0.75801897  1
  N  N2  1  0.49999999  0.49999999  0.49999998  1
