# generated using pymatgen
data_BaCo6O7
_symmetry_space_group_name_H-M   'P 1'
_cell_length_a   3.93784189
_cell_length_b   3.95475745
_cell_length_c   13.05467033
_cell_angle_alpha   94.28859711
_cell_angle_beta   96.40472412
_cell_angle_gamma   90.02396393
_symmetry_Int_Tables_number   1
_chemical_formula_structural   BaCo6O7
_chemical_formula_sum   'Ba1 Co6 O7'
_cell_volume   201.46068588
_cell_formula_units_Z   1
loop_
 _symmetry_equiv_pos_site_id
 _symmetry_equiv_pos_as_xyz
  1  'x, y, z'
loop_
 _atom_site_type_symbol
 _atom_site_label
 _atom_site_symmetry_multiplicity
 _atom_site_fract_x
 _atom_site_fract_y
 _atom_site_fract_z
 _atom_site_occupancy
  Ba  Ba0  1  0.50000003  0.49999999  0.00000001  1
  Co  Co1  1  0.06162500  0.04890300  0.16016400  1
  Co  Co2  1  0.93837505  0.95109698  0.83983603  1
  Co  Co3  1  0.25609801  0.23635199  0.59903001  1
  Co  Co4  1  0.74390204  0.76364798  0.40097002  1
  Co  Co5  1  0.10743401  0.06742400  0.30815301  1
  Co  Co6  1  0.89256605  0.93257598  0.69184703  1
  O  O7  1  0.55025202  0.03787900  0.14245501  1
  O  O8  1  0.75549203  0.24717499  0.49767502  1
  O  O9  1  0.24450803  0.75282498  0.50232501  1
  O  O10  1  0.04353901  0.53826899  0.14180300  1
  O  O11  1  0.44974804  0.96212097  0.85754502  1
  O  O12  1  0.95646104  0.46173099  0.85819703  1
  O  O13  1  0.00000000  0.00000000  0.00000000  1
