# generated using pymatgen
data_KSbSe3
_symmetry_space_group_name_H-M   'P 1'
_cell_length_a   7.62941980
_cell_length_b   7.74739838
_cell_length_c   7.62941980
_cell_angle_alpha   119.49752045
_cell_angle_beta   90.00000000
_cell_angle_gamma   119.49752045
_symmetry_Int_Tables_number   1
_chemical_formula_structural   KSbSe3
_chemical_formula_sum   'K2 Sb2 Se6'
_cell_volume   323.66061682
_cell_formula_units_Z   2
loop_
 _symmetry_equiv_pos_site_id
 _symmetry_equiv_pos_as_xyz
  1  'x, y, z'
loop_
 _atom_site_type_symbol
 _atom_site_label
 _atom_site_symmetry_multiplicity
 _atom_site_fract_x
 _atom_site_fract_y
 _atom_site_fract_z
 _atom_site_occupancy
  K  K0  1  0.24999998  0.49999998  0.74999999  1
  K  K1  1  0.74999999  0.49999998  0.24999998  1
  Sb  Sb2  1  0.50000001  0.00000000  0.50000001  1
  Sb  Sb3  1  0.00000000  0.00000000  0.00000000  1
  Se  Se4  1  0.28741997  0.57483998  0.28741997  1
  Se  Se5  1  0.71257999  0.42515998  0.71257999  1
  Se  Se6  1  0.78277002  0.00000000  0.21723001  1
  Se  Se7  1  0.21723001  0.00000000  0.78277002  1
  Se  Se8  1  0.78277002  0.00000000  0.78277002  1
  Se  Se9  1  0.21723001  0.00000000  0.21723001  1
