# generated using pymatgen
data_Li2CoO4
_symmetry_space_group_name_H-M   'P 1'
_cell_length_a   3.80716395
_cell_length_b   5.61105299
_cell_length_c   7.11233854
_cell_angle_alpha   101.12264252
_cell_angle_beta   90.00000000
_cell_angle_gamma   90.00000000
_symmetry_Int_Tables_number   1
_chemical_formula_structural   Li2CoO4
_chemical_formula_sum   'Li4 Co2 O8'
_cell_volume   149.08131526
_cell_formula_units_Z   2
loop_
 _symmetry_equiv_pos_site_id
 _symmetry_equiv_pos_as_xyz
  1  'x, y, z'
loop_
 _atom_site_type_symbol
 _atom_site_label
 _atom_site_symmetry_multiplicity
 _atom_site_fract_x
 _atom_site_fract_y
 _atom_site_fract_z
 _atom_site_occupancy
  Li  Li0  1  0.25000000  0.26830700  0.57199101  1
  Li  Li1  1  0.75000001  0.73169301  0.42800903  1
  Li  Li2  1  0.25000000  0.15272800  0.12900901  1
  Li  Li3  1  0.75000001  0.84727201  0.87099103  1
  Co  Co4  1  0.25000000  0.65505701  0.11244803  1
  Co  Co5  1  0.75000001  0.34494300  0.88755201  1
  O  O6  1  0.75000001  0.05859200  0.69261100  1
  O  O7  1  0.75000001  0.14125500  0.07116301  1
  O  O8  1  0.75000001  0.54430801  0.69672902  1
  O  O9  1  0.25000000  0.35730400  0.92550501  1
  O  O10  1  0.25000000  0.45569201  0.30327102  1
  O  O11  1  0.25000000  0.85874501  0.92883703  1
  O  O12  1  0.75000001  0.64269601  0.07449503  1
  O  O13  1  0.25000000  0.94140801  0.30738904  1
