# generated using pymatgen
data_ZrAl12
_symmetry_space_group_name_H-M   'P 1'
_cell_length_a   5.08165979
_cell_length_b   6.73066473
_cell_length_c   6.73066473
_cell_angle_alpha   81.80707550
_cell_angle_beta   67.82105255
_cell_angle_gamma   67.82105255
_symmetry_Int_Tables_number   1
_chemical_formula_structural   ZrAl12
_chemical_formula_sum   'Zr1 Al12'
_cell_volume   197.40231908
_cell_formula_units_Z   1
loop_
 _symmetry_equiv_pos_site_id
 _symmetry_equiv_pos_as_xyz
  1  'x, y, z'
loop_
 _atom_site_type_symbol
 _atom_site_label
 _atom_site_symmetry_multiplicity
 _atom_site_fract_x
 _atom_site_fract_y
 _atom_site_fract_z
 _atom_site_occupancy
  Zr  Zr0  1  0.00000000  0.00000000  0.00000000  1
  Al  Al1  1  0.34532806  0.65467199  0.65467200  1
  Al  Al2  1  0.00000005  0.65467199  0.34532799  1
  Al  Al3  1  0.00000003  0.34532799  0.65467199  1
  Al  Al4  1  0.65467204  0.34532799  0.34532802  1
  Al  Al5  1  0.28309902  0.21690100  0.21690101  1
  Al  Al6  1  0.50000003  0.21690100  0.78309901  1
  Al  Al7  1  0.50000007  0.78309898  0.21690101  1
  Al  Al8  1  0.71690107  0.78309898  0.78309901  1
  Al  Al9  1  0.50000005  0.49999999  0.00000001  1
  Al  Al10  1  0.00000000  0.00000000  0.50000000  1
  Al  Al11  1  0.50000008  0.99999998  0.50000000  1
  Al  Al12  1  0.00000004  0.49999999  -0.00000001  1
