# generated using pymatgen
data_Hf6SiP9
_symmetry_space_group_name_H-M   'P 1'
_cell_length_a   4.55493402
_cell_length_b   6.01329136
_cell_length_c   10.95229721
_cell_angle_alpha   101.92945862
_cell_angle_beta   90.00000000
_cell_angle_gamma   90.00000000
_symmetry_Int_Tables_number   1
_chemical_formula_structural   Hf6SiP9
_chemical_formula_sum   'Hf6 Si1 P9'
_cell_volume   293.50618764
_cell_formula_units_Z   1
loop_
 _symmetry_equiv_pos_site_id
 _symmetry_equiv_pos_as_xyz
  1  'x, y, z'
loop_
 _atom_site_type_symbol
 _atom_site_label
 _atom_site_symmetry_multiplicity
 _atom_site_fract_x
 _atom_site_fract_y
 _atom_site_fract_z
 _atom_site_occupancy
  Hf  Hf0  1  0.75000000  0.35033200  0.53669599  1
  Hf  Hf1  1  0.75000000  0.66548900  0.84291598  1
  Hf  Hf2  1  0.25000000  0.01843300  0.61829498  1
  Hf  Hf3  1  0.25000000  0.64966800  0.46330399  1
  Hf  Hf4  1  0.25000000  0.30177600  0.92729198  1
  Si  Si5  1  0.25000000  0.86556500  0.89091798  1
  P  P6  1  0.75000000  0.55676400  0.36343099  1
  Hf  Hf7  1  0.25000000  0.74897400  0.17007000  1
  P  P8  1  0.75000000  0.69822400  0.07270800  1
  P  P9  1  0.75000000  0.89205200  0.67341299  1
  P  P10  1  0.75000000  0.98156700  0.38170500  1
  P  P11  1  0.25000000  0.44323600  0.63656899  1
  P  P12  1  0.75000000  0.25102600  0.82992998  1
  P  P13  1  0.25000000  0.33451100  0.15708400  1
  P  P14  1  0.75000000  0.13443500  0.10908200  1
  P  P15  1  0.25000000  0.10794800  0.32658699  1
