# generated using pymatgen
data_La3Ge8
_symmetry_space_group_name_H-M   'P 1'
_cell_length_a   4.53233480
_cell_length_b   7.07256794
_cell_length_c   8.43727779
_cell_angle_alpha   114.77943420
_cell_angle_beta   105.58036804
_cell_angle_gamma   90.00000000
_symmetry_Int_Tables_number   1
_chemical_formula_structural   La3Ge8
_chemical_formula_sum   'La3 Ge8'
_cell_volume   234.56652248
_cell_formula_units_Z   1
loop_
 _symmetry_equiv_pos_site_id
 _symmetry_equiv_pos_as_xyz
  1  'x, y, z'
loop_
 _atom_site_type_symbol
 _atom_site_label
 _atom_site_symmetry_multiplicity
 _atom_site_fract_x
 _atom_site_fract_y
 _atom_site_fract_z
 _atom_site_occupancy
  La  La0  1  0.13246401  0.63246402  0.26492805  1
  La  La1  1  0.86753603  0.36753601  0.73507204  1
  La  La2  1  0.00000000  0.00000000  0.00000000  1
  Ge  Ge3  1  0.67038703  0.98318404  0.34077406  1
  Ge  Ge4  1  0.32961301  0.01681600  0.65922602  1
  Ge  Ge5  1  0.67038702  0.35759001  0.34077402  1
  Ge  Ge6  1  0.32961302  0.64241002  0.65922606  1
  Ge  Ge7  1  0.78229103  0.78229103  0.56458206  1
  Ge  Ge8  1  0.21770901  0.21770901  0.43541803  1
  Ge  Ge9  1  0.50000002  0.69898603  0.00000003  1
  Ge  Ge10  1  0.50000002  0.30101401  0.00000001  1
