# generated using pymatgen
data_CaZn
_symmetry_space_group_name_H-M   'P 1'
_cell_length_a   4.75064611
_cell_length_b   5.37990808
_cell_length_c   4.75064611
_cell_angle_alpha   116.20073700
_cell_angle_beta   90.00000000
_cell_angle_gamma   116.20073700
_symmetry_Int_Tables_number   1
_chemical_formula_structural   CaZn
_chemical_formula_sum   'Ca2 Zn2'
_cell_volume   94.83956395
_cell_formula_units_Z   2
loop_
 _symmetry_equiv_pos_site_id
 _symmetry_equiv_pos_as_xyz
  1  'x, y, z'
loop_
 _atom_site_type_symbol
 _atom_site_label
 _atom_site_symmetry_multiplicity
 _atom_site_fract_x
 _atom_site_fract_y
 _atom_site_fract_z
 _atom_site_occupancy
  Ca  Ca0  1  0.24999998  0.49999997  0.74999997  1
  Ca  Ca1  1  0.74999997  0.49999997  0.24999998  1
  Zn  Zn2  1  0.49999999  0.00000000  0.49999999  1
  Zn  Zn3  1  0.00000000  0.00000000  0.00000000  1
