# generated using pymatgen
data_EuCd2
_symmetry_space_group_name_H-M   'P 1'
_cell_length_a   5.20883179
_cell_length_b   6.58011341
_cell_length_c   6.65859175
_cell_angle_alpha   76.59894562
_cell_angle_beta   66.97478485
_cell_angle_gamma   66.68405914
_symmetry_Int_Tables_number   1
_chemical_formula_structural   EuCd2
_chemical_formula_sum   'Eu2 Cd4'
_cell_volume   192.08570835
_cell_formula_units_Z   2
loop_
 _symmetry_equiv_pos_site_id
 _symmetry_equiv_pos_as_xyz
  1  'x, y, z'
loop_
 _atom_site_type_symbol
 _atom_site_label
 _atom_site_symmetry_multiplicity
 _atom_site_fract_x
 _atom_site_fract_y
 _atom_site_fract_z
 _atom_site_occupancy
  Eu  Eu0  1  0.45617606  0.29286400  0.79478398  1
  Eu  Eu1  1  0.54382410  0.70713600  0.20521596  1
  Cd  Cd2  1  0.84584812  0.70714700  0.60115695  1
  Cd  Cd3  1  0.15415204  0.29285300  0.39884299  1
  Cd  Cd4  1  0.16752110  0.89178900  0.77316897  1
  Cd  Cd5  1  0.83247906  0.10821100  0.22683097  1
