# generated using pymatgen
data_VP2
_symmetry_space_group_name_H-M   'P 1'
_cell_length_a   4.60017538
_cell_length_b   4.60017538
_cell_length_c   4.62099266
_cell_angle_alpha   105.56038666
_cell_angle_beta   105.56038666
_cell_angle_gamma   117.45581818
_symmetry_Int_Tables_number   1
_chemical_formula_structural   VP2
_chemical_formula_sum   'V2 P4'
_cell_volume   74.28920147
_cell_formula_units_Z   2
loop_
 _symmetry_equiv_pos_site_id
 _symmetry_equiv_pos_as_xyz
  1  'x, y, z'
loop_
 _atom_site_type_symbol
 _atom_site_label
 _atom_site_symmetry_multiplicity
 _atom_site_fract_x
 _atom_site_fract_y
 _atom_site_fract_z
 _atom_site_occupancy
  V  V0  1  0.74999999  0.25000000  0.50000005  1
  V  V1  1  0.25000002  0.75000000  0.50000006  1
  P  P2  1  0.33064302  0.66935700  0.00000005  1
  P  P3  1  0.66935700  0.33064300  0.00000005  1
  P  P4  1  0.16872500  0.16872500  0.33745002  1
  P  P5  1  0.83127501  0.83127500  0.66255010  1
