# generated using pymatgen
data_TlZnPb
_symmetry_space_group_name_H-M   'P 1'
_cell_length_a   3.42458010
_cell_length_b   4.96043777
_cell_length_c   4.96043777
_cell_angle_alpha   120.00000000
_cell_angle_beta   90.00000000
_cell_angle_gamma   90.00000000
_symmetry_Int_Tables_number   1
_chemical_formula_structural   TlZnPb
_chemical_formula_sum   'Tl1 Zn1 Pb1'
_cell_volume   72.97565003
_cell_formula_units_Z   1
loop_
 _symmetry_equiv_pos_site_id
 _symmetry_equiv_pos_as_xyz
  1  'x, y, z'
loop_
 _atom_site_type_symbol
 _atom_site_label
 _atom_site_symmetry_multiplicity
 _atom_site_fract_x
 _atom_site_fract_y
 _atom_site_fract_z
 _atom_site_occupancy
  Tl  Tl0  1  0.00000000  0.00000000  0.00000000  1
  Zn  Zn1  1  0.49999999  0.66666668  0.33333330  1
  Pb  Pb2  1  0.49999999  0.33333334  0.66666665  1
