# generated using pymatgen
data_LiYb2BeH5O7
_symmetry_space_group_name_H-M   'P 1'
_cell_length_a   4.62219191
_cell_length_b   4.62219238
_cell_length_c   8.98741245
_cell_angle_alpha   90.00000000
_cell_angle_beta   90.00000000
_cell_angle_gamma   120.00000000
_symmetry_Int_Tables_number   1
_chemical_formula_structural   LiYb2BeH5O7
_chemical_formula_sum   'Li1 Yb2 Be1 H5 O7'
_cell_volume   166.28814738
_cell_formula_units_Z   1
loop_
 _symmetry_equiv_pos_site_id
 _symmetry_equiv_pos_as_xyz
  1  'x, y, z'
loop_
 _atom_site_type_symbol
 _atom_site_label
 _atom_site_symmetry_multiplicity
 _atom_site_fract_x
 _atom_site_fract_y
 _atom_site_fract_z
 _atom_site_occupancy
  Yb  Yb0  1  0.33333337  0.66666666  0.24999999  1
  Yb  Yb1  1  0.66666669  0.33333333  0.74999996  1
  Li  Li2  1  0.00000000  0.00000000  0.00000000  1
  Be  Be3  1  0.00000000  0.00000000  0.49999997  1
  H  H4  1  0.66666669  0.33333333  0.42874698  1
  H  H5  1  0.66666669  0.33333333  0.07125300  1
  H  H6  1  0.33333337  0.66666666  0.57125297  1
  H  H7  1  0.33333337  0.66666666  0.92874695  1
  O  O8  1  0.33388302  0.33388300  0.49999997  1
  O  O9  1  0.66611701  0.00000000  0.99999995  1
  H  H10  1  0.33333337  0.66666666  0.74999996  1
  O  O11  1  0.66666669  0.33333333  0.24999999  1
  O  O12  1  0.33388302  0.33388300  0.99999995  1
  O  O13  1  0.66611701  0.00000000  0.49999997  1
  O  O14  1  0.00000003  0.66611700  0.49999997  1
  O  O15  1  0.00000003  0.66611700  -0.00000000  1
