# generated using pymatgen
data_EuO
_symmetry_space_group_name_H-M   'P 1'
_cell_length_a   3.68820405
_cell_length_b   4.12550306
_cell_length_c   9.00969124
_cell_angle_alpha   90.00000000
_cell_angle_beta   90.00000000
_cell_angle_gamma   90.00000000
_symmetry_Int_Tables_number   1
_chemical_formula_structural   EuO
_chemical_formula_sum   'Eu3 O3'
_cell_volume   137.08873290
_cell_formula_units_Z   3
loop_
 _symmetry_equiv_pos_site_id
 _symmetry_equiv_pos_as_xyz
  1  'x, y, z'
loop_
 _atom_site_type_symbol
 _atom_site_label
 _atom_site_symmetry_multiplicity
 _atom_site_fract_x
 _atom_site_fract_y
 _atom_site_fract_z
 _atom_site_occupancy
  Eu  Eu0  1  0.49999999  0.49999999  0.88829998  1
  Eu  Eu1  1  0.00000000  0.00000000  0.11170000  1
  Eu  Eu2  1  -0.00000000  0.49999999  0.66820998  1
  O  O3  1  0.49999999  0.00000000  0.33178999  1
  O  O4  1  -0.00000000  0.49999999  0.03635600  1
  O  O5  1  0.49999999  0.00000000  0.96364397  1
