# generated using pymatgen
data_Sm4Sn3
_symmetry_space_group_name_H-M   'P 1'
_cell_length_a   7.90347242
_cell_length_b   7.90347242
_cell_length_c   7.90347242
_cell_angle_alpha   109.47122192
_cell_angle_beta   109.47122192
_cell_angle_gamma   109.47122192
_symmetry_Int_Tables_number   1
_chemical_formula_structural   Sm4Sn3
_chemical_formula_sum   'Sm8 Sn6'
_cell_volume   380.04228047
_cell_formula_units_Z   2
loop_
 _symmetry_equiv_pos_site_id
 _symmetry_equiv_pos_as_xyz
  1  'x, y, z'
loop_
 _atom_site_type_symbol
 _atom_site_label
 _atom_site_symmetry_multiplicity
 _atom_site_fract_x
 _atom_site_fract_y
 _atom_site_fract_z
 _atom_site_occupancy
  Sm  Sm0  1  0.86764502  0.00000000  0.00000002  1
  Sm  Sm1  1  0.13235501  0.13235501  0.63235502  1
  Sm  Sm2  1  1.00000005  0.50000003  0.86764506  1
  Sm  Sm3  1  0.50000003  0.36764502  0.50000004  1
  Sm  Sm4  1  1.00000005  0.50000003  0.36764506  1
  Sm  Sm5  1  0.50000007  0.86764505  0.50000007  1
  Sm  Sm6  1  0.63235505  0.63235503  0.13235505  1
  Sm  Sm7  1  0.36764507  1.00000005  0.00000006  1
  Sn  Sn8  1  0.75000003  0.12500001  0.37500003  1
  Sn  Sn9  1  0.62500003  0.25000001  0.87500004  1
  Sn  Sn10  1  0.87500007  0.75000004  0.62500007  1
  Sn  Sn11  1  0.12500006  0.87500005  0.25000006  1
  Sn  Sn12  1  0.37500005  0.62500003  0.75000005  1
  Sn  Sn13  1  0.25000003  0.37500002  0.12500003  1
