# generated using pymatgen
data_K3Ba(AgSn3)2
_symmetry_space_group_name_H-M   'P 1'
_cell_length_a   4.51552820
_cell_length_b   8.97592068
_cell_length_c   11.81866455
_cell_angle_alpha   90.00000000
_cell_angle_beta   90.00000000
_cell_angle_gamma   104.56840515
_symmetry_Int_Tables_number   1
_chemical_formula_structural   K3Ba(AgSn3)2
_chemical_formula_sum   'K3 Ba1 Ag2 Sn6'
_cell_volume   463.62104176
_cell_formula_units_Z   1
loop_
 _symmetry_equiv_pos_site_id
 _symmetry_equiv_pos_as_xyz
  1  'x, y, z'
loop_
 _atom_site_type_symbol
 _atom_site_label
 _atom_site_symmetry_multiplicity
 _atom_site_fract_x
 _atom_site_fract_y
 _atom_site_fract_z
 _atom_site_occupancy
  Ba  Ba0  1  0.24874303  0.49748600  0.75000003  1
  K  K1  1  0.75125701  0.50251400  0.25000001  1
  K  K2  1  0.00000000  0.00000000  0.50000002  1
  K  K3  1  0.00000000  0.00000000  0.00000000  1
  Ag  Ag4  1  0.46205106  0.92410199  0.25000001  1
  Ag  Ag5  1  0.53794898  0.07589800  0.75000003  1
  Sn  Sn6  1  0.38114405  0.76228799  0.04390500  1
  Sn  Sn7  1  0.61885599  0.23771200  0.95609504  1
  Sn  Sn8  1  0.93541503  0.87082999  0.75000003  1
  Sn  Sn9  1  0.06458501  0.12917000  0.25000001  1
  Sn  Sn10  1  0.38114405  0.76228799  0.45609502  1
  Sn  Sn11  1  0.61885599  0.23771200  0.54390502  1
