# generated using pymatgen
data_Li5NiO4
_symmetry_space_group_name_H-M   'P 1'
_cell_length_a   5.24098110
_cell_length_b   5.42487383
_cell_length_c   5.70733690
_cell_angle_alpha   118.37751007
_cell_angle_beta   90.00000000
_cell_angle_gamma   90.00000000
_symmetry_Int_Tables_number   1
_chemical_formula_structural   Li5NiO4
_chemical_formula_sum   'Li5 Ni1 O4'
_cell_volume   142.77003880
_cell_formula_units_Z   1
loop_
 _symmetry_equiv_pos_site_id
 _symmetry_equiv_pos_as_xyz
  1  'x, y, z'
loop_
 _atom_site_type_symbol
 _atom_site_label
 _atom_site_symmetry_multiplicity
 _atom_site_fract_x
 _atom_site_fract_y
 _atom_site_fract_z
 _atom_site_occupancy
  Li  Li0  1  0.49999999  0.50000001  -0.00000002  1
  Li  Li1  1  0.00000000  0.00000000  0.00000000  1
  Li  Li2  1  0.19283500  0.73304501  0.07285598  1
  Li  Li3  1  0.69283499  0.76695501  0.92714401  1
  O  O4  1  0.41276999  0.31241000  0.66108701  1
  Li  Li5  1  0.91276998  0.18759000  0.33891301  1
  O  O6  1  0.58722999  0.68759001  0.33891299  1
  Ni  Ni7  1  0.08723000  0.81241001  0.66108700  1
  O  O8  1  0.30716499  0.23304500  0.07285600  1
  O  O9  1  0.80716498  0.26695500  0.92714403  1
