# generated using pymatgen
data_CuS2
_symmetry_space_group_name_H-M   'P 1'
_cell_length_a   5.74293184
_cell_length_b   5.75666523
_cell_length_c   5.79282570
_cell_angle_alpha   90.00000000
_cell_angle_beta   89.85408020
_cell_angle_gamma   90.00000000
_symmetry_Int_Tables_number   1
_chemical_formula_structural   CuS2
_chemical_formula_sum   'Cu4 S8'
_cell_volume   191.51098468
_cell_formula_units_Z   4
loop_
 _symmetry_equiv_pos_site_id
 _symmetry_equiv_pos_as_xyz
  1  'x, y, z'
loop_
 _atom_site_type_symbol
 _atom_site_label
 _atom_site_symmetry_multiplicity
 _atom_site_fract_x
 _atom_site_fract_y
 _atom_site_fract_z
 _atom_site_occupancy
  Cu  Cu0  1  0.50000001  0.00000000  0.50000000  1
  Cu  Cu1  1  0.00000000  0.49999998  0.50000001  1
  Cu  Cu2  1  0.00000000  0.00000000  0.00000000  1
  Cu  Cu3  1  0.50000001  0.49999998  -0.00000000  1
  S  S4  1  0.89787902  0.40115298  0.88927001  1
  S  S5  1  0.60212102  0.90115296  0.11073000  1
  S  S6  1  0.38532001  0.61523598  0.59791601  1
  S  S7  1  0.11468000  0.11523600  0.40208401  1
  S  S8  1  0.10212100  0.59884698  0.11073000  1
  S  S9  1  0.39787901  0.09884700  0.88927001  1
  S  S10  1  0.61468002  0.38476398  0.40208400  1
  S  S11  1  0.88532002  0.88476396  0.59791600  1
