# generated using pymatgen
data_Tl5TeSe10
_symmetry_space_group_name_H-M   'P 1'
_cell_length_a   4.17206383
_cell_length_b   10.83216381
_cell_length_c   11.93111229
_cell_angle_alpha   65.50188446
_cell_angle_beta   79.93067169
_cell_angle_gamma   78.89675140
_symmetry_Int_Tables_number   1
_chemical_formula_structural   Tl5TeSe10
_chemical_formula_sum   'Tl5 Te1 Se10'
_cell_volume   478.73939247
_cell_formula_units_Z   1
loop_
 _symmetry_equiv_pos_site_id
 _symmetry_equiv_pos_as_xyz
  1  'x, y, z'
loop_
 _atom_site_type_symbol
 _atom_site_label
 _atom_site_symmetry_multiplicity
 _atom_site_fract_x
 _atom_site_fract_y
 _atom_site_fract_z
 _atom_site_occupancy
  Tl  Tl0  1  0.83708995  0.88857101  0.43724904  1
  Tl  Tl1  1  0.16291000  0.11142900  0.56275099  1
  Tl  Tl2  1  0.20265894  0.69160401  0.90307801  1
  Tl  Tl3  1  0.79734100  0.30839601  0.09692202  1
  Tl  Tl4  1  0.45049499  0.32787301  0.77113700  1
  Te  Te5  1  0.54950496  0.67212701  0.22886303  1
  Se  Se6  1  0.96091896  0.85646101  0.22170104  1
  Se  Se7  1  0.17807196  0.50026401  0.14359202  1
  Se  Se8  1  0.71474094  0.91876402  0.65175403  1
  Se  Se9  1  0.59647595  0.82985501  0.97719302  1
  Se  Se10  1  0.40352400  0.17014500  0.02280701  1
  Se  Se11  1  0.82192799  0.49973601  0.85640801  1
  Se  Se12  1  0.03908099  0.14353900  0.77829899  1
  Se  Se13  1  0.28525900  0.08123600  0.34824600  1
  Se  Se14  1  0.39791195  0.67434201  0.52983402  1
  Se  Se15  1  0.60208799  0.32565801  0.47016601  1
