# generated using pymatgen
data_DySi
_symmetry_space_group_name_H-M   'P 1'
_cell_length_a   5.89745378
_cell_length_b   7.61663389
_cell_length_c   9.32035160
_cell_angle_alpha   82.96460724
_cell_angle_beta   71.55615234
_cell_angle_gamma   67.22315216
_symmetry_Int_Tables_number   1
_chemical_formula_structural   DySi
_chemical_formula_sum   'Dy8 Si8'
_cell_volume   366.18358443
_cell_formula_units_Z   8
loop_
 _symmetry_equiv_pos_site_id
 _symmetry_equiv_pos_as_xyz
  1  'x, y, z'
loop_
 _atom_site_type_symbol
 _atom_site_label
 _atom_site_symmetry_multiplicity
 _atom_site_fract_x
 _atom_site_fract_y
 _atom_site_fract_z
 _atom_site_occupancy
  Dy  Dy0  1  0.75048606  0.49902798  0.49999997  1
  Dy  Dy1  1  0.65457703  0.01301500  0.66280698  1
  Dy  Dy2  1  0.00048605  0.99902797  -0.00000002  1
  Dy  Dy3  1  0.06738503  0.51301398  0.83719298  1
  Dy  Dy4  1  0.33240702  0.01301500  0.33719399  1
  Dy  Dy5  1  0.41960205  0.51301398  0.16280598  1
  Dy  Dy6  1  0.07034902  0.31356299  0.13834799  1
  Dy  Dy7  1  0.61608704  0.31356299  0.86165298  1
  Si  Si8  1  0.74106004  0.17392399  0.32595298  1
  Si  Si9  1  0.22774105  0.81356197  0.63834697  1
  Si  Si10  1  0.81701307  0.67392398  0.17404697  1
  Si  Si11  1  0.55262007  0.89475997  -0.00000003  1
  Si  Si12  1  0.08501601  0.17392399  0.67404699  1
  Si  Si13  1  0.95869808  0.81356197  0.36165197  1
  Si  Si14  1  0.50906306  0.67392398  0.82595297  1
  Si  Si15  1  0.30262003  0.39475999  0.49999998  1
