# generated using pymatgen
data_CrP4O7
_symmetry_space_group_name_H-M   'P 1'
_cell_length_a   4.93388081
_cell_length_b   6.78052807
_cell_length_c   7.00450087
_cell_angle_alpha   117.20759583
_cell_angle_beta   96.35381317
_cell_angle_gamma   103.41652679
_symmetry_Int_Tables_number   1
_chemical_formula_structural   CrP4O7
_chemical_formula_sum   'Cr1 P4 O7'
_cell_volume   196.24952132
_cell_formula_units_Z   1
loop_
 _symmetry_equiv_pos_site_id
 _symmetry_equiv_pos_as_xyz
  1  'x, y, z'
loop_
 _atom_site_type_symbol
 _atom_site_label
 _atom_site_symmetry_multiplicity
 _atom_site_fract_x
 _atom_site_fract_y
 _atom_site_fract_z
 _atom_site_occupancy
  Cr  Cr0  1  0.10374594  0.57740298  0.52647600  1
  P  P1  1  0.95551396  0.04082500  0.24165997  1
  P  P2  1  0.68997889  0.86367598  0.75277299  1
  P  P3  1  0.44344389  0.86979597  0.37289299  1
  P  P4  1  0.60952198  0.01787200  0.64073299  1
  O  O5  1  0.97261394  0.29915999  0.43420698  1
  O  O6  1  0.88983897  0.02996300  0.00295897  1
  O  O7  1  0.69382089  0.83795898  0.23805598  1
  O  O8  1  0.85427790  0.69432098  0.59765898  1
  O  O9  1  0.37917491  0.69952798  0.74405200  1
  O  O10  1  0.26125399  0.00074200  0.29264400  1
  O  O11  1  0.22376693  0.62325298  0.33363900  1
