# generated using pymatgen
data_RbCa2SbO2
_symmetry_space_group_name_H-M   'P 1'
_cell_length_a   3.99548817
_cell_length_b   3.99548817
_cell_length_c   10.38279343
_cell_angle_alpha   78.90658569
_cell_angle_beta   78.90658569
_cell_angle_gamma   59.99999619
_symmetry_Int_Tables_number   1
_chemical_formula_structural   RbCa2SbO2
_chemical_formula_sum   'Rb1 Ca2 Sb1 O2'
_cell_volume   139.95621075
_cell_formula_units_Z   1
loop_
 _symmetry_equiv_pos_site_id
 _symmetry_equiv_pos_as_xyz
  1  'x, y, z'
loop_
 _atom_site_type_symbol
 _atom_site_label
 _atom_site_symmetry_multiplicity
 _atom_site_fract_x
 _atom_site_fract_y
 _atom_site_fract_z
 _atom_site_occupancy
  Ca  Ca0  1  0.21507500  0.21507500  0.35477502  1
  Ca  Ca1  1  0.78492502  0.78492501  0.64522503  1
  Rb  Rb2  1  0.38623501  0.38623501  0.84129504  1
  Sb  Sb3  1  0.61376501  0.61376501  0.15870501  1
  O  O4  1  0.13733100  0.13733100  0.58800702  1
  O  O5  1  0.86266902  0.86266901  0.41199302  1
