# generated using pymatgen
data_Li4CoO7
_symmetry_space_group_name_H-M   'P 1'
_cell_length_a   3.53905535
_cell_length_b   6.29805326
_cell_length_c   6.71920252
_cell_angle_alpha   110.99558258
_cell_angle_beta   90.00000000
_cell_angle_gamma   90.00000000
_symmetry_Int_Tables_number   1
_chemical_formula_structural   Li4CoO7
_chemical_formula_sum   'Li4 Co1 O7'
_cell_volume   139.82215915
_cell_formula_units_Z   1
loop_
 _symmetry_equiv_pos_site_id
 _symmetry_equiv_pos_as_xyz
  1  'x, y, z'
loop_
 _atom_site_type_symbol
 _atom_site_label
 _atom_site_symmetry_multiplicity
 _atom_site_fract_x
 _atom_site_fract_y
 _atom_site_fract_z
 _atom_site_occupancy
  Li  Li0  1  0.75980300  0.67237037  0.20281711  1
  Li  Li1  1  0.25980300  0.32762968  0.79718294  1
  Li  Li2  1  0.75988102  0.85139462  0.77059777  1
  Li  Li3  1  0.25988102  0.14860543  0.22940228  1
  Co  Co4  1  0.25983588  0.90499282  0.85018627  1
  O  O5  1  0.75989052  0.69922148  0.51842159  1
  O  O6  1  0.25989052  0.30077856  0.48157845  1
  O  O7  1  0.75983588  0.09500722  0.14981377  1
  O  O8  1  0.25980288  0.85444304  0.25267827  1
  O  O9  1  0.25979071  0.38824384  0.11433331  1
  O  O10  1  0.75979071  0.61175621  0.88566674  1
  O  O11  1  0.75980288  0.14555701  0.74732178  1
