# generated using pymatgen
data_Eu4ZnGeS4
_symmetry_space_group_name_H-M   'P 1'
_cell_length_a   4.25901413
_cell_length_b   4.25901461
_cell_length_c   17.59004593
_cell_angle_alpha   90.00000000
_cell_angle_beta   90.00000000
_cell_angle_gamma   119.99999237
_symmetry_Int_Tables_number   1
_chemical_formula_structural   Eu4ZnGeS4
_chemical_formula_sum   'Eu4 Zn1 Ge1 S4'
_cell_volume   276.32224514
_cell_formula_units_Z   1
loop_
 _symmetry_equiv_pos_site_id
 _symmetry_equiv_pos_as_xyz
  1  'x, y, z'
loop_
 _atom_site_type_symbol
 _atom_site_label
 _atom_site_symmetry_multiplicity
 _atom_site_fract_x
 _atom_site_fract_y
 _atom_site_fract_z
 _atom_site_occupancy
  Eu  Eu0  1  0.00000000  0.00000000  0.89300500  1
  Eu  Eu1  1  0.00000000  0.00000000  0.10699500  1
  Eu  Eu2  1  0.00000000  0.00000000  0.39300500  1
  Eu  Eu3  1  0.00000000  0.00000000  0.60699500  1
  Zn  Zn4  1  0.66666663  0.33333332  0.49916200  1
  Ge  Ge5  1  0.33333328  0.66666664  0.50083800  1
  S  S6  1  0.33333328  0.66666664  0.99916200  1
  S  S7  1  0.66666663  0.33333332  0.00083800  1
  S  S8  1  0.66666663  0.33333332  0.75000000  1
  S  S9  1  0.33333328  0.66666664  0.25000000  1
