# generated using pymatgen
data_NaZrV2O8
_symmetry_space_group_name_H-M   'P 1'
_cell_length_a   5.97877789
_cell_length_b   5.97877741
_cell_length_c   7.90659285
_cell_angle_alpha   90.00000000
_cell_angle_beta   90.00000000
_cell_angle_gamma   120.00000000
_symmetry_Int_Tables_number   1
_chemical_formula_structural   NaZrV2O8
_chemical_formula_sum   'Na1 Zr1 V2 O8'
_cell_volume   244.76246095
_cell_formula_units_Z   1
loop_
 _symmetry_equiv_pos_site_id
 _symmetry_equiv_pos_as_xyz
  1  'x, y, z'
loop_
 _atom_site_type_symbol
 _atom_site_label
 _atom_site_symmetry_multiplicity
 _atom_site_fract_x
 _atom_site_fract_y
 _atom_site_fract_z
 _atom_site_occupancy
  Na  Na0  1  0.00000000  0.00000000  0.50000001  1
  Zr  Zr1  1  0.00000000  0.00000000  0.00000000  1
  V  V2  1  0.66666666  0.33333333  0.76435001  1
  V  V3  1  0.33333330  0.66666665  0.23565000  1
  O  O4  1  0.16539698  0.33079399  0.16541100  1
  O  O5  1  0.16539695  0.83460298  0.16541100  1
  O  O6  1  0.66920596  0.83460298  0.16541100  1
  O  O7  1  0.33079400  0.16539700  0.83458902  1
  O  O8  1  0.66666666  0.33333333  0.53975001  1
  O  O9  1  0.33333330  0.66666665  0.46025001  1
  O  O10  1  0.83460301  0.16539700  0.83458902  1
  O  O11  1  0.83460297  0.66920598  0.83458902  1
