# generated using pymatgen
data_Na2Ti2O3
_symmetry_space_group_name_H-M   'P 1'
_cell_length_a   5.89525414
_cell_length_b   6.11366224
_cell_length_c   6.34036112
_cell_angle_alpha   89.99990082
_cell_angle_beta   89.99989319
_cell_angle_gamma   64.00767517
_symmetry_Int_Tables_number   1
_chemical_formula_structural   Na2Ti2O3
_chemical_formula_sum   'Na4 Ti4 O6'
_cell_volume   205.40287797
_cell_formula_units_Z   2
loop_
 _symmetry_equiv_pos_site_id
 _symmetry_equiv_pos_as_xyz
  1  'x, y, z'
loop_
 _atom_site_type_symbol
 _atom_site_label
 _atom_site_symmetry_multiplicity
 _atom_site_fract_x
 _atom_site_fract_y
 _atom_site_fract_z
 _atom_site_occupancy
  Na  Na0  1  0.07625899  0.21175101  0.35396400  1
  Na  Na1  1  0.57625201  0.21175701  0.14603999  1
  Na  Na2  1  0.42374898  0.78825802  0.85396399  1
  Na  Na3  1  0.92374899  0.78825302  0.64603198  1
  Ti  Ti4  1  0.04387397  0.67937902  0.12059501  1
  Ti  Ti5  1  0.54387299  0.67938002  0.37940900  1
  Ti  Ti6  1  0.45611400  0.32063701  0.62055698  1
  Ti  Ti7  1  0.95611602  0.32063501  0.87943897  1
  O  O8  1  0.50000497  0.99998503  0.49999700  1
  O  O9  1  0.00000296  0.99998703  0.00000502  1
  O  O10  1  0.25993399  0.41241501  0.89869699  1
  O  O11  1  0.24007098  0.58757502  0.39869300  1
  O  O12  1  0.75993401  0.41240901  0.60130098  1
  O  O13  1  0.74006700  0.58758002  0.10130499  1
