# generated using pymatgen
data_BaSrO3
_symmetry_space_group_name_H-M   'P 1'
_cell_length_a   6.76606512
_cell_length_b   6.76606512
_cell_length_c   6.76606464
_cell_angle_alpha   61.64228058
_cell_angle_beta   61.64228058
_cell_angle_gamma   61.64227295
_symmetry_Int_Tables_number   1
_chemical_formula_structural   BaSrO3
_chemical_formula_sum   'Ba2 Sr2 O6'
_cell_volume   227.09115227
_cell_formula_units_Z   2
loop_
 _symmetry_equiv_pos_site_id
 _symmetry_equiv_pos_as_xyz
  1  'x, y, z'
loop_
 _atom_site_type_symbol
 _atom_site_label
 _atom_site_symmetry_multiplicity
 _atom_site_fract_x
 _atom_site_fract_y
 _atom_site_fract_z
 _atom_site_occupancy
  Ba  Ba0  1  0.87439695  0.87439697  0.87439709  1
  Ba  Ba1  1  0.12560299  0.12560300  0.12560301  1
  Sr  Sr2  1  0.64373696  0.64373698  0.64373707  1
  Sr  Sr3  1  0.35626298  0.35626299  0.35626304  1
  O  O4  1  0.74905095  0.95211697  0.47529208  1
  O  O5  1  0.47529197  0.74905097  0.95211707  1
  O  O6  1  0.95211695  0.47529198  0.74905107  1
  O  O7  1  0.25094899  0.04788300  0.52470803  1
  O  O8  1  0.04788299  0.52470798  0.25094903  1
  O  O9  1  0.52470797  0.25094899  0.04788303  1
