# generated using pymatgen
data_Na3LiCl4
_symmetry_space_group_name_H-M   'P 1'
_cell_length_a   3.96259189
_cell_length_b   3.96259189
_cell_length_c   13.27383804
_cell_angle_alpha   81.41577911
_cell_angle_beta   81.41577911
_cell_angle_gamma   60.00000381
_symmetry_Int_Tables_number   1
_chemical_formula_structural   Na3LiCl4
_chemical_formula_sum   'Na3 Li1 Cl4'
_cell_volume   177.80236818
_cell_formula_units_Z   1
loop_
 _symmetry_equiv_pos_site_id
 _symmetry_equiv_pos_as_xyz
  1  'x, y, z'
loop_
 _atom_site_type_symbol
 _atom_site_label
 _atom_site_symmetry_multiplicity
 _atom_site_fract_x
 _atom_site_fract_y
 _atom_site_fract_z
 _atom_site_occupancy
  Na  Na0  1  0.25071900  0.25071899  0.24784300  1
  Na  Na1  1  0.50000000  0.49999999  0.49999999  1
  Na  Na2  1  0.74928099  0.74928098  0.75215699  1
  Li  Li3  1  0.00000000  0.00000000  0.00000000  1
  Cl  Cl4  1  0.37236600  0.37236599  0.88290201  1
  Cl  Cl5  1  0.12467700  0.12467700  0.62596901  1
  Cl  Cl6  1  0.62763399  0.62763398  0.11709798  1
  Cl  Cl7  1  0.87532299  0.87532298  0.37403098  1
