# generated using pymatgen
data_SmScSi6
_symmetry_space_group_name_H-M   'P 1'
_cell_length_a   4.09172297
_cell_length_b   4.09172297
_cell_length_c   9.10242176
_cell_angle_alpha   90.00000000
_cell_angle_beta   90.00000000
_cell_angle_gamma   90.00000000
_symmetry_Int_Tables_number   1
_chemical_formula_structural   SmScSi6
_chemical_formula_sum   'Sm1 Sc1 Si6'
_cell_volume   152.39453669
_cell_formula_units_Z   1
loop_
 _symmetry_equiv_pos_site_id
 _symmetry_equiv_pos_as_xyz
  1  'x, y, z'
loop_
 _atom_site_type_symbol
 _atom_site_label
 _atom_site_symmetry_multiplicity
 _atom_site_fract_x
 _atom_site_fract_y
 _atom_site_fract_z
 _atom_site_occupancy
  Sm  Sm0  1  0.00000000  0.50000000  0.86503502  1
  Sc  Sc1  1  0.50000000  0.00000000  0.13496500  1
  Si  Si2  1  0.50000000  0.50000000  0.50000001  1
  Si  Si3  1  0.00000000  0.00000000  0.50000001  1
  Si  Si4  1  0.00000000  0.50000000  0.30695901  1
  Si  Si5  1  0.50000000  0.00000000  0.69304102  1
  Si  Si6  1  0.00000000  0.00000000  0.00000000  1
  Si  Si7  1  0.50000000  0.50000000  0.00000000  1
