# generated using pymatgen
data_KNaClO2
_symmetry_space_group_name_H-M   'P 1'
_cell_length_a   4.08091021
_cell_length_b   4.08091021
_cell_length_c   7.64442301
_cell_angle_alpha   105.48111725
_cell_angle_beta   105.48111725
_cell_angle_gamma   90.00000000
_symmetry_Int_Tables_number   1
_chemical_formula_structural   KNaClO2
_chemical_formula_sum   'K1 Na1 Cl1 O2'
_cell_volume   117.89015063
_cell_formula_units_Z   1
loop_
 _symmetry_equiv_pos_site_id
 _symmetry_equiv_pos_as_xyz
  1  'x, y, z'
loop_
 _atom_site_type_symbol
 _atom_site_label
 _atom_site_symmetry_multiplicity
 _atom_site_fract_x
 _atom_site_fract_y
 _atom_site_fract_z
 _atom_site_occupancy
  K  K0  1  0.33110200  0.33110199  0.66220400  1
  Na  Na1  1  0.66889799  0.66889798  0.33779603  1
  Cl  Cl2  1  0.00000000  0.00000000  0.00000000  1
  O  O3  1  0.25000001  0.74999997  0.50000002  1
  O  O4  1  0.74999998  0.24999999  0.50000001  1
