# generated using pymatgen
data_LaNi2IrC
_symmetry_space_group_name_H-M   'P 1'
_cell_length_a   3.70888591
_cell_length_b   3.70888591
_cell_length_c   7.24831152
_cell_angle_alpha   104.82365417
_cell_angle_beta   104.82365417
_cell_angle_gamma   90.00000000
_symmetry_Int_Tables_number   1
_chemical_formula_structural   LaNi2IrC
_chemical_formula_sum   'La1 Ni2 Ir1 C1'
_cell_volume   92.95127962
_cell_formula_units_Z   1
loop_
 _symmetry_equiv_pos_site_id
 _symmetry_equiv_pos_as_xyz
  1  'x, y, z'
loop_
 _atom_site_type_symbol
 _atom_site_label
 _atom_site_symmetry_multiplicity
 _atom_site_fract_x
 _atom_site_fract_y
 _atom_site_fract_z
 _atom_site_occupancy
  La  La0  1  0.00000000  0.00000000  0.00000000  1
  Ni  Ni1  1  0.25000004  0.75000003  0.50000004  1
  Ni  Ni2  1  0.75000004  0.25000001  0.50000004  1
  C  C3  1  0.65497405  0.65497403  0.30994805  1
  Ir  Ir4  1  0.34502603  0.34502601  0.69005203  1
