# generated using pymatgen
data_FeTc2B2Os11
_symmetry_space_group_name_H-M   'P 1'
_cell_length_a   5.57014894
_cell_length_b   5.57014894
_cell_length_c   5.57014894
_cell_angle_alpha   90.00000000
_cell_angle_beta   90.00000000
_cell_angle_gamma   90.00000000
_symmetry_Int_Tables_number   1
_chemical_formula_structural   FeTc2B2Os11
_chemical_formula_sum   'Fe1 Tc2 B2 Os11'
_cell_volume   172.82255637
_cell_formula_units_Z   1
loop_
 _symmetry_equiv_pos_site_id
 _symmetry_equiv_pos_as_xyz
  1  'x, y, z'
loop_
 _atom_site_type_symbol
 _atom_site_label
 _atom_site_symmetry_multiplicity
 _atom_site_fract_x
 _atom_site_fract_y
 _atom_site_fract_z
 _atom_site_occupancy
  Fe  Fe0  1  0.25282800  0.74717201  0.74717201  1
  Tc  Tc1  1  0.74717201  0.25282800  0.74717201  1
  Tc  Tc2  1  0.74717201  0.74717201  0.74717201  1
  Os  Os3  1  0.50000000  0.00000000  0.00000000  1
  Os  Os4  1  0.00000000  0.00000000  0.50000000  1
  Os  Os5  1  0.00000000  0.50000000  0.00000000  1
  Os  Os6  1  0.74717201  0.74717201  0.25282800  1
  Os  Os7  1  0.74717201  0.25282800  0.25282800  1
  Os  Os8  1  0.25282800  0.25282800  0.74717201  1
  Os  Os9  1  0.25282800  0.74717201  0.25282800  1
  Os  Os10  1  0.25282800  0.25282800  0.25282800  1
  B  B11  1  0.50000000  0.50000000  0.50000000  1
  Os  Os12  1  0.00000000  0.50000000  0.50000000  1
  B  B13  1  0.50000000  0.00000000  0.50000000  1
  Os  Os14  1  0.50000000  0.50000000  0.00000000  1
  Os  Os15  1  0.00000000  0.00000000  0.00000000  1
