# generated using pymatgen
data_Nd4InSn
_symmetry_space_group_name_H-M   'P 1'
_cell_length_a   5.46764803
_cell_length_b   5.46764898
_cell_length_c   6.80949879
_cell_angle_alpha   90.00000000
_cell_angle_beta   90.00000000
_cell_angle_gamma   119.99999237
_symmetry_Int_Tables_number   1
_chemical_formula_structural   Nd4InSn
_chemical_formula_sum   'Nd4 In1 Sn1'
_cell_volume   176.29783836
_cell_formula_units_Z   1
loop_
 _symmetry_equiv_pos_site_id
 _symmetry_equiv_pos_as_xyz
  1  'x, y, z'
loop_
 _atom_site_type_symbol
 _atom_site_label
 _atom_site_symmetry_multiplicity
 _atom_site_fract_x
 _atom_site_fract_y
 _atom_site_fract_z
 _atom_site_occupancy
  Nd  Nd0  1  0.66666664  0.33333331  0.25000001  1
  Nd  Nd1  1  0.00000000  0.00000000  0.00000000  1
  Nd  Nd2  1  0.00000000  0.00000000  0.50000002  1
  Nd  Nd3  1  0.33333329  0.66666663  0.75000002  1
  In  In4  1  0.33333329  0.66666663  0.25000001  1
  Sn  Sn5  1  0.66666664  0.33333331  0.75000002  1
