# generated using pymatgen
data_Yb2YCo9
_symmetry_space_group_name_H-M   'P 1'
_cell_length_a   4.93883801
_cell_length_b   4.93883801
_cell_length_c   8.67270184
_cell_angle_alpha   73.45701599
_cell_angle_beta   73.45701599
_cell_angle_gamma   60.00000381
_symmetry_Int_Tables_number   1
_chemical_formula_structural   Yb2YCo9
_chemical_formula_sum   'Yb2 Y1 Co9'
_cell_volume   173.01872332
_cell_formula_units_Z   1
loop_
 _symmetry_equiv_pos_site_id
 _symmetry_equiv_pos_as_xyz
  1  'x, y, z'
loop_
 _atom_site_type_symbol
 _atom_site_label
 _atom_site_symmetry_multiplicity
 _atom_site_fract_x
 _atom_site_fract_y
 _atom_site_fract_z
 _atom_site_occupancy
  Yb  Yb0  1  0.00000000  0.00000000  0.00000000  1
  Yb  Yb1  1  0.86115598  0.86115595  0.41653306  1
  Y  Y2  1  0.13884400  0.13884399  0.58346703  1
  Co  Co3  1  0.49999999  0.49999997  0.50000005  1
  Co  Co4  1  0.66715299  0.66715296  0.99854008  1
  Co  Co5  1  0.33284699  0.33284698  0.00146001  1
  Co  Co6  1  0.41860200  0.91787895  0.24491804  1
  Co  Co7  1  0.41860199  0.41860198  0.24491803  1
  Co  Co8  1  0.91787897  0.41860198  0.24491804  1
  Co  Co9  1  0.58139798  0.08212100  0.75508205  1
  Co  Co10  1  0.58139799  0.58139797  0.75508206  1
  Co  Co11  1  0.08212101  0.58139797  0.75508205  1
