# generated using pymatgen
data_Dy2GaNi2
_symmetry_space_group_name_H-M   'P 1'
_cell_length_a   4.10336399
_cell_length_b   5.51568651
_cell_length_c   8.87899685
_cell_angle_alpha   82.90377808
_cell_angle_beta   76.63984680
_cell_angle_gamma   68.16269684
_symmetry_Int_Tables_number   1
_chemical_formula_structural   Dy2GaNi2
_chemical_formula_sum   'Dy4 Ga2 Ni4'
_cell_volume   181.33174546
_cell_formula_units_Z   2
loop_
 _symmetry_equiv_pos_site_id
 _symmetry_equiv_pos_as_xyz
  1  'x, y, z'
loop_
 _atom_site_type_symbol
 _atom_site_label
 _atom_site_symmetry_multiplicity
 _atom_site_fract_x
 _atom_site_fract_y
 _atom_site_fract_z
 _atom_site_occupancy
  Dy  Dy0  1  0.99755393  0.67486699  0.33002502  1
  Dy  Dy1  1  0.00244597  0.32513300  0.66997500  1
  Dy  Dy2  1  0.81413697  0.26457600  0.10715002  1
  Dy  Dy3  1  0.18586293  0.73542399  0.89285000  1
  Ga  Ga4  1  0.72687091  0.92054999  0.62570802  1
  Ga  Ga5  1  0.27312899  0.07945000  0.37429200  1
  Ni  Ni6  1  0.64904197  0.26873000  0.43318601  1
  Ni  Ni7  1  0.35095793  0.73126999  0.56681401  1
  Ni  Ni8  1  0.50829292  0.85895799  0.12445601  1
  Ni  Ni9  1  0.49170698  0.14104200  0.87554401  1
