# generated using pymatgen
data_Tm2Se3
_symmetry_space_group_name_H-M   'P 1'
_cell_length_a   3.81051612
_cell_length_b   10.38896179
_cell_length_c   10.50531101
_cell_angle_alpha   90.00000000
_cell_angle_beta   90.00000000
_cell_angle_gamma   90.00000000
_symmetry_Int_Tables_number   1
_chemical_formula_structural   Tm2Se3
_chemical_formula_sum   'Tm8 Se12'
_cell_volume   415.87696553
_cell_formula_units_Z   4
loop_
 _symmetry_equiv_pos_site_id
 _symmetry_equiv_pos_as_xyz
  1  'x, y, z'
loop_
 _atom_site_type_symbol
 _atom_site_label
 _atom_site_symmetry_multiplicity
 _atom_site_fract_x
 _atom_site_fract_y
 _atom_site_fract_z
 _atom_site_occupancy
  Tm  Tm0  1  0.24999999  0.99613502  0.80774500  1
  Tm  Tm1  1  0.74999998  0.68725201  0.01097300  1
  Tm  Tm2  1  0.24999999  0.31274801  0.98902700  1
  Tm  Tm3  1  0.74999998  0.81274802  0.51097300  1
  Tm  Tm4  1  0.74999998  0.49613501  0.69225500  1
  Tm  Tm5  1  0.74999998  0.00386500  0.19225500  1
  Tm  Tm6  1  0.24999999  0.18725200  0.48902700  1
  Tm  Tm7  1  0.24999999  0.50386501  0.30774500  1
  Se  Se8  1  0.74999998  0.44475001  0.11859400  1
  Se  Se9  1  0.24999999  0.94475002  0.38140600  1
  Se  Se10  1  0.74999998  0.05525000  0.61859400  1
  Se  Se11  1  0.24999999  0.55525001  0.88140600  1
  Se  Se12  1  0.74999998  0.80532102  0.77360300  1
  Se  Se13  1  0.74999998  0.37352801  0.45413300  1
  Se  Se14  1  0.24999999  0.62647201  0.54586700  1
  Se  Se15  1  0.24999999  0.19467900  0.22639700  1
  Se  Se16  1  0.24999999  0.30532101  0.72639700  1
  Se  Se17  1  0.24999999  0.87352802  0.04586700  1
  Se  Se18  1  0.74999998  0.69467901  0.27360300  1
  Se  Se19  1  0.74999998  0.12647200  0.95413300  1
