# generated using pymatgen
data_Li6VO11
_symmetry_space_group_name_H-M   'P 1'
_cell_length_a   5.45303535
_cell_length_b   5.45303535
_cell_length_c   7.23802328
_cell_angle_alpha   71.40331268
_cell_angle_beta   71.40331268
_cell_angle_gamma   70.73049164
_symmetry_Int_Tables_number   1
_chemical_formula_structural   Li6VO11
_chemical_formula_sum   'Li6 V1 O11'
_cell_volume   186.98951603
_cell_formula_units_Z   1
loop_
 _symmetry_equiv_pos_site_id
 _symmetry_equiv_pos_as_xyz
  1  'x, y, z'
loop_
 _atom_site_type_symbol
 _atom_site_label
 _atom_site_symmetry_multiplicity
 _atom_site_fract_x
 _atom_site_fract_y
 _atom_site_fract_z
 _atom_site_occupancy
  Li  Li0  1  0.67210797  0.67210800  0.84527606  1
  Li  Li1  1  0.00000000  0.00000000  0.00000000  1
  Li  Li2  1  0.67949197  0.67949200  0.32426406  1
  Li  Li3  1  0.00000000  0.00000000  0.50000000  1
  Li  Li4  1  0.32789199  0.32789200  0.15472403  1
  Li  Li5  1  0.32050799  0.32050800  0.67573603  1
  O  O6  1  0.30631498  0.69368500  0.00000005  1
  V  V7  1  0.97358298  0.36445600  0.33284706  1
  O  O8  1  0.77270497  0.77270500  0.03642307  1
  O  O9  1  0.09764900  0.09764900  0.70694800  1
  O  O10  1  0.22729499  0.22729500  0.96357701  1
  O  O11  1  0.90235097  0.90235100  0.29305209  1
  O  O12  1  0.36445597  0.97358300  0.33284706  1
  O  O13  1  0.69368499  0.30631500  0.00000005  1
  O  O14  1  0.02641698  0.63554400  0.66715303  1
  O  O15  1  0.63554400  0.02641700  0.66715302  1
  O  O16  1  0.43719998  0.43720000  0.36921204  1
  O  O17  1  0.56279998  0.56280000  0.63078805  1
