# generated using pymatgen
data_In2Se
_symmetry_space_group_name_H-M   'P 1'
_cell_length_a   4.70455599
_cell_length_b   4.70455599
_cell_length_c   10.41054535
_cell_angle_alpha   90.00000000
_cell_angle_beta   90.00000000
_cell_angle_gamma   120.00000000
_symmetry_Int_Tables_number   1
_chemical_formula_structural   In2Se
_chemical_formula_sum   'In4 Se2'
_cell_volume   199.54525025
_cell_formula_units_Z   2
loop_
 _symmetry_equiv_pos_site_id
 _symmetry_equiv_pos_as_xyz
  1  'x, y, z'
loop_
 _atom_site_type_symbol
 _atom_site_label
 _atom_site_symmetry_multiplicity
 _atom_site_fract_x
 _atom_site_fract_y
 _atom_site_fract_z
 _atom_site_occupancy
  In  In0  1  0.35094400  1.00000000  -0.00000000  1
  In  In1  1  0.64905600  0.64905600  0.33333332  1
  In  In2  1  -0.00000000  0.35094400  0.66666664  1
  In  In3  1  0.47630800  0.00000000  0.49999998  1
  Se  Se4  1  0.52369200  0.52369200  0.83333297  1
  Se  Se5  1  -0.00000000  0.47630800  0.16666699  1
