# generated using pymatgen
data_Ti6Ni11
_symmetry_space_group_name_H-M   'P 1'
_cell_length_a   3.61775994
_cell_length_b   3.61775994
_cell_length_c   18.41398430
_cell_angle_alpha   90.00000000
_cell_angle_beta   90.00000000
_cell_angle_gamma   90.00000000
_symmetry_Int_Tables_number   1
_chemical_formula_structural   Ti6Ni11
_chemical_formula_sum   'Ti6 Ni11'
_cell_volume   241.00567001
_cell_formula_units_Z   1
loop_
 _symmetry_equiv_pos_site_id
 _symmetry_equiv_pos_as_xyz
  1  'x, y, z'
loop_
 _atom_site_type_symbol
 _atom_site_label
 _atom_site_symmetry_multiplicity
 _atom_site_fract_x
 _atom_site_fract_y
 _atom_site_fract_z
 _atom_site_occupancy
  Ti  Ti0  1  0.00000000  0.50000001  0.40585299  1
  Ti  Ti1  1  0.50000001  0.00000000  0.90384899  1
  Ti  Ti2  1  0.50000001  0.00000000  0.40585299  1
  Ti  Ti3  1  0.00000000  0.50000001  0.90384899  1
  Ti  Ti4  1  0.50000001  0.00000000  0.09632100  1
  Ti  Ti5  1  0.00000000  0.50000001  0.59658099  1
  Ni  Ni6  1  0.00000000  0.50000001  0.09632100  1
  Ni  Ni7  1  0.50000001  0.00000000  0.59658099  1
  Ni  Ni8  1  0.00000000  0.00000000  0.50108599  1
  Ni  Ni9  1  0.50000001  0.50000001  0.99988798  1
  Ni  Ni10  1  0.50000001  0.50000001  0.30083600  1
  Ni  Ni11  1  0.00000000  0.00000000  0.99977298  1
  Ni  Ni12  1  0.50000001  0.50000001  0.50023599  1
  Ni  Ni13  1  0.00000000  0.00000000  0.31749699  1
  Ni  Ni14  1  0.50000001  0.50000001  0.82328099  1
  Ni  Ni15  1  0.50000001  0.50000001  0.17653600  1
  Ni  Ni16  1  0.00000000  0.00000000  0.67715799  1
