# generated using pymatgen
data_LiGe4
_symmetry_space_group_name_H-M   'P 1'
_cell_length_a   6.29926395
_cell_length_b   6.29926443
_cell_length_c   7.89416790
_cell_angle_alpha   90.00000000
_cell_angle_beta   90.00000000
_cell_angle_gamma   120.00000000
_symmetry_Int_Tables_number   1
_chemical_formula_structural   LiGe4
_chemical_formula_sum   'Li3 Ge12'
_cell_volume   271.27928811
_cell_formula_units_Z   3
loop_
 _symmetry_equiv_pos_site_id
 _symmetry_equiv_pos_as_xyz
  1  'x, y, z'
loop_
 _atom_site_type_symbol
 _atom_site_label
 _atom_site_symmetry_multiplicity
 _atom_site_fract_x
 _atom_site_fract_y
 _atom_site_fract_z
 _atom_site_occupancy
  Li  Li0  1  0.00000002  0.61828300  0.33333334  1
  Li  Li1  1  1.00000001  0.07921000  0.33333334  1
  Ge  Ge2  1  0.22137002  0.48679900  0.11408300  1
  Li  Li3  1  0.61828304  1.00000000  1.00000001  1
  Ge  Ge4  1  0.77863001  0.26543000  0.55258401  1
  Ge  Ge5  1  0.51320003  0.73457000  0.44741601  1
  Ge  Ge6  1  0.48680001  0.22137100  0.21925100  1
  Ge  Ge7  1  0.38171701  0.38171700  0.66666668  1
  Ge  Ge8  1  0.07921003  1.00000000  1.00000001  1
  Ge  Ge9  1  0.92079004  0.92079000  0.66666668  1
  Ge  Ge10  1  0.73457102  0.51320100  0.88591701  1
  Ge  Ge11  1  0.26542903  0.77862900  0.78074901  1
  Ge  Ge12  1  0.31758703  1.00000000  0.50000001  1
  Ge  Ge13  1  0.00000001  0.31758700  0.83333301  1
  Ge  Ge14  1  0.68241303  0.68241300  0.16666700  1
