# generated using pymatgen
data_Np5Ru3
_symmetry_space_group_name_H-M   'P 1'
_cell_length_a   5.33461094
_cell_length_b   5.33461094
_cell_length_c   5.33461094
_cell_angle_alpha   90.00000000
_cell_angle_beta   90.00000000
_cell_angle_gamma   90.00000000
_symmetry_Int_Tables_number   1
_chemical_formula_structural   Np5Ru3
_chemical_formula_sum   'Np5 Ru3'
_cell_volume   151.81275217
_cell_formula_units_Z   1
loop_
 _symmetry_equiv_pos_site_id
 _symmetry_equiv_pos_as_xyz
  1  'x, y, z'
loop_
 _atom_site_type_symbol
 _atom_site_label
 _atom_site_symmetry_multiplicity
 _atom_site_fract_x
 _atom_site_fract_y
 _atom_site_fract_z
 _atom_site_occupancy
  Np  Np0  1  0.25000000  0.00000000  0.50000001  1
  Np  Np1  1  0.75000001  0.00000000  0.50000001  1
  Np  Np2  1  0.00000000  0.50000001  0.25000000  1
  Np  Np3  1  0.00000000  0.50000001  0.75000001  1
  Np  Np4  1  0.50000001  0.75000001  -0.00000000  1
  Ru  Ru5  1  0.50000001  0.25000000  -0.00000000  1
  Ru  Ru6  1  0.00000000  0.00000000  0.00000000  1
  Ru  Ru7  1  0.50000001  0.50000001  0.50000001  1
