# generated using pymatgen
data_CaSi2Ni3
_symmetry_space_group_name_H-M   'P 1'
_cell_length_a   3.96866298
_cell_length_b   4.96184015
_cell_length_c   8.58516979
_cell_angle_alpha   90.00000000
_cell_angle_beta   90.00000000
_cell_angle_gamma   90.00000000
_symmetry_Int_Tables_number   1
_chemical_formula_structural   CaSi2Ni3
_chemical_formula_sum   'Ca2 Si4 Ni6'
_cell_volume   169.05805875
_cell_formula_units_Z   2
loop_
 _symmetry_equiv_pos_site_id
 _symmetry_equiv_pos_as_xyz
  1  'x, y, z'
loop_
 _atom_site_type_symbol
 _atom_site_label
 _atom_site_symmetry_multiplicity
 _atom_site_fract_x
 _atom_site_fract_y
 _atom_site_fract_z
 _atom_site_occupancy
  Ca  Ca0  1  0.00000000  0.49999998  0.00000000  1
  Ca  Ca1  1  0.00000000  0.00000000  0.50000001  1
  Si  Si2  1  0.00000000  0.49999998  0.33467701  1
  Si  Si3  1  0.00000000  0.00000000  0.83324402  1
  Si  Si4  1  0.00000000  0.00000000  0.16675600  1
  Ni  Ni5  1  0.00000000  0.49999998  0.66532302  1
  Si  Si6  1  0.50000000  0.49999998  0.50000001  1
  Ni  Ni7  1  0.50000000  0.00000000  0.00000000  1
  Ni  Ni8  1  0.50000000  0.75024598  0.25001201  1
  Ni  Ni9  1  0.50000000  0.24975399  0.74998802  1
  Ni  Ni10  1  0.50000000  0.24975399  0.25001201  1
  Ni  Ni11  1  0.50000000  0.75024598  0.74998802  1
