# generated using pymatgen
data_SmCo2Ge3
_symmetry_space_group_name_H-M   'P 1'
_cell_length_a   3.63554811
_cell_length_b   5.57389021
_cell_length_c   5.57388973
_cell_angle_alpha   120.00000000
_cell_angle_beta   90.00000000
_cell_angle_gamma   90.00000000
_symmetry_Int_Tables_number   1
_chemical_formula_structural   SmCo2Ge3
_chemical_formula_sum   'Sm1 Co2 Ge3'
_cell_volume   97.81766943
_cell_formula_units_Z   1
loop_
 _symmetry_equiv_pos_site_id
 _symmetry_equiv_pos_as_xyz
  1  'x, y, z'
loop_
 _atom_site_type_symbol
 _atom_site_label
 _atom_site_symmetry_multiplicity
 _atom_site_fract_x
 _atom_site_fract_y
 _atom_site_fract_z
 _atom_site_occupancy
  Sm  Sm0  1  0.00000000  0.00000000  0.00000000  1
  Co  Co1  1  -0.00000000  0.66666663  0.33333331  1
  Co  Co2  1  0.99999997  0.33333332  0.66666665  1
  Ge  Ge3  1  0.49999998  0.99999995  0.49999996  1
  Ge  Ge4  1  0.49999998  0.49999997  -0.00000002  1
  Ge  Ge5  1  0.49999998  0.49999997  0.49999998  1
