# generated using pymatgen
data_Hf5FeGe10Os
_symmetry_space_group_name_H-M   'P 1'
_cell_length_a   7.45228910
_cell_length_b   7.45228910
_cell_length_c   7.45228910
_cell_angle_alpha   109.47122192
_cell_angle_beta   109.47122192
_cell_angle_gamma   109.47122192
_symmetry_Int_Tables_number   1
_chemical_formula_structural   Hf5FeGe10Os
_chemical_formula_sum   'Hf5 Fe1 Ge10 Os1'
_cell_volume   318.60102765
_cell_formula_units_Z   1
loop_
 _symmetry_equiv_pos_site_id
 _symmetry_equiv_pos_as_xyz
  1  'x, y, z'
loop_
 _atom_site_type_symbol
 _atom_site_label
 _atom_site_symmetry_multiplicity
 _atom_site_fract_x
 _atom_site_fract_y
 _atom_site_fract_z
 _atom_site_occupancy
  Hf  Hf0  1  0.50000002  0.50000001  0.50000003  1
  Hf  Hf1  1  0.00000003  0.50000001  0.00000003  1
  Hf  Hf2  1  1.00000004  1.00000001  0.50000007  1
  Hf  Hf3  1  0.49999999  0.00000000  0.00000001  1
  Fe  Fe4  1  0.50000004  0.75000001  0.25000005  1
  Hf  Hf5  1  0.75000000  0.25000000  0.50000002  1
  Ge  Ge6  1  0.25000003  0.50000001  0.75000001  1
  Ge  Ge7  1  0.25000004  0.75000001  0.50000003  1
  Ge  Ge8  1  0.50000001  0.25000000  0.75000001  1
  Ge  Ge9  1  0.75000002  0.50000001  0.25000004  1
  Ge  Ge10  1  0.00000004  0.70402701  0.70402702  1
  Ge  Ge11  1  0.70402703  0.70402701  1.00000003  1
  Ge  Ge12  1  0.70402699  0.00000000  0.70402700  1
  Ge  Ge13  1  0.00000002  0.29597300  0.29597301  1
  Ge  Ge14  1  0.29597301  0.29597300  1.00000000  1
  Ge  Ge15  1  0.29597299  0.00000000  0.29597300  1
  Os  Os16  1  0.00000000  0.00000000  0.00000000  1
