# generated using pymatgen
data_Ce3CuGe7
_symmetry_space_group_name_H-M   'P 1'
_cell_length_a   4.00605202
_cell_length_b   4.16835690
_cell_length_c   12.64947987
_cell_angle_alpha   99.48352051
_cell_angle_beta   99.11104584
_cell_angle_gamma   90.00000000
_symmetry_Int_Tables_number   1
_chemical_formula_structural   Ce3CuGe7
_chemical_formula_sum   'Ce3 Cu1 Ge7'
_cell_volume   205.64000410
_cell_formula_units_Z   1
loop_
 _symmetry_equiv_pos_site_id
 _symmetry_equiv_pos_as_xyz
  1  'x, y, z'
loop_
 _atom_site_type_symbol
 _atom_site_label
 _atom_site_symmetry_multiplicity
 _atom_site_fract_x
 _atom_site_fract_y
 _atom_site_fract_z
 _atom_site_occupancy
  Ce  Ce0  1  0.00000000  0.00000000  0.00000000  1
  Ce  Ce1  1  0.85512398  0.35512301  0.71024700  1
  Ce  Ce2  1  0.14487599  0.64487702  0.28975300  1
  Cu  Cu3  1  0.69750299  0.19750200  0.39500500  1
  Ge  Ge4  1  0.30249699  0.80249802  0.60499501  1
  Ge  Ge5  1  0.45217199  0.45217201  0.90434401  1
  Ge  Ge6  1  0.54782799  0.54782801  0.09565599  1
  Ge  Ge7  1  0.59913599  0.09913600  0.19827199  1
  Ge  Ge8  1  0.40086398  0.90086402  0.80172801  1
  Ge  Ge9  1  0.25004899  0.25004901  0.50009801  1
  Ge  Ge10  1  0.74995098  0.74995102  0.49990200  1
