# generated using pymatgen
data_TmAl2
_symmetry_space_group_name_H-M   'P 1'
_cell_length_a   5.38511610
_cell_length_b   5.38511562
_cell_length_c   8.45171738
_cell_angle_alpha   90.00000000
_cell_angle_beta   90.00000000
_cell_angle_gamma   120.00000000
_symmetry_Int_Tables_number   1
_chemical_formula_structural   TmAl2
_chemical_formula_sum   'Tm4 Al8'
_cell_volume   212.25879821
_cell_formula_units_Z   4
loop_
 _symmetry_equiv_pos_site_id
 _symmetry_equiv_pos_as_xyz
  1  'x, y, z'
loop_
 _atom_site_type_symbol
 _atom_site_label
 _atom_site_symmetry_multiplicity
 _atom_site_fract_x
 _atom_site_fract_y
 _atom_site_fract_z
 _atom_site_occupancy
  Tm  Tm0  1  0.66666665  0.33333334  0.57096097  1
  Tm  Tm1  1  0.33333331  0.66666668  0.42903898  1
  Tm  Tm2  1  0.33333331  0.66666668  0.07096100  1
  Tm  Tm3  1  0.66666665  0.33333334  0.92903896  1
  Al  Al4  1  0.17089899  0.34179801  0.74999997  1
  Al  Al5  1  0.17089897  0.82910201  0.74999997  1
  Al  Al6  1  0.65820297  0.82910201  0.74999997  1
  Al  Al7  1  0.82910097  0.65820201  0.24999999  1
  Al  Al8  1  0.82910098  0.17089800  0.24999999  1
  Al  Al9  1  0.34179699  0.17089800  0.24999999  1
  Al  Al10  1  0.00000000  0.00000000  0.49999998  1
  Al  Al11  1  0.00000000  0.00000000  0.00000000  1
