# generated using pymatgen
data_Ti4NbCrS8
_symmetry_space_group_name_H-M   'P 1'
_cell_length_a   7.33045816
_cell_length_b   7.42159414
_cell_length_c   7.42159414
_cell_angle_alpha   60.94327927
_cell_angle_beta   60.40538788
_cell_angle_gamma   60.40538788
_symmetry_Int_Tables_number   1
_chemical_formula_structural   Ti4NbCrS8
_chemical_formula_sum   'Ti4 Nb1 Cr1 S8'
_cell_volume   289.25662984
_cell_formula_units_Z   1
loop_
 _symmetry_equiv_pos_site_id
 _symmetry_equiv_pos_as_xyz
  1  'x, y, z'
loop_
 _atom_site_type_symbol
 _atom_site_label
 _atom_site_symmetry_multiplicity
 _atom_site_fract_x
 _atom_site_fract_y
 _atom_site_fract_z
 _atom_site_occupancy
  Ti  Ti0  1  -0.00000002  0.50000000  0.00000001  1
  Nb  Nb1  1  0.49999998  0.50000000  -0.00000001  1
  Ti  Ti2  1  0.49999998  0.50000000  0.49999999  1
  Ti  Ti3  1  0.50000000  0.00000000  -0.00000002  1
  Ti  Ti4  1  0.87461897  0.87538100  0.37538098  1
  Cr  Cr5  1  0.12538100  0.12461900  0.62461899  1
  S  S6  1  0.74323797  0.74694300  0.76658098  1
  S  S7  1  0.74323799  0.26658100  0.24694298  1
  S  S8  1  0.27185198  0.74410800  0.24410800  1
  S  S9  1  0.73993197  0.74410800  0.24410798  1
  S  S10  1  0.25676199  0.25305700  0.23341899  1
  S  S11  1  0.25676198  0.73341900  0.75305700  1
  S  S12  1  0.72814799  0.25589200  0.75589197  1
  S  S13  1  0.26006799  0.25589200  0.75589199  1
