# generated using pymatgen
data_EuSi2
_symmetry_space_group_name_H-M   'P 1'
_cell_length_a   4.55052805
_cell_length_b   5.68922710
_cell_length_c   5.68922710
_cell_angle_alpha   79.01053619
_cell_angle_beta   66.42651367
_cell_angle_gamma   66.42651367
_symmetry_Int_Tables_number   1
_chemical_formula_structural   EuSi2
_chemical_formula_sum   'Eu2 Si4'
_cell_volume   123.64845056
_cell_formula_units_Z   2
loop_
 _symmetry_equiv_pos_site_id
 _symmetry_equiv_pos_as_xyz
  1  'x, y, z'
loop_
 _atom_site_type_symbol
 _atom_site_label
 _atom_site_symmetry_multiplicity
 _atom_site_fract_x
 _atom_site_fract_y
 _atom_site_fract_z
 _atom_site_occupancy
  Eu  Eu0  1  0.45054400  0.79945600  0.29945606  1
  Eu  Eu1  1  0.54945599  0.20054400  0.70054404  1
  Si  Si2  1  0.16417900  0.39586500  0.27577703  1
  Si  Si3  1  0.83582099  0.60413500  0.72422307  1
  Si  Si4  1  0.16417900  0.77577700  0.89586506  1
  Si  Si5  1  0.83582098  0.22422300  0.10413503  1
