# generated using pymatgen
data_BC2N
_symmetry_space_group_name_H-M   'P 1'
_cell_length_a   3.69600558
_cell_length_b   3.70390844
_cell_length_c   5.48393202
_cell_angle_alpha   72.62865448
_cell_angle_beta   71.04695892
_cell_angle_gamma   60.19512939
_symmetry_Int_Tables_number   1
_chemical_formula_structural   BC2N
_chemical_formula_sum   'B1 C2 N1'
_cell_volume   60.74491769
_cell_formula_units_Z   1
loop_
 _symmetry_equiv_pos_site_id
 _symmetry_equiv_pos_as_xyz
  1  'x, y, z'
loop_
 _atom_site_type_symbol
 _atom_site_label
 _atom_site_symmetry_multiplicity
 _atom_site_fract_x
 _atom_site_fract_y
 _atom_site_fract_z
 _atom_site_occupancy
  B  B0  1  0.99882999  0.11217400  0.99999196  1
  C  C1  1  0.50044497  0.62985000  0.50009101  1
  N  N2  1  0.56308496  0.73060000  0.26946602  1
  C  C3  1  0.43764097  0.52737500  0.73045200  1
