# generated using pymatgen
data_Sr2Tl
_symmetry_space_group_name_H-M   'P 1'
_cell_length_a   6.09681892
_cell_length_b   6.10037613
_cell_length_c   13.80078983
_cell_angle_alpha   90.00000000
_cell_angle_beta   90.00000000
_cell_angle_gamma   90.00000000
_symmetry_Int_Tables_number   1
_chemical_formula_structural   Sr2Tl
_chemical_formula_sum   'Sr8 Tl4'
_cell_volume   513.29123923
_cell_formula_units_Z   4
loop_
 _symmetry_equiv_pos_site_id
 _symmetry_equiv_pos_as_xyz
  1  'x, y, z'
loop_
 _atom_site_type_symbol
 _atom_site_label
 _atom_site_symmetry_multiplicity
 _atom_site_fract_x
 _atom_site_fract_y
 _atom_site_fract_z
 _atom_site_occupancy
  Sr  Sr0  1  0.25000000  0.75326398  0.85696601  1
  Sr  Sr1  1  0.25000000  0.25326399  0.64303401  1
  Sr  Sr2  1  0.75000001  0.24673599  0.85696601  1
  Sr  Sr3  1  0.75000001  0.74673598  0.64303401  1
  Sr  Sr4  1  0.25000000  0.25326399  0.35696600  1
  Sr  Sr5  1  0.25000000  0.75326398  0.14303400  1
  Sr  Sr6  1  0.75000001  0.74673598  0.35696600  1
  Sr  Sr7  1  0.75000001  0.24673599  0.14303400  1
  Tl  Tl8  1  0.25000000  0.26519099  0.00000000  1
  Tl  Tl9  1  0.75000001  0.73480898  0.00000000  1
  Tl  Tl10  1  0.25000000  0.76519098  0.50000001  1
  Tl  Tl11  1  0.75000001  0.23480900  0.50000001  1
