# generated using pymatgen
data_Hf3Ga5
_symmetry_space_group_name_H-M   'P 1'
_cell_length_a   4.40826178
_cell_length_b   6.29376984
_cell_length_c   6.29377031
_cell_angle_alpha   120.00000000
_cell_angle_beta   90.00000000
_cell_angle_gamma   90.00000000
_symmetry_Int_Tables_number   1
_chemical_formula_structural   Hf3Ga5
_chemical_formula_sum   'Hf3 Ga5'
_cell_volume   151.22366328
_cell_formula_units_Z   1
loop_
 _symmetry_equiv_pos_site_id
 _symmetry_equiv_pos_as_xyz
  1  'x, y, z'
loop_
 _atom_site_type_symbol
 _atom_site_label
 _atom_site_symmetry_multiplicity
 _atom_site_fract_x
 _atom_site_fract_y
 _atom_site_fract_z
 _atom_site_occupancy
  Hf  Hf0  1  0.25000001  0.66666669  0.33333335  1
  Hf  Hf1  1  0.75000004  0.33333335  0.66666667  1
  Hf  Hf2  1  0.75000004  0.84977903  0.69955802  1
  Ga  Ga3  1  0.25000001  0.15022101  0.84978000  1
  Ga  Ga4  1  0.25000001  0.69955903  0.84978001  1
  Ga  Ga5  1  0.25000001  0.15022101  0.30044200  1
  Ga  Ga6  1  0.75000004  0.84977903  0.15022002  1
  Ga  Ga7  1  0.75000004  0.30044101  0.15022001  1
