# generated using pymatgen
data_Sr2Ca2Pb3O5
_symmetry_space_group_name_H-M   'P 1'
_cell_length_a   5.90239620
_cell_length_b   5.90759611
_cell_length_c   7.21248674
_cell_angle_alpha   65.82408905
_cell_angle_beta   90.00000000
_cell_angle_gamma   90.00000000
_symmetry_Int_Tables_number   1
_chemical_formula_structural   Sr2Ca2Pb3O5
_chemical_formula_sum   'Sr2 Ca2 Pb3 O5'
_cell_volume   229.43423951
_cell_formula_units_Z   1
loop_
 _symmetry_equiv_pos_site_id
 _symmetry_equiv_pos_as_xyz
  1  'x, y, z'
loop_
 _atom_site_type_symbol
 _atom_site_label
 _atom_site_symmetry_multiplicity
 _atom_site_fract_x
 _atom_site_fract_y
 _atom_site_fract_z
 _atom_site_occupancy
  Sr  Sr0  1  0.99999997  0.33852500  0.32294999  1
  Sr  Sr1  1  0.00000000  0.66147500  0.67704998  1
  Ca  Ca2  1  0.49999998  0.16147500  0.67705001  1
  Ca  Ca3  1  0.49999998  0.83852500  0.32294997  1
  Pb  Pb4  1  0.12664700  0.12651000  1.00000001  1
  Pb  Pb5  1  0.37335299  0.62651000  -0.00000003  1
  O  O6  1  0.62664698  0.37349000  -0.00000002  1
  Pb  Pb7  1  0.87335297  0.87349000  -0.00000004  1
  O  O8  1  0.24999999  0.50439100  0.49999999  1
  O  O9  1  0.24999999  0.00439100  0.50000001  1
  O  O10  1  0.74999997  0.49560900  0.49999999  1
  O  O11  1  0.74999997  0.99560901  0.49999996  1
