# generated using pymatgen
data_USiNi4
_symmetry_space_group_name_H-M   'P 1'
_cell_length_a   3.94360805
_cell_length_b   4.84285212
_cell_length_c   4.84285212
_cell_angle_alpha   116.38596344
_cell_angle_beta   90.00000000
_cell_angle_gamma   90.00000000
_symmetry_Int_Tables_number   1
_chemical_formula_structural   USiNi4
_chemical_formula_sum   'U1 Si1 Ni4'
_cell_volume   82.85471616
_cell_formula_units_Z   1
loop_
 _symmetry_equiv_pos_site_id
 _symmetry_equiv_pos_as_xyz
  1  'x, y, z'
loop_
 _atom_site_type_symbol
 _atom_site_label
 _atom_site_symmetry_multiplicity
 _atom_site_fract_x
 _atom_site_fract_y
 _atom_site_fract_z
 _atom_site_occupancy
  U  U0  1  0.00000000  0.00000000  0.00000000  1
  Si  Si1  1  0.49999999  0.49999998  0.49999997  1
  Ni  Ni2  1  -0.00000000  0.65865797  0.34134196  1
  Ni  Ni3  1  -0.00000000  0.34134199  0.65865797  1
  Ni  Ni4  1  0.49999999  0.00000000  0.49999999  1
  Ni  Ni5  1  0.49999999  0.49999998  -0.00000003  1
