# generated using pymatgen
data_Hf2Ag5Au9
_symmetry_space_group_name_H-M   'P 1'
_cell_length_a   3.96525788
_cell_length_b   3.96525788
_cell_length_c   17.42965317
_cell_angle_alpha   90.00000000
_cell_angle_beta   90.00000000
_cell_angle_gamma   90.00000000
_symmetry_Int_Tables_number   1
_chemical_formula_structural   Hf2Ag5Au9
_chemical_formula_sum   'Hf2 Ag5 Au9'
_cell_volume   274.05114414
_cell_formula_units_Z   1
loop_
 _symmetry_equiv_pos_site_id
 _symmetry_equiv_pos_as_xyz
  1  'x, y, z'
loop_
 _atom_site_type_symbol
 _atom_site_label
 _atom_site_symmetry_multiplicity
 _atom_site_fract_x
 _atom_site_fract_y
 _atom_site_fract_z
 _atom_site_occupancy
  Hf  Hf0  1  0.50000001  0.50000001  0.38170002  1
  Hf  Hf1  1  0.00000000  0.00000000  0.88222104  1
  Ag  Ag2  1  0.00000000  0.00000000  0.11812201  1
  Ag  Ag3  1  0.50000001  0.50000001  0.61947703  1
  Ag  Ag4  1  0.50000001  0.50000001  0.12762701  1
  Ag  Ag5  1  0.50000001  0.00000000  0.00246000  1
  Au  Au6  1  0.00000000  0.50000001  0.50010702  1
  Ag  Ag7  1  0.00000000  0.50000001  0.00246000  1
  Au  Au8  1  0.50000001  0.00000000  0.50010702  1
  Au  Au9  1  0.00000000  0.50000001  0.24629101  1
  Au  Au10  1  0.50000001  0.00000000  0.75019904  1
  Au  Au11  1  0.50000001  0.00000000  0.24629101  1
  Au  Au12  1  0.00000000  0.50000001  0.75019904  1
  Au  Au13  1  0.00000000  0.00000000  0.62499903  1
  Au  Au14  1  0.00000000  0.00000000  0.37111402  1
  Au  Au15  1  0.50000001  0.50000001  0.87662704  1
