# generated using pymatgen
data_SmInGa
_symmetry_space_group_name_H-M   'P 1'
_cell_length_a   3.89122391
_cell_length_b   8.35091400
_cell_length_c   8.35091400
_cell_angle_alpha   120.00000000
_cell_angle_beta   90.00000000
_cell_angle_gamma   90.00000000
_symmetry_Int_Tables_number   1
_chemical_formula_structural   SmInGa
_chemical_formula_sum   'Sm3 In3 Ga3'
_cell_volume   235.00920635
_cell_formula_units_Z   3
loop_
 _symmetry_equiv_pos_site_id
 _symmetry_equiv_pos_as_xyz
  1  'x, y, z'
loop_
 _atom_site_type_symbol
 _atom_site_label
 _atom_site_symmetry_multiplicity
 _atom_site_fract_x
 _atom_site_fract_y
 _atom_site_fract_z
 _atom_site_occupancy
  Sm  Sm0  1  0.50000001  0.00000000  0.40182601  1
  Sm  Sm1  1  0.50000001  0.40182600  0.00000001  1
  Sm  Sm2  1  0.50000001  0.59817401  0.59817403  1
  In  In3  1  -0.00000000  0.00000000  0.76394003  1
  In  In4  1  -0.00000000  0.76394001  0.00000002  1
  In  In5  1  -0.00000000  0.23606000  0.23606001  1
  Ga  Ga6  1  0.50000001  0.00000000  -0.00000000  1
  Ga  Ga7  1  1.00000002  0.66666667  0.33333336  1
  Ga  Ga8  1  -0.00000000  0.33333334  0.66666670  1
