# generated using pymatgen
data_La3Co2P7
_symmetry_space_group_name_H-M   'P 1'
_cell_length_a   4.16806221
_cell_length_b   4.22355890
_cell_length_c   12.52456284
_cell_angle_alpha   90.00000000
_cell_angle_beta   99.57831573
_cell_angle_gamma   90.00000000
_symmetry_Int_Tables_number   1
_chemical_formula_structural   La3Co2P7
_chemical_formula_sum   'La3 Co2 P7'
_cell_volume   217.40937180
_cell_formula_units_Z   1
loop_
 _symmetry_equiv_pos_site_id
 _symmetry_equiv_pos_as_xyz
  1  'x, y, z'
loop_
 _atom_site_type_symbol
 _atom_site_label
 _atom_site_symmetry_multiplicity
 _atom_site_fract_x
 _atom_site_fract_y
 _atom_site_fract_z
 _atom_site_occupancy
  La  La0  1  0.00000000  0.00000000  0.00000000  1
  La  La1  1  0.31467699  0.50000001  0.62935400  1
  La  La2  1  0.68532297  0.50000001  0.37064601  1
  Co  Co3  1  0.12561800  0.00000000  0.25123600  1
  Co  Co4  1  0.87438197  0.00000000  0.74876402  1
  P  P5  1  0.49999998  0.50000001  0.00000001  1
  P  P6  1  0.22004299  0.00000000  0.44008600  1
  P  P7  1  0.77995697  1.00000002  0.55991401  1
  P  P8  1  0.41348198  0.00000000  0.82696400  1
  P  P9  1  0.58651798  1.00000002  0.17303601  1
  P  P10  1  0.08738700  0.50000001  0.17477400  1
  P  P11  1  0.91261296  0.50000001  0.82522602  1
