# generated using pymatgen
data_NaSrClO
_symmetry_space_group_name_H-M   'P 1'
_cell_length_a   3.67203283
_cell_length_b   3.67203283
_cell_length_c   6.96173048
_cell_angle_alpha   74.70851135
_cell_angle_beta   74.70851135
_cell_angle_gamma   59.99998474
_symmetry_Int_Tables_number   1
_chemical_formula_structural   NaSrClO
_chemical_formula_sum   'Na1 Sr1 Cl1 O1'
_cell_volume   77.43321338
_cell_formula_units_Z   1
loop_
 _symmetry_equiv_pos_site_id
 _symmetry_equiv_pos_as_xyz
  1  'x, y, z'
loop_
 _atom_site_type_symbol
 _atom_site_label
 _atom_site_symmetry_multiplicity
 _atom_site_fract_x
 _atom_site_fract_y
 _atom_site_fract_z
 _atom_site_occupancy
  Sr  Sr0  1  0.77144398  0.77144400  0.68566801  1
  Na  Na1  1  0.22855599  0.22855600  0.31433200  1
  O  O2  1  0.49999998  0.50000000  0.50000001  1
  Cl  Cl3  1  0.00000000  0.00000000  0.00000000  1
