# generated using pymatgen
data_KNaBiCl5
_symmetry_space_group_name_H-M   'P 1'
_cell_length_a   6.98218584
_cell_length_b   7.02264977
_cell_length_c   7.02264977
_cell_angle_alpha   75.69241333
_cell_angle_beta   60.19041824
_cell_angle_gamma   60.19041824
_symmetry_Int_Tables_number   1
_chemical_formula_structural   KNaBiCl5
_chemical_formula_sum   'K1 Na1 Bi1 Cl5'
_cell_volume   259.24771115
_cell_formula_units_Z   1
loop_
 _symmetry_equiv_pos_site_id
 _symmetry_equiv_pos_as_xyz
  1  'x, y, z'
loop_
 _atom_site_type_symbol
 _atom_site_label
 _atom_site_symmetry_multiplicity
 _atom_site_fract_x
 _atom_site_fract_y
 _atom_site_fract_z
 _atom_site_occupancy
  Na  Na0  1  0.50000001  0.00000000  -0.00000001  1
  K  K1  1  -0.00000002  0.49999999  0.50000002  1
  Cl  Cl2  1  0.49999999  0.49999999  0.50000001  1
  Bi  Bi3  1  0.00000000  0.00000000  0.00000000  1
  Cl  Cl4  1  0.59325000  0.33989900  0.99999999  1
  Cl  Cl5  1  0.93315000  0.66010099  1.00000001  1
  Cl  Cl6  1  0.40674901  0.00000000  0.66010198  1
  Cl  Cl7  1  0.06685100  0.00000000  0.33989799  1
