# generated using pymatgen
data_Tm(GaSi)2
_symmetry_space_group_name_H-M   'P 1'
_cell_length_a   4.06677389
_cell_length_b   4.06677389
_cell_length_c   5.82321024
_cell_angle_alpha   110.43757629
_cell_angle_beta   110.43757629
_cell_angle_gamma   90.00000000
_symmetry_Int_Tables_number   1
_chemical_formula_structural   Tm(GaSi)2
_chemical_formula_sum   'Tm1 Ga2 Si2'
_cell_volume   83.74576725
_cell_formula_units_Z   1
loop_
 _symmetry_equiv_pos_site_id
 _symmetry_equiv_pos_as_xyz
  1  'x, y, z'
loop_
 _atom_site_type_symbol
 _atom_site_label
 _atom_site_symmetry_multiplicity
 _atom_site_fract_x
 _atom_site_fract_y
 _atom_site_fract_z
 _atom_site_occupancy
  Tm  Tm0  1  0.00000000  0.00000000  0.00000000  1
  Ga  Ga1  1  0.25000005  0.75000004  0.50000004  1
  Ga  Ga2  1  0.75000005  0.25000001  0.50000003  1
  Si  Si3  1  0.61496206  0.61496203  0.22992406  1
  Si  Si4  1  0.38503804  0.38503802  0.77007602  1
