# generated using pymatgen
data_Li7CoNiO7
_symmetry_space_group_name_H-M   'P 1'
_cell_length_a   5.70555592
_cell_length_b   5.71100473
_cell_length_c   8.61696720
_cell_angle_alpha   83.67174530
_cell_angle_beta   77.25222778
_cell_angle_gamma   60.03155518
_symmetry_Int_Tables_number   1
_chemical_formula_structural   Li7CoNiO7
_chemical_formula_sum   'Li7 Co1 Ni1 O7'
_cell_volume   237.24357096
_cell_formula_units_Z   1
loop_
 _symmetry_equiv_pos_site_id
 _symmetry_equiv_pos_as_xyz
  1  'x, y, z'
loop_
 _atom_site_type_symbol
 _atom_site_label
 _atom_site_symmetry_multiplicity
 _atom_site_fract_x
 _atom_site_fract_y
 _atom_site_fract_z
 _atom_site_occupancy
  Li  Li0  1  0.21299000  0.33295899  0.35993603  1
  Li  Li1  1  0.87943201  0.00000000  0.36479802  1
  Li  Li2  1  0.54594900  0.66704099  0.35993604  1
  Li  Li3  1  0.78701000  0.66704099  0.64006405  1
  Li  Li4  1  0.45405100  0.33295899  0.64006404  1
  Li  Li5  1  0.12056800  0.00000000  0.63520203  1
  Li  Li6  1  0.00000000  0.00000000  0.00000000  1
  O  O7  1  0.50000001  0.00000000  0.50000002  1
  O  O8  1  0.17000400  0.65999199  0.50000004  1
  O  O9  1  0.82999601  0.34000799  0.50000004  1
  Co  Co10  1  0.05546400  0.33140599  0.83405804  1
  Ni  Ni11  1  0.72337700  0.99999998  0.83629007  1
  O  O12  1  0.38687000  0.66859399  0.83405806  1
  O  O13  1  0.94453600  0.66859399  0.16594204  1
  O  O14  1  0.61313000  0.33140599  0.16594202  1
  O  O15  1  0.27662300  0.00000000  0.16371001  1
