# generated using pymatgen
data_TiC2
_symmetry_space_group_name_H-M   'P 1'
_cell_length_a   5.37245703
_cell_length_b   5.44038486
_cell_length_c   5.45400000
_cell_angle_alpha   99.70416260
_cell_angle_beta   90.00000000
_cell_angle_gamma   90.00000000
_symmetry_Int_Tables_number   1
_chemical_formula_structural   TiC2
_chemical_formula_sum   'Ti4 C8'
_cell_volume   157.12981457
_cell_formula_units_Z   4
loop_
 _symmetry_equiv_pos_site_id
 _symmetry_equiv_pos_as_xyz
  1  'x, y, z'
loop_
 _atom_site_type_symbol
 _atom_site_label
 _atom_site_symmetry_multiplicity
 _atom_site_fract_x
 _atom_site_fract_y
 _atom_site_fract_z
 _atom_site_occupancy
  Ti  Ti0  1  0.52137100  0.32067200  0.71585899  1
  Ti  Ti1  1  0.47862900  0.67932801  0.28414096  1
  Ti  Ti2  1  0.02137100  0.67932801  0.78414097  1
  Ti  Ti3  1  0.97862900  0.32067200  0.21585898  1
  C  C4  1  0.75281000  0.53792301  0.50915298  1
  C  C5  1  0.24719000  0.46207701  0.49084698  1
  C  C6  1  0.25281000  0.46207701  0.99084699  1
  C  C7  1  0.74719000  0.53792301  0.00915297  1
  C  C8  1  0.82853100  0.04932100  0.84145801  1
  C  C9  1  0.17146900  0.95067901  0.15854194  1
  C  C10  1  0.32853100  0.95067901  0.65854195  1
  C  C11  1  0.67146900  0.04932100  0.34145800  1
