# generated using pymatgen
data_Np3Sb4
_symmetry_space_group_name_H-M   'P 1'
_cell_length_a   7.94316435
_cell_length_b   7.94316435
_cell_length_c   7.94316435
_cell_angle_alpha   109.47122192
_cell_angle_beta   109.47122192
_cell_angle_gamma   109.47122192
_symmetry_Int_Tables_number   1
_chemical_formula_structural   Np3Sb4
_chemical_formula_sum   'Np6 Sb8'
_cell_volume   385.79690019
_cell_formula_units_Z   2
loop_
 _symmetry_equiv_pos_site_id
 _symmetry_equiv_pos_as_xyz
  1  'x, y, z'
loop_
 _atom_site_type_symbol
 _atom_site_label
 _atom_site_symmetry_multiplicity
 _atom_site_fract_x
 _atom_site_fract_y
 _atom_site_fract_z
 _atom_site_occupancy
  Np  Np0  1  0.12500001  0.25000001  0.37500001  1
  Np  Np1  1  0.75000003  0.62500001  0.87500004  1
  Np  Np2  1  0.37500004  0.75000002  0.12500005  1
  Np  Np3  1  0.87500000  0.12500000  0.75000002  1
  Np  Np4  1  0.62500002  0.37500001  0.25000003  1
  Np  Np5  1  0.25000005  0.87500002  0.62500004  1
  Sb  Sb6  1  0.34068702  0.34068701  0.84068701  1
  Sb  Sb7  1  0.50000001  0.15931300  0.50000001  1
  Sb  Sb8  1  0.00000003  0.50000001  0.65931302  1
  Sb  Sb9  1  0.50000004  0.65931302  0.50000004  1
  Sb  Sb10  1  0.15931300  0.00000000  0.00000000  1
  Sb  Sb11  1  0.65931299  0.00000000  0.00000002  1
  Sb  Sb12  1  0.00000003  0.50000001  0.15931303  1
  Sb  Sb13  1  0.84068705  0.84068702  0.34068706  1
