# generated using pymatgen
data_LiFeO3
_symmetry_space_group_name_H-M   'P 1'
_cell_length_a   5.04872990
_cell_length_b   5.32897282
_cell_length_c   8.09265423
_cell_angle_alpha   90.00000000
_cell_angle_beta   90.00000000
_cell_angle_gamma   90.00000000
_symmetry_Int_Tables_number   1
_chemical_formula_structural   LiFeO3
_chemical_formula_sum   'Li4 Fe4 O12'
_cell_volume   217.72917481
_cell_formula_units_Z   4
loop_
 _symmetry_equiv_pos_site_id
 _symmetry_equiv_pos_as_xyz
  1  'x, y, z'
loop_
 _atom_site_type_symbol
 _atom_site_label
 _atom_site_symmetry_multiplicity
 _atom_site_fract_x
 _atom_site_fract_y
 _atom_site_fract_z
 _atom_site_occupancy
  Li  Li0  1  0.00000000  0.50000002  0.00000000  1
  Li  Li1  1  0.00000000  0.50000002  0.49999999  1
  Li  Li2  1  0.50000001  0.00000000  0.49999999  1
  Li  Li3  1  0.50000001  0.00000000  0.00000000  1
  Fe  Fe4  1  0.04069900  0.92558503  0.74999998  1
  Fe  Fe5  1  0.45930101  0.42558501  0.74999998  1
  Fe  Fe6  1  0.54069901  0.57441502  0.24999999  1
  Fe  Fe7  1  0.95930102  0.07441500  0.24999999  1
  O  O8  1  0.16724200  0.42510101  0.24999999  1
  O  O9  1  0.20366300  0.20320901  0.58982498  1
  O  O10  1  0.20366300  0.20320901  0.91017497  1
  O  O11  1  0.29633701  0.70320902  0.91017497  1
  O  O12  1  0.29633701  0.70320902  0.58982498  1
  O  O13  1  0.33275801  0.92510103  0.24999999  1
  O  O14  1  0.66724201  0.07489900  0.74999998  1
  O  O15  1  0.70366301  0.29679101  0.08982500  1
  O  O16  1  0.70366301  0.29679101  0.41017499  1
  O  O17  1  0.79633702  0.79679103  0.08982500  1
  O  O18  1  0.79633702  0.79679103  0.41017499  1
  O  O19  1  0.83275802  0.57489902  0.74999998  1
