# generated using pymatgen
data_USi3P2
_symmetry_space_group_name_H-M   'P 1'
_cell_length_a   3.84935188
_cell_length_b   3.84935188
_cell_length_c   6.91948795
_cell_angle_alpha   90.00000000
_cell_angle_beta   90.00000000
_cell_angle_gamma   90.00000000
_symmetry_Int_Tables_number   1
_chemical_formula_structural   USi3P2
_chemical_formula_sum   'U1 Si3 P2'
_cell_volume   102.52958138
_cell_formula_units_Z   1
loop_
 _symmetry_equiv_pos_site_id
 _symmetry_equiv_pos_as_xyz
  1  'x, y, z'
loop_
 _atom_site_type_symbol
 _atom_site_label
 _atom_site_symmetry_multiplicity
 _atom_site_fract_x
 _atom_site_fract_y
 _atom_site_fract_z
 _atom_site_occupancy
  U  U0  1  0.00000000  0.50000002  0.76951401  1
  Si  Si1  1  0.50000002  0.00000000  0.23048600  1
  Si  Si2  1  0.50000002  0.00000000  0.64421700  1
  Si  Si3  1  0.00000000  0.50000002  0.35578300  1
  P  P4  1  0.50000002  0.50000002  0.00000000  1
  P  P5  1  0.00000000  0.00000000  0.00000000  1
