# generated using pymatgen
data_SmGe2
_symmetry_space_group_name_H-M   'P 1'
_cell_length_a   4.21604109
_cell_length_b   7.08023024
_cell_length_c   7.08022928
_cell_angle_alpha   120.00000763
_cell_angle_beta   90.00000000
_cell_angle_gamma   90.00000000
_symmetry_Int_Tables_number   1
_chemical_formula_structural   SmGe2
_chemical_formula_sum   'Sm3 Ge6'
_cell_volume   183.03331070
_cell_formula_units_Z   3
loop_
 _symmetry_equiv_pos_site_id
 _symmetry_equiv_pos_as_xyz
  1  'x, y, z'
loop_
 _atom_site_type_symbol
 _atom_site_label
 _atom_site_symmetry_multiplicity
 _atom_site_fract_x
 _atom_site_fract_y
 _atom_site_fract_z
 _atom_site_occupancy
  Sm  Sm0  1  0.49999999  0.00000000  0.41706399  1
  Sm  Sm1  1  0.49999999  0.41706400  1.00000000  1
  Sm  Sm2  1  0.49999999  0.58293600  0.58293602  1
  Ge  Ge3  1  0.99999998  0.66666667  0.33333337  1
  Ge  Ge4  1  -0.00000000  0.33333333  0.66666667  1
  Ge  Ge5  1  0.49999999  0.00000000  -0.00000000  1
  Ge  Ge6  1  0.99999998  0.00000000  0.74860498  1
  Ge  Ge7  1  -0.00000000  0.74860500  0.00000005  1
  Ge  Ge8  1  -0.00000000  0.25139500  0.25139501  1
