# generated using pymatgen
data_Mn2Ni
_symmetry_space_group_name_H-M   'P 1'
_cell_length_a   2.85934091
_cell_length_b   6.10965395
_cell_length_c   6.10965347
_cell_angle_alpha   120.00000000
_cell_angle_beta   90.00000000
_cell_angle_gamma   90.00000000
_symmetry_Int_Tables_number   1
_chemical_formula_structural   Mn2Ni
_chemical_formula_sum   'Mn6 Ni3'
_cell_volume   92.43357712
_cell_formula_units_Z   3
loop_
 _symmetry_equiv_pos_site_id
 _symmetry_equiv_pos_as_xyz
  1  'x, y, z'
loop_
 _atom_site_type_symbol
 _atom_site_label
 _atom_site_symmetry_multiplicity
 _atom_site_fract_x
 _atom_site_fract_y
 _atom_site_fract_z
 _atom_site_occupancy
  Mn  Mn0  1  -0.00000000  0.66666665  0.33333330  1
  Mn  Mn1  1  -0.00000000  0.33333333  0.66666665  1
  Mn  Mn2  1  -0.00000000  0.24468700  -0.00000001  1
  Mn  Mn3  1  1.00000003  0.00000000  0.24468700  1
  Mn  Mn4  1  0.50000002  0.61056399  0.99999997  1
  Mn  Mn5  1  0.50000002  0.00000000  0.61056400  1
  Ni  Ni6  1  -0.00000000  0.75531299  0.75531296  1
  Ni  Ni7  1  0.50000002  0.38943599  0.38943598  1
  Ni  Ni8  1  0.50000002  0.00000000  -0.00000000  1
