# generated using pymatgen
data_LaCoP2
_symmetry_space_group_name_H-M   'P 1'
_cell_length_a   4.43918896
_cell_length_b   8.84642220
_cell_length_c   10.03821754
_cell_angle_alpha   116.14453888
_cell_angle_beta   90.00000000
_cell_angle_gamma   90.00000000
_symmetry_Int_Tables_number   1
_chemical_formula_structural   LaCoP2
_chemical_formula_sum   'La4 Co4 P8'
_cell_volume   353.87674104
_cell_formula_units_Z   4
loop_
 _symmetry_equiv_pos_site_id
 _symmetry_equiv_pos_as_xyz
  1  'x, y, z'
loop_
 _atom_site_type_symbol
 _atom_site_label
 _atom_site_symmetry_multiplicity
 _atom_site_fract_x
 _atom_site_fract_y
 _atom_site_fract_z
 _atom_site_occupancy
  La  La0  1  -0.00000000  0.02500000  0.05000000  1
  La  La1  1  -0.00000000  0.52652700  0.05305402  1
  La  La2  1  0.50000000  0.97206200  0.44861506  1
  La  La3  1  0.50000000  0.47655300  0.44861504  1
  Co  Co4  1  -0.00000000  0.33187500  0.66375004  1
  Co  Co5  1  1.00000001  0.83170700  0.66341406  1
  Co  Co6  1  0.50000000  0.66670600  0.83523506  1
  Co  Co7  1  0.50000000  0.16852900  0.83519570  1
  P  P8  1  -0.00000000  0.13198200  0.75114503  1
  P  P9  1  -0.00000000  0.61916300  0.75114505  1
  P  P10  1  0.50000000  0.87412300  0.74824606  1
  P  P11  1  0.50000000  0.37335700  0.74671404  1
  P  P12  1  1.00000001  0.70338900  0.40677804  1
  P  P13  1  -0.00000000  0.20569200  0.41138402  1
  P  P14  1  0.50000000  0.29630000  0.09333602  1
  P  P15  1  0.50000000  0.79703600  0.09333604  1
