# generated using pymatgen
data_Dy3Sn5
_symmetry_space_group_name_H-M   'P 1'
_cell_length_a   6.36929321
_cell_length_b   8.44556427
_cell_length_c   8.44556427
_cell_angle_alpha   60.00000000
_cell_angle_beta   90.00000000
_cell_angle_gamma   90.00000000
_symmetry_Int_Tables_number   1
_chemical_formula_structural   Dy3Sn5
_chemical_formula_sum   'Dy6 Sn10'
_cell_volume   393.44063867
_cell_formula_units_Z   2
loop_
 _symmetry_equiv_pos_site_id
 _symmetry_equiv_pos_as_xyz
  1  'x, y, z'
loop_
 _atom_site_type_symbol
 _atom_site_label
 _atom_site_symmetry_multiplicity
 _atom_site_fract_x
 _atom_site_fract_y
 _atom_site_fract_z
 _atom_site_occupancy
  Dy  Dy0  1  0.24999999  0.24304899  0.75695098  1
  Dy  Dy1  1  0.74999997  0.75695098  0.24304899  1
  Dy  Dy2  1  0.74999997  0.24304899  -0.00000000  1
  Dy  Dy3  1  0.24999999  0.00000000  0.24304899  1
  Dy  Dy4  1  0.24999999  0.75695098  -0.00000000  1
  Dy  Dy5  1  0.74999997  0.00000000  0.75695098  1
  Sn  Sn6  1  0.00000000  0.66666665  0.66666665  1
  Sn  Sn7  1  0.49999998  0.33333332  0.33333332  1
  Sn  Sn8  1  0.00000000  0.33333332  0.33333332  1
  Sn  Sn9  1  0.49999998  0.66666665  0.66666665  1
  Sn  Sn10  1  0.24999999  0.00000000  0.60544098  1
  Sn  Sn11  1  0.74999997  0.60544098  -0.00000000  1
  Sn  Sn12  1  0.74999997  0.39455899  0.60544098  1
  Sn  Sn13  1  0.24999999  0.60544098  0.39455899  1
  Sn  Sn14  1  0.24999999  0.39455899  -0.00000000  1
  Sn  Sn15  1  0.74999997  0.00000000  0.39455899  1
