# generated using pymatgen
data_Sr2VO4
_symmetry_space_group_name_H-M   'P 1'
_cell_length_a   4.03520203
_cell_length_b   4.03520203
_cell_length_c   7.25949430
_cell_angle_alpha   106.13645172
_cell_angle_beta   106.13645172
_cell_angle_gamma   90.00000000
_symmetry_Int_Tables_number   1
_chemical_formula_structural   Sr2VO4
_chemical_formula_sum   'Sr2 V1 O4'
_cell_volume   108.69196771
_cell_formula_units_Z   1
loop_
 _symmetry_equiv_pos_site_id
 _symmetry_equiv_pos_as_xyz
  1  'x, y, z'
loop_
 _atom_site_type_symbol
 _atom_site_label
 _atom_site_symmetry_multiplicity
 _atom_site_fract_x
 _atom_site_fract_y
 _atom_site_fract_z
 _atom_site_occupancy
  Sr  Sr0  1  0.64816500  0.64816500  0.29633001  1
  Sr  Sr1  1  0.35183500  0.35183500  0.70367000  1
  V  V2  1  0.00000000  0.00000000  0.00000000  1
  O  O3  1  0.50000000  0.00000000  0.00000000  1
  O  O4  1  1.00000000  0.50000000  0.00000001  1
  O  O5  1  0.84788700  0.84788700  0.69577401  1
  O  O6  1  0.15211300  0.15211300  0.30422600  1
