# generated using pymatgen
data_Na3AsS4
_symmetry_space_group_name_H-M   'P 1'
_cell_length_a   6.95261288
_cell_length_b   6.95261288
_cell_length_c   7.47261572
_cell_angle_alpha   98.22113037
_cell_angle_beta   98.22113037
_cell_angle_gamma   119.96630096
_symmetry_Int_Tables_number   1
_chemical_formula_structural   Na3AsS4
_chemical_formula_sum   'Na3 As1 S4'
_cell_volume   299.87320879
_cell_formula_units_Z   1
loop_
 _symmetry_equiv_pos_site_id
 _symmetry_equiv_pos_as_xyz
  1  'x, y, z'
loop_
 _atom_site_type_symbol
 _atom_site_label
 _atom_site_symmetry_multiplicity
 _atom_site_fract_x
 _atom_site_fract_y
 _atom_site_fract_z
 _atom_site_occupancy
  Na  Na0  1  0.16668397  0.83331600  -0.00000002  1
  Na  Na1  1  0.83331601  0.16668400  -0.00000002  1
  As  As2  1  0.56371898  0.92036700  0.20797096  1
  Na  Na3  1  0.43628101  0.07963300  0.79202897  1
  S  S4  1  0.07963298  0.43628100  0.79202897  1
  S  S5  1  0.92036700  0.56371900  0.20797096  1
  S  S6  1  0.20772100  0.20772100  0.20798299  1
  S  S7  1  0.79227899  0.79227900  0.79201694  1
