# generated using pymatgen
data_Sr3Tl
_symmetry_space_group_name_H-M   'P 1'
_cell_length_a   5.70222616
_cell_length_b   5.70222616
_cell_length_c   7.09419584
_cell_angle_alpha   113.69661713
_cell_angle_beta   113.69661713
_cell_angle_gamma   90.00000000
_symmetry_Int_Tables_number   1
_chemical_formula_structural   Sr3Tl
_chemical_formula_sum   'Sr3 Tl1'
_cell_volume   189.79050442
_cell_formula_units_Z   1
loop_
 _symmetry_equiv_pos_site_id
 _symmetry_equiv_pos_as_xyz
  1  'x, y, z'
loop_
 _atom_site_type_symbol
 _atom_site_label
 _atom_site_symmetry_multiplicity
 _atom_site_fract_x
 _atom_site_fract_y
 _atom_site_fract_z
 _atom_site_occupancy
  Sr  Sr0  1  0.00000000  0.00000000  0.00000000  1
  Sr  Sr1  1  0.74999996  0.24999999  0.49999998  1
  Sr  Sr2  1  0.24999996  0.74999996  0.49999998  1
  Tl  Tl3  1  0.49999996  0.49999998  -0.00000003  1
