# generated using pymatgen
data_Fe2O5
_symmetry_space_group_name_H-M   'P 1'
_cell_length_a   3.82238293
_cell_length_b   4.87962914
_cell_length_c   6.04143906
_cell_angle_alpha   90.60836029
_cell_angle_beta   108.31325531
_cell_angle_gamma   90.16813660
_symmetry_Int_Tables_number   1
_chemical_formula_structural   Fe2O5
_chemical_formula_sum   'Fe2 O5'
_cell_volume   106.96829923
_cell_formula_units_Z   1
loop_
 _symmetry_equiv_pos_site_id
 _symmetry_equiv_pos_as_xyz
  1  'x, y, z'
loop_
 _atom_site_type_symbol
 _atom_site_label
 _atom_site_symmetry_multiplicity
 _atom_site_fract_x
 _atom_site_fract_y
 _atom_site_fract_z
 _atom_site_occupancy
  Fe  Fe0  1  0.15149295  0.87645204  0.30116501  1
  Fe  Fe1  1  0.84588998  0.12711701  0.69374100  1
  O  O2  1  0.00385595  0.99158605  0.01086901  1
  O  O3  1  0.14786797  0.54632403  0.29336100  1
  O  O4  1  0.31526099  0.01981500  0.63251900  1
  O  O5  1  0.68264194  0.96282905  0.36600901  1
  O  O6  1  0.85298896  0.47587802  0.70233501  1
