# generated using pymatgen
data_Al7Ni9
_symmetry_space_group_name_H-M   'P 1'
_cell_length_a   4.84961796
_cell_length_b   7.37836504
_cell_length_c   7.37836504
_cell_angle_alpha   83.79980469
_cell_angle_beta   70.81388855
_cell_angle_gamma   70.81388855
_symmetry_Int_Tables_number   1
_chemical_formula_structural   Al7Ni9
_chemical_formula_sum   'Al7 Ni9'
_cell_volume   235.50022050
_cell_formula_units_Z   1
loop_
 _symmetry_equiv_pos_site_id
 _symmetry_equiv_pos_as_xyz
  1  'x, y, z'
loop_
 _atom_site_type_symbol
 _atom_site_label
 _atom_site_symmetry_multiplicity
 _atom_site_fract_x
 _atom_site_fract_y
 _atom_site_fract_z
 _atom_site_occupancy
  Ni  Ni0  1  0.52965100  0.40197100  -0.00000000  1
  Al  Al1  1  0.47034901  0.00000000  0.59802900  1
  Al  Al2  1  0.06837800  0.00000000  0.40197100  1
  Ni  Ni3  1  0.93162200  0.59802900  -0.00000000  1
  Al  Al4  1  -0.00000000  0.35476300  0.64523700  1
  Al  Al5  1  0.35476300  0.64523700  0.64523700  1
  Al  Al6  1  0.64523700  0.35476300  0.35476300  1
  Al  Al7  1  -0.00000001  0.64523700  0.35476300  1
  Ni  Ni8  1  0.32467399  0.81458500  0.00000000  1
  Al  Al9  1  0.67532601  0.00000000  0.18541500  1
  Ni  Ni10  1  0.86074101  0.00000000  0.81458499  1
  Ni  Ni11  1  0.13925900  0.18541500  1.00000000  1
  Ni  Ni12  1  0.50000000  0.70839200  0.29160800  1
  Ni  Ni13  1  0.20839200  0.29160800  0.29160800  1
  Ni  Ni14  1  0.79160800  0.70839200  0.70839200  1
  Ni  Ni15  1  0.50000000  0.29160800  0.70839200  1
