# generated using pymatgen
data_LaCO3
_symmetry_space_group_name_H-M   'P 1'
_cell_length_a   4.43165445
_cell_length_b   4.43165445
_cell_length_c   4.43165398
_cell_angle_alpha   74.96485138
_cell_angle_beta   74.96485138
_cell_angle_gamma   74.96485901
_symmetry_Int_Tables_number   1
_chemical_formula_structural   LaCO3
_chemical_formula_sum   'La1 C1 O3'
_cell_volume   79.43797543
_cell_formula_units_Z   1
loop_
 _symmetry_equiv_pos_site_id
 _symmetry_equiv_pos_as_xyz
  1  'x, y, z'
loop_
 _atom_site_type_symbol
 _atom_site_label
 _atom_site_symmetry_multiplicity
 _atom_site_fract_x
 _atom_site_fract_y
 _atom_site_fract_z
 _atom_site_occupancy
  La  La0  1  0.02083000  0.02083000  0.02083000  1
  C  C1  1  0.46878801  0.46878801  0.46878795  1
  O  O2  1  0.60542901  0.18752500  0.60542897  1
  O  O3  1  0.18752501  0.60542901  0.60542897  1
  O  O4  1  0.60542902  0.60542901  0.18752493  1
