# generated using pymatgen
data_MgAl
_symmetry_space_group_name_H-M   'P 1'
_cell_length_a   3.14135408
_cell_length_b   5.62947845
_cell_length_c   7.03732061
_cell_angle_alpha   104.19581604
_cell_angle_beta   90.00000000
_cell_angle_gamma   106.20108795
_symmetry_Int_Tables_number   1
_chemical_formula_structural   MgAl
_chemical_formula_sum   'Mg3 Al3'
_cell_volume   115.54449217
_cell_formula_units_Z   3
loop_
 _symmetry_equiv_pos_site_id
 _symmetry_equiv_pos_as_xyz
  1  'x, y, z'
loop_
 _atom_site_type_symbol
 _atom_site_label
 _atom_site_symmetry_multiplicity
 _atom_site_fract_x
 _atom_site_fract_y
 _atom_site_fract_z
 _atom_site_occupancy
  Mg  Mg0  1  0.38862003  0.77724004  0.27621702  1
  Mg  Mg1  1  0.00107300  0.00214600  0.99699899  1
  Mg  Mg2  1  0.66823100  0.33646202  0.33428301  1
  Al  Al3  1  0.05779900  0.11559801  0.61481200  1
  Al  Al4  1  0.33189802  0.66379603  0.67071902  1
  Al  Al5  1  0.71904600  0.43809202  0.94030300  1
