# generated using pymatgen
data_LiMg11
_symmetry_space_group_name_H-M   'P 1'
_cell_length_a   7.10889721
_cell_length_b   7.10889721
_cell_length_c   7.10889721
_cell_angle_alpha   90.00000000
_cell_angle_beta   90.00000000
_cell_angle_gamma   90.00000000
_symmetry_Int_Tables_number   1
_chemical_formula_structural   LiMg11
_chemical_formula_sum   'Li1 Mg11'
_cell_volume   359.25821176
_cell_formula_units_Z   1
loop_
 _symmetry_equiv_pos_site_id
 _symmetry_equiv_pos_as_xyz
  1  'x, y, z'
loop_
 _atom_site_type_symbol
 _atom_site_label
 _atom_site_symmetry_multiplicity
 _atom_site_fract_x
 _atom_site_fract_y
 _atom_site_fract_z
 _atom_site_occupancy
  Li  Li0  1  0.00000000  0.00000000  0.00000000  1
  Mg  Mg1  1  0.49999999  0.00000000  0.49999999  1
  Mg  Mg2  1  0.49999999  0.49999999  0.00000000  1
  Mg  Mg3  1  0.00000000  0.49999999  0.49999999  1
  Mg  Mg4  1  0.38668499  0.38668499  0.38668499  1
  Mg  Mg5  1  0.11331500  0.61331498  0.88668497  1
  Mg  Mg6  1  0.88668497  0.11331500  0.61331498  1
  Mg  Mg7  1  0.61331498  0.88668497  0.11331500  1
  Mg  Mg8  1  0.61331498  0.61331498  0.61331498  1
  Mg  Mg9  1  0.88668497  0.38668499  0.11331500  1
  Mg  Mg10  1  0.11331500  0.88668497  0.38668499  1
  Mg  Mg11  1  0.38668499  0.11331500  0.88668497  1
