# generated using pymatgen
data_Li2Mn3O4
_symmetry_space_group_name_H-M   'P 1'
_cell_length_a   3.13134599
_cell_length_b   8.41447067
_cell_length_c   8.41447067
_cell_angle_alpha   90.00000000
_cell_angle_beta   90.00000000
_cell_angle_gamma   90.00000000
_symmetry_Int_Tables_number   1
_chemical_formula_structural   Li2Mn3O4
_chemical_formula_sum   'Li4 Mn6 O8'
_cell_volume   221.70968164
_cell_formula_units_Z   2
loop_
 _symmetry_equiv_pos_site_id
 _symmetry_equiv_pos_as_xyz
  1  'x, y, z'
loop_
 _atom_site_type_symbol
 _atom_site_label
 _atom_site_symmetry_multiplicity
 _atom_site_fract_x
 _atom_site_fract_y
 _atom_site_fract_z
 _atom_site_occupancy
  Li  Li0  1  0.00000000  0.00000000  0.00000000  1
  Li  Li1  1  0.50000000  0.50000002  0.50000002  1
  Li  Li2  1  1.00000000  0.36175501  0.82518203  1
  Li  Li3  1  0.00000000  0.63824502  0.17481801  1
  Mn  Mn4  1  0.00000000  0.17481801  0.36175501  1
  Mn  Mn5  1  0.00000000  0.82518203  0.63824502  1
  Mn  Mn6  1  0.50000000  0.12124400  0.65966603  1
  Mn  Mn7  1  0.50000000  0.87875603  0.34033401  1
  Mn  Mn8  1  0.50000000  0.34033401  0.12124400  1
  Mn  Mn9  1  0.50000000  0.65966603  0.87875603  1
  O  O10  1  0.50000000  0.20898701  0.89942703  1
  O  O11  1  0.50000000  0.79101303  0.10057300  1
  O  O12  1  0.50000000  0.10057300  0.20898701  1
  O  O13  1  0.50000000  0.89942703  0.79101303  1
  O  O14  1  0.00000000  0.28017401  0.58990902  1
  O  O15  1  1.00000000  0.71982603  0.41009102  1
  O  O16  1  1.00000000  0.41009102  0.28017401  1
  O  O17  1  0.00000000  0.58990902  0.71982603  1
