# generated using pymatgen
data_K2ZnSb3
_symmetry_space_group_name_H-M   'P 1'
_cell_length_a   5.01234007
_cell_length_b   5.01233912
_cell_length_c   9.71479893
_cell_angle_alpha   90.00000000
_cell_angle_beta   90.00000000
_cell_angle_gamma   120.00000763
_symmetry_Int_Tables_number   1
_chemical_formula_structural   K2ZnSb3
_chemical_formula_sum   'K2 Zn1 Sb3'
_cell_volume   211.37099368
_cell_formula_units_Z   1
loop_
 _symmetry_equiv_pos_site_id
 _symmetry_equiv_pos_as_xyz
  1  'x, y, z'
loop_
 _atom_site_type_symbol
 _atom_site_label
 _atom_site_symmetry_multiplicity
 _atom_site_fract_x
 _atom_site_fract_y
 _atom_site_fract_z
 _atom_site_occupancy
  K  K0  1  0.00000000  0.00000000  0.50000000  1
  K  K1  1  0.00000000  0.00000000  0.00000000  1
  Zn  Zn2  1  0.33333337  0.66666672  0.75000001  1
  Sb  Sb3  1  0.66666668  0.33333336  0.25000000  1
  Sb  Sb4  1  0.66666668  0.33333336  0.75000001  1
  Sb  Sb5  1  0.33333337  0.66666672  0.25000000  1
