# generated using pymatgen
data_AlSi3MoPt3
_symmetry_space_group_name_H-M   'P 1'
_cell_length_a   4.32682419
_cell_length_b   5.41576767
_cell_length_c   5.41576767
_cell_angle_alpha   119.64019775
_cell_angle_beta   90.00000000
_cell_angle_gamma   90.00000000
_symmetry_Int_Tables_number   1
_chemical_formula_structural   AlSi3MoPt3
_chemical_formula_sum   'Al1 Si3 Mo1 Pt3'
_cell_volume   110.30193260
_cell_formula_units_Z   1
loop_
 _symmetry_equiv_pos_site_id
 _symmetry_equiv_pos_as_xyz
  1  'x, y, z'
loop_
 _atom_site_type_symbol
 _atom_site_label
 _atom_site_symmetry_multiplicity
 _atom_site_fract_x
 _atom_site_fract_y
 _atom_site_fract_z
 _atom_site_occupancy
  Al  Al0  1  -0.00000000  0.08934600  0.91065401  1
  Mo  Mo1  1  0.49999998  0.41752400  0.58247599  1
  Pt  Pt2  1  0.49999998  0.91364700  0.08635296  1
  Pt  Pt3  1  -0.00000000  0.58313400  0.41686598  1
  Si  Si4  1  0.49999998  0.91036600  0.59136097  1
  Si  Si5  1  0.49999998  0.40863900  0.08963398  1
  Si  Si6  1  0.99999996  0.08871100  0.41136700  1
  Pt  Pt7  1  -0.00000000  0.58863300  0.91128899  1
