# generated using pymatgen
data_Ti4FeC3
_symmetry_space_group_name_H-M   'P 1'
_cell_length_a   3.15854168
_cell_length_b   3.15854168
_cell_length_c   10.43246460
_cell_angle_alpha   81.29306793
_cell_angle_beta   81.29306793
_cell_angle_gamma   60.00000381
_symmetry_Int_Tables_number   1
_chemical_formula_structural   Ti4FeC3
_chemical_formula_sum   'Ti4 Fe1 C3'
_cell_volume   88.74674747
_cell_formula_units_Z   1
loop_
 _symmetry_equiv_pos_site_id
 _symmetry_equiv_pos_as_xyz
  1  'x, y, z'
loop_
 _atom_site_type_symbol
 _atom_site_label
 _atom_site_symmetry_multiplicity
 _atom_site_fract_x
 _atom_site_fract_y
 _atom_site_fract_z
 _atom_site_occupancy
  Ti  Ti0  1  0.00300700  0.00300700  0.99097904  1
  Ti  Ti1  1  0.49703101  0.49703102  0.50890701  1
  Ti  Ti2  1  0.24868000  0.24868001  0.25396001  1
  Ti  Ti3  1  0.75167101  0.75167103  0.74498702  1
  Fe  Fe4  1  0.87317401  0.87317404  0.38047800  1
  C  C5  1  0.62475001  0.62475003  0.12574999  1
  C  C6  1  0.38028401  0.38028402  0.85914803  1
  C  C7  1  0.12140300  0.12140300  0.63579103  1
