# generated using pymatgen
data_YbAlCoCu3
_symmetry_space_group_name_H-M   'P 1'
_cell_length_a   3.80681992
_cell_length_b   5.33451414
_cell_length_c   5.33451366
_cell_angle_alpha   120.00000000
_cell_angle_beta   90.00000000
_cell_angle_gamma   90.00000000
_symmetry_Int_Tables_number   1
_chemical_formula_structural   YbAlCoCu3
_chemical_formula_sum   'Yb1 Al1 Co1 Cu3'
_cell_volume   93.81724317
_cell_formula_units_Z   1
loop_
 _symmetry_equiv_pos_site_id
 _symmetry_equiv_pos_as_xyz
  1  'x, y, z'
loop_
 _atom_site_type_symbol
 _atom_site_label
 _atom_site_symmetry_multiplicity
 _atom_site_fract_x
 _atom_site_fract_y
 _atom_site_fract_z
 _atom_site_occupancy
  Yb  Yb0  1  0.00000000  0.00000000  0.00000000  1
  Al  Al1  1  1.00000002  0.33333331  0.66666662  1
  Co  Co2  1  1.00000002  0.66666663  0.33333327  1
  Cu  Cu3  1  0.50000001  0.49999997  -0.00000003  1
  Cu  Cu4  1  0.50000001  0.49999997  0.49999995  1
  Cu  Cu5  1  0.50000001  0.00000000  0.49999998  1
