# generated using pymatgen
data_K3Fe2BO5
_symmetry_space_group_name_H-M   'P 1'
_cell_length_a   3.61633706
_cell_length_b   3.66670823
_cell_length_c   12.00648880
_cell_angle_alpha   92.63755798
_cell_angle_beta   98.29640961
_cell_angle_gamma   90.18544769
_symmetry_Int_Tables_number   1
_chemical_formula_structural   K3Fe2BO5
_chemical_formula_sum   'K3 Fe2 B1 O5'
_cell_volume   157.36580037
_cell_formula_units_Z   1
loop_
 _symmetry_equiv_pos_site_id
 _symmetry_equiv_pos_as_xyz
  1  'x, y, z'
loop_
 _atom_site_type_symbol
 _atom_site_label
 _atom_site_symmetry_multiplicity
 _atom_site_fract_x
 _atom_site_fract_y
 _atom_site_fract_z
 _atom_site_occupancy
  K  K0  1  0.20912997  0.97658899  0.34920898  1
  K  K1  1  0.79086998  0.02341100  0.65079098  1
  Fe  Fe2  1  0.60561597  0.44565700  0.13656599  1
  K  K3  1  0.39438398  0.55434300  0.86343398  1
  B  B4  1  0.00000000  0.00000000  0.00000000  1
  Fe  Fe5  1  0.79338497  0.49192400  0.45472098  1
  O  O6  1  0.20661498  0.50807600  0.54527899  1
  O  O7  1  0.09709697  0.94348399  0.12156299  1
  O  O8  1  0.90290298  0.05651600  0.87843698  1
  O  O9  1  0.70212797  0.47220700  0.33037198  1
  O  O10  1  0.29787198  0.52779300  0.66962798  1
