# generated using pymatgen
data_Ca3Mg3Cu2Pb
_symmetry_space_group_name_H-M   'P 1'
_cell_length_a   4.17044783
_cell_length_b   8.35420799
_cell_length_c   8.35420799
_cell_angle_alpha   120.00000000
_cell_angle_beta   90.00000000
_cell_angle_gamma   90.00000000
_symmetry_Int_Tables_number   1
_chemical_formula_structural   Ca3Mg3Cu2Pb
_chemical_formula_sum   'Ca3 Mg3 Cu2 Pb1'
_cell_volume   252.07158446
_cell_formula_units_Z   1
loop_
 _symmetry_equiv_pos_site_id
 _symmetry_equiv_pos_as_xyz
  1  'x, y, z'
loop_
 _atom_site_type_symbol
 _atom_site_label
 _atom_site_symmetry_multiplicity
 _atom_site_fract_x
 _atom_site_fract_y
 _atom_site_fract_z
 _atom_site_occupancy
  Ca  Ca0  1  0.50000002  0.77093399  0.77093395  1
  Ca  Ca1  1  0.50000002  0.00000000  0.22906599  1
  Ca  Ca2  1  0.50000002  0.22906600  -0.00000001  1
  Mg  Mg3  1  -0.00000000  0.39288000  0.39287998  1
  Mg  Mg4  1  -0.00000000  0.00000000  0.60711998  1
  Mg  Mg5  1  1.00000004  0.60711999  -0.00000001  1
  Cu  Cu6  1  0.00000000  0.00000000  0.00000000  1
  Cu  Cu7  1  0.50000002  0.66666666  0.33333330  1
  Pb  Pb8  1  0.50000002  0.33333333  0.66666663  1
