# generated using pymatgen
data_Tm(NiGe)2
_symmetry_space_group_name_H-M   'P 1'
_cell_length_a   3.95417595
_cell_length_b   3.95417595
_cell_length_c   5.76156855
_cell_angle_alpha   110.06896973
_cell_angle_beta   110.06896973
_cell_angle_gamma   90.00000000
_symmetry_Int_Tables_number   1
_chemical_formula_structural   Tm(NiGe)2
_chemical_formula_sum   'Tm1 Ni2 Ge2'
_cell_volume   78.76621150
_cell_formula_units_Z   1
loop_
 _symmetry_equiv_pos_site_id
 _symmetry_equiv_pos_as_xyz
  1  'x, y, z'
loop_
 _atom_site_type_symbol
 _atom_site_label
 _atom_site_symmetry_multiplicity
 _atom_site_fract_x
 _atom_site_fract_y
 _atom_site_fract_z
 _atom_site_occupancy
  Tm  Tm0  1  0.00000000  0.00000000  0.00000000  1
  Ni  Ni1  1  0.75000003  0.25000001  0.50000003  1
  Ni  Ni2  1  0.25000004  0.75000003  0.50000004  1
  Ge  Ge3  1  0.63438905  0.63438902  0.26877805  1
  Ge  Ge4  1  0.36561103  0.36561101  0.73122202  1
