# generated using pymatgen
data_GdTcB3Os
_symmetry_space_group_name_H-M   'P 1'
_cell_length_a   5.05340815
_cell_length_b   5.05340815
_cell_length_c   6.98082209
_cell_angle_alpha   90.00000000
_cell_angle_beta   90.00000000
_cell_angle_gamma   120.00000000
_symmetry_Int_Tables_number   1
_chemical_formula_structural   GdTcB3Os
_chemical_formula_sum   'Gd2 Tc2 B6 Os2'
_cell_volume   154.38530267
_cell_formula_units_Z   2
loop_
 _symmetry_equiv_pos_site_id
 _symmetry_equiv_pos_as_xyz
  1  'x, y, z'
loop_
 _atom_site_type_symbol
 _atom_site_label
 _atom_site_symmetry_multiplicity
 _atom_site_fract_x
 _atom_site_fract_y
 _atom_site_fract_z
 _atom_site_occupancy
  Gd  Gd0  1  0.00000000  0.00000000  0.49999999  1
  Gd  Gd1  1  0.00000000  0.00000000  0.00000000  1
  Tc  Tc2  1  0.66666666  0.33333335  0.99999999  1
  Tc  Tc3  1  0.33333335  0.66666669  0.99999999  1
  B  B4  1  0.50000000  0.50000002  0.70667899  1
  B  B5  1  0.50000002  1.00000004  0.70667899  1
  B  B6  1  0.00000002  0.50000002  0.70667899  1
  B  B7  1  0.50000000  0.50000002  0.29332100  1
  B  B8  1  0.50000002  1.00000004  0.29332100  1
  B  B9  1  0.00000002  0.50000002  0.29332100  1
  Os  Os10  1  0.33333335  0.66666669  0.49999999  1
  Os  Os11  1  0.66666666  0.33333335  0.49999999  1
