# generated using pymatgen
data_MgZnCu
_symmetry_space_group_name_H-M   'P 1'
_cell_length_a   2.65404391
_cell_length_b   2.65404391
_cell_length_c   7.57269621
_cell_angle_alpha   79.90750122
_cell_angle_beta   79.90750122
_cell_angle_gamma   60.00000000
_symmetry_Int_Tables_number   1
_chemical_formula_structural   MgZnCu
_chemical_formula_sum   'Mg1 Zn1 Cu1'
_cell_volume   45.23965334
_cell_formula_units_Z   1
loop_
 _symmetry_equiv_pos_site_id
 _symmetry_equiv_pos_as_xyz
  1  'x, y, z'
loop_
 _atom_site_type_symbol
 _atom_site_label
 _atom_site_symmetry_multiplicity
 _atom_site_fract_x
 _atom_site_fract_y
 _atom_site_fract_z
 _atom_site_occupancy
  Cu  Cu0  1  0.00000000  0.00000000  0.00000000  1
  Mg  Mg1  1  0.22199601  0.22199601  0.33401199  1
  Zn  Zn2  1  0.77800404  0.77800403  0.66598797  1
