# generated using pymatgen
data_CaLu(CoO3)2
_symmetry_space_group_name_H-M   'P 1'
_cell_length_a   5.41456079
_cell_length_b   5.55247021
_cell_length_c   7.63019609
_cell_angle_alpha   90.00000000
_cell_angle_beta   90.00000000
_cell_angle_gamma   90.00000000
_symmetry_Int_Tables_number   1
_chemical_formula_structural   CaLu(CoO3)2
_chemical_formula_sum   'Ca2 Lu2 Co4 O12'
_cell_volume   229.39564604
_cell_formula_units_Z   2
loop_
 _symmetry_equiv_pos_site_id
 _symmetry_equiv_pos_as_xyz
  1  'x, y, z'
loop_
 _atom_site_type_symbol
 _atom_site_label
 _atom_site_symmetry_multiplicity
 _atom_site_fract_x
 _atom_site_fract_y
 _atom_site_fract_z
 _atom_site_occupancy
  Ca  Ca0  1  0.50898102  0.29688699  0.49999999  1
  Ca  Ca1  1  0.00898100  0.70311297  0.00000000  1
  Lu  Lu2  1  0.98632104  0.80370897  0.49999999  1
  Lu  Lu3  1  0.48632102  0.19629099  0.00000000  1
  Co  Co4  1  0.99956104  0.25296899  0.74979699  1
  Co  Co5  1  0.49956102  0.74703097  0.24979700  1
  Co  Co6  1  0.99956104  0.25296899  0.25020300  1
  Co  Co7  1  0.49956102  0.74703097  0.75020299  1
  O  O8  1  0.08266300  0.22559199  0.49999999  1
  O  O9  1  0.41271102  0.72698197  0.49999999  1
  O  O10  1  0.91271103  0.27301799  -0.00000000  1
  O  O11  1  0.58266302  0.77440797  0.00000000  1
  O  O12  1  0.21057801  0.96079196  0.79467399  1
  O  O13  1  0.29452201  0.45575098  0.20597100  1
  O  O14  1  0.79452203  0.54424898  0.29402900  1
  O  O15  1  0.71057803  0.03920800  0.70532599  1
  O  O16  1  0.79452203  0.54424898  0.70597099  1
  O  O17  1  0.71057803  0.03920800  0.29467400  1
  O  O18  1  0.21057801  0.96079196  0.20532600  1
  O  O19  1  0.29452201  0.45575098  0.79402899  1
