# generated using pymatgen
data_Ce2InAg2
_symmetry_space_group_name_H-M   'P 1'
_cell_length_a   4.59364986
_cell_length_b   5.98480558
_cell_length_c   5.98480558
_cell_angle_alpha   60.02885818
_cell_angle_beta   67.43222046
_cell_angle_gamma   67.43222046
_symmetry_Int_Tables_number   1
_chemical_formula_structural   Ce2InAg2
_chemical_formula_sum   'Ce2 In1 Ag2'
_cell_volume   127.76888084
_cell_formula_units_Z   1
loop_
 _symmetry_equiv_pos_site_id
 _symmetry_equiv_pos_as_xyz
  1  'x, y, z'
loop_
 _atom_site_type_symbol
 _atom_site_label
 _atom_site_symmetry_multiplicity
 _atom_site_fract_x
 _atom_site_fract_y
 _atom_site_fract_z
 _atom_site_occupancy
  Ce  Ce0  1  0.79996201  0.70003802  0.70003797  1
  Ce  Ce1  1  0.20003800  0.29996201  0.29996199  1
  In  In2  1  0.00000000  0.00000000  0.00000000  1
  Ag  Ag3  1  0.49999999  0.72695602  0.27304398  1
  Ag  Ag4  1  0.50000001  0.27304401  0.72695598  1
