# generated using pymatgen
data_Li5Mg6Sn5
_symmetry_space_group_name_H-M   'P 1'
_cell_length_a   4.90178013
_cell_length_b   5.36030006
_cell_length_c   11.74317932
_cell_angle_alpha   90.00000000
_cell_angle_beta   90.00000000
_cell_angle_gamma   90.00000000
_symmetry_Int_Tables_number   1
_chemical_formula_structural   Li5Mg6Sn5
_chemical_formula_sum   'Li5 Mg6 Sn5'
_cell_volume   308.55218154
_cell_formula_units_Z   1
loop_
 _symmetry_equiv_pos_site_id
 _symmetry_equiv_pos_as_xyz
  1  'x, y, z'
loop_
 _atom_site_type_symbol
 _atom_site_label
 _atom_site_symmetry_multiplicity
 _atom_site_fract_x
 _atom_site_fract_y
 _atom_site_fract_z
 _atom_site_occupancy
  Li  Li0  1  0.49999999  0.66753499  0.49999999  1
  Li  Li1  1  0.00000000  0.33362400  0.74927898  1
  Li  Li2  1  0.00000000  0.33362400  0.25072099  1
  Li  Li3  1  0.49999999  0.66580299  0.00000000  1
  Mg  Mg4  1  0.00000000  0.32671800  0.00000000  1
  Mg  Mg5  1  0.00000000  0.33318300  0.49999999  1
  Mg  Mg6  1  0.49999999  0.66756899  0.74748698  1
  Li  Li7  1  0.49999999  0.66756899  0.25251299  1
  Mg  Mg8  1  0.49999999  0.16641200  0.62556498  1
  Mg  Mg9  1  0.49999999  0.16565000  0.12750100  1
  Mg  Mg10  1  0.49999999  0.16565000  0.87249898  1
  Sn  Sn11  1  0.49999999  0.16641200  0.37443499  1
  Sn  Sn12  1  0.00000000  0.83502799  0.62358198  1
  Sn  Sn13  1  0.00000000  0.83509799  0.12538200  1
  Sn  Sn14  1  0.00000000  0.83509799  0.87461798  1
  Sn  Sn15  1  0.00000000  0.83502799  0.37641799  1
