# generated using pymatgen
data_Li6VO7
_symmetry_space_group_name_H-M   'P 1'
_cell_length_a   6.03137589
_cell_length_b   6.22925663
_cell_length_c   6.03137589
_cell_angle_alpha   61.04537201
_cell_angle_beta   90.00000000
_cell_angle_gamma   118.95462799
_symmetry_Int_Tables_number   1
_chemical_formula_structural   Li6VO7
_chemical_formula_sum   'Li6 V1 O7'
_cell_volume   165.16699846
_cell_formula_units_Z   1
loop_
 _symmetry_equiv_pos_site_id
 _symmetry_equiv_pos_as_xyz
  1  'x, y, z'
loop_
 _atom_site_type_symbol
 _atom_site_label
 _atom_site_symmetry_multiplicity
 _atom_site_fract_x
 _atom_site_fract_y
 _atom_site_fract_z
 _atom_site_occupancy
  Li  Li0  1  0.00000000  0.00000000  0.00000000  1
  Li  Li1  1  0.75000003  0.49999999  0.75000000  1
  Li  Li2  1  0.37500001  0.25000000  0.37500000  1
  Li  Li3  1  0.87500002  0.25000000  0.37500000  1
  Li  Li4  1  0.37500003  0.74999999  0.37499999  1
  Li  Li5  1  0.37500003  0.74999999  0.87500000  1
  O  O6  1  0.14409701  0.28819400  0.14508000  1
  V  V7  1  0.60590302  0.21180700  0.18327400  1
  O  O8  1  0.56672603  0.71180599  0.14409699  1
  O  O9  1  0.14508102  0.71180699  0.14409599  1
  O  O10  1  0.60590302  0.21180600  0.60492001  1
  O  O11  1  0.14409701  0.28819300  0.56672600  1
  O  O12  1  0.60491903  0.78819299  0.60590399  1
  O  O13  1  0.18327402  0.78819399  0.60590299  1
