# generated using pymatgen
data_Ba6WO11
_symmetry_space_group_name_H-M   'P 1'
_cell_length_a   6.49395180
_cell_length_b   6.53932524
_cell_length_c   9.42961884
_cell_angle_alpha   72.43934631
_cell_angle_beta   80.57724762
_cell_angle_gamma   65.66887665
_symmetry_Int_Tables_number   1
_chemical_formula_structural   Ba6WO11
_chemical_formula_sum   'Ba6 W1 O11'
_cell_volume   347.50982138
_cell_formula_units_Z   1
loop_
 _symmetry_equiv_pos_site_id
 _symmetry_equiv_pos_as_xyz
  1  'x, y, z'
loop_
 _atom_site_type_symbol
 _atom_site_label
 _atom_site_symmetry_multiplicity
 _atom_site_fract_x
 _atom_site_fract_y
 _atom_site_fract_z
 _atom_site_occupancy
  Ba  Ba0  1  0.73925496  0.90638605  0.34795599  1
  Ba  Ba1  1  0.26074500  0.09361400  0.65204403  1
  Ba  Ba2  1  0.27461397  0.54504003  0.87640102  1
  Ba  Ba3  1  0.72538599  0.45496002  0.12359900  1
  Ba  Ba4  1  0.77385802  0.00676500  0.93892505  1
  Ba  Ba5  1  0.22614194  0.99323505  0.06107497  1
  O  O6  1  0.24636896  0.73089504  0.46886200  1
  W  W7  1  0.75363100  0.26910501  0.53113802  1
  O  O8  1  0.24019898  0.34682602  0.25033800  1
  O  O9  1  0.75980098  0.65317403  0.74966202  1
  O  O10  1  0.39397699  0.33642802  0.39615401  1
  O  O11  1  0.60602297  0.66357204  0.60384601  1
  O  O12  1  0.93044097  0.82468404  0.68335901  1
  O  O13  1  0.06955899  0.17531601  0.31664101  1
  O  O14  1  0.54476296  0.78763804  0.87871902  1
  O  O15  1  0.45523700  0.21236201  0.12128101  1
  O  O16  1  0.93725600  0.35868202  0.83987204  1
  O  O17  1  0.06274396  0.64131803  0.16012798  1
