# generated using pymatgen
data_Sr2ScTiO6
_symmetry_space_group_name_H-M   'P 1'
_cell_length_a   5.91407442
_cell_length_b   5.91409588
_cell_length_c   8.03613853
_cell_angle_alpha   90.00054932
_cell_angle_beta   90.00029755
_cell_angle_gamma   85.60838318
_symmetry_Int_Tables_number   1
_chemical_formula_structural   Sr2ScTiO6
_chemical_formula_sum   'Sr4 Sc2 Ti2 O12'
_cell_volume   280.24997498
_cell_formula_units_Z   2
loop_
 _symmetry_equiv_pos_site_id
 _symmetry_equiv_pos_as_xyz
  1  'x, y, z'
loop_
 _atom_site_type_symbol
 _atom_site_label
 _atom_site_symmetry_multiplicity
 _atom_site_fract_x
 _atom_site_fract_y
 _atom_site_fract_z
 _atom_site_occupancy
  Sr  Sr0  1  0.99991907  0.99990397  0.00004103  1
  Sr  Sr1  1  0.49989403  0.50004198  0.50004104  1
  Sr  Sr2  1  0.99992007  0.99990497  0.50004106  1
  Sr  Sr3  1  0.49990003  0.50004598  0.00004001  1
  Sc  Sc4  1  0.49978907  0.99982697  0.75007806  1
  Sc  Sc5  1  0.00001303  0.49997398  0.24986502  1
  Ti  Ti6  1  0.99999804  0.50015998  0.74981406  1
  Ti  Ti7  1  0.50002707  0.99984297  0.25015303  1
  O  O8  1  0.23077205  0.73054098  0.75006006  1
  O  O9  1  0.73072202  0.23078099  0.24991403  1
  O  O10  1  0.76942302  0.26920499  0.75005706  1
  O  O11  1  0.26940805  0.76944398  0.24990203  1
  O  O12  1  0.99997704  0.50000998  0.49582105  1
  O  O13  1  0.50006000  0.00011100  0.99594106  1
  O  O14  1  0.99996604  0.50001498  0.00403402  1
  O  O15  1  0.50004400  0.00010600  0.50416204  1
  O  O16  1  0.25427502  0.24583599  0.75004605  1
  O  O17  1  0.75427705  0.74574698  0.24997803  1
  O  O18  1  0.74582305  0.75429798  0.75004106  1
  O  O19  1  0.24579402  0.25420499  0.24997002  1
