# generated using pymatgen
data_Eu3CdAg2
_symmetry_space_group_name_H-M   'P 1'
_cell_length_a   5.02616310
_cell_length_b   7.26960802
_cell_length_c   9.22162056
_cell_angle_alpha   90.00000000
_cell_angle_beta   90.00000000
_cell_angle_gamma   90.00000000
_symmetry_Int_Tables_number   1
_chemical_formula_structural   Eu3CdAg2
_chemical_formula_sum   'Eu6 Cd2 Ag4'
_cell_volume   336.94174457
_cell_formula_units_Z   2
loop_
 _symmetry_equiv_pos_site_id
 _symmetry_equiv_pos_as_xyz
  1  'x, y, z'
loop_
 _atom_site_type_symbol
 _atom_site_label
 _atom_site_symmetry_multiplicity
 _atom_site_fract_x
 _atom_site_fract_y
 _atom_site_fract_z
 _atom_site_occupancy
  Eu  Eu0  1  0.74999998  0.15156200  0.08464000  1
  Eu  Eu1  1  0.74999998  0.65156200  0.41536002  1
  Eu  Eu2  1  0.24999999  0.84843800  0.91536004  1
  Eu  Eu3  1  0.24999999  0.34843800  0.58464003  1
  Eu  Eu4  1  0.74999998  0.51015900  0.82395604  1
  Eu  Eu5  1  0.74999998  0.01015900  0.67604403  1
  Cd  Cd6  1  0.24999999  0.48984100  0.17604401  1
  Cd  Cd7  1  0.24999999  0.98984100  0.32395602  1
  Ag  Ag8  1  0.74999998  0.74336800  0.09680400  1
  Ag  Ag9  1  0.74999998  0.24336800  0.40319602  1
  Ag  Ag10  1  0.24999999  0.25663200  0.90319604  1
  Ag  Ag11  1  0.24999999  0.75663200  0.59680403  1
