# generated using pymatgen
data_Ca2CoO4
_symmetry_space_group_name_H-M   'P 1'
_cell_length_a   5.55951452
_cell_length_b   5.59527302
_cell_length_c   6.92072439
_cell_angle_alpha   89.59103394
_cell_angle_beta   113.68179321
_cell_angle_gamma   89.99999237
_symmetry_Int_Tables_number   1
_chemical_formula_structural   Ca2CoO4
_chemical_formula_sum   'Ca4 Co2 O8'
_cell_volume   197.14807494
_cell_formula_units_Z   2
loop_
 _symmetry_equiv_pos_site_id
 _symmetry_equiv_pos_as_xyz
  1  'x, y, z'
loop_
 _atom_site_type_symbol
 _atom_site_label
 _atom_site_symmetry_multiplicity
 _atom_site_fract_x
 _atom_site_fract_y
 _atom_site_fract_z
 _atom_site_occupancy
  Ca  Ca0  1  0.85739196  0.49085901  0.71478298  1
  Ca  Ca1  1  0.35566897  0.99885501  0.71133799  1
  Ca  Ca2  1  0.14192698  0.50794601  0.28385399  1
  Ca  Ca3  1  0.64158298  0.01203300  0.28316698  1
  Co  Co4  1  0.99422594  0.99863801  0.98845097  1
  Co  Co5  1  0.49523297  0.49957401  0.99046498  1
  O  O6  1  0.25853999  0.25129700  0.00832099  1
  O  O7  1  0.26374597  0.74924901  0.01242299  1
  O  O8  1  0.66205297  0.48063001  0.32410598  1
  O  O9  1  0.74867696  0.74924901  0.01242298  1
  O  O10  1  0.82313497  0.01416200  0.64626998  1
  O  O11  1  0.74978097  0.25129700  0.00832098  1
  O  O12  1  0.16840797  0.99160001  0.33681699  1
  O  O13  1  0.33963098  0.50461301  0.67926099  1
