# generated using pymatgen
data_TmGe2
_symmetry_space_group_name_H-M   'P 1'
_cell_length_a   4.11627483
_cell_length_b   7.03489590
_cell_length_c   7.58032894
_cell_angle_alpha   90.00000000
_cell_angle_beta   90.00000000
_cell_angle_gamma   90.00000000
_symmetry_Int_Tables_number   1
_chemical_formula_structural   TmGe2
_chemical_formula_sum   'Tm4 Ge8'
_cell_volume   219.50786757
_cell_formula_units_Z   4
loop_
 _symmetry_equiv_pos_site_id
 _symmetry_equiv_pos_as_xyz
  1  'x, y, z'
loop_
 _atom_site_type_symbol
 _atom_site_label
 _atom_site_symmetry_multiplicity
 _atom_site_fract_x
 _atom_site_fract_y
 _atom_site_fract_z
 _atom_site_occupancy
  Tm  Tm0  1  0.25000001  0.50716701  0.18559700  1
  Tm  Tm1  1  0.75000003  0.49283301  0.81440301  1
  Tm  Tm2  1  0.25000001  0.00716700  0.31440300  1
  Tm  Tm3  1  0.75000003  0.99283301  0.68559701  1
  Ge  Ge4  1  0.75000003  0.86328801  0.05848600  1
  Ge  Ge5  1  0.25000001  0.13671200  0.94151401  1
  Ge  Ge6  1  0.75000003  0.36328801  0.44151400  1
  Ge  Ge7  1  0.25000001  0.63671201  0.55848600  1
  Ge  Ge8  1  0.25000001  0.78987201  0.89001801  1
  Ge  Ge9  1  0.75000003  0.21012800  0.10998200  1
  Ge  Ge10  1  0.25000001  0.28987200  0.60998200  1
  Ge  Ge11  1  0.75000003  0.71012801  0.39001800  1
