# generated using pymatgen
data_KYbFeS4
_symmetry_space_group_name_H-M   'P 1'
_cell_length_a   6.57566881
_cell_length_b   6.73607922
_cell_length_c   8.70523930
_cell_angle_alpha   90.00000000
_cell_angle_beta   72.48087311
_cell_angle_gamma   90.00000000
_symmetry_Int_Tables_number   1
_chemical_formula_structural   KYbFeS4
_chemical_formula_sum   'K2 Yb2 Fe2 S8'
_cell_volume   367.70674325
_cell_formula_units_Z   2
loop_
 _symmetry_equiv_pos_site_id
 _symmetry_equiv_pos_as_xyz
  1  'x, y, z'
loop_
 _atom_site_type_symbol
 _atom_site_label
 _atom_site_symmetry_multiplicity
 _atom_site_fract_x
 _atom_site_fract_y
 _atom_site_fract_z
 _atom_site_occupancy
  K  K0  1  0.77169003  0.69168398  0.93330397  1
  K  K1  1  0.22831001  0.19168399  0.06669599  1
  Yb  Yb2  1  0.26479601  0.22588699  0.55455999  1
  Yb  Yb3  1  0.73520403  0.72588698  0.44543997  1
  Fe  Fe4  1  0.28264801  0.67528798  0.32254399  1
  Fe  Fe5  1  0.71735203  0.17528799  0.67745597  1
  S  S6  1  0.91911504  0.12092200  0.43812497  1
  S  S7  1  0.08925900  0.67367298  0.16755900  1
  S  S8  1  0.48067302  0.94737497  0.72420798  1
  S  S9  1  0.53244802  0.44074099  0.70144298  1
  S  S10  1  0.08088500  0.62092198  0.56187499  1
  S  S11  1  0.46755202  0.94074097  0.29855698  1
  S  S12  1  0.91074104  0.17367299  0.83244097  1
  S  S13  1  0.51932702  0.44737499  0.27579198  1
