# generated using pymatgen
data_Ba7MoBr12
_symmetry_space_group_name_H-M   'P 1'
_cell_length_a   10.04951286
_cell_length_b   10.04951286
_cell_length_c   10.04951286
_cell_angle_alpha   107.08823395
_cell_angle_beta   107.08823395
_cell_angle_gamma   107.08823395
_symmetry_Int_Tables_number   1
_chemical_formula_structural   Ba7MoBr12
_chemical_formula_sum   'Ba7 Mo1 Br12'
_cell_volume   843.19865573
_cell_formula_units_Z   1
loop_
 _symmetry_equiv_pos_site_id
 _symmetry_equiv_pos_as_xyz
  1  'x, y, z'
loop_
 _atom_site_type_symbol
 _atom_site_label
 _atom_site_symmetry_multiplicity
 _atom_site_fract_x
 _atom_site_fract_y
 _atom_site_fract_z
 _atom_site_occupancy
  Ba  Ba0  1  0.09802100  0.02688400  0.29906999  1
  Ba  Ba1  1  0.90197894  0.97311596  0.70092995  1
  Ba  Ba2  1  0.70092995  0.90197896  0.97311595  1
  Ba  Ba3  1  0.97311595  0.70092997  0.90197895  1
  Ba  Ba4  1  0.49999997  0.49999998  0.49999997  1
  Ba  Ba5  1  0.29906999  0.09802100  0.02688399  1
  Ba  Ba6  1  0.02688399  0.29906999  0.09802099  1
  Mo  Mo7  1  0.00000000  0.00000000  0.00000000  1
  Br  Br8  1  0.38933797  0.46910798  0.15817698  1
  Br  Br9  1  0.61066196  0.53089198  0.84182296  1
  Br  Br10  1  0.07466998  0.68234597  0.22778298  1
  Br  Br11  1  0.84182295  0.61066197  0.53089197  1
  Br  Br12  1  0.22778299  0.07467000  0.68234598  1
  Br  Br13  1  0.92532996  0.31765399  0.77221697  1
  Br  Br14  1  0.77221695  0.92532996  0.31765396  1
  Br  Br15  1  0.68234597  0.22778299  0.07466999  1
  Br  Br16  1  0.31765397  0.77221697  0.92532996  1
  Br  Br17  1  0.46910798  0.15817699  0.38933798  1
  Br  Br18  1  0.53089196  0.84182296  0.61066196  1
  Br  Br19  1  0.15817698  0.38933798  0.46910798  1
