# generated using pymatgen
data_Cs3NaCu4S5O
_symmetry_space_group_name_H-M   'P 1'
_cell_length_a   4.10656786
_cell_length_b   9.72566605
_cell_length_c   10.23605919
_cell_angle_alpha   113.65574646
_cell_angle_beta   90.00000000
_cell_angle_gamma   90.00000000
_symmetry_Int_Tables_number   1
_chemical_formula_structural   Cs3NaCu4S5O
_chemical_formula_sum   'Cs3 Na1 Cu4 S5 O1'
_cell_volume   374.46713642
_cell_formula_units_Z   1
loop_
 _symmetry_equiv_pos_site_id
 _symmetry_equiv_pos_as_xyz
  1  'x, y, z'
loop_
 _atom_site_type_symbol
 _atom_site_label
 _atom_site_symmetry_multiplicity
 _atom_site_fract_x
 _atom_site_fract_y
 _atom_site_fract_z
 _atom_site_occupancy
  Cs  Cs0  1  0.25000001  0.97280498  0.82676893  1
  Cs  Cs1  1  0.75000003  0.02719500  0.17323099  1
  Cs  Cs2  1  0.25000001  0.38579999  0.14358098  1
  Na  Na3  1  0.75000003  0.61419999  0.85641894  1
  Cu  Cu4  1  0.25000001  0.18734100  0.55906597  1
  Cu  Cu5  1  0.75000003  0.81265898  0.44093395  1
  Cu  Cu6  1  0.75000003  0.24720799  0.84731096  1
  Cu  Cu7  1  0.75000003  0.42111999  0.44494497  1
  S  S8  1  0.25000001  0.75279198  0.15268896  1
  S  S9  1  0.25000001  0.57887999  0.55505495  1
  O  O10  1  0.25000001  0.81799298  0.00079096  1
  S  S11  1  0.75000003  0.18200700  0.99920896  1
  S  S12  1  0.25000001  0.92898598  0.32396695  1
  S  S13  1  0.75000003  0.07101400  0.67603297  1
