# generated using pymatgen
data_Ti2Cu3Ag4TeSeI9
_symmetry_space_group_name_H-M   'P 1'
_cell_length_a   3.85308790
_cell_length_b   3.85308886
_cell_length_c   31.51255608
_cell_angle_alpha   90.00000000
_cell_angle_beta   90.00000000
_cell_angle_gamma   119.99999237
_symmetry_Int_Tables_number   1
_chemical_formula_structural   Ti2Cu3Ag4TeSeI9
_chemical_formula_sum   'Ti2 Cu3 Ag4 Te1 Se1 I9'
_cell_volume   405.16529465
_cell_formula_units_Z   1
loop_
 _symmetry_equiv_pos_site_id
 _symmetry_equiv_pos_as_xyz
  1  'x, y, z'
loop_
 _atom_site_type_symbol
 _atom_site_label
 _atom_site_symmetry_multiplicity
 _atom_site_fract_x
 _atom_site_fract_y
 _atom_site_fract_z
 _atom_site_occupancy
  Ti  Ti0  1  0.00000000  0.00000000  0.39997300  1
  Ag  Ag1  1  0.33333333  0.66666665  0.79997300  1
  Ag  Ag2  1  0.33333333  0.66666665  0.19998000  1
  Ti  Ti3  1  0.66666668  0.33333332  0.29997300  1
  Ag  Ag4  1  0.00000000  0.00000000  0.69997300  1
  Cu  Cu5  1  0.00000000  0.00000000  0.99998100  1
  Cu  Cu6  1  0.66666668  0.33333332  0.09996100  1
  Ag  Ag7  1  0.33333333  0.66666665  0.49997300  1
  Cu  Cu8  1  0.66666668  0.33333332  0.89996100  1
  I  I9  1  0.66666668  0.33333332  0.59997300  1
  Se  Se10  1  0.00000000  0.00000000  0.92499500  1
  Te  Te11  1  0.00000000  0.00000000  0.32502600  1
  I  I12  1  0.66666668  0.33333332  0.02506400  1
  I  I13  1  0.66666668  0.33333332  0.52502700  1
  I  I14  1  0.33333333  0.66666665  0.42502800  1
  I  I15  1  0.66666668  0.33333332  0.22505900  1
  I  I16  1  0.33333333  0.66666665  0.72502700  1
  I  I17  1  0.66666668  0.33333332  0.82503200  1
  I  I18  1  0.00000000  0.00000000  0.62502700  1
  I  I19  1  0.33333333  0.66666665  0.12499400  1
