# generated using pymatgen
data_BaLiPd3Pb
_symmetry_space_group_name_H-M   'P 1'
_cell_length_a   6.18669939
_cell_length_b   6.18669939
_cell_length_c   6.18669939
_cell_angle_alpha   60.00000000
_cell_angle_beta   60.00000000
_cell_angle_gamma   60.00000000
_symmetry_Int_Tables_number   1
_chemical_formula_structural   BaLiPd3Pb
_chemical_formula_sum   'Ba1 Li1 Pd3 Pb1'
_cell_volume   167.44109101
_cell_formula_units_Z   1
loop_
 _symmetry_equiv_pos_site_id
 _symmetry_equiv_pos_as_xyz
  1  'x, y, z'
loop_
 _atom_site_type_symbol
 _atom_site_label
 _atom_site_symmetry_multiplicity
 _atom_site_fract_x
 _atom_site_fract_y
 _atom_site_fract_z
 _atom_site_occupancy
  Ba  Ba0  1  0.74999998  0.74999998  0.74999998  1
  Li  Li1  1  0.00000000  0.00000000  0.00000000  1
  Pb  Pb2  1  0.37499999  0.37499999  0.37499999  1
  Pd  Pd3  1  0.87499998  0.37499999  0.37499999  1
  Pd  Pd4  1  0.37499999  0.37499999  0.87499998  1
  Pd  Pd5  1  0.37499999  0.87499998  0.37499999  1
