# generated using pymatgen
data_Sr5Bi(WO6)2
_symmetry_space_group_name_H-M   'P 1'
_cell_length_a   5.83983898
_cell_length_b   5.88145018
_cell_length_c   8.25143242
_cell_angle_alpha   90.00000000
_cell_angle_beta   90.04152679
_cell_angle_gamma   90.00000000
_symmetry_Int_Tables_number   1
_chemical_formula_structural   Sr5Bi(WO6)2
_chemical_formula_sum   'Sr5 Bi1 W2 O12'
_cell_volume   283.40958102
_cell_formula_units_Z   1
loop_
 _symmetry_equiv_pos_site_id
 _symmetry_equiv_pos_as_xyz
  1  'x, y, z'
loop_
 _atom_site_type_symbol
 _atom_site_label
 _atom_site_symmetry_multiplicity
 _atom_site_fract_x
 _atom_site_fract_y
 _atom_site_fract_z
 _atom_site_occupancy
  Sr  Sr0  1  0.49999998  0.49999999  0.00000001  1
  Sr  Sr1  1  0.00000000  0.00000000  0.49999999  1
  Sr  Sr2  1  0.50692798  0.03764800  0.75047600  1
  Sr  Sr3  1  0.99307196  0.53764798  0.74952401  1
  Sr  Sr4  1  0.49307198  0.96235197  0.24952401  1
  Bi  Bi5  1  0.00692800  0.46235199  0.25047600  1
  W  W6  1  0.49999998  0.49999999  0.50000000  1
  W  W7  1  0.00000000  0.00000000  0.00000000  1
  O  O8  1  0.68149598  0.76374998  0.54131701  1
  O  O9  1  0.81850397  0.26374999  0.95868301  1
  O  O10  1  0.31850399  0.23624999  0.45868300  1
  O  O11  1  0.18149599  0.73624998  0.04131700  1
  O  O12  1  0.42737498  0.47662099  0.72452200  1
  O  O13  1  0.07262500  0.97662097  0.77547799  1
  O  O14  1  0.57262498  0.52337898  0.27547801  1
  O  O15  1  0.92737497  0.02337900  0.22452202  1
  O  O16  1  0.76205597  0.31270299  0.53487001  1
  O  O17  1  0.73794397  0.81270298  0.96513000  1
  O  O18  1  0.23794399  0.68729698  0.46513000  1
  O  O19  1  0.26205599  0.18729699  0.03487001  1
