# generated using pymatgen
data_TmCo5
_symmetry_space_group_name_H-M   'P 1'
_cell_length_a   4.13889599
_cell_length_b   8.67053795
_cell_length_c   8.67311096
_cell_angle_alpha   119.99018097
_cell_angle_beta   90.00000000
_cell_angle_gamma   90.00000000
_symmetry_Int_Tables_number   1
_chemical_formula_structural   TmCo5
_chemical_formula_sum   'Tm3 Co15'
_cell_volume   269.57465141
_cell_formula_units_Z   3
loop_
 _symmetry_equiv_pos_site_id
 _symmetry_equiv_pos_as_xyz
  1  'x, y, z'
loop_
 _atom_site_type_symbol
 _atom_site_label
 _atom_site_symmetry_multiplicity
 _atom_site_fract_x
 _atom_site_fract_y
 _atom_site_fract_z
 _atom_site_occupancy
  Tm  Tm0  1  0.50000000  0.33315599  0.66668795  1
  Tm  Tm1  1  0.50000000  0.66646798  0.33331195  1
  Tm  Tm2  1  1.00000000  0.99999396  -0.00000005  1
  Co  Co3  1  1.00000000  0.50614798  -0.00000003  1
  Co  Co4  1  1.00000000  0.49374998  0.49393495  1
  Co  Co5  1  1.00000000  0.99981496  0.50606492  1
  Co  Co6  1  0.50000000  0.27456299  -0.00000001  1
  Co  Co7  1  0.50000000  0.72553797  0.72553293  1
  Co  Co8  1  0.50000000  0.00000500  0.27446699  1
  Co  Co9  1  1.00000000  0.17498499  0.35227997  1
  Co  Co10  1  1.00000000  0.17721599  0.82495895  1
  Co  Co11  1  1.00000000  0.64794298  0.82283592  1
  Co  Co12  1  1.00000000  0.82270497  0.64771992  1
  Co  Co13  1  1.00000000  0.35225699  0.17504097  1
  Co  Co14  1  1.00000000  0.82510697  0.17716395  1
  Co  Co15  1  0.50000000  0.69420397  -0.00000004  1
  Co  Co16  1  0.50000000  0.30596799  0.30588697  1
  Co  Co17  1  0.50000000  0.00008100  0.69411297  1
