# generated using pymatgen
data_YbAlSi
_symmetry_space_group_name_H-M   'P 1'
_cell_length_a   4.64984083
_cell_length_b   6.00909090
_cell_length_c   8.74239731
_cell_angle_alpha   90.00000000
_cell_angle_beta   90.00000000
_cell_angle_gamma   90.00000000
_symmetry_Int_Tables_number   1
_chemical_formula_structural   YbAlSi
_chemical_formula_sum   'Yb4 Al4 Si4'
_cell_volume   244.27408781
_cell_formula_units_Z   4
loop_
 _symmetry_equiv_pos_site_id
 _symmetry_equiv_pos_as_xyz
  1  'x, y, z'
loop_
 _atom_site_type_symbol
 _atom_site_label
 _atom_site_symmetry_multiplicity
 _atom_site_fract_x
 _atom_site_fract_y
 _atom_site_fract_z
 _atom_site_occupancy
  Yb  Yb0  1  0.75000003  0.04163000  0.29010899  1
  Yb  Yb1  1  0.75000003  0.54163001  0.20989099  1
  Yb  Yb2  1  0.25000001  0.97078302  0.71655697  1
  Yb  Yb3  1  0.25000001  0.47078301  0.78344297  1
  Al  Al4  1  0.75000003  0.68579501  0.57103098  1
  Al  Al5  1  0.75000003  0.18579500  0.92896897  1
  Al  Al6  1  0.25000001  0.30500901  0.44790998  1
  Al  Al7  1  0.25000001  0.80500901  0.05209000  1
  Si  Si8  1  0.25000001  0.77808501  0.38262899  1
  Si  Si9  1  0.25000001  0.27808500  0.11737100  1
  Si  Si10  1  0.75000003  0.21869800  0.61598598  1
  Si  Si11  1  0.75000003  0.71869801  0.88401397  1
