# generated using pymatgen
data_TmGa2
_symmetry_space_group_name_H-M   'P 1'
_cell_length_a   5.41634750
_cell_length_b   5.41634750
_cell_length_c   5.41634750
_cell_angle_alpha   91.66790009
_cell_angle_beta   118.83076477
_cell_angle_gamma   119.25317383
_symmetry_Int_Tables_number   1
_chemical_formula_structural   TmGa2
_chemical_formula_sum   'Tm2 Ga4'
_cell_volume   113.93105906
_cell_formula_units_Z   2
loop_
 _symmetry_equiv_pos_site_id
 _symmetry_equiv_pos_as_xyz
  1  'x, y, z'
loop_
 _atom_site_type_symbol
 _atom_site_label
 _atom_site_symmetry_multiplicity
 _atom_site_fract_x
 _atom_site_fract_y
 _atom_site_fract_z
 _atom_site_occupancy
  Tm  Tm0  1  0.74999999  0.86089902  0.11089892  1
  Tm  Tm1  1  0.25000000  0.13910100  0.88910102  1
  Ga  Ga2  1  0.50000000  0.50000001  0.49999997  1
  Ga  Ga3  1  -0.00000002  0.50000001  -0.00000004  1
  Ga  Ga4  1  0.50000002  0.00000000  0.50000001  1
  Ga  Ga5  1  -0.00000002  0.50000001  0.49999998  1
