# generated using pymatgen
data_Li6AlTc2Os3N
_symmetry_space_group_name_H-M   'P 1'
_cell_length_a   5.51606607
_cell_length_b   5.51606607
_cell_length_c   5.51606607
_cell_angle_alpha   90.00000000
_cell_angle_beta   90.00000000
_cell_angle_gamma   90.00000000
_symmetry_Int_Tables_number   1
_chemical_formula_structural   Li6AlTc2Os3N
_chemical_formula_sum   'Li6 Al1 Tc2 Os3 N1'
_cell_volume   167.83725936
_cell_formula_units_Z   1
loop_
 _symmetry_equiv_pos_site_id
 _symmetry_equiv_pos_as_xyz
  1  'x, y, z'
loop_
 _atom_site_type_symbol
 _atom_site_label
 _atom_site_symmetry_multiplicity
 _atom_site_fract_x
 _atom_site_fract_y
 _atom_site_fract_z
 _atom_site_occupancy
  Li  Li0  1  0.78240699  0.21759300  0.78240699  1
  Li  Li1  1  0.21759300  0.21759300  0.21759300  1
  Li  Li2  1  0.78240699  0.78240699  0.78240699  1
  Li  Li3  1  0.21759300  0.78240699  0.21759300  1
  Li  Li4  1  0.78240699  0.21759300  0.21759300  1
  Li  Li5  1  0.78240699  0.78240699  0.21759300  1
  Tc  Tc6  1  0.49999999  0.49999999  0.49999999  1
  Os  Os7  1  0.21759300  0.78240699  0.78240699  1
  Al  Al8  1  0.21759300  0.21759300  0.78240699  1
  Tc  Tc9  1  0.49999999  0.49999999  0.00000000  1
  Os  Os10  1  -0.00000000  0.49999999  0.49999999  1
  Os  Os11  1  0.49999999  0.00000000  0.49999999  1
  N  N12  1  0.00000000  0.00000000  0.00000000  1
