# generated using pymatgen
data_CeNiGe2
_symmetry_space_group_name_H-M   'P 1'
_cell_length_a   4.23523617
_cell_length_b   4.25259495
_cell_length_c   8.65783119
_cell_angle_alpha   90.00000000
_cell_angle_beta   104.15760040
_cell_angle_gamma   90.00000000
_symmetry_Int_Tables_number   1
_chemical_formula_structural   CeNiGe2
_chemical_formula_sum   'Ce2 Ni2 Ge4'
_cell_volume   151.19773776
_cell_formula_units_Z   2
loop_
 _symmetry_equiv_pos_site_id
 _symmetry_equiv_pos_as_xyz
  1  'x, y, z'
loop_
 _atom_site_type_symbol
 _atom_site_label
 _atom_site_symmetry_multiplicity
 _atom_site_fract_x
 _atom_site_fract_y
 _atom_site_fract_z
 _atom_site_occupancy
  Ce  Ce0  1  0.10861200  0.75000001  0.21722401  1
  Ce  Ce1  1  0.89138797  0.25000000  0.78277605  1
  Ni  Ni2  1  0.31885599  0.75000001  0.63771203  1
  Ni  Ni3  1  0.68114398  0.25000000  0.36228803  1
  Ge  Ge4  1  0.74922098  0.75000001  0.49844204  1
  Ge  Ge5  1  0.45789499  0.75000001  0.91579005  1
  Ge  Ge6  1  0.25077899  0.25000000  0.50155803  1
  Ge  Ge7  1  0.54210498  0.25000000  0.08421001  1
