# generated using pymatgen
data_CaCo4B2O9
_symmetry_space_group_name_H-M   'P 1'
_cell_length_a   4.87122202
_cell_length_b   6.82911396
_cell_length_c   6.82911396
_cell_angle_alpha   73.50098419
_cell_angle_beta   69.10533142
_cell_angle_gamma   69.10533142
_symmetry_Int_Tables_number   1
_chemical_formula_structural   CaCo4B2O9
_chemical_formula_sum   'Ca1 Co4 B2 O9'
_cell_volume   195.05519992
_cell_formula_units_Z   1
loop_
 _symmetry_equiv_pos_site_id
 _symmetry_equiv_pos_as_xyz
  1  'x, y, z'
loop_
 _atom_site_type_symbol
 _atom_site_label
 _atom_site_symmetry_multiplicity
 _atom_site_fract_x
 _atom_site_fract_y
 _atom_site_fract_z
 _atom_site_occupancy
  Ca  Ca0  1  0.50345701  0.50000001  0.50000002  1
  Co  Co1  1  0.13766600  0.03777500  0.64475502  1
  Co  Co2  1  0.63584102  0.83928902  0.83928903  1
  Co  Co3  1  0.13766602  0.64475502  0.03777500  1
  Co  Co4  1  0.31441900  0.16071200  0.16071101  1
  B  B5  1  0.82019600  0.35524501  0.96222504  1
  B  B6  1  0.82019602  0.96222502  0.35524502  1
  O  O7  1  0.94771000  0.27406501  0.72593504  1
  O  O8  1  0.53980701  0.60295102  0.95389303  1
  O  O9  1  0.94771001  0.72593502  0.27406502  1
  O  O10  1  0.63816900  0.18705200  0.18705201  1
  O  O11  1  0.53980702  0.95389202  0.60295202  1
  O  O12  1  0.01227302  0.81294802  0.81294802  1
  O  O13  1  0.09665200  0.04610700  0.39704801  1
  O  O14  1  0.09665201  0.39704801  0.04610700  1
  O  O15  1  0.38827700  0.00000000  1.00000004  1
