# generated using pymatgen
data_Hf3Ge2
_symmetry_space_group_name_H-M   'P 1'
_cell_length_a   3.78360105
_cell_length_b   6.92643595
_cell_length_c   14.43527412
_cell_angle_alpha   90.00000000
_cell_angle_beta   90.00000000
_cell_angle_gamma   90.00000000
_symmetry_Int_Tables_number   1
_chemical_formula_structural   Hf3Ge2
_chemical_formula_sum   'Hf12 Ge8'
_cell_volume   378.30335662
_cell_formula_units_Z   4
loop_
 _symmetry_equiv_pos_site_id
 _symmetry_equiv_pos_as_xyz
  1  'x, y, z'
loop_
 _atom_site_type_symbol
 _atom_site_label
 _atom_site_symmetry_multiplicity
 _atom_site_fract_x
 _atom_site_fract_y
 _atom_site_fract_z
 _atom_site_occupancy
  Hf  Hf0  1  0.74999999  0.63419600  0.56779700  1
  Hf  Hf1  1  0.25000000  0.36580400  0.43220300  1
  Hf  Hf2  1  0.74999999  0.13419600  0.93220299  1
  Hf  Hf3  1  0.25000000  0.86580401  0.06779700  1
  Hf  Hf4  1  0.25000000  0.16368100  0.22241500  1
  Hf  Hf5  1  0.74999999  0.83631901  0.77758499  1
  Hf  Hf6  1  0.25000000  0.66368101  0.27758500  1
  Hf  Hf7  1  0.74999999  0.33631900  0.72241499  1
  Hf  Hf8  1  0.25000000  0.00767300  0.60420599  1
  Hf  Hf9  1  0.74999999  0.99232701  0.39579400  1
  Hf  Hf10  1  0.25000000  0.50767300  0.89579399  1
  Hf  Hf11  1  0.74999999  0.49232700  0.10420600  1
  Ge  Ge12  1  0.25000000  0.25898400  0.04177800  1
  Ge  Ge13  1  0.74999999  0.74101601  0.95822199  1
  Ge  Ge14  1  0.25000000  0.75898401  0.45822200  1
  Ge  Ge15  1  0.74999999  0.24101600  0.54177800  1
  Ge  Ge16  1  0.25000000  0.12811300  0.79534799  1
  Ge  Ge17  1  0.74999999  0.87188701  0.20465200  1
  Ge  Ge18  1  0.25000000  0.62811300  0.70465199  1
  Ge  Ge19  1  0.74999999  0.37188700  0.29534800  1
