# generated using pymatgen
data_NaAgS3
_symmetry_space_group_name_H-M   'P 1'
_cell_length_a   5.93199682
_cell_length_b   6.14688730
_cell_length_c   6.14688730
_cell_angle_alpha   116.90558624
_cell_angle_beta   90.00000000
_cell_angle_gamma   90.00000000
_symmetry_Int_Tables_number   1
_chemical_formula_structural   NaAgS3
_chemical_formula_sum   'Na2 Ag2 S6'
_cell_volume   199.87394843
_cell_formula_units_Z   2
loop_
 _symmetry_equiv_pos_site_id
 _symmetry_equiv_pos_as_xyz
  1  'x, y, z'
loop_
 _atom_site_type_symbol
 _atom_site_label
 _atom_site_symmetry_multiplicity
 _atom_site_fract_x
 _atom_site_fract_y
 _atom_site_fract_z
 _atom_site_occupancy
  Na  Na0  1  0.25000001  0.76619401  0.23380602  1
  Na  Na1  1  0.75000002  0.23380600  0.76619401  1
  Ag  Ag2  1  0.25000001  0.33586201  0.66413801  1
  Ag  Ag3  1  0.75000002  0.66413801  0.33586202  1
  S  S4  1  -0.00000000  0.71530401  0.71530403  1
  S  S5  1  0.50000001  0.71530401  0.71530403  1
  S  S6  1  -0.00000000  0.28469601  0.28469601  1
  S  S7  1  0.50000001  0.28469601  0.28469601  1
  S  S8  1  0.25000001  0.09738200  0.90261801  1
  S  S9  1  0.75000002  0.90261802  0.09738203  1
