# generated using pymatgen
data_Li7NiO9
_symmetry_space_group_name_H-M   'P 1'
_cell_length_a   3.47914529
_cell_length_b   3.47914529
_cell_length_c   20.65231895
_cell_angle_alpha   85.16817474
_cell_angle_beta   85.16817474
_cell_angle_gamma   60.00001526
_symmetry_Int_Tables_number   1
_chemical_formula_structural   Li7NiO9
_chemical_formula_sum   'Li7 Ni1 O9'
_cell_volume   215.46696037
_cell_formula_units_Z   1
loop_
 _symmetry_equiv_pos_site_id
 _symmetry_equiv_pos_as_xyz
  1  'x, y, z'
loop_
 _atom_site_type_symbol
 _atom_site_label
 _atom_site_symmetry_multiplicity
 _atom_site_fract_x
 _atom_site_fract_y
 _atom_site_fract_z
 _atom_site_occupancy
  Li  Li0  1  0.99994803  0.99994798  0.00015601  1
  Li  Li1  1  0.90297603  0.90297498  0.29107302  1
  Li  Li2  1  0.09543700  0.09543700  0.71368902  1
  Li  Li3  1  0.81223203  0.81223199  0.56330502  1
  Li  Li4  1  0.18728401  0.18728400  0.43814701  1
  Li  Li5  1  0.61834102  0.61833999  0.14497801  1
  O  O6  1  0.38089601  0.38089599  0.85731303  1
  Li  Li7  1  0.77859502  0.77859499  0.66421502  1
  Ni  Ni8  1  0.21951601  0.21951500  0.34145301  1
  O  O9  1  0.95163303  0.95163298  0.14510201  1
  O  O10  1  0.04715600  0.04715600  0.85853202  1
  O  O11  1  0.65031702  0.65031699  0.04905001  1
  O  O12  1  0.34898501  0.34898499  0.95304403  1
  O  O13  1  0.58585702  0.58585699  0.24242901  1
  O  O14  1  0.41266201  0.41266199  0.76201402  1
  O  O15  1  0.85345603  0.85345598  0.43963102  1
  O  O16  1  0.15471000  0.15471000  0.53587102  1
