# generated using pymatgen
data_ScPd2
_symmetry_space_group_name_H-M   'P 1'
_cell_length_a   3.47731805
_cell_length_b   3.47731805
_cell_length_c   5.01492882
_cell_angle_alpha   110.28540039
_cell_angle_beta   110.28540039
_cell_angle_gamma   90.00000000
_symmetry_Int_Tables_number   1
_chemical_formula_structural   ScPd2
_chemical_formula_sum   'Sc1 Pd2'
_cell_volume   52.85023192
_cell_formula_units_Z   1
loop_
 _symmetry_equiv_pos_site_id
 _symmetry_equiv_pos_as_xyz
  1  'x, y, z'
loop_
 _atom_site_type_symbol
 _atom_site_label
 _atom_site_symmetry_multiplicity
 _atom_site_fract_x
 _atom_site_fract_y
 _atom_site_fract_z
 _atom_site_occupancy
  Sc  Sc0  1  0.00000000  0.00000000  0.00000000  1
  Pd  Pd1  1  0.66263599  0.66263599  0.32527199  1
  Pd  Pd2  1  0.33736399  0.33736399  0.67472798  1
