# generated using pymatgen
data_U(Ge3Ir2)2
_symmetry_space_group_name_H-M   'P 1'
_cell_length_a   3.91306591
_cell_length_b   7.23559380
_cell_length_c   7.23559380
_cell_angle_alpha   120.00000000
_cell_angle_beta   90.00000000
_cell_angle_gamma   90.00000000
_symmetry_Int_Tables_number   1
_chemical_formula_structural   U(Ge3Ir2)2
_chemical_formula_sum   'U1 Ge6 Ir4'
_cell_volume   177.41737535
_cell_formula_units_Z   1
loop_
 _symmetry_equiv_pos_site_id
 _symmetry_equiv_pos_as_xyz
  1  'x, y, z'
loop_
 _atom_site_type_symbol
 _atom_site_label
 _atom_site_symmetry_multiplicity
 _atom_site_fract_x
 _atom_site_fract_y
 _atom_site_fract_z
 _atom_site_occupancy
  U  U0  1  0.00000000  0.00000000  0.00000000  1
  Ge  Ge1  1  1.00000002  0.66666668  0.33333332  1
  Ge  Ge2  1  0.50000001  0.19862700  0.39725400  1
  Ge  Ge3  1  0.50000001  0.19862700  0.80137300  1
  Ge  Ge4  1  0.50000001  0.60274601  0.80137299  1
  Ir  Ir5  1  -0.00000000  0.46674701  0.93349399  1
  Ir  Ir6  1  -0.00000000  0.46674701  0.53325199  1
  Ir  Ir7  1  -0.00000000  0.06650500  0.53325200  1
  Ge  Ge8  1  0.50000001  0.79924902  0.59849799  1
  Ge  Ge9  1  0.50000001  0.79924902  0.20075099  1
  Ir  Ir10  1  0.50000001  0.40150201  0.20075099  1
