# generated using pymatgen
data_Hf2AlGa3NiGe2
_symmetry_space_group_name_H-M   'P 1'
_cell_length_a   3.51196599
_cell_length_b   6.79485607
_cell_length_c   6.79485512
_cell_angle_alpha   120.00000763
_cell_angle_beta   90.00000000
_cell_angle_gamma   90.00000000
_symmetry_Int_Tables_number   1
_chemical_formula_structural   Hf2AlGa3NiGe2
_chemical_formula_sum   'Hf2 Al1 Ga3 Ni1 Ge2'
_cell_volume   140.42400743
_cell_formula_units_Z   1
loop_
 _symmetry_equiv_pos_site_id
 _symmetry_equiv_pos_as_xyz
  1  'x, y, z'
loop_
 _atom_site_type_symbol
 _atom_site_label
 _atom_site_symmetry_multiplicity
 _atom_site_fract_x
 _atom_site_fract_y
 _atom_site_fract_z
 _atom_site_occupancy
  Hf  Hf0  1  0.50000000  0.59060202  1.00000006  1
  Hf  Hf1  1  0.50000000  0.40939801  0.40939804  1
  Al  Al2  1  0.50000000  0.00000000  0.59060201  1
  Ga  Ga3  1  1.00000000  0.24722701  0.00000002  1
  Ga  Ga4  1  1.00000000  0.75277302  0.75277307  1
  Ga  Ga5  1  1.00000000  0.00000000  0.24722700  1
  Ge  Ge6  1  1.00000000  0.33333334  0.66666670  1
  Ni  Ni7  1  1.00000000  0.66666668  0.33333339  1
  Ge  Ge8  1  0.50000000  0.00000000  -0.00000000  1
