# generated using pymatgen
data_Ta4Fe5Si3
_symmetry_space_group_name_H-M   'P 1'
_cell_length_a   4.91390991
_cell_length_b   4.91391087
_cell_length_c   7.80119181
_cell_angle_alpha   90.00000000
_cell_angle_beta   90.00000000
_cell_angle_gamma   119.99999237
_symmetry_Int_Tables_number   1
_chemical_formula_structural   Ta4Fe5Si3
_chemical_formula_sum   'Ta4 Fe5 Si3'
_cell_volume   163.13460124
_cell_formula_units_Z   1
loop_
 _symmetry_equiv_pos_site_id
 _symmetry_equiv_pos_as_xyz
  1  'x, y, z'
loop_
 _atom_site_type_symbol
 _atom_site_label
 _atom_site_symmetry_multiplicity
 _atom_site_fract_x
 _atom_site_fract_y
 _atom_site_fract_z
 _atom_site_occupancy
  Ta  Ta0  1  0.66666667  0.33333334  0.56093801  1
  Ta  Ta1  1  0.33333332  0.66666667  0.43906201  1
  Ta  Ta2  1  0.33333332  0.66666667  0.06093800  1
  Ta  Ta3  1  0.66666667  0.33333334  0.93906202  1
  Fe  Fe4  1  0.17097900  0.34195800  0.75000002  1
  Fe  Fe5  1  0.17097898  0.82902101  0.75000002  1
  Fe  Fe6  1  0.65804199  0.82902101  0.75000002  1
  Fe  Fe7  1  0.82902100  0.65804200  0.25000001  1
  Si  Si8  1  0.82902101  0.17097900  0.25000001  1
  Fe  Fe9  1  0.34195800  0.17097900  0.25000001  1
  Si  Si10  1  0.00000000  0.00000000  0.50000001  1
  Si  Si11  1  0.00000000  0.00000000  0.00000000  1
