# generated using pymatgen
data_Tm2GaCo2
_symmetry_space_group_name_H-M   'P 1'
_cell_length_a   4.02254581
_cell_length_b   5.34586334
_cell_length_c   5.34586334
_cell_angle_alpha   61.13825226
_cell_angle_beta   67.89965820
_cell_angle_gamma   67.89965820
_symmetry_Int_Tables_number   1
_chemical_formula_structural   Tm2GaCo2
_chemical_formula_sum   'Tm2 Ga1 Co2'
_cell_volume   90.55806078
_cell_formula_units_Z   1
loop_
 _symmetry_equiv_pos_site_id
 _symmetry_equiv_pos_as_xyz
  1  'x, y, z'
loop_
 _atom_site_type_symbol
 _atom_site_label
 _atom_site_symmetry_multiplicity
 _atom_site_fract_x
 _atom_site_fract_y
 _atom_site_fract_z
 _atom_site_occupancy
  Tm  Tm0  1  0.20603701  0.29396300  0.29396301  1
  Tm  Tm1  1  0.79396303  0.70603701  0.70603701  1
  Ga  Ga2  1  0.00000000  0.00000000  0.00000000  1
  Co  Co3  1  0.50000002  0.28465000  0.71535001  1
  Co  Co4  1  0.50000001  0.71535001  0.28465001  1
