# generated using pymatgen
data_Li2V2O3
_symmetry_space_group_name_H-M   'P 1'
_cell_length_a   5.07209587
_cell_length_b   5.43438196
_cell_length_c   6.34933758
_cell_angle_alpha   90.00000000
_cell_angle_beta   91.43177795
_cell_angle_gamma   90.00000000
_symmetry_Int_Tables_number   1
_chemical_formula_structural   Li2V2O3
_chemical_formula_sum   'Li4 V4 O6'
_cell_volume   174.95663515
_cell_formula_units_Z   2
loop_
 _symmetry_equiv_pos_site_id
 _symmetry_equiv_pos_as_xyz
  1  'x, y, z'
loop_
 _atom_site_type_symbol
 _atom_site_label
 _atom_site_symmetry_multiplicity
 _atom_site_fract_x
 _atom_site_fract_y
 _atom_site_fract_z
 _atom_site_occupancy
  Li  Li0  1  0.00386000  0.84352801  0.26521199  1
  Li  Li1  1  0.50386001  0.15647200  0.76521195  1
  Li  Li2  1  0.00208800  0.31915600  0.00950700  1
  Li  Li3  1  0.50208801  0.68084400  0.50950696  1
  V  V4  1  0.00930400  0.81982401  0.76309197  1
  V  V5  1  0.50930401  0.18017600  0.26309197  1
  V  V6  1  0.33015801  0.82854701  0.73133796  1
  V  V7  1  0.36966201  0.28017800  0.04284498  1
  O  O8  1  0.44969801  0.34756700  0.47376296  1
  O  O9  1  0.39342001  0.90097101  0.30120897  1
  O  O10  1  0.83015802  0.17145300  0.23133795  1
  O  O11  1  0.86966202  0.71982201  0.54284494  1
  O  O12  1  0.94969802  0.65243300  0.97376292  1
  O  O13  1  0.89342002  0.09902900  0.80120893  1
