# generated using pymatgen
data_YbCdPd
_symmetry_space_group_name_H-M   'P 1'
_cell_length_a   4.18773794
_cell_length_b   7.38986778
_cell_length_c   8.56904888
_cell_angle_alpha   90.00000000
_cell_angle_beta   90.00000000
_cell_angle_gamma   90.00000000
_symmetry_Int_Tables_number   1
_chemical_formula_structural   YbCdPd
_chemical_formula_sum   'Yb4 Cd4 Pd4'
_cell_volume   265.18489641
_cell_formula_units_Z   4
loop_
 _symmetry_equiv_pos_site_id
 _symmetry_equiv_pos_as_xyz
  1  'x, y, z'
loop_
 _atom_site_type_symbol
 _atom_site_label
 _atom_site_symmetry_multiplicity
 _atom_site_fract_x
 _atom_site_fract_y
 _atom_site_fract_z
 _atom_site_occupancy
  Yb  Yb0  1  0.25000000  0.53297102  0.17481800  1
  Yb  Yb1  1  0.75000001  0.46702901  0.82518201  1
  Yb  Yb2  1  0.25000000  0.03297100  0.32518200  1
  Yb  Yb3  1  0.75000001  0.96702903  0.67481801  1
  Cd  Cd4  1  0.25000000  0.63721302  0.56097901  1
  Cd  Cd5  1  0.75000001  0.36278701  0.43902101  1
  Cd  Cd6  1  0.25000000  0.13721300  0.93902101  1
  Cd  Cd7  1  0.75000001  0.86278703  0.06097900  1
  Pd  Pd8  1  0.75000001  0.73479102  0.37079601  1
  Pd  Pd9  1  0.25000000  0.26520901  0.62920401  1
  Pd  Pd10  1  0.75000001  0.23479101  0.12920400  1
  Pd  Pd11  1  0.25000000  0.76520902  0.87079601  1
