# generated using pymatgen
data_Sr3Pb2
_symmetry_space_group_name_H-M   'P 1'
_cell_length_a   6.27175808
_cell_length_b   10.18217850
_cell_length_c   10.18217850
_cell_angle_alpha   84.55731201
_cell_angle_beta   72.06262970
_cell_angle_gamma   72.06262970
_symmetry_Int_Tables_number   1
_chemical_formula_structural   Sr3Pb2
_chemical_formula_sum   'Sr9 Pb6'
_cell_volume   588.56073128
_cell_formula_units_Z   3
loop_
 _symmetry_equiv_pos_site_id
 _symmetry_equiv_pos_as_xyz
  1  'x, y, z'
loop_
 _atom_site_type_symbol
 _atom_site_label
 _atom_site_symmetry_multiplicity
 _atom_site_fract_x
 _atom_site_fract_y
 _atom_site_fract_z
 _atom_site_occupancy
  Sr  Sr0  1  0.52220101  0.63271002  0.80816897  1
  Sr  Sr1  1  0.96308000  0.36729001  0.19183098  1
  Sr  Sr2  1  0.03692002  0.80816902  0.63270996  1
  Sr  Sr3  1  0.47779900  0.19183101  0.36728999  1
  Sr  Sr4  1  0.84508900  0.19183101  0.63271000  1
  Sr  Sr5  1  0.66963001  0.80816902  0.36728995  1
  Sr  Sr6  1  0.15491101  0.36729001  0.80816899  1
  Sr  Sr7  1  0.33037001  0.63271002  0.19183096  1
  Sr  Sr8  1  0.49999999  0.00000000  -0.00000000  1
  Pb  Pb9  1  0.50000001  0.50000001  0.49999998  1
  Pb  Pb10  1  1.00000000  0.50000001  0.49999997  1
  Pb  Pb11  1  0.58336700  0.30107601  1.00000000  1
  Pb  Pb12  1  0.88444301  0.69892402  -0.00000005  1
  Pb  Pb13  1  0.11555700  0.00000000  0.30107601  1
  Pb  Pb14  1  0.41663300  0.00000000  0.69892402  1
