# generated using pymatgen
data_ZrAl2Co3
_symmetry_space_group_name_H-M   'P 1'
_cell_length_a   3.60109401
_cell_length_b   3.63888097
_cell_length_c   7.00359154
_cell_angle_alpha   74.94258118
_cell_angle_beta   90.00000000
_cell_angle_gamma   90.00000000
_symmetry_Int_Tables_number   1
_chemical_formula_structural   ZrAl2Co3
_chemical_formula_sum   'Zr1 Al2 Co3'
_cell_volume   88.62373380
_cell_formula_units_Z   1
loop_
 _symmetry_equiv_pos_site_id
 _symmetry_equiv_pos_as_xyz
  1  'x, y, z'
loop_
 _atom_site_type_symbol
 _atom_site_label
 _atom_site_symmetry_multiplicity
 _atom_site_fract_x
 _atom_site_fract_y
 _atom_site_fract_z
 _atom_site_occupancy
  Zr  Zr0  1  0.75000000  0.90311002  0.19377897  1
  Al  Al1  1  0.25000000  0.09645100  0.80709698  1
  Al  Al2  1  0.75000000  0.24939801  0.50120398  1
  Co  Co3  1  0.25000000  0.75057002  0.49885897  1
  Co  Co4  1  0.75000000  0.56216501  0.87566997  1
  Co  Co5  1  0.25000000  0.43830401  0.12339198  1
