# generated using pymatgen
data_SmGaGe
_symmetry_space_group_name_H-M   'P 1'
_cell_length_a   4.05678797
_cell_length_b   7.01592207
_cell_length_c   7.01592207
_cell_angle_alpha   120.00000000
_cell_angle_beta   90.00000000
_cell_angle_gamma   90.00000000
_symmetry_Int_Tables_number   1
_chemical_formula_structural   SmGaGe
_chemical_formula_sum   'Sm3 Ga3 Ge3'
_cell_volume   172.93482307
_cell_formula_units_Z   3
loop_
 _symmetry_equiv_pos_site_id
 _symmetry_equiv_pos_as_xyz
  1  'x, y, z'
loop_
 _atom_site_type_symbol
 _atom_site_label
 _atom_site_symmetry_multiplicity
 _atom_site_fract_x
 _atom_site_fract_y
 _atom_site_fract_z
 _atom_site_occupancy
  Sm  Sm0  1  0.50000000  1.00000000  0.41388004  1
  Sm  Sm1  1  0.50000000  0.41388000  1.00000004  1
  Sm  Sm2  1  0.50000000  0.58612000  0.58612003  1
  Ga  Ga3  1  1.00000001  0.00000000  0.76552902  1
  Ga  Ga4  1  1.00000001  0.76552900  1.00000005  1
  Ga  Ga5  1  1.00000001  0.23447100  0.23447101  1
  Ge  Ge6  1  1.00000001  0.66666667  0.33333336  1
  Ge  Ge7  1  1.00000001  0.33333333  0.66666669  1
  Ge  Ge8  1  0.50000000  0.00000000  -0.00000000  1
