# generated using pymatgen
data_Ba2SrCu2O5
_symmetry_space_group_name_H-M   'P 1'
_cell_length_a   3.91054010
_cell_length_b   3.91054010
_cell_length_c   12.34117985
_cell_angle_alpha   99.11604309
_cell_angle_beta   99.11604309
_cell_angle_gamma   90.00000000
_symmetry_Int_Tables_number   1
_chemical_formula_structural   Ba2SrCu2O5
_chemical_formula_sum   'Ba2 Sr1 Cu2 O5'
_cell_volume   183.92703270
_cell_formula_units_Z   1
loop_
 _symmetry_equiv_pos_site_id
 _symmetry_equiv_pos_as_xyz
  1  'x, y, z'
loop_
 _atom_site_type_symbol
 _atom_site_label
 _atom_site_symmetry_multiplicity
 _atom_site_fract_x
 _atom_site_fract_y
 _atom_site_fract_z
 _atom_site_occupancy
  Ba  Ba0  1  0.41906498  0.41906498  0.83813001  1
  Ba  Ba1  1  0.58493097  0.58493098  0.16986198  1
  Sr  Sr2  1  0.20078199  0.20078199  0.40156400  1
  Cu  Cu3  1  0.00600400  0.00600400  0.01200800  1
  Cu  Cu4  1  0.79543095  0.79543097  0.59086198  1
  O  O5  1  0.99831895  0.49831898  0.99663800  1
  O  O6  1  0.10863099  0.10863100  0.21726200  1
  O  O7  1  0.71061296  0.71061297  0.42122598  1
  O  O8  1  0.49831896  0.99831896  0.99663800  1
  O  O9  1  0.87892095  0.87892097  0.75784198  1
