# generated using pymatgen
data_LaHCl
_symmetry_space_group_name_H-M   'P 1'
_cell_length_a   3.83673406
_cell_length_b   3.83673406
_cell_length_c   6.93441391
_cell_angle_alpha   90.00000000
_cell_angle_beta   90.00000000
_cell_angle_gamma   90.00000000
_symmetry_Int_Tables_number   1
_chemical_formula_structural   LaHCl
_chemical_formula_sum   'La2 H2 Cl2'
_cell_volume   102.07823565
_cell_formula_units_Z   2
loop_
 _symmetry_equiv_pos_site_id
 _symmetry_equiv_pos_as_xyz
  1  'x, y, z'
loop_
 _atom_site_type_symbol
 _atom_site_label
 _atom_site_symmetry_multiplicity
 _atom_site_fract_x
 _atom_site_fract_y
 _atom_site_fract_z
 _atom_site_occupancy
  La  La0  1  -0.00000000  0.49999999  0.80909901  1
  La  La1  1  0.49999999  0.00000000  0.19090100  1
  H  H2  1  0.49999999  0.49999999  0.00000000  1
  H  H3  1  0.00000000  0.00000000  0.00000000  1
  Cl  Cl4  1  0.49999999  0.00000000  0.65350301  1
  Cl  Cl5  1  -0.00000000  0.49999999  0.34649700  1
