# generated using pymatgen
data_LiCoO
_symmetry_space_group_name_H-M   'P 1'
_cell_length_a   2.98721004
_cell_length_b   2.98721004
_cell_length_c   14.57903576
_cell_angle_alpha   90.00000000
_cell_angle_beta   90.00000000
_cell_angle_gamma   90.00000000
_symmetry_Int_Tables_number   1
_chemical_formula_structural   LiCoO
_chemical_formula_sum   'Li4 Co4 O4'
_cell_volume   130.09491460
_cell_formula_units_Z   4
loop_
 _symmetry_equiv_pos_site_id
 _symmetry_equiv_pos_as_xyz
  1  'x, y, z'
loop_
 _atom_site_type_symbol
 _atom_site_label
 _atom_site_symmetry_multiplicity
 _atom_site_fract_x
 _atom_site_fract_y
 _atom_site_fract_z
 _atom_site_occupancy
  Li  Li0  1  0.00000000  0.00000000  0.67655501  1
  Li  Li1  1  0.49999999  0.49999999  0.49401201  1
  Li  Li2  1  0.49999999  0.49999999  0.00496800  1
  Li  Li3  1  0.00000000  0.00000000  0.37483601  1
  Co  Co4  1  0.00000000  0.00000000  0.88222101  1
  Co  Co5  1  0.49999999  0.49999999  0.28604700  1
  Co  Co6  1  0.49999999  0.49999999  0.79557401  1
  Co  Co7  1  0.00000000  0.00000000  0.17264100  1
  O  O8  1  0.00000000  0.00000000  0.02370800  1
  O  O9  1  0.00000000  0.00000000  0.51862301  1
  O  O10  1  0.49999999  0.49999999  0.15759200  1
  O  O11  1  0.49999999  0.49999999  0.65322201  1
