# generated using pymatgen
data_Be4TcH5N2
_symmetry_space_group_name_H-M   'P 1'
_cell_length_a   4.92718983
_cell_length_b   4.92718983
_cell_length_c   4.92718983
_cell_angle_alpha   90.00000000
_cell_angle_beta   90.00000000
_cell_angle_gamma   90.00000000
_symmetry_Int_Tables_number   1
_chemical_formula_structural   Be4TcH5N2
_chemical_formula_sum   'Be4 Tc1 H5 N2'
_cell_volume   119.61837085
_cell_formula_units_Z   1
loop_
 _symmetry_equiv_pos_site_id
 _symmetry_equiv_pos_as_xyz
  1  'x, y, z'
loop_
 _atom_site_type_symbol
 _atom_site_label
 _atom_site_symmetry_multiplicity
 _atom_site_fract_x
 _atom_site_fract_y
 _atom_site_fract_z
 _atom_site_occupancy
  Be  Be0  1  0.50000002  0.50000002  0.00000000  1
  H  H1  1  0.50000002  0.00000000  0.50000002  1
  Be  Be2  1  0.00000000  0.50000002  0.50000002  1
  H  H3  1  0.00000000  0.00000000  0.00000000  1
  N  N4  1  0.15045101  0.84954903  0.34954901  1
  Be  Be5  1  0.84954903  0.34954901  0.15045101  1
  Be  Be6  1  0.34954901  0.15045101  0.84954903  1
  H  H7  1  0.65045102  0.65045102  0.65045102  1
  N  N8  1  0.84954903  0.15045101  0.65045102  1
  H  H9  1  0.15045101  0.65045102  0.84954903  1
  H  H10  1  0.65045102  0.84954903  0.15045101  1
  Tc  Tc11  1  0.34954901  0.34954901  0.34954901  1
