# generated using pymatgen
data_Li4TiNb(SbO6)2
_symmetry_space_group_name_H-M   'P 1'
_cell_length_a   5.28325701
_cell_length_b   5.62465715
_cell_length_c   7.71221495
_cell_angle_alpha   94.91762543
_cell_angle_beta   89.95596313
_cell_angle_gamma   89.87669373
_symmetry_Int_Tables_number   1
_chemical_formula_structural   Li4TiNb(SbO6)2
_chemical_formula_sum   'Li4 Ti1 Nb1 Sb2 O12'
_cell_volume   228.33585596
_cell_formula_units_Z   1
loop_
 _symmetry_equiv_pos_site_id
 _symmetry_equiv_pos_as_xyz
  1  'x, y, z'
loop_
 _atom_site_type_symbol
 _atom_site_label
 _atom_site_symmetry_multiplicity
 _atom_site_fract_x
 _atom_site_fract_y
 _atom_site_fract_z
 _atom_site_occupancy
  Li  Li0  1  0.50043601  0.06245300  0.21570500  1
  Li  Li1  1  0.00005897  0.57005998  0.21479700  1
  Li  Li2  1  0.50078701  0.06280300  0.71910801  1
  Li  Li3  1  0.99756500  0.56329498  0.72022100  1
  Ti  Ti4  1  0.00612700  0.00786800  0.00696900  1
  Nb  Nb5  1  0.49799999  0.48402198  0.49711500  1
  Sb  Sb6  1  0.99972897  0.98687796  0.49952898  1
  Sb  Sb7  1  0.50222799  0.50215398  0.00862498  1
  O  O8  1  0.30223496  0.77741997  0.57772500  1
  O  O9  1  0.12341595  0.96606596  0.26011599  1
  O  O10  1  0.31874600  0.15838899  0.95683502  1
  O  O11  1  0.19529499  0.28019599  0.57936601  1
  O  O12  1  0.80391601  0.28396599  0.07823399  1
  O  O13  1  0.37577698  0.46435198  0.25949199  1
  O  O14  1  0.61756199  0.46372398  0.76286300  1
  O  O15  1  0.17946297  0.65651998  0.95973401  1
  O  O16  1  0.81484899  0.66107497  0.45692599  1
  O  O17  1  0.69591398  0.78115797  0.07766898  1
  O  O18  1  0.88222797  0.96419696  0.76339199  1
  O  O19  1  0.68566801  0.16260099  0.45597900  1
