# generated using pymatgen
data_BaEuCl5
_symmetry_space_group_name_H-M   'P 1'
_cell_length_a   4.49221277
_cell_length_b   4.49221277
_cell_length_c   21.26251030
_cell_angle_alpha   90.00000000
_cell_angle_beta   90.00000000
_cell_angle_gamma   90.00000000
_symmetry_Int_Tables_number   1
_chemical_formula_structural   BaEuCl5
_chemical_formula_sum   'Ba2 Eu2 Cl10'
_cell_volume   429.07693888
_cell_formula_units_Z   2
loop_
 _symmetry_equiv_pos_site_id
 _symmetry_equiv_pos_as_xyz
  1  'x, y, z'
loop_
 _atom_site_type_symbol
 _atom_site_label
 _atom_site_symmetry_multiplicity
 _atom_site_fract_x
 _atom_site_fract_y
 _atom_site_fract_z
 _atom_site_occupancy
  Ba  Ba0  1  -0.00000000  0.50000003  0.13798300  1
  Ba  Ba1  1  0.50000003  0.00000000  0.86201703  1
  Eu  Eu2  1  -0.00000000  0.50000003  0.60230902  1
  Eu  Eu3  1  0.50000003  0.00000000  0.39769101  1
  Cl  Cl4  1  0.00000000  0.00000000  0.00000000  1
  Cl  Cl5  1  0.50000003  0.50000003  -0.00000000  1
  Cl  Cl6  1  0.00000000  0.00000000  0.72209302  1
  Cl  Cl7  1  0.50000003  0.50000003  0.27790701  1
  Cl  Cl8  1  -0.00000000  0.50000003  0.44181901  1
  Cl  Cl9  1  0.50000003  0.00000000  0.55818102  1
  Cl  Cl10  1  -0.00000000  0.50000003  0.93001203  1
  Cl  Cl11  1  0.50000003  0.00000000  0.06998800  1
  Cl  Cl12  1  0.00000000  0.00000000  0.27790701  1
  Cl  Cl13  1  0.50000003  0.50000003  0.72209302  1
