# generated using pymatgen
data_HoCd3
_symmetry_space_group_name_H-M   'P 1'
_cell_length_a   5.20162106
_cell_length_b   6.67545414
_cell_length_c   6.67545414
_cell_angle_alpha   60.00000000
_cell_angle_beta   90.00000000
_cell_angle_gamma   90.00000000
_symmetry_Int_Tables_number   1
_chemical_formula_structural   HoCd3
_chemical_formula_sum   'Ho2 Cd6'
_cell_volume   200.73863891
_cell_formula_units_Z   2
loop_
 _symmetry_equiv_pos_site_id
 _symmetry_equiv_pos_as_xyz
  1  'x, y, z'
loop_
 _atom_site_type_symbol
 _atom_site_label
 _atom_site_symmetry_multiplicity
 _atom_site_fract_x
 _atom_site_fract_y
 _atom_site_fract_z
 _atom_site_occupancy
  Ho  Ho0  1  0.25000000  0.33333333  0.33333333  1
  Ho  Ho1  1  0.74999999  0.66666666  0.66666666  1
  Cd  Cd2  1  0.74999999  0.66860499  0.16569699  1
  Cd  Cd3  1  0.74999999  0.16569800  0.16569700  1
  Cd  Cd4  1  0.74999999  0.16569800  0.66860400  1
  Cd  Cd5  1  0.25000000  0.33139500  0.83430300  1
  Cd  Cd6  1  0.25000000  0.83430199  0.83430299  1
  Cd  Cd7  1  0.25000000  0.83430199  0.33139599  1
