# generated using pymatgen
data_Cs7OsSBr9
_symmetry_space_group_name_H-M   'P 1'
_cell_length_a   9.93582153
_cell_length_b   10.44902515
_cell_length_c   9.93582153
_cell_angle_alpha   61.61183548
_cell_angle_beta   90.00000000
_cell_angle_gamma   118.38816833
_symmetry_Int_Tables_number   1
_chemical_formula_structural   Cs7OsSBr9
_chemical_formula_sum   'Cs7 Os1 S1 Br9'
_cell_volume   763.55000472
_cell_formula_units_Z   1
loop_
 _symmetry_equiv_pos_site_id
 _symmetry_equiv_pos_as_xyz
  1  'x, y, z'
loop_
 _atom_site_type_symbol
 _atom_site_label
 _atom_site_symmetry_multiplicity
 _atom_site_fract_x
 _atom_site_fract_y
 _atom_site_fract_z
 _atom_site_occupancy
  Cs  Cs0  1  0.16466801  0.00000000  0.33533202  1
  Cs  Cs1  1  0.83533204  0.00000000  0.66466803  1
  Cs  Cs2  1  0.66466803  0.00000100  0.16466701  1
  Cs  Cs3  1  0.33533206  0.99999905  0.83533306  1
  Cs  Cs4  1  0.75000006  0.50000002  0.25000002  1
  Cs  Cs5  1  0.25000003  0.50000002  0.75000005  1
  Os  Os6  1  0.75000006  0.50000002  0.75000005  1
  Cs  Cs7  1  0.25000003  0.50000002  0.25000002  1
  Br  Br8  1  0.00000000  0.00000000  0.00000000  1
  Br  Br9  1  0.50000002  0.00000000  0.50000002  1
  Br  Br10  1  0.20504704  0.68781103  0.29495303  1
  S  S11  1  0.48276405  0.68781103  0.01723601  1
  Br  Br12  1  0.70504706  0.68781103  0.51723604  1
  Br  Br13  1  0.98276407  0.68781103  0.79495305  1
  Br  Br14  1  0.79495305  0.31218902  0.70504704  1
  Br  Br15  1  0.51723604  0.31218902  0.98276405  1
  Br  Br16  1  0.29495303  0.31218902  0.48276403  1
  Br  Br17  1  0.01723601  0.31218902  0.20504702  1
