# generated using pymatgen
data_Tm5Ge3
_symmetry_space_group_name_H-M   'P 1'
_cell_length_a   6.10082102
_cell_length_b   8.45764637
_cell_length_c   8.45764542
_cell_angle_alpha   120.00000000
_cell_angle_beta   90.00000000
_cell_angle_gamma   90.00000000
_symmetry_Int_Tables_number   1
_chemical_formula_structural   Tm5Ge3
_chemical_formula_sum   'Tm10 Ge6'
_cell_volume   377.93569511
_cell_formula_units_Z   2
loop_
 _symmetry_equiv_pos_site_id
 _symmetry_equiv_pos_as_xyz
  1  'x, y, z'
loop_
 _atom_site_type_symbol
 _atom_site_label
 _atom_site_symmetry_multiplicity
 _atom_site_fract_x
 _atom_site_fract_y
 _atom_site_fract_z
 _atom_site_occupancy
  Tm  Tm0  1  0.50000000  0.66666663  0.33333333  1
  Tm  Tm1  1  1.00000000  0.33333332  0.66666669  1
  Tm  Tm2  1  0.50000000  0.33333332  0.66666669  1
  Tm  Tm3  1  -0.00000000  0.66666663  0.33333333  1
  Tm  Tm4  1  0.25000000  0.23592399  0.23592400  1
  Tm  Tm5  1  0.75000000  0.23592399  -0.00000000  1
  Tm  Tm6  1  0.75000000  0.76407596  0.76407601  1
  Tm  Tm7  1  0.25000000  0.76407596  -0.00000002  1
  Tm  Tm8  1  0.25000000  0.00000000  0.76407603  1
  Tm  Tm9  1  0.75000000  0.00000000  0.23592401  1
  Ge  Ge10  1  0.25000000  0.60530697  0.60530701  1
  Ge  Ge11  1  0.75000000  0.60530697  -0.00000001  1
  Ge  Ge12  1  0.75000000  0.00000000  0.60530702  1
  Ge  Ge13  1  0.25000000  0.00000000  0.39469302  1
  Ge  Ge14  1  0.25000000  0.39469298  -0.00000001  1
  Ge  Ge15  1  0.75000000  0.39469298  0.39469301  1
