# generated using pymatgen
data_Ca3SbO6
_symmetry_space_group_name_H-M   'P 1'
_cell_length_a   5.64966631
_cell_length_b   5.94987488
_cell_length_c   8.20632553
_cell_angle_alpha   90.00000000
_cell_angle_beta   89.91751099
_cell_angle_gamma   90.00000000
_symmetry_Int_Tables_number   1
_chemical_formula_structural   Ca3SbO6
_chemical_formula_sum   'Ca6 Sb2 O12'
_cell_volume   275.85376829
_cell_formula_units_Z   2
loop_
 _symmetry_equiv_pos_site_id
 _symmetry_equiv_pos_as_xyz
  1  'x, y, z'
loop_
 _atom_site_type_symbol
 _atom_site_label
 _atom_site_symmetry_multiplicity
 _atom_site_fract_x
 _atom_site_fract_y
 _atom_site_fract_z
 _atom_site_occupancy
  Ca  Ca0  1  0.01321620  0.79109814  0.74503935  1
  Ca  Ca1  1  0.51321618  0.20890186  0.24503935  1
  Ca  Ca2  1  0.00508792  0.24027391  0.99331912  1
  Ca  Ca3  1  0.50508790  0.75972609  0.49331912  1
  Ca  Ca4  1  0.49791351  0.31220236  0.72048274  1
  Ca  Ca5  1  0.99791349  0.68779764  0.22048274  1
  Sb  Sb6  1  0.49944118  0.75772988  0.00045698  1
  Sb  Sb7  1  0.99944116  0.24227012  0.50045701  1
  O  O8  1  0.79490515  0.94306719  0.04562819  1
  O  O9  1  0.69618091  0.42886669  0.48366989  1
  O  O10  1  0.19618092  0.57113331  0.98366989  1
  O  O11  1  0.29490517  0.05693281  0.54562819  1
  O  O12  1  0.70484729  0.48957378  0.05835124  1
  O  O13  1  0.81821952  0.96063998  0.45069159  1
  O  O14  1  0.31821954  0.03936002  0.95069159  1
  O  O15  1  0.20484730  0.51042622  0.55835124  1
  O  O16  1  0.56923709  0.70515580  0.76273495  1
  O  O17  1  0.90095103  0.21163194  0.73962620  1
  O  O18  1  0.40095105  0.78836806  0.23962618  1
  O  O19  1  0.06923711  0.29484420  0.26273493  1
