# generated using pymatgen
data_Li4CrO7
_symmetry_space_group_name_H-M   'P 1'
_cell_length_a   3.03614306
_cell_length_b   4.81356192
_cell_length_c   9.12774277
_cell_angle_alpha   90.00000000
_cell_angle_beta   90.00000000
_cell_angle_gamma   90.00000000
_symmetry_Int_Tables_number   1
_chemical_formula_structural   Li4CrO7
_chemical_formula_sum   'Li4 Cr1 O7'
_cell_volume   133.39888110
_cell_formula_units_Z   1
loop_
 _symmetry_equiv_pos_site_id
 _symmetry_equiv_pos_as_xyz
  1  'x, y, z'
loop_
 _atom_site_type_symbol
 _atom_site_label
 _atom_site_symmetry_multiplicity
 _atom_site_fract_x
 _atom_site_fract_y
 _atom_site_fract_z
 _atom_site_occupancy
  Li  Li0  1  0.24999999  0.42534201  0.63584902  1
  Li  Li1  1  0.24999999  0.07465800  0.13584900  1
  Li  Li2  1  0.74999998  0.57465801  0.36415101  1
  Li  Li3  1  0.74999998  0.92534202  0.86415102  1
  O  O4  1  0.74999998  0.28981101  0.51651201  1
  Cr  Cr5  1  0.24999999  0.78981101  0.98348803  1
  O  O6  1  0.74999998  0.21018900  0.01651200  1
  O  O7  1  0.24999999  0.71018901  0.48348801  1
  O  O8  1  0.74999998  0.87863902  0.23806401  1
  O  O9  1  0.74999998  0.62136101  0.73806402  1
  O  O10  1  0.24999999  0.12136100  0.76193602  1
  O  O11  1  0.24999999  0.37863901  0.26193601  1
