# generated using pymatgen
data_Dy5Rh4
_symmetry_space_group_name_H-M   'P 1'
_cell_length_a   6.08365488
_cell_length_b   8.65668201
_cell_length_c   8.65668201
_cell_angle_alpha   120.00000000
_cell_angle_beta   90.00000000
_cell_angle_gamma   90.00000000
_symmetry_Int_Tables_number   1
_chemical_formula_structural   Dy5Rh4
_chemical_formula_sum   'Dy10 Rh8'
_cell_volume   394.81907844
_cell_formula_units_Z   2
loop_
 _symmetry_equiv_pos_site_id
 _symmetry_equiv_pos_as_xyz
  1  'x, y, z'
loop_
 _atom_site_type_symbol
 _atom_site_label
 _atom_site_symmetry_multiplicity
 _atom_site_fract_x
 _atom_site_fract_y
 _atom_site_fract_z
 _atom_site_occupancy
  Dy  Dy0  1  -0.00000000  0.33333334  0.66666671  1
  Dy  Dy1  1  -0.00000000  0.66666668  0.33333337  1
  Dy  Dy2  1  0.50000001  0.66666668  0.33333337  1
  Dy  Dy3  1  0.50000001  0.33333334  0.66666671  1
  Dy  Dy4  1  0.25000000  0.26322900  1.00000005  1
  Dy  Dy5  1  0.25000000  0.73677101  0.73677106  1
  Dy  Dy6  1  0.25000000  0.00000000  0.26322901  1
  Dy  Dy7  1  0.75000001  0.73677101  1.00000007  1
  Dy  Dy8  1  0.75000001  0.26322900  0.26322902  1
  Dy  Dy9  1  0.75000001  0.00000000  0.73677103  1
  Rh  Rh10  1  0.25000000  0.60505201  1.00000006  1
  Rh  Rh11  1  0.25000000  0.39494801  0.39494803  1
  Rh  Rh12  1  0.25000000  0.00000000  0.60505203  1
  Rh  Rh13  1  0.75000001  0.39494801  1.00000006  1
  Rh  Rh14  1  0.75000001  0.60505201  0.60505205  1
  Rh  Rh15  1  0.75000001  0.00000000  0.39494802  1
  Rh  Rh16  1  0.00000000  0.00000000  0.00000000  1
  Rh  Rh17  1  0.50000001  0.00000000  -0.00000000  1
