# generated using pymatgen
data_TiC
_symmetry_space_group_name_H-M   'P 1'
_cell_length_a   3.15253782
_cell_length_b   3.15253782
_cell_length_c   10.39004612
_cell_angle_alpha   81.27398682
_cell_angle_beta   81.27398682
_cell_angle_gamma   60.00000763
_symmetry_Int_Tables_number   1
_chemical_formula_structural   TiC
_chemical_formula_sum   'Ti4 C4'
_cell_volume   88.04417032
_cell_formula_units_Z   4
loop_
 _symmetry_equiv_pos_site_id
 _symmetry_equiv_pos_as_xyz
  1  'x, y, z'
loop_
 _atom_site_type_symbol
 _atom_site_label
 _atom_site_symmetry_multiplicity
 _atom_site_fract_x
 _atom_site_fract_y
 _atom_site_fract_z
 _atom_site_occupancy
  Ti  Ti0  1  0.00309800  0.00309800  0.99070598  1
  Ti  Ti1  1  0.49682800  0.49682797  0.50951599  1
  Ti  Ti2  1  0.24872700  0.24872699  0.25381900  1
  Ti  Ti3  1  0.75161300  0.75161296  0.74516099  1
  C  C4  1  0.62391700  0.62391697  0.12824901  1
  C  C5  1  0.87312900  0.87312896  0.38061300  1
  C  C6  1  0.38031200  0.38031198  0.85906398  1
  C  C7  1  0.12237700  0.12237699  0.63286899  1
