# generated using pymatgen
data_SmMg3
_symmetry_space_group_name_H-M   'P 1'
_cell_length_a   5.26189089
_cell_length_b   6.85672379
_cell_length_c   6.85672474
_cell_angle_alpha   60.00000381
_cell_angle_beta   90.00000000
_cell_angle_gamma   90.00000000
_symmetry_Int_Tables_number   1
_chemical_formula_structural   SmMg3
_chemical_formula_sum   'Sm2 Mg6'
_cell_volume   214.24261303
_cell_formula_units_Z   2
loop_
 _symmetry_equiv_pos_site_id
 _symmetry_equiv_pos_as_xyz
  1  'x, y, z'
loop_
 _atom_site_type_symbol
 _atom_site_label
 _atom_site_symmetry_multiplicity
 _atom_site_fract_x
 _atom_site_fract_y
 _atom_site_fract_z
 _atom_site_occupancy
  Sm  Sm0  1  0.25000001  0.33333334  0.33333333  1
  Sm  Sm1  1  0.75000002  0.66666669  0.66666667  1
  Mg  Mg2  1  0.75000002  0.12665600  0.74668800  1
  Mg  Mg3  1  0.75000002  0.74668802  0.12665600  1
  Mg  Mg4  1  0.75000002  0.12665600  0.12665600  1
  Mg  Mg5  1  0.25000001  0.87334402  0.25331201  1
  Mg  Mg6  1  0.25000001  0.25331201  0.87334400  1
  Mg  Mg7  1  0.25000001  0.87334402  0.87334400  1
