# generated using pymatgen
data_CaMgCu3P2
_symmetry_space_group_name_H-M   'P 1'
_cell_length_a   4.16900396
_cell_length_b   4.16900396
_cell_length_c   8.03743076
_cell_angle_alpha   74.96854401
_cell_angle_beta   74.96854401
_cell_angle_gamma   60.00000381
_symmetry_Int_Tables_number   1
_chemical_formula_structural   CaMgCu3P2
_chemical_formula_sum   'Ca1 Mg1 Cu3 P2'
_cell_volume   115.42739488
_cell_formula_units_Z   1
loop_
 _symmetry_equiv_pos_site_id
 _symmetry_equiv_pos_as_xyz
  1  'x, y, z'
loop_
 _atom_site_type_symbol
 _atom_site_label
 _atom_site_symmetry_multiplicity
 _atom_site_fract_x
 _atom_site_fract_y
 _atom_site_fract_z
 _atom_site_occupancy
  Ca  Ca0  1  0.00000000  0.00000000  0.00000000  1
  Mg  Mg1  1  0.43899397  0.43899398  0.68301799  1
  Cu  Cu2  1  0.14569599  0.14569599  0.56291198  1
  Cu  Cu3  1  0.56100597  0.56100597  0.31698202  1
  Cu  Cu4  1  0.85430395  0.85430396  0.43708803  1
  P  P5  1  0.25232798  0.25232799  0.24301600  1
  P  P6  1  0.74767196  0.74767196  0.75698401  1
