# generated using pymatgen
data_Sm6(NiSn)7
_symmetry_space_group_name_H-M   'P 1'
_cell_length_a   8.42374039
_cell_length_b   8.42374039
_cell_length_c   8.42374039
_cell_angle_alpha   109.47122192
_cell_angle_beta   109.47122192
_cell_angle_gamma   109.47122192
_symmetry_Int_Tables_number   1
_chemical_formula_structural   Sm6(NiSn)7
_chemical_formula_sum   'Sm6 Ni7 Sn7'
_cell_volume   460.14320151
_cell_formula_units_Z   1
loop_
 _symmetry_equiv_pos_site_id
 _symmetry_equiv_pos_as_xyz
  1  'x, y, z'
loop_
 _atom_site_type_symbol
 _atom_site_label
 _atom_site_symmetry_multiplicity
 _atom_site_fract_x
 _atom_site_fract_y
 _atom_site_fract_z
 _atom_site_occupancy
  Sm  Sm0  1  0.87500005  0.12500001  0.75000006  1
  Sm  Sm1  1  0.62500006  0.37500003  0.25000005  1
  Sm  Sm2  1  0.12500002  0.25000002  0.37500003  1
  Sm  Sm3  1  0.37500007  0.75000006  0.12500006  1
  Sm  Sm4  1  0.75000008  0.62500005  0.87500009  1
  Sm  Sm5  1  0.25000007  0.87500007  0.62500008  1
  Ni  Ni6  1  0.37500006  0.62500005  0.75000008  1
  Ni  Ni7  1  0.12500006  0.87500007  0.25000006  1
  Ni  Ni8  1  0.62500005  0.25000002  0.87500007  1
  Ni  Ni9  1  0.87500009  0.75000006  0.62500009  1
  Ni  Ni10  1  0.75000005  0.12500001  0.37500004  1
  Ni  Ni11  1  0.25000004  0.37500003  0.12500003  1
  Ni  Ni12  1  0.00000003  0.50000004  0.66059306  1
  Sn  Sn13  1  0.33940704  0.33940703  0.83940707  1
  Sn  Sn14  1  0.50000004  0.16059301  0.50000004  1
  Sn  Sn15  1  0.16059307  1.00000009  0.00000006  1
  Sn  Sn16  1  0.83940710  0.83940707  0.33940708  1
  Sn  Sn17  1  0.00000003  0.50000004  0.16059304  1
  Sn  Sn18  1  0.50000007  0.66059306  0.50000007  1
  Sn  Sn19  1  0.66059304  0.00000000  0.00000002  1
