# generated using pymatgen
data_BeTc6Os
_symmetry_space_group_name_H-M   'P 1'
_cell_length_a   4.39036989
_cell_length_b   5.60406780
_cell_length_c   5.60406780
_cell_angle_alpha   120.00000000
_cell_angle_beta   90.00000000
_cell_angle_gamma   90.00000000
_symmetry_Int_Tables_number   1
_chemical_formula_structural   BeTc6Os
_chemical_formula_sum   'Be1 Tc6 Os1'
_cell_volume   119.40939702
_cell_formula_units_Z   1
loop_
 _symmetry_equiv_pos_site_id
 _symmetry_equiv_pos_as_xyz
  1  'x, y, z'
loop_
 _atom_site_type_symbol
 _atom_site_label
 _atom_site_symmetry_multiplicity
 _atom_site_fract_x
 _atom_site_fract_y
 _atom_site_fract_z
 _atom_site_occupancy
  Tc  Tc0  1  0.75000002  0.33333334  0.66666666  1
  Be  Be1  1  0.25000001  0.66666668  0.33333331  1
  Tc  Tc2  1  0.25000001  0.16598000  0.33195999  1
  Tc  Tc3  1  0.25000001  0.66803901  0.83401898  1
  Tc  Tc4  1  0.25000001  0.16598000  0.83401899  1
  Tc  Tc5  1  0.75000002  0.83402002  0.66803998  1
  Tc  Tc6  1  0.75000002  0.33196101  0.16598099  1
  Os  Os7  1  0.75000002  0.83402002  0.16598098  1
