# generated using pymatgen
data_Al11Pd7
_symmetry_space_group_name_H-M   'P 1'
_cell_length_a   2.89978695
_cell_length_b   7.65996885
_cell_length_c   13.26955891
_cell_angle_alpha   90.62635803
_cell_angle_beta   90.31220245
_cell_angle_gamma   90.66826630
_symmetry_Int_Tables_number   1
_chemical_formula_structural   Al11Pd7
_chemical_formula_sum   'Al11 Pd7'
_cell_volume   294.70488514
_cell_formula_units_Z   1
loop_
 _symmetry_equiv_pos_site_id
 _symmetry_equiv_pos_as_xyz
  1  'x, y, z'
loop_
 _atom_site_type_symbol
 _atom_site_label
 _atom_site_symmetry_multiplicity
 _atom_site_fract_x
 _atom_site_fract_y
 _atom_site_fract_z
 _atom_site_occupancy
  Al  Al0  1  0.76379801  0.00409100  0.33150101  1
  Al  Al1  1  0.75777195  0.49536101  0.83004601  1
  Al  Al2  1  0.24732294  0.49791601  0.16999099  1
  Al  Al3  1  0.24689887  0.99986002  0.66630999  1
  Al  Al4  1  0.75162493  0.66223601  0.01690198  1
  Al  Al5  1  0.75161099  0.15947900  0.51418401  1
  Al  Al6  1  0.75179793  0.64806801  0.32312499  1
  Al  Al7  1  0.98210402  0.00322300  0.00176300  1
  Al  Al8  1  0.92440395  0.50324301  0.49845700  1
  Al  Al9  1  0.74826999  0.14203400  0.82446802  1
  Pd  Pd10  1  0.73547099  0.19027700  0.16172100  1
  Al  Al11  1  0.74001292  0.69411401  0.66059700  1
  Pd  Pd12  1  0.27042789  0.83619502  0.47984099  1
  Pd  Pd13  1  0.26431496  0.34422101  0.98546202  1
  Pd  Pd14  1  0.25710789  0.84707502  0.17410298  1
  Pd  Pd15  1  0.25941896  0.35253701  0.66681201  1
  Pd  Pd16  1  0.28000896  0.31606901  0.34742600  1
  Pd  Pd17  1  0.26763290  0.80400202  0.84729200  1
