# generated using pymatgen
data_Yb2Zn3Pd
_symmetry_space_group_name_H-M   'P 1'
_cell_length_a   4.62923288
_cell_length_b   7.18916607
_cell_length_c   7.99619293
_cell_angle_alpha   90.00000000
_cell_angle_beta   90.00000000
_cell_angle_gamma   90.00000000
_symmetry_Int_Tables_number   1
_chemical_formula_structural   Yb2Zn3Pd
_chemical_formula_sum   'Yb4 Zn6 Pd2'
_cell_volume   266.11589132
_cell_formula_units_Z   2
loop_
 _symmetry_equiv_pos_site_id
 _symmetry_equiv_pos_as_xyz
  1  'x, y, z'
loop_
 _atom_site_type_symbol
 _atom_site_label
 _atom_site_symmetry_multiplicity
 _atom_site_fract_x
 _atom_site_fract_y
 _atom_site_fract_z
 _atom_site_occupancy
  Yb  Yb0  1  0.25000001  0.50901100  0.20676500  1
  Yb  Yb1  1  0.75000002  0.49098900  0.79323501  1
  Yb  Yb2  1  0.25000001  0.00901100  0.29323500  1
  Yb  Yb3  1  0.75000002  0.99098899  0.70676501  1
  Zn  Zn4  1  0.25000001  0.69565299  0.58748500  1
  Zn  Zn5  1  0.75000002  0.80434699  0.08748500  1
  Zn  Zn6  1  0.25000001  0.19565300  0.91251501  1
  Zn  Zn7  1  0.75000002  0.30434700  0.41251500  1
  Zn  Zn8  1  0.75000002  0.20599500  0.08456300  1
  Zn  Zn9  1  0.25000001  0.29400500  0.58456300  1
  Pd  Pd10  1  0.75000002  0.70599499  0.41543700  1
  Pd  Pd11  1  0.25000001  0.79400499  0.91543701  1
