# generated using pymatgen
data_Li2NiO2
_symmetry_space_group_name_H-M   'P 1'
_cell_length_a   3.00216198
_cell_length_b   4.52686024
_cell_length_c   5.67228699
_cell_angle_alpha   113.51774597
_cell_angle_beta   105.34521484
_cell_angle_gamma   90.00000000
_symmetry_Int_Tables_number   1
_chemical_formula_structural   Li2NiO2
_chemical_formula_sum   'Li2 Ni1 O2'
_cell_volume   67.67741098
_cell_formula_units_Z   1
loop_
 _symmetry_equiv_pos_site_id
 _symmetry_equiv_pos_as_xyz
  1  'x, y, z'
loop_
 _atom_site_type_symbol
 _atom_site_label
 _atom_site_symmetry_multiplicity
 _atom_site_fract_x
 _atom_site_fract_y
 _atom_site_fract_z
 _atom_site_occupancy
  Li  Li0  1  0.31169898  0.81169896  0.62339798  1
  Li  Li1  1  0.68830099  0.18830099  0.37660197  1
  Ni  Ni2  1  -0.00000001  0.49999998  0.00000001  1
  O  O3  1  0.63250098  0.63250097  0.26500198  1
  O  O4  1  0.36749899  0.36749898  0.73499797  1
