# generated using pymatgen
data_Zn
_symmetry_space_group_name_H-M   'P 1'
_cell_length_a   3.85043001
_cell_length_b   3.85043001
_cell_length_c   4.84943581
_cell_angle_alpha   113.39062500
_cell_angle_beta   113.39062500
_cell_angle_gamma   90.00000000
_symmetry_Int_Tables_number   1
_chemical_formula_structural   Zn
_chemical_formula_sum   Zn4
_cell_volume   59.49589464
_cell_formula_units_Z   4
loop_
 _symmetry_equiv_pos_site_id
 _symmetry_equiv_pos_as_xyz
  1  'x, y, z'
loop_
 _atom_site_type_symbol
 _atom_site_label
 _atom_site_symmetry_multiplicity
 _atom_site_fract_x
 _atom_site_fract_y
 _atom_site_fract_z
 _atom_site_occupancy
  Zn  Zn0  1  0.74999998  0.25000000  0.49999997  1
  Zn  Zn1  1  0.24999998  0.74999999  0.49999996  1
  Zn  Zn2  1  0.49999998  0.49999999  -0.00000002  1
  Zn  Zn3  1  0.00000000  0.00000000  0.00000000  1
