# generated using pymatgen
data_CaCoO3
_symmetry_space_group_name_H-M   'P 1'
_cell_length_a   5.21173620
_cell_length_b   5.62269688
_cell_length_c   7.45341492
_cell_angle_alpha   90.00000000
_cell_angle_beta   90.00000000
_cell_angle_gamma   90.00000000
_symmetry_Int_Tables_number   1
_chemical_formula_structural   CaCoO3
_chemical_formula_sum   'Ca4 Co4 O12'
_cell_volume   218.41496662
_cell_formula_units_Z   4
loop_
 _symmetry_equiv_pos_site_id
 _symmetry_equiv_pos_as_xyz
  1  'x, y, z'
loop_
 _atom_site_type_symbol
 _atom_site_label
 _atom_site_symmetry_multiplicity
 _atom_site_fract_x
 _atom_site_fract_y
 _atom_site_fract_z
 _atom_site_occupancy
  Ca  Ca0  1  0.02119300  0.92244702  0.75000001  1
  Ca  Ca1  1  0.52119298  0.57755301  0.25000000  1
  Ca  Ca2  1  0.47880698  0.42244701  0.75000001  1
  Ca  Ca3  1  0.97880696  0.07755300  0.25000000  1
  Co  Co4  1  0.49999998  0.00000000  0.50000001  1
  Co  Co5  1  -0.00000000  0.50000001  0.50000001  1
  Co  Co6  1  -0.00000000  0.50000001  -0.00000000  1
  Co  Co7  1  0.49999998  0.00000000  -0.00000000  1
  O  O8  1  0.69695897  0.30768801  0.44799800  1
  O  O9  1  0.19695899  0.19231200  0.55200201  1
  O  O10  1  0.80304097  0.80768802  0.05200200  1
  O  O11  1  0.30304099  0.69231202  0.94799801  1
  O  O12  1  0.30304099  0.69231202  0.55200201  1
  O  O13  1  0.80304097  0.80768802  0.44799800  1
  O  O14  1  0.19695899  0.19231200  0.94799801  1
  O  O15  1  0.69695897  0.30768801  0.05200200  1
  O  O16  1  0.10459600  0.46945901  0.25000000  1
  O  O17  1  0.60459598  0.03054100  0.75000001  1
  O  O18  1  0.39540398  0.96945902  0.25000000  1
  O  O19  1  0.89540397  0.53054101  0.75000001  1
