# generated using pymatgen
data_EuBiSbSe5
_symmetry_space_group_name_H-M   'P 1'
_cell_length_a   4.49298620
_cell_length_b   4.49298620
_cell_length_c   19.21027374
_cell_angle_alpha   90.00000000
_cell_angle_beta   90.00000000
_cell_angle_gamma   90.00000000
_symmetry_Int_Tables_number   1
_chemical_formula_structural   EuBiSbSe5
_chemical_formula_sum   'Eu2 Bi2 Sb2 Se10'
_cell_volume   387.79635553
_cell_formula_units_Z   2
loop_
 _symmetry_equiv_pos_site_id
 _symmetry_equiv_pos_as_xyz
  1  'x, y, z'
loop_
 _atom_site_type_symbol
 _atom_site_label
 _atom_site_symmetry_multiplicity
 _atom_site_fract_x
 _atom_site_fract_y
 _atom_site_fract_z
 _atom_site_occupancy
  Eu  Eu0  1  0.49999998  0.00000000  0.36164999  1
  Eu  Eu1  1  0.49999998  0.00000000  0.86455597  1
  Bi  Bi2  1  -0.00000000  0.49999998  0.13544399  1
  Bi  Bi3  1  -0.00000000  0.49999998  0.63834998  1
  Sb  Sb4  1  0.49999998  0.49999998  0.24996199  1
  Sb  Sb5  1  0.49999998  0.49999998  0.75003797  1
  Se  Se6  1  0.00000000  0.00000000  0.24983099  1
  Se  Se7  1  0.00000000  0.00000000  0.75016897  1
  Se  Se8  1  0.49999998  0.49999998  0.49999998  1
  Se  Se9  1  0.00000000  0.00000000  0.00000000  1
  Se  Se10  1  0.00000000  0.00000000  0.49999998  1
  Se  Se11  1  0.49999998  0.00000000  0.18006099  1
  Se  Se12  1  0.49999998  0.00000000  0.68019497  1
  Se  Se13  1  -0.00000000  0.49999998  0.31980499  1
  Se  Se14  1  -0.00000000  0.49999998  0.81993897  1
  Se  Se15  1  0.49999998  0.49999998  0.00000000  1
