# generated using pymatgen
data_Ti2Al5Ru
_symmetry_space_group_name_H-M   'P 1'
_cell_length_a   4.52159309
_cell_length_b   5.61230421
_cell_length_c   5.61230421
_cell_angle_alpha   60.00000000
_cell_angle_beta   90.00000000
_cell_angle_gamma   90.00000000
_symmetry_Int_Tables_number   1
_chemical_formula_structural   Ti2Al5Ru
_chemical_formula_sum   'Ti2 Al5 Ru1'
_cell_volume   123.34016235
_cell_formula_units_Z   1
loop_
 _symmetry_equiv_pos_site_id
 _symmetry_equiv_pos_as_xyz
  1  'x, y, z'
loop_
 _atom_site_type_symbol
 _atom_site_label
 _atom_site_symmetry_multiplicity
 _atom_site_fract_x
 _atom_site_fract_y
 _atom_site_fract_z
 _atom_site_occupancy
  Ti  Ti0  1  0.24999999  0.33333332  0.33333332  1
  Ti  Ti1  1  0.74999998  0.66666665  0.66666665  1
  Al  Al2  1  0.74999998  0.66520698  0.16739699  1
  Al  Al3  1  0.74999998  0.16739600  0.16739700  1
  Al  Al4  1  0.74999998  0.16739600  0.66520799  1
  Al  Al5  1  0.24999999  0.33479299  0.83260298  1
  Al  Al6  1  0.24999999  0.83260398  0.83260298  1
  Ru  Ru7  1  0.24999999  0.83260398  0.33479198  1
