# generated using pymatgen
data_Na2CrCuS2
_symmetry_space_group_name_H-M   'P 1'
_cell_length_a   3.78259993
_cell_length_b   6.54852962
_cell_length_c   7.09623623
_cell_angle_alpha   106.27808380
_cell_angle_beta   105.45738220
_cell_angle_gamma   90.00000000
_symmetry_Int_Tables_number   1
_chemical_formula_structural   Na2CrCuS2
_chemical_formula_sum   'Na2 Cr1 Cu1 S2'
_cell_volume   162.09644721
_cell_formula_units_Z   1
loop_
 _symmetry_equiv_pos_site_id
 _symmetry_equiv_pos_as_xyz
  1  'x, y, z'
loop_
 _atom_site_type_symbol
 _atom_site_label
 _atom_site_symmetry_multiplicity
 _atom_site_fract_x
 _atom_site_fract_y
 _atom_site_fract_z
 _atom_site_occupancy
  Na  Na0  1  0.12610000  0.34466999  0.25220001  1
  Na  Na1  1  0.87390001  0.65532999  0.74780002  1
  Cr  Cr2  1  0.35526100  0.14552100  0.71052200  1
  Cu  Cu3  1  0.64473901  0.85447898  0.28947803  1
  S  S4  1  0.75066001  0.21204600  0.50132000  1
  S  S5  1  0.24934001  0.78795399  0.49868003  1
