# generated using pymatgen
data_Eu(GeRh)2
_symmetry_space_group_name_H-M   'P 1'
_cell_length_a   4.21694613
_cell_length_b   4.21694613
_cell_length_c   6.40376472
_cell_angle_alpha   109.22357941
_cell_angle_beta   109.22357941
_cell_angle_gamma   90.00000000
_symmetry_Int_Tables_number   1
_chemical_formula_structural   Eu(GeRh)2
_chemical_formula_sum   'Eu1 Ge2 Rh2'
_cell_volume   100.77731996
_cell_formula_units_Z   1
loop_
 _symmetry_equiv_pos_site_id
 _symmetry_equiv_pos_as_xyz
  1  'x, y, z'
loop_
 _atom_site_type_symbol
 _atom_site_label
 _atom_site_symmetry_multiplicity
 _atom_site_fract_x
 _atom_site_fract_y
 _atom_site_fract_z
 _atom_site_occupancy
  Eu  Eu0  1  0.00000000  0.00000000  0.00000000  1
  Ge  Ge1  1  0.64141901  0.64141899  0.28283803  1
  Ge  Ge2  1  0.35858100  0.35858099  0.71716200  1
  Rh  Rh3  1  0.25000002  0.74999999  0.50000002  1
  Rh  Rh4  1  0.74999999  0.25000000  0.50000001  1
