# generated using pymatgen
data_Ca6FeO9
_symmetry_space_group_name_H-M   'P 1'
_cell_length_a   4.06674814
_cell_length_b   6.62028885
_cell_length_c   11.57310104
_cell_angle_alpha   90.00000000
_cell_angle_beta   90.00000000
_cell_angle_gamma   107.88712311
_symmetry_Int_Tables_number   1
_chemical_formula_structural   Ca6FeO9
_chemical_formula_sum   'Ca6 Fe1 O9'
_cell_volume   296.52229531
_cell_formula_units_Z   1
loop_
 _symmetry_equiv_pos_site_id
 _symmetry_equiv_pos_as_xyz
  1  'x, y, z'
loop_
 _atom_site_type_symbol
 _atom_site_label
 _atom_site_symmetry_multiplicity
 _atom_site_fract_x
 _atom_site_fract_y
 _atom_site_fract_z
 _atom_site_occupancy
  Ca  Ca0  1  0.66915295  0.33830600  0.75000000  1
  Ca  Ca1  1  0.63331796  0.26663600  0.40693500  1
  Ca  Ca2  1  0.63331796  0.26663600  0.09306500  1
  Ca  Ca3  1  0.36668193  0.73336400  0.90693500  1
  Ca  Ca4  1  0.36668193  0.73336400  0.59306500  1
  Ca  Ca5  1  0.33084694  0.66169400  0.25000000  1
  Fe  Fe6  1  0.53855798  0.07711600  0.25000000  1
  O  O7  1  0.24682295  0.49364600  0.75000000  1
  O  O8  1  0.77556193  0.55112400  0.59833100  1
  O  O9  1  0.77556193  0.55112400  0.90166900  1
  O  O10  1  0.22443796  0.44887600  0.09833100  1
  O  O11  1  0.22443796  0.44887600  0.40166900  1
  O  O12  1  0.75317694  0.50635400  0.25000000  1
  O  O13  1  0.46144192  0.92288400  0.75000000  1
  O  O14  1  0.00000000  0.00000000  0.00000000  1
  O  O15  1  0.00000000  0.00000000  0.50000000  1
