# generated using pymatgen
data_Tm2Al3
_symmetry_space_group_name_H-M   'P 1'
_cell_length_a   7.48634195
_cell_length_b   7.92305613
_cell_length_c   7.92305613
_cell_angle_alpha   90.00000000
_cell_angle_beta   90.00000000
_cell_angle_gamma   90.00000000
_symmetry_Int_Tables_number   1
_chemical_formula_structural   Tm2Al3
_chemical_formula_sum   'Tm8 Al12'
_cell_volume   469.95375637
_cell_formula_units_Z   4
loop_
 _symmetry_equiv_pos_site_id
 _symmetry_equiv_pos_as_xyz
  1  'x, y, z'
loop_
 _atom_site_type_symbol
 _atom_site_label
 _atom_site_symmetry_multiplicity
 _atom_site_fract_x
 _atom_site_fract_y
 _atom_site_fract_z
 _atom_site_occupancy
  Tm  Tm0  1  0.50000000  0.84250599  0.15749400  1
  Tm  Tm1  1  0.50000000  0.15749400  0.84250599  1
  Tm  Tm2  1  0.00000000  0.34250599  0.34250599  1
  Tm  Tm3  1  0.00000000  0.65749399  0.65749399  1
  Tm  Tm4  1  0.50000000  0.68425899  0.68425899  1
  Tm  Tm5  1  0.50000000  0.31574099  0.31574099  1
  Tm  Tm6  1  0.00000000  0.18425900  0.81574099  1
  Tm  Tm7  1  0.00000000  0.81574099  0.18425900  1
  Al  Al8  1  0.25000000  0.49999999  0.00000000  1
  Al  Al9  1  0.75000000  0.00000000  0.49999999  1
  Al  Al10  1  0.75000000  0.49999999  0.00000000  1
  Al  Al11  1  0.25000000  0.00000000  0.49999999  1
  Al  Al12  1  0.27807800  0.62757399  0.37242599  1
  Al  Al13  1  0.27807800  0.37242599  0.62757399  1
  Al  Al14  1  0.77807800  0.12757400  0.12757400  1
  Al  Al15  1  0.77807800  0.87242599  0.87242599  1
  Al  Al16  1  0.72192200  0.37242599  0.62757399  1
  Al  Al17  1  0.72192200  0.62757399  0.37242599  1
  Al  Al18  1  0.22192200  0.87242599  0.87242599  1
  Al  Al19  1  0.22192200  0.12757400  0.12757400  1
