# generated using pymatgen
data_HoAg3
_symmetry_space_group_name_H-M   'P 1'
_cell_length_a   5.16633701
_cell_length_b   6.49590015
_cell_length_c   6.49590063
_cell_angle_alpha   60.00000381
_cell_angle_beta   90.00000000
_cell_angle_gamma   90.00000000
_symmetry_Int_Tables_number   1
_chemical_formula_structural   HoAg3
_chemical_formula_sum   'Ho2 Ag6'
_cell_volume   188.79569843
_cell_formula_units_Z   2
loop_
 _symmetry_equiv_pos_site_id
 _symmetry_equiv_pos_as_xyz
  1  'x, y, z'
loop_
 _atom_site_type_symbol
 _atom_site_label
 _atom_site_symmetry_multiplicity
 _atom_site_fract_x
 _atom_site_fract_y
 _atom_site_fract_z
 _atom_site_occupancy
  Ho  Ho0  1  0.75000000  0.16739099  0.66521799  1
  Ho  Ho1  1  0.25000000  0.33478199  0.83260899  1
  Ag  Ag2  1  0.25000000  0.83260897  0.83260900  1
  Ag  Ag3  1  0.25000000  0.83260897  0.33478201  1
  Ag  Ag4  1  0.75000000  0.66521798  0.16739101  1
  Ag  Ag5  1  0.75000000  0.16739099  0.16739100  1
  Ag  Ag6  1  0.25000000  0.33333332  0.33333334  1
  Ag  Ag7  1  0.75000000  0.66666664  0.66666667  1
