# generated using pymatgen
data_Dy5Sn3
_symmetry_space_group_name_H-M   'P 1'
_cell_length_a   6.27843285
_cell_length_b   8.94411373
_cell_length_c   8.94411373
_cell_angle_alpha   120.00000000
_cell_angle_beta   90.00000000
_cell_angle_gamma   90.00000000
_symmetry_Int_Tables_number   1
_chemical_formula_structural   Dy5Sn3
_chemical_formula_sum   'Dy10 Sn6'
_cell_volume   434.96720214
_cell_formula_units_Z   2
loop_
 _symmetry_equiv_pos_site_id
 _symmetry_equiv_pos_as_xyz
  1  'x, y, z'
loop_
 _atom_site_type_symbol
 _atom_site_label
 _atom_site_symmetry_multiplicity
 _atom_site_fract_x
 _atom_site_fract_y
 _atom_site_fract_z
 _atom_site_occupancy
  Dy  Dy0  1  -0.00000000  0.66666669  0.33333335  1
  Dy  Dy1  1  0.50000001  0.33333334  0.66666669  1
  Dy  Dy2  1  -0.00000000  0.33333334  0.66666669  1
  Dy  Dy3  1  0.50000001  0.66666669  0.33333335  1
  Dy  Dy4  1  0.25000001  0.24648301  0.24648301  1
  Dy  Dy5  1  0.75000002  0.24648301  0.00000000  1
  Dy  Dy6  1  0.75000002  0.00000000  0.24648301  1
  Dy  Dy7  1  0.25000001  0.00000000  0.75351703  1
  Dy  Dy8  1  0.25000001  0.75351702  0.00000000  1
  Dy  Dy9  1  0.75000002  0.75351702  0.75351703  1
  Sn  Sn10  1  0.25000001  0.61109802  0.61109802  1
  Sn  Sn11  1  0.75000002  0.61109802  0.00000000  1
  Sn  Sn12  1  0.75000002  0.00000000  0.61109802  1
  Sn  Sn13  1  0.25000001  0.00000000  0.38890201  1
  Sn  Sn14  1  0.25000001  0.38890201  0.00000000  1
  Sn  Sn15  1  0.75000002  0.38890201  0.38890202  1
