# generated using pymatgen
data_YbZn2GePd
_symmetry_space_group_name_H-M   'P 1'
_cell_length_a   4.38889217
_cell_length_b   4.38889122
_cell_length_c   7.33156776
_cell_angle_alpha   90.00000000
_cell_angle_beta   90.00000000
_cell_angle_gamma   120.00000763
_symmetry_Int_Tables_number   1
_chemical_formula_structural   YbZn2GePd
_chemical_formula_sum   'Yb1 Zn2 Ge1 Pd1'
_cell_volume   122.30301953
_cell_formula_units_Z   1
loop_
 _symmetry_equiv_pos_site_id
 _symmetry_equiv_pos_as_xyz
  1  'x, y, z'
loop_
 _atom_site_type_symbol
 _atom_site_label
 _atom_site_symmetry_multiplicity
 _atom_site_fract_x
 _atom_site_fract_y
 _atom_site_fract_z
 _atom_site_occupancy
  Yb  Yb0  1  0.00000000  0.00000000  0.00000000  1
  Zn  Zn1  1  0.66666665  0.33333333  0.36479101  1
  Zn  Zn2  1  0.33333334  0.66666667  0.63520902  1
  Ge  Ge3  1  0.33333334  0.66666667  0.25277801  1
  Pd  Pd4  1  0.66666665  0.33333333  0.74722202  1
