# generated using pymatgen
data_EuMgGe
_symmetry_space_group_name_H-M   'P 1'
_cell_length_a   4.22850990
_cell_length_b   4.22850990
_cell_length_c   5.15701103
_cell_angle_alpha   89.90700531
_cell_angle_beta   89.90700531
_cell_angle_gamma   60.56817245
_symmetry_Int_Tables_number   1
_chemical_formula_structural   EuMgGe
_chemical_formula_sum   'Eu1 Mg1 Ge1'
_cell_volume   80.30835388
_cell_formula_units_Z   1
loop_
 _symmetry_equiv_pos_site_id
 _symmetry_equiv_pos_as_xyz
  1  'x, y, z'
loop_
 _atom_site_type_symbol
 _atom_site_label
 _atom_site_symmetry_multiplicity
 _atom_site_fract_x
 _atom_site_fract_y
 _atom_site_fract_z
 _atom_site_occupancy
  Eu  Eu0  1  0.67739697  0.67739701  0.70962503  1
  Mg  Mg1  1  0.32260299  0.32260300  0.29037501  1
  Ge  Ge2  1  0.00000000  0.00000000  0.00000000  1
