# generated using pymatgen
data_Ce2Ga9
_symmetry_space_group_name_H-M   'P 1'
_cell_length_a   4.29628515
_cell_length_b   5.44329596
_cell_length_c   9.16968346
_cell_angle_alpha   107.26606750
_cell_angle_beta   90.00000000
_cell_angle_gamma   90.00000000
_symmetry_Int_Tables_number   1
_chemical_formula_structural   Ce2Ga9
_chemical_formula_sum   'Ce2 Ga9'
_cell_volume   204.77832967
_cell_formula_units_Z   1
loop_
 _symmetry_equiv_pos_site_id
 _symmetry_equiv_pos_as_xyz
  1  'x, y, z'
loop_
 _atom_site_type_symbol
 _atom_site_label
 _atom_site_symmetry_multiplicity
 _atom_site_fract_x
 _atom_site_fract_y
 _atom_site_fract_z
 _atom_site_occupancy
  Ce  Ce0  1  0.49999998  0.38291001  0.75362403  1
  Ce  Ce1  1  0.49999998  0.62928601  0.24637601  1
  Ga  Ga2  1  0.99999996  0.77375101  0.00000001  1
  Ga  Ga3  1  0.00000000  0.89007401  0.78014903  1
  Ga  Ga4  1  0.99999996  0.10992500  0.21985101  1
  Ga  Ga5  1  0.00000000  0.50916301  0.49508102  1
  Ga  Ga6  1  -0.00000000  0.01408200  0.50491902  1
  Ga  Ga7  1  0.49999998  0.80563401  0.59754203  1
  Ga  Ga8  1  0.49999998  0.20809200  0.40245801  1
  Ga  Ga9  1  0.49999998  0.99920401  0.00000001  1
  Ga  Ga10  1  0.00000000  0.36428000  0.00000000  1
