# generated using pymatgen
data_EuMg(In2Pd)2
_symmetry_space_group_name_H-M   'P 1'
_cell_length_a   4.38790989
_cell_length_b   5.60696888
_cell_length_c   8.09340000
_cell_angle_alpha   90.00000000
_cell_angle_beta   90.00000000
_cell_angle_gamma   113.03483582
_symmetry_Int_Tables_number   1
_chemical_formula_structural   EuMg(In2Pd)2
_chemical_formula_sum   'Eu1 Mg1 In4 Pd2'
_cell_volume   183.24441885
_cell_formula_units_Z   1
loop_
 _symmetry_equiv_pos_site_id
 _symmetry_equiv_pos_as_xyz
  1  'x, y, z'
loop_
 _atom_site_type_symbol
 _atom_site_label
 _atom_site_symmetry_multiplicity
 _atom_site_fract_x
 _atom_site_fract_y
 _atom_site_fract_z
 _atom_site_occupancy
  Eu  Eu0  1  0.07052700  0.14105400  0.25000000  1
  Mg  Mg1  1  0.92947300  0.85894598  0.75000000  1
  In  In2  1  0.35551099  0.71102199  0.44870900  1
  In  In3  1  0.64448901  0.28897799  0.55129100  1
  In  In4  1  0.35551099  0.71102199  0.05129100  1
  In  In5  1  0.64448901  0.28897799  0.94870900  1
  Pd  Pd6  1  0.22010599  0.44021199  0.75000000  1
  Pd  Pd7  1  0.77989400  0.55978799  0.25000000  1
