# generated using pymatgen
data_NaTi5CrO10
_symmetry_space_group_name_H-M   'P 1'
_cell_length_a   5.58338356
_cell_length_b   5.58338356
_cell_length_c   7.95707178
_cell_angle_alpha   90.00000000
_cell_angle_beta   90.00000000
_cell_angle_gamma   90.57306671
_symmetry_Int_Tables_number   1
_chemical_formula_structural   NaTi5CrO10
_chemical_formula_sum   'Na1 Ti5 Cr1 O10'
_cell_volume   248.04271680
_cell_formula_units_Z   1
loop_
 _symmetry_equiv_pos_site_id
 _symmetry_equiv_pos_as_xyz
  1  'x, y, z'
loop_
 _atom_site_type_symbol
 _atom_site_label
 _atom_site_symmetry_multiplicity
 _atom_site_fract_x
 _atom_site_fract_y
 _atom_site_fract_z
 _atom_site_occupancy
  Na  Na0  1  0.74185199  0.25814800  -0.00000000  1
  Ti  Ti1  1  0.24702999  0.24951600  0.25906401  1
  Ti  Ti2  1  0.75048397  0.75297000  0.25906401  1
  Ti  Ti3  1  0.75048397  0.75297000  0.74093602  1
  Ti  Ti4  1  0.24702999  0.24951600  0.74093602  1
  Ti  Ti5  1  0.21285899  0.21021900  0.50000001  1
  Cr  Cr6  1  0.78978096  0.78714100  0.50000001  1
  O  O7  1  0.98730500  0.01269500  0.19712601  1
  O  O8  1  0.98730500  0.01269500  0.80287402  1
  O  O9  1  0.29734699  0.28244600  -0.00000000  1
  O  O10  1  0.71755397  0.70265300  1.00000003  1
  O  O11  1  0.99036898  0.48928800  0.22792001  1
  O  O12  1  0.51071200  0.00963100  0.77208002  1
  O  O13  1  0.99036898  0.48928800  0.77208002  1
  O  O14  1  0.51071200  0.00963100  0.22792001  1
  O  O15  1  0.50655398  0.49344600  0.27158301  1
  O  O16  1  0.50655398  0.49344600  0.72841702  1
