# generated using pymatgen
data_Ba2VB2N5
_symmetry_space_group_name_H-M   'P 1'
_cell_length_a   6.34900856
_cell_length_b   6.34900856
_cell_length_c   6.34900856
_cell_angle_alpha   60.00000000
_cell_angle_beta   60.00000000
_cell_angle_gamma   60.00000000
_symmetry_Int_Tables_number   1
_chemical_formula_structural   Ba2VB2N5
_chemical_formula_sum   'Ba2 V1 B2 N5'
_cell_volume   180.96839723
_cell_formula_units_Z   1
loop_
 _symmetry_equiv_pos_site_id
 _symmetry_equiv_pos_as_xyz
  1  'x, y, z'
loop_
 _atom_site_type_symbol
 _atom_site_label
 _atom_site_symmetry_multiplicity
 _atom_site_fract_x
 _atom_site_fract_y
 _atom_site_fract_z
 _atom_site_occupancy
  Ba  Ba0  1  0.75000000  0.75000000  0.75000000  1
  Ba  Ba1  1  0.25000000  0.25000000  0.25000000  1
  B  B2  1  0.00000000  0.00000000  0.00000000  1
  V  V3  1  0.50000000  0.50000000  0.50000000  1
  N  N4  1  0.68480900  0.31519100  0.68480900  1
  B  B5  1  0.31519100  0.68480900  0.68480900  1
  N  N6  1  0.68480900  0.31519100  0.31519100  1
  N  N7  1  0.68480900  0.68480900  0.31519100  1
  N  N8  1  0.31519100  0.31519100  0.68480900  1
  N  N9  1  0.31519100  0.68480900  0.31519100  1
