# generated using pymatgen
data_ZnCu2AgS4
_symmetry_space_group_name_H-M   'P 1'
_cell_length_a   5.56724787
_cell_length_b   5.56724787
_cell_length_c   6.60456276
_cell_angle_alpha   114.92742157
_cell_angle_beta   114.92742157
_cell_angle_gamma   90.00000000
_symmetry_Int_Tables_number   1
_chemical_formula_structural   ZnCu2AgS4
_chemical_formula_sum   'Zn1 Cu2 Ag1 S4'
_cell_volume   164.36633711
_cell_formula_units_Z   1
loop_
 _symmetry_equiv_pos_site_id
 _symmetry_equiv_pos_as_xyz
  1  'x, y, z'
loop_
 _atom_site_type_symbol
 _atom_site_label
 _atom_site_symmetry_multiplicity
 _atom_site_fract_x
 _atom_site_fract_y
 _atom_site_fract_z
 _atom_site_occupancy
  Cu  Cu0  1  0.75000004  0.25000001  0.50000004  1
  Zn  Zn1  1  0.50000004  0.50000003  0.00000005  1
  Cu  Cu2  1  0.00000000  0.00000000  0.00000000  1
  Ag  Ag3  1  0.25000004  0.75000004  0.50000005  1
  S  S4  1  0.64939303  0.15185201  0.76574803  1
  S  S5  1  0.11635503  0.61389603  0.76574804  1
  S  S6  1  0.84814808  0.88364505  0.23425208  1
  S  S7  1  0.38610403  0.35060702  0.23425203  1
