# generated using pymatgen
data_Li7CoO10
_symmetry_space_group_name_H-M   'P 1'
_cell_length_a   3.27614069
_cell_length_b   6.43031168
_cell_length_c   10.39573383
_cell_angle_alpha   107.12494659
_cell_angle_beta   93.56758881
_cell_angle_gamma   94.23240662
_symmetry_Int_Tables_number   1
_chemical_formula_structural   Li7CoO10
_chemical_formula_sum   'Li7 Co1 O10'
_cell_volume   207.91109429
_cell_formula_units_Z   1
loop_
 _symmetry_equiv_pos_site_id
 _symmetry_equiv_pos_as_xyz
  1  'x, y, z'
loop_
 _atom_site_type_symbol
 _atom_site_label
 _atom_site_symmetry_multiplicity
 _atom_site_fract_x
 _atom_site_fract_y
 _atom_site_fract_z
 _atom_site_occupancy
  Li  Li0  1  0.49874096  0.83410399  0.66666667  1
  Li  Li1  1  0.52113797  0.47095000  0.00021199  1
  Li  Li2  1  0.50066599  0.16632200  0.33317901  1
  Li  Li3  1  0.00031199  0.33368100  0.66732501  1
  Li  Li4  1  0.99997796  0.66638899  0.33301000  1
  Li  Li5  1  0.99784898  0.01369800  0.00022400  1
  Li  Li6  1  0.02597799  0.29993400  0.99904002  1
  O  O7  1  0.02710197  0.63238399  0.66658200  1
  Co  Co8  1  0.02426496  0.96571699  0.33333332  1
  O  O9  1  0.55283195  0.93478799  0.86295600  1
  O  O10  1  0.46899696  0.73493399  0.46940600  1
  O  O11  1  0.46483598  0.40049800  0.80301401  1
  O  O12  1  0.53748397  0.59557599  0.19676699  1
  O  O13  1  0.53125298  0.26494400  0.53071301  1
  O  O14  1  0.44381999  0.07229900  0.13611200  1
  O  O15  1  0.97468598  0.03395000  0.66628902  1
  O  O16  1  0.95510796  0.71223999  0.00089499  1
  O  O17  1  0.97495597  0.36758900  0.33427200  1
