# generated using pymatgen
data_Ti5(SiO)3
_symmetry_space_group_name_H-M   'P 1'
_cell_length_a   6.53877974
_cell_length_b   6.53877974
_cell_length_c   6.82840919
_cell_angle_alpha   95.06274414
_cell_angle_beta   95.06274414
_cell_angle_gamma   96.82280731
_symmetry_Int_Tables_number   1
_chemical_formula_structural   Ti5(SiO)3
_chemical_formula_sum   'Ti5 Si3 O3'
_cell_volume   287.31224820
_cell_formula_units_Z   1
loop_
 _symmetry_equiv_pos_site_id
 _symmetry_equiv_pos_as_xyz
  1  'x, y, z'
loop_
 _atom_site_type_symbol
 _atom_site_label
 _atom_site_symmetry_multiplicity
 _atom_site_fract_x
 _atom_site_fract_y
 _atom_site_fract_z
 _atom_site_occupancy
  Ti  Ti0  1  0.89086400  0.10913600  0.49999993  1
  Ti  Ti1  1  0.50160399  0.49839600  0.99999992  1
  Ti  Ti2  1  0.34632200  0.05197100  0.07882798  1
  Ti  Ti3  1  0.94802899  0.65367800  0.92117189  1
  Si  Si4  1  0.01653698  0.98346300  -0.00000006  1
  Ti  Ti5  1  0.18326299  0.54242800  0.78922894  1
  Si  Si6  1  0.36674300  0.31122800  0.26988895  1
  Si  Si7  1  0.68877199  0.63325700  0.73011091  1
  O  O8  1  0.84680499  0.52641200  0.16416292  1
  O  O9  1  0.47358800  0.15319500  0.83583694  1
  O  O10  1  0.45757199  0.81673700  0.21077092  1
