# generated using pymatgen
data_Tm2Cu
_symmetry_space_group_name_H-M   'P 1'
_cell_length_a   4.23013115
_cell_length_b   7.01030207
_cell_length_c   7.01030159
_cell_angle_alpha   120.00000000
_cell_angle_beta   90.00000000
_cell_angle_gamma   90.00000000
_symmetry_Int_Tables_number   1
_chemical_formula_structural   Tm2Cu
_chemical_formula_sum   'Tm6 Cu3'
_cell_volume   180.03539579
_cell_formula_units_Z   3
loop_
 _symmetry_equiv_pos_site_id
 _symmetry_equiv_pos_as_xyz
  1  'x, y, z'
loop_
 _atom_site_type_symbol
 _atom_site_label
 _atom_site_symmetry_multiplicity
 _atom_site_fract_x
 _atom_site_fract_y
 _atom_site_fract_z
 _atom_site_occupancy
  Tm  Tm0  1  0.49999998  0.76659797  0.76659795  1
  Tm  Tm1  1  0.49999998  0.23340199  0.99999997  1
  Tm  Tm2  1  0.49999998  0.99999996  0.23340194  1
  Tm  Tm3  1  0.99999996  0.00000000  0.57541999  1
  Tm  Tm4  1  -0.00000000  0.42457998  0.42457997  1
  Tm  Tm5  1  0.99999996  0.57541998  0.99999995  1
  Cu  Cu6  1  0.49999998  0.66666664  0.33333329  1
  Cu  Cu7  1  0.49999998  0.33333332  0.66666664  1
  Cu  Cu8  1  0.00000000  0.00000000  0.00000000  1
