# generated using pymatgen
data_HfZrSi7
_symmetry_space_group_name_H-M   'P 1'
_cell_length_a   4.72212505
_cell_length_b   4.73723364
_cell_length_c   13.13676834
_cell_angle_alpha   90.00000000
_cell_angle_beta   90.00000000
_cell_angle_gamma   119.73251343
_symmetry_Int_Tables_number   1
_chemical_formula_structural   HfZrSi7
_chemical_formula_sum   'Hf2 Zr2 Si14'
_cell_volume   255.17947990
_cell_formula_units_Z   2
loop_
 _symmetry_equiv_pos_site_id
 _symmetry_equiv_pos_as_xyz
  1  'x, y, z'
loop_
 _atom_site_type_symbol
 _atom_site_label
 _atom_site_symmetry_multiplicity
 _atom_site_fract_x
 _atom_site_fract_y
 _atom_site_fract_z
 _atom_site_occupancy
  Hf  Hf0  1  0.00000003  0.50000002  0.74996398  1
  Hf  Hf1  1  0.50000002  0.50000002  0.41635099  1
  Zr  Zr2  1  0.50000002  0.50000002  0.91714298  1
  Zr  Zr3  1  0.15779601  0.32396901  0.08418300  1
  Si  Si4  1  0.16204801  0.32089201  0.58334298  1
  Si  Si5  1  0.67626404  0.84054703  0.24908499  1
  Si  Si6  1  0.67961304  0.84150803  0.74902698  1
  Si  Si7  1  0.15992504  0.83622903  0.41663599  1
  Si  Si8  1  0.16363704  0.84323703  0.91773898  1
  Si  Si9  1  0.84220403  0.67603102  0.08418300  1
  Si  Si10  1  0.83795203  0.67910802  0.58334298  1
  Si  Si11  1  0.32373600  0.15945301  0.24908499  1
  Si  Si12  1  0.32038700  0.15849201  0.74902698  1
  Si  Si13  1  0.84007500  0.16377101  0.41663599  1
  Si  Si14  1  0.83636300  0.15676301  0.91773898  1
  Si  Si15  1  0.50000005  1.00000003  0.08397200  1
  Si  Si16  1  0.49999999  0.00000000  0.58316798  1
  Si  Si17  1  0.00000003  0.50000002  0.24937799  1
