# generated using pymatgen
data_LiEuErScO5
_symmetry_space_group_name_H-M   'P 1'
_cell_length_a   3.77038407
_cell_length_b   5.74027920
_cell_length_c   6.60388851
_cell_angle_alpha   115.76070404
_cell_angle_beta   106.58676147
_cell_angle_gamma   90.00000763
_symmetry_Int_Tables_number   1
_chemical_formula_structural   LiEuErScO5
_chemical_formula_sum   'Li1 Eu1 Er1 Sc1 O5'
_cell_volume   122.08621029
_cell_formula_units_Z   1
loop_
 _symmetry_equiv_pos_site_id
 _symmetry_equiv_pos_as_xyz
  1  'x, y, z'
loop_
 _atom_site_type_symbol
 _atom_site_label
 _atom_site_symmetry_multiplicity
 _atom_site_fract_x
 _atom_site_fract_y
 _atom_site_fract_z
 _atom_site_occupancy
  Eu  Eu0  1  0.50000106  0.50000001  0.00000003  1
  Li  Li1  1  0.70350605  0.20350600  0.40701203  1
  Er  Er2  1  0.29649507  0.79649301  0.59298703  1
  Sc  Sc3  1  0.00000000  0.00000000  0.00000000  1
  O  O4  1  0.49999910  0.99999901  0.99999904  1
  O  O5  1  0.84814808  0.60869101  0.69629804  1
  O  O6  1  0.15185004  0.39130800  0.30370101  1
  O  O7  1  0.15185108  0.91239401  0.30370103  1
  O  O8  1  0.84815004  0.08760800  0.69630003  1
