# generated using pymatgen
data_Cu3AgS4
_symmetry_space_group_name_H-M   'P 1'
_cell_length_a   5.46353579
_cell_length_b   5.46353579
_cell_length_c   6.68212223
_cell_angle_alpha   114.13056946
_cell_angle_beta   114.13056946
_cell_angle_gamma   90.00000000
_symmetry_Int_Tables_number   1
_chemical_formula_structural   Cu3AgS4
_chemical_formula_sum   'Cu3 Ag1 S4'
_cell_volume   162.74708565
_cell_formula_units_Z   1
loop_
 _symmetry_equiv_pos_site_id
 _symmetry_equiv_pos_as_xyz
  1  'x, y, z'
loop_
 _atom_site_type_symbol
 _atom_site_label
 _atom_site_symmetry_multiplicity
 _atom_site_fract_x
 _atom_site_fract_y
 _atom_site_fract_z
 _atom_site_occupancy
  Cu  Cu0  1  0.75000004  0.25000001  0.50000002  1
  Cu  Cu1  1  0.00000000  0.00000000  0.00000000  1
  Cu  Cu2  1  0.25000002  0.75000004  0.50000002  1
  Ag  Ag3  1  0.50000003  0.50000002  0.00000001  1
  S  S4  1  0.36281703  0.88683004  0.25830602  1
  S  S5  1  0.89548905  0.37147602  0.25830702  1
  S  S6  1  0.11316901  0.10451101  0.74169401  1
  S  S7  1  0.62852404  0.63718203  0.74169302  1
