# generated using pymatgen
data_Li3VO5
_symmetry_space_group_name_H-M   'P 1'
_cell_length_a   5.53355408
_cell_length_b   5.87940598
_cell_length_c   6.97849751
_cell_angle_alpha   76.31030273
_cell_angle_beta   73.18833923
_cell_angle_gamma   72.54601288
_symmetry_Int_Tables_number   1
_chemical_formula_structural   Li3VO5
_chemical_formula_sum   'Li6 V2 O10'
_cell_volume   204.51569273
_cell_formula_units_Z   2
loop_
 _symmetry_equiv_pos_site_id
 _symmetry_equiv_pos_as_xyz
  1  'x, y, z'
loop_
 _atom_site_type_symbol
 _atom_site_label
 _atom_site_symmetry_multiplicity
 _atom_site_fract_x
 _atom_site_fract_y
 _atom_site_fract_z
 _atom_site_occupancy
  Li  Li0  1  0.99572104  0.99975997  0.99673098  1
  Li  Li1  1  0.98227004  0.98041197  0.49932698  1
  Li  Li2  1  0.67569103  0.67286498  0.34128299  1
  Li  Li3  1  0.65397003  0.65260098  0.82101798  1
  Li  Li4  1  0.33639801  0.33744199  0.15487799  1
  Li  Li5  1  0.33945101  0.33686999  0.67667999  1
  V  V6  1  0.76384203  0.75741298  0.53956098  1
  V  V7  1  0.43153402  0.43407199  0.87363798  1
  O  O8  1  0.89527403  0.89397597  0.79932598  1
  O  O9  1  0.58482902  0.58597798  0.12784799  1
  O  O10  1  0.35275204  0.94992797  0.84513500  1
  O  O11  1  0.31642203  0.72551798  0.48432900  1
  O  O12  1  0.98320501  0.38005699  0.82256097  1
  O  O13  1  0.03087303  0.61600498  0.18091601  1
  O  O14  1  0.69065101  0.28008799  0.51922598  1
  O  O15  1  0.63645000  0.05900000  0.15116098  1
  O  O16  1  0.24282301  0.24752299  0.45830399  1
  O  O17  1  0.08784400  0.09049000  0.20807600  1
