# generated using pymatgen
data_Sm2Zn2SnPd
_symmetry_space_group_name_H-M   'P 1'
_cell_length_a   4.15021420
_cell_length_b   4.15021420
_cell_length_c   8.63175583
_cell_angle_alpha   90.00000000
_cell_angle_beta   90.00000000
_cell_angle_gamma   120.00000000
_symmetry_Int_Tables_number   1
_chemical_formula_structural   Sm2Zn2SnPd
_chemical_formula_sum   'Sm2 Zn2 Sn1 Pd1'
_cell_volume   128.75698584
_cell_formula_units_Z   1
loop_
 _symmetry_equiv_pos_site_id
 _symmetry_equiv_pos_as_xyz
  1  'x, y, z'
loop_
 _atom_site_type_symbol
 _atom_site_label
 _atom_site_symmetry_multiplicity
 _atom_site_fract_x
 _atom_site_fract_y
 _atom_site_fract_z
 _atom_site_occupancy
  Sm  Sm0  1  0.66666665  0.33333334  0.75187701  1
  Sm  Sm1  1  0.66666665  0.33333334  0.24812300  1
  Zn  Zn2  1  0.33333334  0.66666668  1.00000002  1
  Zn  Zn3  1  0.33333334  0.66666668  0.50000001  1
  Sn  Sn4  1  0.00000000  0.00000000  0.00000000  1
  Pd  Pd5  1  0.00000000  0.00000000  0.50000001  1
