# generated using pymatgen
data_Eu2Al3Si5Ni2
_symmetry_space_group_name_H-M   'P 1'
_cell_length_a   5.48061800
_cell_length_b   5.48061752
_cell_length_c   7.73031092
_cell_angle_alpha   90.00000000
_cell_angle_beta   90.00000000
_cell_angle_gamma   120.00000000
_symmetry_Int_Tables_number   1
_chemical_formula_structural   Eu2Al3Si5Ni2
_chemical_formula_sum   'Eu2 Al3 Si5 Ni2'
_cell_volume   201.08821600
_cell_formula_units_Z   1
loop_
 _symmetry_equiv_pos_site_id
 _symmetry_equiv_pos_as_xyz
  1  'x, y, z'
loop_
 _atom_site_type_symbol
 _atom_site_label
 _atom_site_symmetry_multiplicity
 _atom_site_fract_x
 _atom_site_fract_y
 _atom_site_fract_z
 _atom_site_occupancy
  Eu  Eu0  1  0.00000000  0.00000000  0.50000001  1
  Eu  Eu1  1  0.00000000  0.00000000  0.00000000  1
  Al  Al2  1  0.33333330  0.66666667  0.50000001  1
  Al  Al3  1  0.66666665  0.33333333  0.50000001  1
  Al  Al4  1  0.33333330  0.66666667  -0.00000000  1
  Ni  Ni5  1  0.50000000  0.00000000  0.69992401  1
  Si  Si6  1  0.49999998  0.50000000  0.69992401  1
  Si  Si7  1  0.49999998  0.50000000  0.30007600  1
  Ni  Ni8  1  0.50000000  0.00000000  0.30007600  1
  Si  Si9  1  0.99999998  0.50000000  0.30007600  1
  Si  Si10  1  0.66666665  0.33333333  1.00000001  1
  Si  Si11  1  0.99999998  0.50000000  0.69992401  1
