# generated using pymatgen
data_RbNbSb2SO15
_symmetry_space_group_name_H-M   'P 1'
_cell_length_a   5.43311596
_cell_length_b   5.77771854
_cell_length_c   10.63742065
_cell_angle_alpha   89.97358704
_cell_angle_beta   87.21674347
_cell_angle_gamma   87.03157043
_symmetry_Int_Tables_number   1
_chemical_formula_structural   RbNbSb2SO15
_chemical_formula_sum   'Rb1 Nb1 Sb2 S1 O15'
_cell_volume   333.07730457
_cell_formula_units_Z   1
loop_
 _symmetry_equiv_pos_site_id
 _symmetry_equiv_pos_as_xyz
  1  'x, y, z'
loop_
 _atom_site_type_symbol
 _atom_site_label
 _atom_site_symmetry_multiplicity
 _atom_site_fract_x
 _atom_site_fract_y
 _atom_site_fract_z
 _atom_site_occupancy
  Rb  Rb0  1  0.00000000  0.00000000  0.00000000  1
  Nb  Nb1  1  0.00000000  0.00000000  0.50000000  1
  Sb  Sb2  1  0.59468700  0.38311799  0.24690497  1
  Sb  Sb3  1  0.40531299  0.61688199  0.75309497  1
  O  O4  1  0.72793198  0.94894198  0.89935795  1
  O  O5  1  0.27206800  0.05105800  0.10064199  1
  S  S6  1  0.70002901  0.02863500  0.59996298  1
  O  O7  1  0.29997098  0.97136498  0.40003696  1
  O  O8  1  0.41946299  0.51997699  0.15039697  1
  O  O9  1  0.58053699  0.48002299  0.84960297  1
  O  O10  1  0.43335099  0.46335599  0.37210197  1
  O  O11  1  0.56664899  0.53664399  0.62789797  1
  O  O12  1  0.82331300  0.27802099  0.07470397  1
  O  O13  1  0.17668698  0.72197898  0.92529598  1
  O  O14  1  0.85983700  0.20080500  0.36831897  1
  O  O15  1  0.14016298  0.79919498  0.63168098  1
  O  O16  1  0.86371199  0.81119998  0.12933695  1
  O  O17  1  0.13628800  0.18880000  0.87066299  1
  O  O18  1  0.88865999  0.73319298  0.42009595  1
  O  O19  1  0.11133999  0.26680699  0.57990399  1
