# generated using pymatgen
data_Na3ScO6
_symmetry_space_group_name_H-M   'P 1'
_cell_length_a   5.70352983
_cell_length_b   5.70352983
_cell_length_c   5.70353031
_cell_angle_alpha   60.10421371
_cell_angle_beta   60.10421371
_cell_angle_gamma   60.10421753
_symmetry_Int_Tables_number   1
_chemical_formula_structural   Na3ScO6
_chemical_formula_sum   'Na3 Sc1 O6'
_cell_volume   131.50445435
_cell_formula_units_Z   1
loop_
 _symmetry_equiv_pos_site_id
 _symmetry_equiv_pos_as_xyz
  1  'x, y, z'
loop_
 _atom_site_type_symbol
 _atom_site_label
 _atom_site_symmetry_multiplicity
 _atom_site_fract_x
 _atom_site_fract_y
 _atom_site_fract_z
 _atom_site_occupancy
  Na  Na0  1  0.46493000  0.46493000  0.46492996  1
  Na  Na1  1  0.96493000  0.96493001  0.96492992  1
  Na  Na2  1  0.21561000  0.21561000  0.21560998  1
  Sc  Sc3  1  0.71561000  0.71561001  0.71560994  1
  O  O4  1  0.89267001  0.00061000  0.44446996  1
  O  O5  1  0.50061000  0.39267000  0.94446996  1
  O  O6  1  0.39267000  0.94447001  0.50060995  1
  O  O7  1  0.94447000  0.50061000  0.39266994  1
  O  O8  1  0.00061000  0.44447000  0.89266997  1
  O  O9  1  0.44447000  0.89267001  0.00060995  1
