# generated using pymatgen
data_Li4MgAlAg2
_symmetry_space_group_name_H-M   'P 1'
_cell_length_a   4.80870008
_cell_length_b   4.80870008
_cell_length_c   8.28866577
_cell_angle_alpha   73.13744354
_cell_angle_beta   73.13744354
_cell_angle_gamma   60.00000000
_symmetry_Int_Tables_number   1
_chemical_formula_structural   Li4MgAlAg2
_chemical_formula_sum   'Li4 Mg1 Al1 Ag2'
_cell_volume   156.39756310
_cell_formula_units_Z   1
loop_
 _symmetry_equiv_pos_site_id
 _symmetry_equiv_pos_as_xyz
  1  'x, y, z'
loop_
 _atom_site_type_symbol
 _atom_site_label
 _atom_site_symmetry_multiplicity
 _atom_site_fract_x
 _atom_site_fract_y
 _atom_site_fract_z
 _atom_site_occupancy
  Li  Li0  1  0.49999995  0.49999999  0.50000006  1
  Li  Li1  1  0.00000000  0.00000000  0.00000000  1
  Li  Li2  1  0.25003698  0.25003699  0.24988903  1
  Li  Li3  1  0.74996293  0.74996298  0.75011109  1
  Mg  Mg4  1  0.62550794  0.62550798  0.12347606  1
  Ag  Ag5  1  0.12469599  0.12469600  0.62591204  1
  Ag  Ag6  1  0.87530392  0.87530397  0.37408809  1
  Al  Al7  1  0.37449197  0.37449199  0.87652407  1
