# generated using pymatgen
data_TaCo(NiP)2
_symmetry_space_group_name_H-M   'P 1'
_cell_length_a   3.15860605
_cell_length_b   5.01065922
_cell_length_c   5.84205103
_cell_angle_alpha   90.00000000
_cell_angle_beta   105.68412018
_cell_angle_gamma   90.00000000
_symmetry_Int_Tables_number   1
_chemical_formula_structural   TaCo(NiP)2
_chemical_formula_sum   'Ta1 Co1 Ni2 P2'
_cell_volume   89.01777608
_cell_formula_units_Z   1
loop_
 _symmetry_equiv_pos_site_id
 _symmetry_equiv_pos_as_xyz
  1  'x, y, z'
loop_
 _atom_site_type_symbol
 _atom_site_label
 _atom_site_symmetry_multiplicity
 _atom_site_fract_x
 _atom_site_fract_y
 _atom_site_fract_z
 _atom_site_occupancy
  Co  Co0  1  0.09373500  0.50160898  0.18746999  1
  Ta  Ta1  1  0.90626497  0.00160900  0.81252995  1
  Ni  Ni2  1  0.43045699  0.61950597  0.86091396  1
  Ni  Ni3  1  0.56954298  0.11950599  0.13908598  1
  P  P4  1  0.70185098  0.80388497  0.40370197  1
  P  P5  1  0.29814899  0.30388499  0.59629797  1
