# generated using pymatgen
data_BaBO3
_symmetry_space_group_name_H-M   'P 1'
_cell_length_a   4.24401808
_cell_length_b   4.24401808
_cell_length_c   9.51729298
_cell_angle_alpha   86.48857880
_cell_angle_beta   86.48857880
_cell_angle_gamma   89.38686371
_symmetry_Int_Tables_number   1
_chemical_formula_structural   BaBO3
_chemical_formula_sum   'Ba2 B2 O6'
_cell_volume   170.77532009
_cell_formula_units_Z   2
loop_
 _symmetry_equiv_pos_site_id
 _symmetry_equiv_pos_as_xyz
  1  'x, y, z'
loop_
 _atom_site_type_symbol
 _atom_site_label
 _atom_site_symmetry_multiplicity
 _atom_site_fract_x
 _atom_site_fract_y
 _atom_site_fract_z
 _atom_site_occupancy
  Ba  Ba0  1  0.77149799  0.77149800  0.77715002  1
  Ba  Ba1  1  0.22850200  0.22850200  0.22285001  1
  B  B2  1  0.36957599  0.63042400  0.50000001  1
  B  B3  1  0.63042399  0.36957600  0.50000001  1
  O  O4  1  0.72707699  0.72707700  0.11624504  1
  O  O5  1  0.27292300  0.27292300  0.88375499  1
  O  O6  1  0.78587299  0.32885500  0.60947201  1
  O  O7  1  0.67114499  0.21412700  0.39052801  1
  O  O8  1  0.32885499  0.78587300  0.60947201  1
  O  O9  1  0.21412699  0.67114500  0.39052801  1
