# generated using pymatgen
data_Li3In2Ir
_symmetry_space_group_name_H-M   'P 1'
_cell_length_a   5.44799519
_cell_length_b   5.44799519
_cell_length_c   5.44799519
_cell_angle_alpha   105.35546112
_cell_angle_beta   105.35546112
_cell_angle_gamma   118.05940247
_symmetry_Int_Tables_number   1
_chemical_formula_structural   Li3In2Ir
_chemical_formula_sum   'Li3 In2 Ir1'
_cell_volume   122.35062055
_cell_formula_units_Z   1
loop_
 _symmetry_equiv_pos_site_id
 _symmetry_equiv_pos_as_xyz
  1  'x, y, z'
loop_
 _atom_site_type_symbol
 _atom_site_label
 _atom_site_symmetry_multiplicity
 _atom_site_fract_x
 _atom_site_fract_y
 _atom_site_fract_z
 _atom_site_occupancy
  Li  Li0  1  0.25000000  0.25000000  0.99999999  1
  Li  Li1  1  0.75000000  0.75000000  0.99999992  1
  Li  Li2  1  0.65690900  0.15690900  0.81381797  1
  In  In3  1  0.15690900  0.34309200  0.49999998  1
  In  In4  1  0.34309099  0.84309100  0.18618192  1
  Ir  Ir5  1  0.84309100  0.65690800  0.49999991  1
