# generated using pymatgen
data_SmSnRh
_symmetry_space_group_name_H-M   'P 1'
_cell_length_a   4.13572979
_cell_length_b   7.43259621
_cell_length_c   7.43259668
_cell_angle_alpha   119.99999237
_cell_angle_beta   90.00000000
_cell_angle_gamma   90.00000000
_symmetry_Int_Tables_number   1
_chemical_formula_structural   SmSnRh
_chemical_formula_sum   'Sm3 Sn3 Rh3'
_cell_volume   197.86269851
_cell_formula_units_Z   3
loop_
 _symmetry_equiv_pos_site_id
 _symmetry_equiv_pos_as_xyz
  1  'x, y, z'
loop_
 _atom_site_type_symbol
 _atom_site_label
 _atom_site_symmetry_multiplicity
 _atom_site_fract_x
 _atom_site_fract_y
 _atom_site_fract_z
 _atom_site_occupancy
  Sm  Sm0  1  1.00000005  0.40941797  1.00000000  1
  Sm  Sm1  1  1.00000005  0.59058196  0.59058198  1
  Sm  Sm2  1  1.00000005  0.00000000  0.40941801  1
  Sn  Sn3  1  0.50000003  0.00000000  0.75546002  1
  Sn  Sn4  1  0.50000003  0.75545995  0.99999998  1
  Sn  Sn5  1  0.50000003  0.24453998  0.24453999  1
  Rh  Rh6  1  0.00000000  0.00000000  0.00000000  1
  Rh  Rh7  1  0.50000003  0.66666662  0.33333330  1
  Rh  Rh8  1  0.50000003  0.33333331  0.66666666  1
