# generated using pymatgen
data_LiTiO3
_symmetry_space_group_name_H-M   'P 1'
_cell_length_a   5.01320696
_cell_length_b   5.28490019
_cell_length_c   8.63693905
_cell_angle_alpha   90.00000000
_cell_angle_beta   90.00000000
_cell_angle_gamma   90.00000000
_symmetry_Int_Tables_number   1
_chemical_formula_structural   LiTiO3
_chemical_formula_sum   'Li4 Ti4 O12'
_cell_volume   228.82964043
_cell_formula_units_Z   4
loop_
 _symmetry_equiv_pos_site_id
 _symmetry_equiv_pos_as_xyz
  1  'x, y, z'
loop_
 _atom_site_type_symbol
 _atom_site_label
 _atom_site_symmetry_multiplicity
 _atom_site_fract_x
 _atom_site_fract_y
 _atom_site_fract_z
 _atom_site_occupancy
  Li  Li0  1  0.00000000  0.00000000  0.30350500  1
  Li  Li1  1  0.50000000  0.49999998  0.80350500  1
  Li  Li2  1  0.50000000  0.00000000  0.19049000  1
  Li  Li3  1  0.00000000  0.49999998  0.69049000  1
  Ti  Ti4  1  0.50000000  0.00000000  0.59563200  1
  Ti  Ti5  1  0.00000000  0.49999998  0.09563200  1
  Ti  Ti6  1  0.00000000  0.00000000  0.90474899  1
  Ti  Ti7  1  0.50000000  0.49999998  0.40474900  1
  O  O8  1  0.79527401  0.83877597  0.07438000  1
  O  O9  1  0.70472601  0.33877599  0.57438000  1
  O  O10  1  0.29527400  0.66122398  0.57438000  1
  O  O11  1  0.73377901  0.33894799  0.25219100  1
  O  O12  1  0.76622101  0.83894797  0.75219100  1
  O  O13  1  0.23377900  0.16105199  0.75219100  1
  O  O14  1  0.79371201  0.31141099  0.91119099  1
  O  O15  1  0.26622100  0.66105198  0.25219100  1
  O  O16  1  0.29371200  0.18858899  0.41119100  1
  O  O17  1  0.20628800  0.68858898  0.91119099  1
  O  O18  1  0.70628801  0.81141097  0.41119100  1
  O  O19  1  0.20472600  0.16122399  0.07438000  1
