# generated using pymatgen
data_Mg2InS4
_symmetry_space_group_name_H-M   'P 1'
_cell_length_a   7.65316963
_cell_length_b   7.65316963
_cell_length_c   7.65316963
_cell_angle_alpha   60.00000000
_cell_angle_beta   60.00000000
_cell_angle_gamma   60.00000000
_symmetry_Int_Tables_number   1
_chemical_formula_structural   Mg2InS4
_chemical_formula_sum   'Mg4 In2 S8'
_cell_volume   316.96332993
_cell_formula_units_Z   2
loop_
 _symmetry_equiv_pos_site_id
 _symmetry_equiv_pos_as_xyz
  1  'x, y, z'
loop_
 _atom_site_type_symbol
 _atom_site_label
 _atom_site_symmetry_multiplicity
 _atom_site_fract_x
 _atom_site_fract_y
 _atom_site_fract_z
 _atom_site_occupancy
  Mg  Mg0  1  0.87658298  0.87658198  0.37025299  1
  Mg  Mg1  1  0.87658298  0.87658198  0.87658198  1
  Mg  Mg2  1  0.87658298  0.37025299  0.87658198  1
  Mg  Mg3  1  0.37025399  0.87658198  0.87658198  1
  In  In4  1  0.49999999  0.49999999  0.49999999  1
  In  In5  1  0.24999999  0.24999999  0.24999999  1
  S  S6  1  0.11059200  0.11059300  0.66822198  1
  S  S7  1  0.11059200  0.11059300  0.11059300  1
  S  S8  1  0.11059200  0.66822198  0.11059300  1
  S  S9  1  0.66822098  0.11059300  0.11059300  1
  S  S10  1  0.64070898  0.64070998  0.07787100  1
  S  S11  1  0.64070898  0.64070998  0.64070998  1
  S  S12  1  0.64070898  0.07787100  0.64070998  1
  S  S13  1  0.07787000  0.64070998  0.64070998  1
