# generated using pymatgen
data_EuCdAu
_symmetry_space_group_name_H-M   'P 1'
_cell_length_a   4.66424513
_cell_length_b   7.83942223
_cell_length_c   8.62694073
_cell_angle_alpha   90.00000000
_cell_angle_beta   90.00000000
_cell_angle_gamma   90.00000000
_symmetry_Int_Tables_number   1
_chemical_formula_structural   EuCdAu
_chemical_formula_sum   'Eu4 Cd4 Au4'
_cell_volume   315.44397493
_cell_formula_units_Z   4
loop_
 _symmetry_equiv_pos_site_id
 _symmetry_equiv_pos_as_xyz
  1  'x, y, z'
loop_
 _atom_site_type_symbol
 _atom_site_label
 _atom_site_symmetry_multiplicity
 _atom_site_fract_x
 _atom_site_fract_y
 _atom_site_fract_z
 _atom_site_occupancy
  Eu  Eu0  1  0.24999999  0.51368999  0.31429401  1
  Eu  Eu1  1  0.24999999  0.01369000  0.18570601  1
  Eu  Eu2  1  0.74999998  0.48630999  0.68570602  1
  Eu  Eu3  1  0.74999998  0.98630997  0.81429403  1
  Cd  Cd4  1  0.24999999  0.64912698  0.93343303  1
  Cd  Cd5  1  0.24999999  0.14912700  0.56656702  1
  Cd  Cd6  1  0.74999998  0.35087299  0.06656700  1
  Cd  Cd7  1  0.74999998  0.85087298  0.43343301  1
  Au  Au8  1  0.24999999  0.27555299  0.88851503  1
  Au  Au9  1  0.24999999  0.77555298  0.61148502  1
  Au  Au10  1  0.74999998  0.72444698  0.11148500  1
  Au  Au11  1  0.74999998  0.22444699  0.38851501  1
