# generated using pymatgen
data_LaInGa
_symmetry_space_group_name_H-M   'P 1'
_cell_length_a   4.15065908
_cell_length_b   8.23401356
_cell_length_c   8.23401451
_cell_angle_alpha   120.00000000
_cell_angle_beta   90.00000000
_cell_angle_gamma   90.00000000
_symmetry_Int_Tables_number   1
_chemical_formula_structural   LaInGa
_chemical_formula_sum   'La3 In3 Ga3'
_cell_volume   243.70862612
_cell_formula_units_Z   3
loop_
 _symmetry_equiv_pos_site_id
 _symmetry_equiv_pos_as_xyz
  1  'x, y, z'
loop_
 _atom_site_type_symbol
 _atom_site_label
 _atom_site_symmetry_multiplicity
 _atom_site_fract_x
 _atom_site_fract_y
 _atom_site_fract_z
 _atom_site_occupancy
  La  La0  1  -0.00000000  0.76623206  0.76623205  1
  La  La1  1  0.49999999  0.00000000  0.60179301  1
  La  La2  1  0.49999999  0.60179305  0.00000003  1
  In  In3  1  -0.00000000  0.23376802  0.00000001  1
  In  In4  1  -0.00000000  1.00000008  0.23376805  1
  In  In5  1  0.49999999  0.39820703  0.39820702  1
  Ga  Ga6  1  0.49999999  0.00000000  -0.00000000  1
  Ga  Ga7  1  -0.00000000  0.66666672  0.33333337  1
  Ga  Ga8  1  -0.00000000  0.33333336  0.66666669  1
