# generated using pymatgen
data_Ti5NbS2
_symmetry_space_group_name_H-M   'P 1'
_cell_length_a   6.25946808
_cell_length_b   6.25946760
_cell_length_c   6.61821604
_cell_angle_alpha   90.00000000
_cell_angle_beta   90.00000000
_cell_angle_gamma   120.00000000
_symmetry_Int_Tables_number   1
_chemical_formula_structural   Ti5NbS2
_chemical_formula_sum   'Ti5 Nb1 S2'
_cell_volume   224.56723736
_cell_formula_units_Z   1
loop_
 _symmetry_equiv_pos_site_id
 _symmetry_equiv_pos_as_xyz
  1  'x, y, z'
loop_
 _atom_site_type_symbol
 _atom_site_label
 _atom_site_symmetry_multiplicity
 _atom_site_fract_x
 _atom_site_fract_y
 _atom_site_fract_z
 _atom_site_occupancy
  Ti  Ti0  1  0.33333331  0.66666667  -0.00000000  1
  Ti  Ti1  1  0.66666665  0.33333334  0.99999999  1
  Ti  Ti2  1  0.33747900  0.00000000  0.77157900  1
  Ti  Ti3  1  0.66252096  1.00000001  0.22842100  1
  S  S4  1  -0.00000001  0.33747900  0.77157900  1
  Ti  Ti5  1  0.66252097  0.66252101  0.77157900  1
  S  S6  1  0.33747899  0.33747900  0.22842100  1
  Nb  Nb7  1  -0.00000002  0.66252101  0.22842100  1
