# generated using pymatgen
data_Li4TiNb3O12
_symmetry_space_group_name_H-M   'P 1'
_cell_length_a   5.41279984
_cell_length_b   5.58085966
_cell_length_c   7.74043608
_cell_angle_alpha   89.86080170
_cell_angle_beta   89.97848511
_cell_angle_gamma   89.32370758
_symmetry_Int_Tables_number   1
_chemical_formula_structural   Li4TiNb3O12
_chemical_formula_sum   'Li4 Ti1 Nb3 O12'
_cell_volume   233.80669083
_cell_formula_units_Z   1
loop_
 _symmetry_equiv_pos_site_id
 _symmetry_equiv_pos_as_xyz
  1  'x, y, z'
loop_
 _atom_site_type_symbol
 _atom_site_label
 _atom_site_symmetry_multiplicity
 _atom_site_fract_x
 _atom_site_fract_y
 _atom_site_fract_z
 _atom_site_occupancy
  Li  Li0  1  0.48948298  0.53608401  0.74866703  1
  Li  Li1  1  0.00533400  0.02575800  0.74954502  1
  Li  Li2  1  0.50870699  0.46084401  0.24990002  1
  Li  Li3  1  0.98858498  0.93151902  0.25027703  1
  Nb  Nb4  1  0.48937696  0.98407002  0.00682301  1
  Ti  Ti5  1  0.00318797  0.47841501  0.49347501  1
  Nb  Nb6  1  0.49364296  0.99459602  0.51041202  1
  Nb  Nb7  1  0.00318597  0.47807301  0.98975202  1
  O  O8  1  0.57117396  0.98297802  0.75313503  1
  O  O9  1  0.91600400  0.48466101  0.74734605  1
  O  O10  1  0.39311201  0.02769700  0.24670002  1
  O  O11  1  0.07943797  0.53509501  0.25304800  1
  O  O12  1  0.20430896  0.80364701  0.97368803  1
  O  O13  1  0.29430899  0.30361801  0.53869202  1
  O  O14  1  0.80914001  0.20579100  0.44304904  1
  O  O15  1  0.71883698  0.73327501  0.05494902  1
  O  O16  1  0.80620301  0.20352200  0.05789203  1
  O  O17  1  0.72310398  0.72968601  0.44563003  1
  O  O18  1  0.20168696  0.80127601  0.52726901  1
  O  O19  1  0.30117799  0.29939501  0.95975104  1
