# generated using pymatgen
data_LiVPdO5
_symmetry_space_group_name_H-M   'P 1'
_cell_length_a   5.10671139
_cell_length_b   5.10671139
_cell_length_c   5.43568468
_cell_angle_alpha   61.98262405
_cell_angle_beta   61.98262405
_cell_angle_gamma   60.00000381
_symmetry_Int_Tables_number   1
_chemical_formula_structural   LiVPdO5
_chemical_formula_sum   'Li1 V1 Pd1 O5'
_cell_volume   103.13505301
_cell_formula_units_Z   1
loop_
 _symmetry_equiv_pos_site_id
 _symmetry_equiv_pos_as_xyz
  1  'x, y, z'
loop_
 _atom_site_type_symbol
 _atom_site_label
 _atom_site_symmetry_multiplicity
 _atom_site_fract_x
 _atom_site_fract_y
 _atom_site_fract_z
 _atom_site_occupancy
  V  V0  1  0.49999999  0.50000002  0.50000001  1
  Li  Li1  1  0.00000000  0.00000000  0.00000000  1
  Pd  Pd2  1  0.37845501  0.11112001  0.75255401  1
  O  O3  1  0.11111997  0.75787104  0.75255402  1
  O  O4  1  0.24212898  0.62154503  0.24744601  1
  O  O5  1  0.88888002  0.24212901  0.24744601  1
  O  O6  1  0.62154498  0.88888004  0.24744602  1
  O  O7  1  0.75787101  0.37845502  0.75255402  1
