# generated using pymatgen
data_K2Cu2TeS
_symmetry_space_group_name_H-M   'P 1'
_cell_length_a   4.20833683
_cell_length_b   4.20833683
_cell_length_c   11.08987331
_cell_angle_alpha   90.00000000
_cell_angle_beta   90.00000000
_cell_angle_gamma   90.00000000
_symmetry_Int_Tables_number   1
_chemical_formula_structural   K2Cu2TeS
_chemical_formula_sum   'K2 Cu2 Te1 S1'
_cell_volume   196.40275291
_cell_formula_units_Z   1
loop_
 _symmetry_equiv_pos_site_id
 _symmetry_equiv_pos_as_xyz
  1  'x, y, z'
loop_
 _atom_site_type_symbol
 _atom_site_label
 _atom_site_symmetry_multiplicity
 _atom_site_fract_x
 _atom_site_fract_y
 _atom_site_fract_z
 _atom_site_occupancy
  K  K0  1  -0.00000000  0.50000002  0.29441299  1
  K  K1  1  0.50000002  0.00000000  0.70558698  1
  Cu  Cu2  1  0.00000000  0.00000000  0.00000000  1
  Cu  Cu3  1  0.50000002  0.50000002  0.00000000  1
  S  S4  1  0.50000002  0.00000000  0.11880500  1
  Te  Te5  1  -0.00000000  0.50000002  0.88119498  1
