# generated using pymatgen
data_HfFe2
_symmetry_space_group_name_H-M   'P 1'
_cell_length_a   5.02745962
_cell_length_b   5.02745962
_cell_length_c   8.34100056
_cell_angle_alpha   90.00000000
_cell_angle_beta   90.00000000
_cell_angle_gamma   119.32678986
_symmetry_Int_Tables_number   1
_chemical_formula_structural   HfFe2
_chemical_formula_sum   'Hf4 Fe8'
_cell_volume   183.80287511
_cell_formula_units_Z   4
loop_
 _symmetry_equiv_pos_site_id
 _symmetry_equiv_pos_as_xyz
  1  'x, y, z'
loop_
 _atom_site_type_symbol
 _atom_site_label
 _atom_site_symmetry_multiplicity
 _atom_site_fract_x
 _atom_site_fract_y
 _atom_site_fract_z
 _atom_site_occupancy
  Hf  Hf0  1  0.33460201  0.66539802  0.68377604  1
  Hf  Hf1  1  0.66363402  0.33636601  0.80898904  1
  Hf  Hf2  1  0.66363402  0.33636601  0.19101101  1
  Hf  Hf3  1  0.33460201  0.66539802  0.31622402  1
  Fe  Fe4  1  0.99789403  0.00210600  0.75719104  1
  Fe  Fe5  1  0.99789403  0.00210600  0.24280901  1
  Fe  Fe6  1  0.83094903  0.65440902  0.50000003  1
  Fe  Fe7  1  0.34559101  0.16905101  0.50000003  1
  Fe  Fe8  1  0.83211603  0.16788401  0.50000003  1
  Fe  Fe9  1  0.17280401  0.34637401  -0.00000000  1
  Fe  Fe10  1  0.65362602  0.82719603  1.00000005  1
  Fe  Fe11  1  0.17261101  0.82738903  -0.00000000  1
