# generated using pymatgen
data_NaLi3Ge2AsC
_symmetry_space_group_name_H-M   'P 1'
_cell_length_a   3.37579608
_cell_length_b   3.37579513
_cell_length_c   14.79463291
_cell_angle_alpha   90.00000000
_cell_angle_beta   90.00000000
_cell_angle_gamma   120.00000763
_symmetry_Int_Tables_number   1
_chemical_formula_structural   NaLi3Ge2AsC
_chemical_formula_sum   'Na1 Li3 Ge2 As1 C1'
_cell_volume   146.01150533
_cell_formula_units_Z   1
loop_
 _symmetry_equiv_pos_site_id
 _symmetry_equiv_pos_as_xyz
  1  'x, y, z'
loop_
 _atom_site_type_symbol
 _atom_site_label
 _atom_site_symmetry_multiplicity
 _atom_site_fract_x
 _atom_site_fract_y
 _atom_site_fract_z
 _atom_site_occupancy
  Na  Na0  1  0.66666664  0.33333332  0.91475801  1
  Li  Li1  1  0.66666664  0.33333332  0.58524200  1
  Li  Li2  1  0.33333330  0.66666664  0.41475800  1
  Li  Li3  1  0.33333330  0.66666664  0.08524200  1
  Ge  Ge4  1  0.66666664  0.33333332  0.25000000  1
  Ge  Ge5  1  0.33333330  0.66666664  0.75000000  1
  C  C6  1  0.00000000  0.00000000  0.00000000  1
  As  As7  1  0.00000000  0.00000000  0.50000000  1
