# generated using pymatgen
data_EuGe3
_symmetry_space_group_name_H-M   'P 1'
_cell_length_a   4.19044399
_cell_length_b   4.19044399
_cell_length_c   18.77046013
_cell_angle_alpha   96.40890503
_cell_angle_beta   96.40890503
_cell_angle_gamma   90.00000000
_symmetry_Int_Tables_number   1
_chemical_formula_structural   EuGe3
_chemical_formula_sum   'Eu4 Ge12'
_cell_volume   325.47319118
_cell_formula_units_Z   4
loop_
 _symmetry_equiv_pos_site_id
 _symmetry_equiv_pos_as_xyz
  1  'x, y, z'
loop_
 _atom_site_type_symbol
 _atom_site_label
 _atom_site_symmetry_multiplicity
 _atom_site_fract_x
 _atom_site_fract_y
 _atom_site_fract_z
 _atom_site_occupancy
  Eu  Eu0  1  0.82814800  0.32814800  0.65629597  1
  Eu  Eu1  1  0.07814800  0.07814800  0.15629599  1
  Eu  Eu2  1  0.92185200  0.92185200  0.84370396  1
  Eu  Eu3  1  0.67185200  0.17185200  0.34370399  1
  Ge  Ge4  1  0.24992100  0.24992100  0.49984198  1
  Ge  Ge5  1  0.50007900  0.00007900  0.00015800  1
  Ge  Ge6  1  0.75007900  0.75007900  0.50015798  1
  Ge  Ge7  1  0.99992100  0.49992100  0.99984195  1
  Ge  Ge8  1  0.20169700  0.70169700  0.40339398  1
  Ge  Ge9  1  0.29830300  0.79830300  0.59660597  1
  Ge  Ge10  1  0.45169700  0.45169700  0.90339396  1
  Ge  Ge11  1  0.54830300  0.54830300  0.09660600  1
  Ge  Ge12  1  0.13925300  0.63925300  0.27850599  1
  Ge  Ge13  1  0.38925300  0.38925300  0.77850596  1
  Ge  Ge14  1  0.61074700  0.61074700  0.22149399  1
  Ge  Ge15  1  0.36074700  0.86074700  0.72149397  1
