# generated using pymatgen
data_K2NaInF6
_symmetry_space_group_name_H-M   'P 1'
_cell_length_a   6.30431175
_cell_length_b   6.30431175
_cell_length_c   6.30431128
_cell_angle_alpha   60.00000000
_cell_angle_beta   59.99999619
_cell_angle_gamma   60.00000000
_symmetry_Int_Tables_number   1
_chemical_formula_structural   K2NaInF6
_chemical_formula_sum   'K2 Na1 In1 F6'
_cell_volume   177.17318819
_cell_formula_units_Z   1
loop_
 _symmetry_equiv_pos_site_id
 _symmetry_equiv_pos_as_xyz
  1  'x, y, z'
loop_
 _atom_site_type_symbol
 _atom_site_label
 _atom_site_symmetry_multiplicity
 _atom_site_fract_x
 _atom_site_fract_y
 _atom_site_fract_z
 _atom_site_occupancy
  K  K0  1  0.74999995  0.74999999  0.75000004  1
  K  K1  1  0.24999998  0.25000000  0.25000001  1
  Na  Na2  1  0.49999997  0.50000000  0.50000003  1
  In  In3  1  0.00000000  0.00000000  0.00000000  1
  F  F4  1  0.21801196  0.78198799  0.78198803  1
  F  F5  1  0.78198795  0.78198799  0.21801205  1
  F  F6  1  0.78198798  0.21801200  0.21801202  1
  F  F7  1  0.21801196  0.78198799  0.21801204  1
  F  F8  1  0.78198798  0.21801200  0.78198801  1
  F  F9  1  0.21801199  0.21801200  0.78198800  1
