# generated using pymatgen
data_Li2SO5
_symmetry_space_group_name_H-M   'P 1'
_cell_length_a   5.40829086
_cell_length_b   5.40829086
_cell_length_c   7.83883429
_cell_angle_alpha   100.68083954
_cell_angle_beta   105.50694275
_cell_angle_gamma   110.11232758
_symmetry_Int_Tables_number   1
_chemical_formula_structural   Li2SO5
_chemical_formula_sum   'Li4 S2 O10'
_cell_volume   197.48331633
_cell_formula_units_Z   2
loop_
 _symmetry_equiv_pos_site_id
 _symmetry_equiv_pos_as_xyz
  1  'x, y, z'
loop_
 _atom_site_type_symbol
 _atom_site_label
 _atom_site_symmetry_multiplicity
 _atom_site_fract_x
 _atom_site_fract_y
 _atom_site_fract_z
 _atom_site_occupancy
  Li  Li0  1  0.50000001  0.49999999  0.50000000  1
  Li  Li1  1  0.00000000  0.00000000  0.50000000  1
  Li  Li2  1  0.00000000  0.00000000  0.00000000  1
  Li  Li3  1  0.49999999  0.00000000  0.50000001  1
  S  S4  1  0.78589300  0.41984899  0.20574201  1
  S  S5  1  0.21410701  0.58015098  0.79425798  1
  O  O6  1  0.39072200  0.15463400  0.54535600  1
  O  O7  1  0.60927801  0.84536598  0.45464399  1
  O  O8  1  0.48343500  0.31959299  0.25808500  1
  O  O9  1  0.51656501  0.68040698  0.74191499  1
  O  O10  1  0.06150801  0.22534999  0.74191499  1
  O  O11  1  0.93849201  0.77464998  0.25808501  1
  O  O12  1  0.01130401  0.32018399  0.33148799  1
  O  O13  1  0.98869600  0.67981598  0.66851201  1
  O  O14  1  0.30232602  0.71731998  0.01964599  1
  O  O15  1  0.69767400  0.28267999  0.98035401  1
