# generated using pymatgen
data_TiTeO3
_symmetry_space_group_name_H-M   'P 1'
_cell_length_a   5.56209660
_cell_length_b   5.56209660
_cell_length_c   5.60594749
_cell_angle_alpha   60.25842285
_cell_angle_beta   60.25842285
_cell_angle_gamma   59.99999619
_symmetry_Int_Tables_number   1
_chemical_formula_structural   TiTeO3
_chemical_formula_sum   'Ti2 Te2 O6'
_cell_volume   123.11088451
_cell_formula_units_Z   2
loop_
 _symmetry_equiv_pos_site_id
 _symmetry_equiv_pos_as_xyz
  1  'x, y, z'
loop_
 _atom_site_type_symbol
 _atom_site_label
 _atom_site_symmetry_multiplicity
 _atom_site_fract_x
 _atom_site_fract_y
 _atom_site_fract_z
 _atom_site_occupancy
  Ti  Ti0  1  0.29760400  0.29760399  0.10718799  1
  Ti  Ti1  1  0.79182900  0.79182897  0.62451298  1
  Te  Te2  1  0.07373700  0.07373700  0.77878899  1
  Te  Te3  1  0.57104100  0.57104098  0.28687699  1
  O  O4  1  0.01218601  0.47649798  0.89966099  1
  O  O5  1  0.96635798  0.52047298  0.40510299  1
  O  O6  1  0.61165498  0.01218600  0.89966099  1
  O  O7  1  0.47649800  0.61165498  0.89966098  1
  O  O8  1  0.52047299  0.10806600  0.40510299  1
  O  O9  1  0.10806602  0.96635796  0.40510298  1
