# generated using pymatgen
data_LiGe2
_symmetry_space_group_name_H-M   'P 1'
_cell_length_a   4.22276783
_cell_length_b   5.84719086
_cell_length_c   8.05158043
_cell_angle_alpha   90.00000000
_cell_angle_beta   90.00000000
_cell_angle_gamma   90.00000000
_symmetry_Int_Tables_number   1
_chemical_formula_structural   LiGe2
_chemical_formula_sum   'Li4 Ge8'
_cell_volume   198.80422493
_cell_formula_units_Z   4
loop_
 _symmetry_equiv_pos_site_id
 _symmetry_equiv_pos_as_xyz
  1  'x, y, z'
loop_
 _atom_site_type_symbol
 _atom_site_label
 _atom_site_symmetry_multiplicity
 _atom_site_fract_x
 _atom_site_fract_y
 _atom_site_fract_z
 _atom_site_occupancy
  Li  Li0  1  0.75000003  0.21612801  0.39244998  1
  Li  Li1  1  0.25000001  0.78387202  0.60754997  1
  Li  Li2  1  0.75000003  0.71612802  0.10754999  1
  Li  Li3  1  0.25000001  0.28387201  0.89244995  1
  Ge  Ge4  1  0.75000003  0.65901502  0.43040198  1
  Ge  Ge5  1  0.25000001  0.34098501  0.56959797  1
  Ge  Ge6  1  0.75000003  0.15901500  0.06959800  1
  Ge  Ge7  1  0.25000001  0.84098502  0.93040195  1
  Ge  Ge8  1  0.75000003  0.53905801  0.80028496  1
  Ge  Ge9  1  0.25000001  0.46094201  0.19971499  1
  Ge  Ge10  1  0.75000003  0.03905800  0.69971496  1
  Ge  Ge11  1  0.25000001  0.96094202  0.30028498  1
