# generated using pymatgen
data_Ca(Al2Ge)2
_symmetry_space_group_name_H-M   'P 1'
_cell_length_a   4.62126350
_cell_length_b   4.62126350
_cell_length_c   9.16271687
_cell_angle_alpha   75.39359283
_cell_angle_beta   75.39359283
_cell_angle_gamma   60.00001144
_symmetry_Int_Tables_number   1
_chemical_formula_structural   Ca(Al2Ge)2
_chemical_formula_sum   'Ca1 Al4 Ge2'
_cell_volume   162.11995137
_cell_formula_units_Z   1
loop_
 _symmetry_equiv_pos_site_id
 _symmetry_equiv_pos_as_xyz
  1  'x, y, z'
loop_
 _atom_site_type_symbol
 _atom_site_label
 _atom_site_symmetry_multiplicity
 _atom_site_fract_x
 _atom_site_fract_y
 _atom_site_fract_z
 _atom_site_occupancy
  Ca  Ca0  1  0.00000000  0.00000000  0.00000000  1
  Al  Al1  1  0.57024399  0.57024397  0.28926803  1
  Al  Al2  1  0.42975599  0.42975597  0.71073205  1
  Al  Al3  1  0.13581600  0.13581599  0.59255203  1
  Al  Al4  1  0.86418399  0.86418395  0.40744804  1
  Ge  Ge5  1  0.75693999  0.75693996  0.72918006  1
  Ge  Ge6  1  0.24306000  0.24305999  0.27082002  1
