# generated using pymatgen
data_FeSe2
_symmetry_space_group_name_H-M   'P 1'
_cell_length_a   3.27153492
_cell_length_b   5.77030802
_cell_length_c   13.04445934
_cell_angle_alpha   89.81483459
_cell_angle_beta   90.00000000
_cell_angle_gamma   90.00000000
_symmetry_Int_Tables_number   1
_chemical_formula_structural   FeSe2
_chemical_formula_sum   'Fe4 Se8'
_cell_volume   246.24894136
_cell_formula_units_Z   4
loop_
 _symmetry_equiv_pos_site_id
 _symmetry_equiv_pos_as_xyz
  1  'x, y, z'
loop_
 _atom_site_type_symbol
 _atom_site_label
 _atom_site_symmetry_multiplicity
 _atom_site_fract_x
 _atom_site_fract_y
 _atom_site_fract_z
 _atom_site_occupancy
  Fe  Fe0  1  0.50000001  0.50222400  0.74867698  1
  Fe  Fe1  1  0.50000001  0.49777600  0.25132299  1
  Fe  Fe2  1  0.00000000  0.00000000  0.00000000  1
  Fe  Fe3  1  0.00000000  0.00000000  0.49999999  1
  Se  Se4  1  0.50000001  0.30553100  0.92712698  1
  Se  Se5  1  0.50000001  0.30834000  0.42655599  1
  Se  Se6  1  0.50000001  0.69166000  0.57344398  1
  Se  Se7  1  0.50000001  0.69446900  0.07287299  1
  Se  Se8  1  0.00000000  0.80220200  0.82495098  1
  Se  Se9  1  0.00000000  0.80556900  0.31838599  1
  Se  Se10  1  0.00000000  0.19443100  0.68161399  1
  Se  Se11  1  0.00000000  0.19779800  0.17504899  1
