# generated using pymatgen
data_Be5BMo6
_symmetry_space_group_name_H-M   'P 1'
_cell_length_a   3.01875997
_cell_length_b   3.01875925
_cell_length_c   14.08948708
_cell_angle_alpha   90.00000000
_cell_angle_beta   90.00000000
_cell_angle_gamma   120.00000763
_symmetry_Int_Tables_number   1
_chemical_formula_structural   Be5BMo6
_chemical_formula_sum   'Be5 B1 Mo6'
_cell_volume   111.19438115
_cell_formula_units_Z   1
loop_
 _symmetry_equiv_pos_site_id
 _symmetry_equiv_pos_as_xyz
  1  'x, y, z'
loop_
 _atom_site_type_symbol
 _atom_site_label
 _atom_site_symmetry_multiplicity
 _atom_site_fract_x
 _atom_site_fract_y
 _atom_site_fract_z
 _atom_site_occupancy
  Be  Be0  1  0.00000000  0.00000000  0.75000000  1
  Be  Be1  1  0.00000000  0.00000000  0.25000000  1
  B  B2  1  0.66666667  0.33333333  0.25000000  1
  Be  Be3  1  0.33333333  0.66666667  0.75000000  1
  Be  Be4  1  0.66666667  0.33333333  0.47727500  1
  Be  Be5  1  0.33333333  0.66666667  0.52272500  1
  Mo  Mo6  1  0.33333333  0.66666667  0.97727499  1
  Mo  Mo7  1  0.66666667  0.33333333  0.02272500  1
  Mo  Mo8  1  0.66666667  0.33333333  0.63476000  1
  Mo  Mo9  1  0.33333333  0.66666667  0.36524000  1
  Mo  Mo10  1  0.33333333  0.66666667  0.13476000  1
  Mo  Mo11  1  0.66666667  0.33333333  0.86524000  1
