# generated using pymatgen
data_Na7GdSi4
_symmetry_space_group_name_H-M   'P 1'
_cell_length_a   5.92082691
_cell_length_b   7.91616011
_cell_length_c   7.91616011
_cell_angle_alpha   120.00000000
_cell_angle_beta   90.00000000
_cell_angle_gamma   90.00000000
_symmetry_Int_Tables_number   1
_chemical_formula_structural   Na7GdSi4
_chemical_formula_sum   'Na7 Gd1 Si4'
_cell_volume   321.32323865
_cell_formula_units_Z   1
loop_
 _symmetry_equiv_pos_site_id
 _symmetry_equiv_pos_as_xyz
  1  'x, y, z'
loop_
 _atom_site_type_symbol
 _atom_site_label
 _atom_site_symmetry_multiplicity
 _atom_site_fract_x
 _atom_site_fract_y
 _atom_site_fract_z
 _atom_site_occupancy
  Na  Na0  1  -0.00000000  0.68305900  0.68305903  1
  Na  Na1  1  -0.00000000  0.31694100  0.00000001  1
  Na  Na2  1  1.00000001  0.00000000  0.31694101  1
  Na  Na3  1  0.50000001  0.34917700  0.34917702  1
  Na  Na4  1  0.50000001  0.65082300  0.00000002  1
  Na  Na5  1  0.50000001  1.00000000  0.65082304  1
  Gd  Gd6  1  0.71411901  0.00000000  -0.00000000  1
  Na  Na7  1  0.28588100  0.00000000  -0.00000000  1
  Si  Si8  1  0.78112901  0.66666667  0.33333336  1
  Si  Si9  1  0.21887100  0.66666667  0.33333336  1
  Si  Si10  1  0.21887100  0.33333333  0.66666669  1
  Si  Si11  1  0.78112901  0.33333333  0.66666669  1
