# generated using pymatgen
data_K2ZrF6
_symmetry_space_group_name_H-M   'P 1'
_cell_length_a   5.17475510
_cell_length_b   6.43988609
_cell_length_c   6.43988514
_cell_angle_alpha   120.00000763
_cell_angle_beta   90.00000000
_cell_angle_gamma   90.00000000
_symmetry_Int_Tables_number   1
_chemical_formula_structural   K2ZrF6
_chemical_formula_sum   'K2 Zr1 F6'
_cell_volume   185.85605153
_cell_formula_units_Z   1
loop_
 _symmetry_equiv_pos_site_id
 _symmetry_equiv_pos_as_xyz
  1  'x, y, z'
loop_
 _atom_site_type_symbol
 _atom_site_label
 _atom_site_symmetry_multiplicity
 _atom_site_fract_x
 _atom_site_fract_y
 _atom_site_fract_z
 _atom_site_occupancy
  K  K0  1  0.30566999  0.33333334  0.66666670  1
  K  K1  1  0.69432999  0.66666668  0.33333339  1
  Zr  Zr2  1  0.00000000  0.00000000  0.00000000  1
  F  F3  1  0.78500099  0.69908502  0.84954307  1
  F  F4  1  0.78500099  0.15045800  0.84954302  1
  F  F5  1  0.78500099  0.15045800  0.30091602  1
  F  F6  1  0.21499900  0.30091501  0.15045703  1
  F  F7  1  0.21499900  0.84954202  0.15045707  1
  F  F8  1  0.21499900  0.84954202  0.69908408  1
