# generated using pymatgen
data_CaNb(PbO2)2
_symmetry_space_group_name_H-M   'P 1'
_cell_length_a   3.95211005
_cell_length_b   3.95211005
_cell_length_c   9.68900394
_cell_angle_alpha   90.00000000
_cell_angle_beta   90.00000000
_cell_angle_gamma   90.00000000
_symmetry_Int_Tables_number   1
_chemical_formula_structural   CaNb(PbO2)2
_chemical_formula_sum   'Ca1 Nb1 Pb2 O4'
_cell_volume   151.33423718
_cell_formula_units_Z   1
loop_
 _symmetry_equiv_pos_site_id
 _symmetry_equiv_pos_as_xyz
  1  'x, y, z'
loop_
 _atom_site_type_symbol
 _atom_site_label
 _atom_site_symmetry_multiplicity
 _atom_site_fract_x
 _atom_site_fract_y
 _atom_site_fract_z
 _atom_site_occupancy
  Nb  Nb0  1  0.00000000  0.00000000  0.00000000  1
  Ca  Ca1  1  0.49999999  0.49999999  0.25752000  1
  Pb  Pb2  1  0.49999999  0.49999999  0.74248000  1
  Pb  Pb3  1  0.00000000  0.00000000  0.50000000  1
  O  O4  1  0.49999999  0.00000000  0.14313200  1
  O  O5  1  0.49999999  0.00000000  0.85686800  1
  O  O6  1  0.00000000  0.49999999  0.14313200  1
  O  O7  1  0.00000000  0.49999999  0.85686800  1
