# generated using pymatgen
data_Cd7SbS12
_symmetry_space_group_name_H-M   'P 1'
_cell_length_a   3.84281206
_cell_length_b   11.38224506
_cell_length_c   12.46611404
_cell_angle_alpha   116.74440002
_cell_angle_beta   90.00000000
_cell_angle_gamma   90.00000000
_symmetry_Int_Tables_number   1
_chemical_formula_structural   Cd7SbS12
_chemical_formula_sum   'Cd7 Sb1 S12'
_cell_volume   486.93476619
_cell_formula_units_Z   1
loop_
 _symmetry_equiv_pos_site_id
 _symmetry_equiv_pos_as_xyz
  1  'x, y, z'
loop_
 _atom_site_type_symbol
 _atom_site_label
 _atom_site_symmetry_multiplicity
 _atom_site_fract_x
 _atom_site_fract_y
 _atom_site_fract_z
 _atom_site_occupancy
  Cd  Cd0  1  0.74999999  0.74226097  0.77629393  1
  Cd  Cd1  1  0.25000000  0.25773899  0.22370598  1
  Cd  Cd2  1  0.25000000  0.05110600  0.64314198  1
  Cd  Cd3  1  0.74999999  0.94889396  0.35685793  1
  Cd  Cd4  1  0.74999999  0.16843799  0.90632196  1
  Cd  Cd5  1  0.25000000  0.83156197  0.09367794  1
  Sb  Sb6  1  0.25000000  0.41009498  0.61241695  1
  Cd  Cd7  1  0.74999999  0.58990498  0.38758295  1
  S  S8  1  0.25000000  0.03812300  0.26447299  1
  S  S9  1  0.74999999  0.15536899  0.56765597  1
  S  S10  1  0.25000000  0.64120798  0.60330694  1
  S  S11  1  0.74999999  0.73835397  0.13150095  1
  S  S12  1  0.25000000  0.26164599  0.86849896  1
  S  S13  1  0.74999999  0.96187696  0.73552691  1
  S  S14  1  0.74999999  0.35879199  0.39669296  1
  S  S15  1  0.25000000  0.85706197  0.92294692  1
  S  S16  1  0.74999999  0.14293799  0.07705299  1
  S  S17  1  0.25000000  0.84463097  0.43234393  1
  S  S18  1  0.74999999  0.51339398  0.77858994  1
  S  S19  1  0.25000000  0.48660598  0.22140996  1
