# generated using pymatgen
data_Mg5Sn3
_symmetry_space_group_name_H-M   'P 1'
_cell_length_a   7.65639019
_cell_length_b   8.59308243
_cell_length_c   7.65639019
_cell_angle_alpha   63.54484177
_cell_angle_beta   90.00000000
_cell_angle_gamma   116.45516205
_symmetry_Int_Tables_number   1
_chemical_formula_structural   Mg5Sn3
_chemical_formula_sum   'Mg10 Sn6'
_cell_volume   391.18204195
_cell_formula_units_Z   2
loop_
 _symmetry_equiv_pos_site_id
 _symmetry_equiv_pos_as_xyz
  1  'x, y, z'
loop_
 _atom_site_type_symbol
 _atom_site_label
 _atom_site_symmetry_multiplicity
 _atom_site_fract_x
 _atom_site_fract_y
 _atom_site_fract_z
 _atom_site_occupancy
  Mg  Mg0  1  0.00000000  0.00000000  0.00000000  1
  Mg  Mg1  1  0.49999999  0.00000000  0.49999999  1
  Mg  Mg2  1  0.79927000  0.27590402  0.02336600  1
  Mg  Mg3  1  0.20073004  0.72409605  0.97663398  1
  Mg  Mg4  1  0.47663401  0.27590402  0.70072998  1
  Mg  Mg5  1  0.29927001  0.27590402  0.20072999  1
  Mg  Mg6  1  0.02336605  0.72409605  0.47663399  1
  Mg  Mg7  1  0.52336604  0.72409605  0.29926999  1
  Mg  Mg8  1  0.70073003  0.72409605  0.79926998  1
  Mg  Mg9  1  0.97663399  0.27590402  0.52336599  1
  Sn  Sn10  1  0.12380900  0.00000100  0.62380798  1
  Sn  Sn11  1  0.87619105  0.99999907  0.37619199  1
  Sn  Sn12  1  0.62380898  0.00000000  0.87619098  1
  Sn  Sn13  1  0.37619099  0.00000000  0.12380900  1
  Sn  Sn14  1  0.25000003  0.50000003  0.74999998  1
  Sn  Sn15  1  0.75000002  0.50000003  0.24999999  1
