# generated using pymatgen
data_VF3
_symmetry_space_group_name_H-M   'P 1'
_cell_length_a   4.97351503
_cell_length_b   4.98385191
_cell_length_c   6.09556627
_cell_angle_alpha   65.87825775
_cell_angle_beta   65.92687988
_cell_angle_gamma   89.99008179
_symmetry_Int_Tables_number   1
_chemical_formula_structural   VF3
_chemical_formula_sum   'V2 F6'
_cell_volume   123.36551164
_cell_formula_units_Z   2
loop_
 _symmetry_equiv_pos_site_id
 _symmetry_equiv_pos_as_xyz
  1  'x, y, z'
loop_
 _atom_site_type_symbol
 _atom_site_label
 _atom_site_symmetry_multiplicity
 _atom_site_fract_x
 _atom_site_fract_y
 _atom_site_fract_z
 _atom_site_occupancy
  V  V0  1  0.24627704  0.74833102  0.50146102  1
  V  V1  1  0.49658303  0.50062001  0.00215699  1
  F  F2  1  0.99698801  0.00039700  0.00227998  1
  F  F3  1  0.74831302  0.24818801  0.50170701  1
  F  F4  1  0.74529205  0.74921902  0.50112701  1
  F  F5  1  0.24507701  0.24040901  0.50831402  1
  F  F6  1  0.49854200  0.00378300  0.99952003  1
  F  F7  1  0.99579903  0.49944101  0.00268698  1
