# generated using pymatgen
data_Li3Nb3(CoO4)2
_symmetry_space_group_name_H-M   'P 1'
_cell_length_a   5.77895594
_cell_length_b   5.77895594
_cell_length_c   6.75981283
_cell_angle_alpha   115.30580139
_cell_angle_beta   115.30580139
_cell_angle_gamma   90.00000000
_symmetry_Int_Tables_number   1
_chemical_formula_structural   Li3Nb3(CoO4)2
_chemical_formula_sum   'Li3 Nb3 Co2 O8'
_cell_volume   179.83514936
_cell_formula_units_Z   1
loop_
 _symmetry_equiv_pos_site_id
 _symmetry_equiv_pos_as_xyz
  1  'x, y, z'
loop_
 _atom_site_type_symbol
 _atom_site_label
 _atom_site_symmetry_multiplicity
 _atom_site_fract_x
 _atom_site_fract_y
 _atom_site_fract_z
 _atom_site_occupancy
  Li  Li0  1  0.53287000  0.03287000  0.72594596  1
  Li  Li1  1  0.03286999  0.19307600  0.72594597  1
  Li  Li2  1  0.69307599  0.53287000  0.72594594  1
  Nb  Nb3  1  0.96712998  0.80692400  0.27405394  1
  Nb  Nb4  1  0.19307598  0.69307600  0.72594595  1
  Nb  Nb5  1  0.46712997  0.96712999  0.27405395  1
  Co  Co6  1  0.80692399  0.30692400  0.27405396  1
  Co  Co7  1  0.30692399  0.46713000  0.27405397  1
  O  O8  1  0.00000000  0.00000000  0.00000000  1
  O  O9  1  0.49999999  0.50000000  -0.00000003  1
  O  O10  1  0.24999999  0.25000000  0.49999997  1
  O  O11  1  0.74999998  0.75000000  0.49999994  1
  O  O12  1  0.61491598  0.88508399  0.99999992  1
  O  O13  1  0.11491598  0.61491600  -0.00000002  1
  O  O14  1  0.88508399  0.38508400  -0.00000003  1
  O  O15  1  0.38508400  0.11491600  -0.00000001  1
