# generated using pymatgen
data_LiCuO
_symmetry_space_group_name_H-M   'P 1'
_cell_length_a   4.40968418
_cell_length_b   4.78461409
_cell_length_c   4.78461361
_cell_angle_alpha   120.00000000
_cell_angle_beta   90.00000000
_cell_angle_gamma   90.00000000
_symmetry_Int_Tables_number   1
_chemical_formula_structural   LiCuO
_chemical_formula_sum   'Li3 Cu3 O3'
_cell_volume   87.42424777
_cell_formula_units_Z   3
loop_
 _symmetry_equiv_pos_site_id
 _symmetry_equiv_pos_as_xyz
  1  'x, y, z'
loop_
 _atom_site_type_symbol
 _atom_site_label
 _atom_site_symmetry_multiplicity
 _atom_site_fract_x
 _atom_site_fract_y
 _atom_site_fract_z
 _atom_site_occupancy
  Li  Li0  1  0.25348099  0.00000000  0.67372402  1
  Li  Li1  1  0.25348099  0.32627599  0.32627600  1
  Li  Li2  1  0.25348099  0.67372398  -0.00000002  1
  Cu  Cu3  1  0.74651897  0.32627599  -0.00000001  1
  Cu  Cu4  1  0.74651897  0.00000000  0.32627601  1
  Cu  Cu5  1  0.74651897  0.67372398  0.67372400  1
  O  O6  1  0.00000000  0.00000000  0.00000000  1
  O  O7  1  0.49999998  0.33333332  0.66666668  1
  O  O8  1  0.49999998  0.66666664  0.33333332  1
