# generated using pymatgen
data_Yb2AlB2C5
_symmetry_space_group_name_H-M   'P 1'
_cell_length_a   3.57096291
_cell_length_b   5.35165024
_cell_length_c   5.35165024
_cell_angle_alpha   90.00000000
_cell_angle_beta   90.00000000
_cell_angle_gamma   90.00000000
_symmetry_Int_Tables_number   1
_chemical_formula_structural   Yb2AlB2C5
_chemical_formula_sum   'Yb2 Al1 B2 C5'
_cell_volume   102.27294994
_cell_formula_units_Z   1
loop_
 _symmetry_equiv_pos_site_id
 _symmetry_equiv_pos_as_xyz
  1  'x, y, z'
loop_
 _atom_site_type_symbol
 _atom_site_label
 _atom_site_symmetry_multiplicity
 _atom_site_fract_x
 _atom_site_fract_y
 _atom_site_fract_z
 _atom_site_occupancy
  Yb  Yb0  1  0.00000000  0.49999998  0.49999998  1
  Yb  Yb1  1  0.00000000  0.00000000  0.00000000  1
  Al  Al2  1  0.50000001  0.13679999  0.63679997  1
  B  B3  1  0.50000001  0.63679997  0.86319996  1
  B  B4  1  0.50000001  0.86319996  0.36319998  1
  C  C5  1  0.50000001  0.36319998  0.13679999  1
  C  C6  1  0.50000001  0.83821096  0.66178897  1
  C  C7  1  0.50000001  0.33821098  0.83821096  1
  C  C8  1  0.50000001  0.66178897  0.16178899  1
  C  C9  1  0.50000001  0.16178899  0.33821098  1
