# generated using pymatgen
data_Ca2EuS4
_symmetry_space_group_name_H-M   'P 1'
_cell_length_a   7.41282320
_cell_length_b   7.41282320
_cell_length_c   7.41282320
_cell_angle_alpha   71.06200409
_cell_angle_beta   70.26151276
_cell_angle_gamma   109.73848724
_symmetry_Int_Tables_number   1
_chemical_formula_structural   Ca2EuS4
_chemical_formula_sum   'Ca4 Eu2 S8'
_cell_volume   313.54571875
_cell_formula_units_Z   2
loop_
 _symmetry_equiv_pos_site_id
 _symmetry_equiv_pos_as_xyz
  1  'x, y, z'
loop_
 _atom_site_type_symbol
 _atom_site_label
 _atom_site_symmetry_multiplicity
 _atom_site_fract_x
 _atom_site_fract_y
 _atom_site_fract_z
 _atom_site_occupancy
  Ca  Ca0  1  -0.00000004  0.49999997  0.50000000  1
  Ca  Ca1  1  0.49999992  0.74999995  0.75000002  1
  Ca  Ca2  1  0.87819594  0.25319598  0.12500004  1
  Ca  Ca3  1  0.62180393  0.62499996  0.25319603  1
  Eu  Eu4  1  0.12180392  0.99680394  0.62500002  1
  Eu  Eu5  1  0.37819597  0.12499999  0.99680399  1
  S  S6  1  0.10411594  0.72965395  0.01805503  1
  S  S7  1  0.60411596  0.23194498  0.52034601  1
  S  S8  1  0.25229096  0.37446198  0.72965400  1
  S  S9  1  0.39588392  0.87553794  0.37217103  1
  S  S10  1  0.24770896  0.37217098  0.23194501  1
  S  S11  1  0.75229093  0.52034597  0.87553802  1
  S  S12  1  0.74770897  0.01805500  0.87782900  1
  S  S13  1  0.89588390  0.87782894  0.37446205  1
