# generated using pymatgen
data_Ba(CuSe2)2
_symmetry_space_group_name_H-M   'P 1'
_cell_length_a   6.66956997
_cell_length_b   6.77692509
_cell_length_c   8.79097176
_cell_angle_alpha   90.00000000
_cell_angle_beta   72.76459503
_cell_angle_gamma   90.00000000
_symmetry_Int_Tables_number   1
_chemical_formula_structural   Ba(CuSe2)2
_chemical_formula_sum   'Ba2 Cu4 Se8'
_cell_volume   379.50209670
_cell_formula_units_Z   2
loop_
 _symmetry_equiv_pos_site_id
 _symmetry_equiv_pos_as_xyz
  1  'x, y, z'
loop_
 _atom_site_type_symbol
 _atom_site_label
 _atom_site_symmetry_multiplicity
 _atom_site_fract_x
 _atom_site_fract_y
 _atom_site_fract_z
 _atom_site_occupancy
  Ba  Ba0  1  0.27034500  0.01098700  0.43355600  1
  Ba  Ba1  1  0.72965500  0.51098699  0.56644400  1
  Cu  Cu2  1  0.77206100  0.49501499  0.05181001  1
  Cu  Cu3  1  0.22793900  0.99501499  0.94818999  1
  Cu  Cu4  1  0.22298900  0.52664599  0.17967000  1
  Cu  Cu5  1  0.77701100  0.02664600  0.82033000  1
  Se  Se6  1  0.42415200  0.52861699  0.33766900  1
  Se  Se7  1  0.97928700  0.76426899  0.22550101  1
  Se  Se8  1  0.02117200  0.25718900  0.20913000  1
  Se  Se9  1  0.57921300  0.08427700  0.07007001  1
  Se  Se10  1  0.42078700  0.58427699  0.92992999  1
  Se  Se11  1  0.97882800  0.75718899  0.79087000  1
  Se  Se12  1  0.02071300  0.26426900  0.77449899  1
  Se  Se13  1  0.57584800  0.02861700  0.66233100  1
