# generated using pymatgen
data_Li4Ni3O7
_symmetry_space_group_name_H-M   'P 1'
_cell_length_a   5.35293913
_cell_length_b   6.11243582
_cell_length_c   5.43263197
_cell_angle_alpha   64.77153778
_cell_angle_beta   87.62268829
_cell_angle_gamma   114.79920197
_symmetry_Int_Tables_number   1
_chemical_formula_structural   Li4Ni3O7
_chemical_formula_sum   'Li4 Ni3 O7'
_cell_volume   140.62133867
_cell_formula_units_Z   1
loop_
 _symmetry_equiv_pos_site_id
 _symmetry_equiv_pos_as_xyz
  1  'x, y, z'
loop_
 _atom_site_type_symbol
 _atom_site_label
 _atom_site_symmetry_multiplicity
 _atom_site_fract_x
 _atom_site_fract_y
 _atom_site_fract_z
 _atom_site_occupancy
  Li  Li0  1  0.49999998  0.49999999  0.50000001  1
  Li  Li1  1  0.49999999  0.00000000  0.49999997  1
  Li  Li2  1  0.00000000  0.00000000  0.49999999  1
  Li  Li3  1  0.49999998  0.49999999  0.00000002  1
  Ni  Ni4  1  0.16689498  0.83378998  0.08310505  1
  Ni  Ni5  1  0.83310498  0.16621000  0.91689496  1
  Ni  Ni6  1  0.70678198  0.32664799  0.15966999  1
  O  O7  1  0.88013397  0.67335198  0.48631801  1
  O  O8  1  0.49726497  0.83673098  0.27986204  1
  O  O9  1  0.16053399  0.16326900  0.11659300  1
  O  O10  1  0.83946596  0.83673098  0.88340701  1
  O  O11  1  0.50273499  0.16326900  0.72013797  1
  O  O12  1  0.11986599  0.32664799  0.51368201  1
  O  O13  1  0.29321798  0.67335198  0.84033002  1
