# generated using pymatgen
data_Li2CoO4
_symmetry_space_group_name_H-M   'P 1'
_cell_length_a   5.79234076
_cell_length_b   5.79234505
_cell_length_c   5.92851400
_cell_angle_alpha   118.53356171
_cell_angle_beta   118.13333893
_cell_angle_gamma   91.63272095
_symmetry_Int_Tables_number   1
_chemical_formula_structural   Li2CoO4
_chemical_formula_sum   'Li4 Co2 O8'
_cell_volume   145.60426579
_cell_formula_units_Z   2
loop_
 _symmetry_equiv_pos_site_id
 _symmetry_equiv_pos_as_xyz
  1  'x, y, z'
loop_
 _atom_site_type_symbol
 _atom_site_label
 _atom_site_symmetry_multiplicity
 _atom_site_fract_x
 _atom_site_fract_y
 _atom_site_fract_z
 _atom_site_occupancy
  Li  Li0  1  0.38101199  0.13100200  0.25001400  1
  Li  Li1  1  0.61898897  0.86899799  0.74998603  1
  Li  Li2  1  0.99999797  0.49999699  0.99999901  1
  Li  Li3  1  -0.00000003  0.99999899  0.50000006  1
  Co  Co4  1  0.49999998  0.50000599  0.00000400  1
  Co  Co5  1  -0.00000001  0.49999599  0.49999604  1
  O  O6  1  0.78959698  0.26719200  0.53574100  1
  O  O7  1  0.23144199  0.25385000  0.96426004  1
  O  O8  1  0.76855797  0.74615099  0.03574000  1
  O  O9  1  0.21040298  0.73280599  0.46425804  1
  O  O10  1  0.25223598  0.71644199  0.99155405  1
  O  O11  1  0.22490299  0.26068700  0.50846802  1
  O  O12  1  0.74776198  0.28356000  0.00844598  1
  O  O13  1  0.77509797  0.73931099  0.49153201  1
