# generated using pymatgen
data_Ga3Ni2
_symmetry_space_group_name_H-M   'P 1'
_cell_length_a   5.17827511
_cell_length_b   5.19082975
_cell_length_c   9.00301647
_cell_angle_alpha   105.20044708
_cell_angle_beta   90.09127045
_cell_angle_gamma   99.74886322
_symmetry_Int_Tables_number   1
_chemical_formula_structural   Ga3Ni2
_chemical_formula_sum   'Ga9 Ni6'
_cell_volume   229.88901536
_cell_formula_units_Z   3
loop_
 _symmetry_equiv_pos_site_id
 _symmetry_equiv_pos_as_xyz
  1  'x, y, z'
loop_
 _atom_site_type_symbol
 _atom_site_label
 _atom_site_symmetry_multiplicity
 _atom_site_fract_x
 _atom_site_fract_y
 _atom_site_fract_z
 _atom_site_occupancy
  Ga  Ga0  1  0.81166098  0.27570000  0.63139001  1
  Ga  Ga1  1  0.18833900  0.72429999  0.36861001  1
  Ni  Ni2  1  0.14516400  0.45954799  0.87205298  1
  Ga  Ga3  1  0.85483598  0.54045199  0.12794704  1
  Ga  Ga4  1  0.00000000  0.00000000  0.00000000  1
  Ga  Ga5  1  0.50159599  0.09691100  0.87104698  1
  Ga  Ga6  1  0.49840399  0.90308899  0.12895304  1
  Ga  Ga7  1  0.56970999  0.32246000  0.37688101  1
  Ga  Ga8  1  0.43028999  0.67753999  0.62311901  1
  Ni  Ni9  1  0.93710698  0.81705299  0.67253303  1
  Ga  Ga10  1  0.06289300  0.18294700  0.32746699  1
  Ni  Ni11  1  0.28386099  0.15365100  0.60338699  1
  Ni  Ni12  1  0.71613899  0.84634899  0.39661303  1
  Ni  Ni13  1  0.66278599  0.61192599  0.86807400  1
  Ni  Ni14  1  0.33721399  0.38807399  0.13192602  1
