# generated using pymatgen
data_LiGaCu
_symmetry_space_group_name_H-M   'P 1'
_cell_length_a   4.07382822
_cell_length_b   4.07382774
_cell_length_c   4.64108992
_cell_angle_alpha   90.00000000
_cell_angle_beta   90.00000000
_cell_angle_gamma   120.00000000
_symmetry_Int_Tables_number   1
_chemical_formula_structural   LiGaCu
_chemical_formula_sum   'Li1 Ga1 Cu1'
_cell_volume   66.70463130
_cell_formula_units_Z   1
loop_
 _symmetry_equiv_pos_site_id
 _symmetry_equiv_pos_as_xyz
  1  'x, y, z'
loop_
 _atom_site_type_symbol
 _atom_site_label
 _atom_site_symmetry_multiplicity
 _atom_site_fract_x
 _atom_site_fract_y
 _atom_site_fract_z
 _atom_site_occupancy
  Li  Li0  1  0.33333326  0.66666661  0.50000001  1
  Ga  Ga1  1  0.00000000  0.00000000  0.00000000  1
  Cu  Cu2  1  0.66666660  0.33333330  -0.00000000  1
