# generated using pymatgen
data_LiPO5
_symmetry_space_group_name_H-M   'P 1'
_cell_length_a   5.15174103
_cell_length_b   5.16430140
_cell_length_c   7.29537964
_cell_angle_alpha   107.21215057
_cell_angle_beta   109.22434998
_cell_angle_gamma   96.40638733
_symmetry_Int_Tables_number   1
_chemical_formula_structural   LiPO5
_chemical_formula_sum   'Li2 P2 O10'
_cell_volume   170.29811450
_cell_formula_units_Z   2
loop_
 _symmetry_equiv_pos_site_id
 _symmetry_equiv_pos_as_xyz
  1  'x, y, z'
loop_
 _atom_site_type_symbol
 _atom_site_label
 _atom_site_symmetry_multiplicity
 _atom_site_fract_x
 _atom_site_fract_y
 _atom_site_fract_z
 _atom_site_occupancy
  Li  Li0  1  0.00000000  0.00000000  0.00000000  1
  Li  Li1  1  0.00000000  0.00000000  0.49999999  1
  P  P2  1  0.32784904  0.64591303  0.76429101  1
  P  P3  1  0.67215101  0.35408702  0.23570900  1
  O  O4  1  0.63510604  0.76544704  0.91921600  1
  O  O5  1  0.25817805  0.79152704  0.60178702  1
  O  O6  1  0.29493702  0.33473102  0.64989500  1
  O  O7  1  0.86849801  0.31636502  0.11187199  1
  O  O8  1  0.13150204  0.68363503  0.88812801  1
  O  O9  1  0.70506303  0.66526903  0.35010501  1
  O  O10  1  0.74182200  0.20847301  0.39821299  1
  O  O11  1  0.36489401  0.23455301  0.08078400  1
  O  O12  1  0.11698506  0.94238905  0.26478003  1
  O  O13  1  0.88301499  0.05761100  0.73521997  1
