# generated using pymatgen
data_La2Sn7
_symmetry_space_group_name_H-M   'P 1'
_cell_length_a   4.48572588
_cell_length_b   7.38169813
_cell_length_c   7.38169813
_cell_angle_alpha   120.00000000
_cell_angle_beta   90.00000000
_cell_angle_gamma   90.00000000
_symmetry_Int_Tables_number   1
_chemical_formula_structural   La2Sn7
_chemical_formula_sum   'La2 Sn7'
_cell_volume   211.67809795
_cell_formula_units_Z   1
loop_
 _symmetry_equiv_pos_site_id
 _symmetry_equiv_pos_as_xyz
  1  'x, y, z'
loop_
 _atom_site_type_symbol
 _atom_site_label
 _atom_site_symmetry_multiplicity
 _atom_site_fract_x
 _atom_site_fract_y
 _atom_site_fract_z
 _atom_site_occupancy
  La  La0  1  -0.00000000  0.99999998  0.56982399  1
  La  La1  1  -0.00000000  0.56982399  0.00000000  1
  Sn  Sn2  1  -0.00000000  0.43017599  0.43017599  1
  Sn  Sn3  1  0.50000001  0.99999998  0.24657400  1
  Sn  Sn4  1  0.50000001  0.24657400  0.00000000  1
  Sn  Sn5  1  0.50000001  0.75342599  0.75342599  1
  Sn  Sn6  1  0.00000000  0.00000000  0.00000000  1
  Sn  Sn7  1  0.50000001  0.33333333  0.66666666  1
  Sn  Sn8  1  0.50000001  0.66666666  0.33333333  1
