# generated using pymatgen
data_Ca2TiNiO6
_symmetry_space_group_name_H-M   'P 1'
_cell_length_a   5.48495436
_cell_length_b   5.48665142
_cell_length_c   5.48887348
_cell_angle_alpha   61.27295303
_cell_angle_beta   61.32071686
_cell_angle_gamma   61.29645157
_symmetry_Int_Tables_number   1
_chemical_formula_structural   Ca2TiNiO6
_chemical_formula_sum   'Ca2 Ti1 Ni1 O6'
_cell_volume   120.20615422
_cell_formula_units_Z   1
loop_
 _symmetry_equiv_pos_site_id
 _symmetry_equiv_pos_as_xyz
  1  'x, y, z'
loop_
 _atom_site_type_symbol
 _atom_site_label
 _atom_site_symmetry_multiplicity
 _atom_site_fract_x
 _atom_site_fract_y
 _atom_site_fract_z
 _atom_site_occupancy
  Ca  Ca0  1  0.24923599  0.24915301  0.24920300  1
  Ca  Ca1  1  0.75076396  0.75084604  0.75079799  1
  Ni  Ni2  1  0.50000197  0.49999703  0.50000299  1
  Ti  Ti3  1  0.99999398  0.00000800  0.99999497  1
  O  O4  1  0.25049397  0.81547104  0.68197999  1
  O  O5  1  0.81574296  0.68222504  0.25018600  1
  O  O6  1  0.68238998  0.25002001  0.81589998  1
  O  O7  1  0.18425999  0.31777302  0.74981498  1
  O  O8  1  0.31761197  0.74997904  0.18409900  1
  O  O9  1  0.74950598  0.18452701  0.31802099  1
