# generated using pymatgen
data_Li3HNO
_symmetry_space_group_name_H-M   'P 1'
_cell_length_a   4.05683804
_cell_length_b   4.05683804
_cell_length_c   5.88832998
_cell_angle_alpha   110.15013123
_cell_angle_beta   110.15013123
_cell_angle_gamma   90.00000000
_symmetry_Int_Tables_number   1
_chemical_formula_structural   Li3HNO
_chemical_formula_sum   'Li3 H1 N1 O1'
_cell_volume   84.63197801
_cell_formula_units_Z   1
loop_
 _symmetry_equiv_pos_site_id
 _symmetry_equiv_pos_as_xyz
  1  'x, y, z'
loop_
 _atom_site_type_symbol
 _atom_site_label
 _atom_site_symmetry_multiplicity
 _atom_site_fract_x
 _atom_site_fract_y
 _atom_site_fract_z
 _atom_site_occupancy
  Li  Li0  1  0.00000000  0.00000000  0.00000000  1
  Li  Li1  1  0.69071103  0.69071101  0.38142206  1
  Li  Li2  1  0.30928901  0.30928900  0.61857804  1
  N  N3  1  0.75000001  0.25000000  0.50000005  1
  O  O4  1  0.50000002  0.50000001  1.00000007  1
  H  H5  1  0.25000003  0.75000001  0.50000005  1
