# generated using pymatgen
data_Nd2Ge3
_symmetry_space_group_name_H-M   'P 1'
_cell_length_a   4.17089319
_cell_length_b   4.31354284
_cell_length_c   7.93153715
_cell_angle_alpha   105.77875519
_cell_angle_beta   105.24404907
_cell_angle_gamma   90.00000000
_symmetry_Int_Tables_number   1
_chemical_formula_structural   Nd2Ge3
_chemical_formula_sum   'Nd2 Ge3'
_cell_volume   132.09668985
_cell_formula_units_Z   1
loop_
 _symmetry_equiv_pos_site_id
 _symmetry_equiv_pos_as_xyz
  1  'x, y, z'
loop_
 _atom_site_type_symbol
 _atom_site_label
 _atom_site_symmetry_multiplicity
 _atom_site_fract_x
 _atom_site_fract_y
 _atom_site_fract_z
 _atom_site_occupancy
  Nd  Nd0  1  0.75034897  0.25034901  0.50069801  1
  Nd  Nd1  1  0.00031300  0.00031400  0.00062700  1
  Ge  Ge2  1  0.40838598  0.40838601  0.81677201  1
  Ge  Ge3  1  0.17844199  0.67844202  0.35688400  1
  Ge  Ge4  1  0.57750897  0.57750902  0.15501800  1
