# generated using pymatgen
data_Li6MnCoO6
_symmetry_space_group_name_H-M   'P 1'
_cell_length_a   4.01630116
_cell_length_b   6.34097004
_cell_length_c   6.59792948
_cell_angle_alpha   106.21138000
_cell_angle_beta   90.00000000
_cell_angle_gamma   108.46314240
_symmetry_Int_Tables_number   1
_chemical_formula_structural   Li6MnCoO6
_chemical_formula_sum   'Li6 Mn1 Co1 O6'
_cell_volume   152.32201844
_cell_formula_units_Z   1
loop_
 _symmetry_equiv_pos_site_id
 _symmetry_equiv_pos_as_xyz
  1  'x, y, z'
loop_
 _atom_site_type_symbol
 _atom_site_label
 _atom_site_symmetry_multiplicity
 _atom_site_fract_x
 _atom_site_fract_y
 _atom_site_fract_z
 _atom_site_occupancy
  Li  Li0  1  0.94292188  0.88584299  0.65073196  1
  Li  Li1  1  0.05707799  0.11415700  0.34926800  1
  Li  Li2  1  0.28936493  0.57872899  0.71457298  1
  Li  Li3  1  0.71063493  0.42127099  0.28542698  1
  Li  Li4  1  0.38646891  0.77293799  0.29113096  1
  Li  Li5  1  0.61353095  0.22706200  0.70886901  1
  Mn  Mn6  1  0.35084892  0.70169699  0.99925598  1
  Co  Co7  1  0.64915095  0.29830300  0.00074398  1
  O  O8  1  0.22679995  0.45359899  0.34367798  1
  O  O9  1  0.77319992  0.54640099  0.65632198  1
  O  O10  1  0.11456597  0.22913300  0.67353300  1
  O  O11  1  0.88543389  0.77086699  0.32646696  1
  O  O12  1  0.43970890  0.87941699  0.64160396  1
  O  O13  1  0.56029097  0.12058300  0.35839600  1
