# generated using pymatgen
data_NaVO4
_symmetry_space_group_name_H-M   'P 1'
_cell_length_a   6.05911589
_cell_length_b   6.05911589
_cell_length_c   6.05911589
_cell_angle_alpha   105.91974640
_cell_angle_beta   105.91974640
_cell_angle_gamma   116.83473206
_symmetry_Int_Tables_number   1
_chemical_formula_structural   NaVO4
_chemical_formula_sum   'Na2 V2 O8'
_cell_volume   169.09316564
_cell_formula_units_Z   2
loop_
 _symmetry_equiv_pos_site_id
 _symmetry_equiv_pos_as_xyz
  1  'x, y, z'
loop_
 _atom_site_type_symbol
 _atom_site_label
 _atom_site_symmetry_multiplicity
 _atom_site_fract_x
 _atom_site_fract_y
 _atom_site_fract_z
 _atom_site_occupancy
  Na  Na0  1  0.49999994  0.49999997  -0.00000010  1
  Na  Na1  1  0.24999990  0.74999995  0.49999990  1
  V  V2  1  0.74999997  0.24999998  0.49999993  1
  V  V3  1  0.00000000  0.00000000  0.00000000  1
  O  O4  1  0.17173095  0.35473598  0.18300595  1
  O  O5  1  0.10473595  0.42173097  0.68300496  1
  O  O6  1  0.73872495  0.42172997  0.31699391  1
  O  O7  1  0.17173087  0.98872593  0.81699489  1
  O  O8  1  0.64526390  0.82826894  0.81699488  1
  O  O9  1  0.57826889  0.89526394  0.31699386  1
  O  O10  1  0.57826897  0.26127398  0.68300495  1
  O  O11  1  0.01127489  0.82826994  0.18300590  1
