# generated using pymatgen
data_Li4Mg2Ag
_symmetry_space_group_name_H-M   'P 1'
_cell_length_a   4.74185181
_cell_length_b   4.74185181
_cell_length_c   7.36151981
_cell_angle_alpha   71.21184540
_cell_angle_beta   71.21184540
_cell_angle_gamma   60.00000763
_symmetry_Int_Tables_number   1
_chemical_formula_structural   Li4Mg2Ag
_chemical_formula_sum   'Li4 Mg2 Ag1'
_cell_volume   133.06712723
_cell_formula_units_Z   1
loop_
 _symmetry_equiv_pos_site_id
 _symmetry_equiv_pos_as_xyz
  1  'x, y, z'
loop_
 _atom_site_type_symbol
 _atom_site_label
 _atom_site_symmetry_multiplicity
 _atom_site_fract_x
 _atom_site_fract_y
 _atom_site_fract_z
 _atom_site_occupancy
  Li  Li0  1  0.49999998  0.49999997  0.50000003  1
  Li  Li1  1  0.64539698  0.64539696  0.06380902  1
  Li  Li2  1  0.21379099  0.21379099  0.35862701  1
  Li  Li3  1  0.78620897  0.78620895  0.64137304  1
  Mg  Mg4  1  0.35460299  0.35460298  0.93619103  1
  Mg  Mg5  1  0.92454197  0.92454194  0.22637403  1
  Ag  Ag6  1  0.07545800  0.07545799  0.77362602  1
