# generated using pymatgen
data_BaCa3Cl2O5
_symmetry_space_group_name_H-M   'P 1'
_cell_length_a   3.92580009
_cell_length_b   3.92580009
_cell_length_c   12.37206841
_cell_angle_alpha   99.12888336
_cell_angle_beta   99.12888336
_cell_angle_gamma   90.00000000
_symmetry_Int_Tables_number   1
_chemical_formula_structural   BaCa3Cl2O5
_chemical_formula_sum   'Ba1 Ca3 Cl2 O5'
_cell_volume   185.81551929
_cell_formula_units_Z   1
loop_
 _symmetry_equiv_pos_site_id
 _symmetry_equiv_pos_as_xyz
  1  'x, y, z'
loop_
 _atom_site_type_symbol
 _atom_site_label
 _atom_site_symmetry_multiplicity
 _atom_site_fract_x
 _atom_site_fract_y
 _atom_site_fract_z
 _atom_site_occupancy
  Ba  Ba0  1  0.00000000  0.00000000  0.00000000  1
  Ca  Ca1  1  0.74999999  0.25000000  0.50000003  1
  Ca  Ca2  1  0.87069199  0.37069200  0.74138405  1
  Ca  Ca3  1  0.12930801  0.62930799  0.25861602  1
  Cl  Cl4  1  0.62930799  0.12930800  0.25861602  1
  Cl  Cl5  1  0.37069201  0.87069199  0.74138405  1
  O  O6  1  0.25000001  0.74999999  0.50000003  1
  O  O7  1  0.41903000  0.41902999  0.83806004  1
  O  O8  1  0.19446700  0.19446700  0.38893402  1
  O  O9  1  0.80553300  0.80553299  0.61106605  1
  O  O10  1  0.58097000  0.58096999  0.16194003  1
