# generated using pymatgen
data_Tm2FeCo8P6Ru
_symmetry_space_group_name_H-M   'P 1'
_cell_length_a   3.89881110
_cell_length_b   8.90840054
_cell_length_c   8.93567181
_cell_angle_alpha   119.89908600
_cell_angle_beta   90.00000000
_cell_angle_gamma   90.00000000
_symmetry_Int_Tables_number   1
_chemical_formula_structural   Tm2FeCo8P6Ru
_chemical_formula_sum   'Tm2 Fe1 Co8 P6 Ru1'
_cell_volume   269.04845148
_cell_formula_units_Z   1
loop_
 _symmetry_equiv_pos_site_id
 _symmetry_equiv_pos_as_xyz
  1  'x, y, z'
loop_
 _atom_site_type_symbol
 _atom_site_label
 _atom_site_symmetry_multiplicity
 _atom_site_fract_x
 _atom_site_fract_y
 _atom_site_fract_z
 _atom_site_occupancy
  Tm  Tm0  1  -0.00000000  0.50000001  -0.00000004  1
  Tm  Tm1  1  0.49999999  0.83334001  0.66666664  1
  Fe  Fe2  1  0.49999999  0.16666000  0.33333334  1
  Co  Co3  1  0.49999999  0.18473400  -0.00000001  1
  Co  Co4  1  0.49999999  0.49980501  0.68477000  1
  Co  Co5  1  0.49999999  0.81503501  0.31522996  1
  Co  Co6  1  0.49999999  0.81526601  -0.00000006  1
  Co  Co7  1  0.49999999  0.50019501  0.31522998  1
  Co  Co8  1  0.49999999  0.18496500  0.68477002  1
  Co  Co9  1  0.00000000  0.00000000  0.00000000  1
  Co  Co10  1  -0.00000000  0.50000001  0.49999999  1
  P  P11  1  0.00000000  0.00000000  0.50000003  1
  P  P12  1  -0.00000000  0.68120701  0.36241397  1
  P  P13  1  -0.00000000  0.13772600  0.81905503  1
  P  P14  1  -0.00000000  0.68132901  0.81905499  1
  Ru  Ru15  1  -0.00000000  0.31879300  0.63758601  1
  P  P16  1  -0.00000000  0.31867100  0.18094499  1
  P  P17  1  -0.00000000  0.86227401  0.18094494  1
