# generated using pymatgen
data_Li2Co2S3
_symmetry_space_group_name_H-M   'P 1'
_cell_length_a   3.39530611
_cell_length_b   6.14824533
_cell_length_c   6.61348391
_cell_angle_alpha   115.79444122
_cell_angle_beta   104.87408447
_cell_angle_gamma   90.00000000
_symmetry_Int_Tables_number   1
_chemical_formula_structural   Li2Co2S3
_chemical_formula_sum   'Li2 Co2 S3'
_cell_volume   119.14279821
_cell_formula_units_Z   1
loop_
 _symmetry_equiv_pos_site_id
 _symmetry_equiv_pos_as_xyz
  1  'x, y, z'
loop_
 _atom_site_type_symbol
 _atom_site_label
 _atom_site_symmetry_multiplicity
 _atom_site_fract_x
 _atom_site_fract_y
 _atom_site_fract_z
 _atom_site_occupancy
  Li  Li0  1  0.74377493  0.68538399  0.48754997  1
  Li  Li1  1  0.25622497  0.31461600  0.51244999  1
  Co  Co2  1  0.00000000  0.00000000  0.00000000  1
  Co  Co3  1  0.63545992  0.97573098  0.27091998  1
  S  S4  1  0.36453998  0.02426900  0.72907998  1
  S  S5  1  0.89727593  0.55741899  0.79455196  1
  S  S6  1  0.10272397  0.44258099  0.20544799  1
