# generated using pymatgen
data_Li3V2O
_symmetry_space_group_name_H-M   'P 1'
_cell_length_a   5.92316008
_cell_length_b   7.03583050
_cell_length_c   7.03583050
_cell_angle_alpha   79.79441833
_cell_angle_beta   65.10679626
_cell_angle_gamma   65.10679626
_symmetry_Int_Tables_number   1
_chemical_formula_structural   Li3V2O
_chemical_formula_sum   'Li3 V2 O1'
_cell_volume   241.26190180
_cell_formula_units_Z   1
loop_
 _symmetry_equiv_pos_site_id
 _symmetry_equiv_pos_as_xyz
  1  'x, y, z'
loop_
 _atom_site_type_symbol
 _atom_site_label
 _atom_site_symmetry_multiplicity
 _atom_site_fract_x
 _atom_site_fract_y
 _atom_site_fract_z
 _atom_site_occupancy
  V  V0  1  0.75000002  0.49999999  0.50000003  1
  Li  Li1  1  0.25000004  0.49999999  0.50000000  1
  Li  Li2  1  0.86210701  0.49999999  0.77578603  1
  Li  Li3  1  0.36210606  0.77578698  0.49999999  1
  O  O4  1  0.13789304  0.49999999  0.22421399  1
  V  V5  1  0.63789400  0.22421299  0.50000003  1
