# generated using pymatgen
data_Eu2H2Pb
_symmetry_space_group_name_H-M   'P 1'
_cell_length_a   4.24309206
_cell_length_b   4.24309206
_cell_length_c   4.24309206
_cell_angle_alpha   90.00000000
_cell_angle_beta   90.00000000
_cell_angle_gamma   90.00000000
_symmetry_Int_Tables_number   1
_chemical_formula_structural   Eu2H2Pb
_chemical_formula_sum   'Eu2 H2 Pb1'
_cell_volume   76.39190910
_cell_formula_units_Z   1
loop_
 _symmetry_equiv_pos_site_id
 _symmetry_equiv_pos_as_xyz
  1  'x, y, z'
loop_
 _atom_site_type_symbol
 _atom_site_label
 _atom_site_symmetry_multiplicity
 _atom_site_fract_x
 _atom_site_fract_y
 _atom_site_fract_z
 _atom_site_occupancy
  Eu  Eu0  1  0.49999999  0.00000000  -0.00000000  1
  Eu  Eu1  1  0.00000000  0.49999999  0.00000000  1
  Pb  Pb2  1  0.00000000  0.00000000  0.49999999  1
  H  H3  1  0.49999999  0.49999999  0.49999999  1
  H  H4  1  0.00000000  0.00000000  0.00000000  1
