# generated using pymatgen
data_Li
_symmetry_space_group_name_H-M   'P 1'
_cell_length_a   3.95991731
_cell_length_b   3.95991731
_cell_length_c   6.92061996
_cell_angle_alpha   73.37566376
_cell_angle_beta   73.37566376
_cell_angle_gamma   60.00001144
_symmetry_Int_Tables_number   1
_chemical_formula_structural   Li
_chemical_formula_sum   Li4
_cell_volume   88.70622199
_cell_formula_units_Z   4
loop_
 _symmetry_equiv_pos_site_id
 _symmetry_equiv_pos_as_xyz
  1  'x, y, z'
loop_
 _atom_site_type_symbol
 _atom_site_label
 _atom_site_symmetry_multiplicity
 _atom_site_fract_x
 _atom_site_fract_y
 _atom_site_fract_z
 _atom_site_occupancy
  Li  Li0  1  0.00531900  0.00531900  0.98404298  1
  Li  Li1  1  0.49538801  0.49538800  0.51383601  1
  Li  Li2  1  0.12581200  0.12581200  0.62256399  1
  Li  Li3  1  0.62348002  0.62348000  0.12956002  1
