# generated using pymatgen
data_CeGa2Ni
_symmetry_space_group_name_H-M   'P 1'
_cell_length_a   4.03461790
_cell_length_b   5.44774294
_cell_length_c   6.82186413
_cell_angle_alpha   90.00000000
_cell_angle_beta   90.00000000
_cell_angle_gamma   111.73423004
_symmetry_Int_Tables_number   1
_chemical_formula_structural   CeGa2Ni
_chemical_formula_sum   'Ce2 Ga4 Ni2'
_cell_volume   139.28245932
_cell_formula_units_Z   2
loop_
 _symmetry_equiv_pos_site_id
 _symmetry_equiv_pos_as_xyz
  1  'x, y, z'
loop_
 _atom_site_type_symbol
 _atom_site_label
 _atom_site_symmetry_multiplicity
 _atom_site_fract_x
 _atom_site_fract_y
 _atom_site_fract_z
 _atom_site_occupancy
  Ce  Ce0  1  0.06239100  0.12478200  0.25000000  1
  Ce  Ce1  1  0.93760899  0.87521798  0.74999999  1
  Ga  Ga2  1  0.65535801  0.31071599  0.55378299  1
  Ga  Ga3  1  0.34464199  0.68928398  0.05378300  1
  Ga  Ga4  1  0.34464199  0.68928398  0.44621699  1
  Ga  Ga5  1  0.65535801  0.31071599  0.94621698  1
  Ni  Ni6  1  0.21439699  0.42879399  0.74999999  1
  Ni  Ni7  1  0.78560300  0.57120599  0.25000000  1
