# generated using pymatgen
data_EuS2
_symmetry_space_group_name_H-M   'P 1'
_cell_length_a   4.67993498
_cell_length_b   7.38932800
_cell_length_c   7.79719591
_cell_angle_alpha   90.00000000
_cell_angle_beta   90.00000000
_cell_angle_gamma   90.00000000
_symmetry_Int_Tables_number   1
_chemical_formula_structural   EuS2
_chemical_formula_sum   'Eu4 S8'
_cell_volume   269.63931199
_cell_formula_units_Z   4
loop_
 _symmetry_equiv_pos_site_id
 _symmetry_equiv_pos_as_xyz
  1  'x, y, z'
loop_
 _atom_site_type_symbol
 _atom_site_label
 _atom_site_symmetry_multiplicity
 _atom_site_fract_x
 _atom_site_fract_y
 _atom_site_fract_z
 _atom_site_occupancy
  Eu  Eu0  1  0.99446700  0.36623300  0.45916201  1
  Eu  Eu1  1  0.51057800  0.83245500  0.28792700  1
  Eu  Eu2  1  0.48942200  0.33245500  0.21207300  1
  Eu  Eu3  1  0.00553300  0.86623300  0.04083800  1
  S  S4  1  0.49446700  0.13376700  0.54083801  1
  S  S5  1  0.01057800  0.66754500  0.71207301  1
  S  S6  1  0.98942200  0.16754500  0.78792701  1
  S  S7  1  0.50553300  0.63376700  0.95916201  1
  S  S8  1  0.50320300  0.04492300  0.01590700  1
  S  S9  1  0.49679700  0.54492300  0.48409301  1
  S  S10  1  0.00320300  0.45507700  0.98409301  1
  S  S11  1  0.99679700  0.95507700  0.51590701  1
