# generated using pymatgen
data_Li2B3O5
_symmetry_space_group_name_H-M   'P 1'
_cell_length_a   4.74654150
_cell_length_b   4.76114798
_cell_length_c   5.87191296
_cell_angle_alpha   66.21366119
_cell_angle_beta   66.19802856
_cell_angle_gamma   60.12996674
_symmetry_Int_Tables_number   1
_chemical_formula_structural   Li2B3O5
_chemical_formula_sum   'Li2 B3 O5'
_cell_volume   101.80278618
_cell_formula_units_Z   1
loop_
 _symmetry_equiv_pos_site_id
 _symmetry_equiv_pos_as_xyz
  1  'x, y, z'
loop_
 _atom_site_type_symbol
 _atom_site_label
 _atom_site_symmetry_multiplicity
 _atom_site_fract_x
 _atom_site_fract_y
 _atom_site_fract_z
 _atom_site_occupancy
  Li  Li0  1  0.99999799  0.00000100  0.00000094  1
  Li  Li1  1  0.50000099  0.49999998  0.49999898  1
  B  B2  1  0.75013998  0.75007997  0.74990697  1
  B  B3  1  0.24985999  0.24991999  0.25009299  1
  B  B4  1  0.02367899  0.75014097  0.75003801  1
  O  O5  1  0.47680299  0.02174700  0.75023096  1
  O  O6  1  0.74853598  0.47842998  0.74949396  1
  O  O7  1  0.97632099  0.24985899  0.24996095  1
  O  O8  1  0.52319698  0.97825295  0.24977000  1
  O  O9  1  0.25146399  0.52156998  0.25050600  1
