# generated using pymatgen
data_EuTi2Se3
_symmetry_space_group_name_H-M   'P 1'
_cell_length_a   4.03746414
_cell_length_b   7.08947277
_cell_length_c   10.30500603
_cell_angle_alpha   90.00000000
_cell_angle_beta   90.00000000
_cell_angle_gamma   106.54394531
_symmetry_Int_Tables_number   1
_chemical_formula_structural   EuTi2Se3
_chemical_formula_sum   'Eu2 Ti4 Se6'
_cell_volume   282.75417348
_cell_formula_units_Z   2
loop_
 _symmetry_equiv_pos_site_id
 _symmetry_equiv_pos_as_xyz
  1  'x, y, z'
loop_
 _atom_site_type_symbol
 _atom_site_label
 _atom_site_symmetry_multiplicity
 _atom_site_fract_x
 _atom_site_fract_y
 _atom_site_fract_z
 _atom_site_occupancy
  Eu  Eu0  1  0.74421198  0.48842400  0.75000000  1
  Eu  Eu1  1  0.25578800  0.51157600  0.25000000  1
  Ti  Ti2  1  0.00000000  0.00000000  0.50000000  1
  Ti  Ti3  1  0.00000000  0.00000000  0.00000000  1
  Ti  Ti4  1  0.46740400  0.93480799  0.75000000  1
  Ti  Ti5  1  0.53259598  0.06519200  0.25000000  1
  Se  Se6  1  0.36848100  0.73696199  0.56418500  1
  Se  Se7  1  0.63151898  0.26303800  0.43581500  1
  Se  Se8  1  0.36848100  0.73696199  0.93581500  1
  Se  Se9  1  0.63151898  0.26303800  0.06418500  1
  Se  Se10  1  0.06579900  0.13159800  0.75000000  1
  Se  Se11  1  0.93420098  0.86840199  0.25000000  1
