# generated using pymatgen
data_CuS3
_symmetry_space_group_name_H-M   'P 1'
_cell_length_a   3.64097643
_cell_length_b   3.64097643
_cell_length_c   6.63669920
_cell_angle_alpha   74.07931519
_cell_angle_beta   74.07931519
_cell_angle_gamma   59.99999237
_symmetry_Int_Tables_number   1
_chemical_formula_structural   CuS3
_chemical_formula_sum   'Cu1 S3'
_cell_volume   72.27052564
_cell_formula_units_Z   1
loop_
 _symmetry_equiv_pos_site_id
 _symmetry_equiv_pos_as_xyz
  1  'x, y, z'
loop_
 _atom_site_type_symbol
 _atom_site_label
 _atom_site_symmetry_multiplicity
 _atom_site_fract_x
 _atom_site_fract_y
 _atom_site_fract_z
 _atom_site_occupancy
  Cu  Cu0  1  0.50000005  0.50000001  0.49999996  1
  S  S1  1  0.00000000  0.00000000  0.00000000  1
  S  S2  1  0.89394909  0.89394901  0.31815293  1
  S  S3  1  0.10605101  0.10605100  0.68184699  1
