# generated using pymatgen
data_Ti3Co7
_symmetry_space_group_name_H-M   'P 1'
_cell_length_a   3.17039609
_cell_length_b   9.28116894
_cell_length_c   9.28116894
_cell_angle_alpha   90.00000000
_cell_angle_beta   90.00000000
_cell_angle_gamma   90.00000000
_symmetry_Int_Tables_number   1
_chemical_formula_structural   Ti3Co7
_chemical_formula_sum   'Ti6 Co14'
_cell_volume   273.09822621
_cell_formula_units_Z   2
loop_
 _symmetry_equiv_pos_site_id
 _symmetry_equiv_pos_as_xyz
  1  'x, y, z'
loop_
 _atom_site_type_symbol
 _atom_site_label
 _atom_site_symmetry_multiplicity
 _atom_site_fract_x
 _atom_site_fract_y
 _atom_site_fract_z
 _atom_site_occupancy
  Ti  Ti0  1  0.00000000  0.67491100  0.17491100  1
  Ti  Ti1  1  0.00000000  0.32508900  0.82508901  1
  Ti  Ti2  1  0.00000000  0.17491100  0.32508900  1
  Ti  Ti3  1  0.00000000  0.82508901  0.67491100  1
  Ti  Ti4  1  0.00000000  0.00000000  0.00000000  1
  Ti  Ti5  1  0.00000000  0.50000000  0.50000000  1
  Co  Co6  1  0.00000000  0.12464600  0.62464600  1
  Co  Co7  1  0.00000000  0.87535401  0.37535400  1
  Co  Co8  1  0.00000000  0.62464600  0.87535401  1
  Co  Co9  1  0.00000000  0.37535400  0.12464600  1
  Co  Co10  1  0.49999999  0.21534300  0.07189800  1
  Co  Co11  1  0.49999999  0.78465701  0.92810201  1
  Co  Co12  1  0.49999999  0.07189800  0.78465701  1
  Co  Co13  1  0.49999999  0.71534300  0.42810200  1
  Co  Co14  1  0.49999999  0.92810201  0.21534300  1
  Co  Co15  1  0.49999999  0.28465700  0.57189800  1
  Co  Co16  1  0.49999999  0.57189800  0.71534300  1
  Co  Co17  1  0.49999999  0.42810200  0.28465700  1
  Co  Co18  1  0.49999999  0.50000000  -0.00000000  1
  Co  Co19  1  0.49999999  0.00000000  0.50000000  1
