# generated using pymatgen
data_Mg2Al
_symmetry_space_group_name_H-M   'P 1'
_cell_length_a   3.32980609
_cell_length_b   5.68581200
_cell_length_c   7.18993521
_cell_angle_alpha   108.09922791
_cell_angle_beta   90.00000000
_cell_angle_gamma   107.02668762
_symmetry_Int_Tables_number   1
_chemical_formula_structural   Mg2Al
_chemical_formula_sum   'Mg4 Al2'
_cell_volume   123.09649798
_cell_formula_units_Z   2
loop_
 _symmetry_equiv_pos_site_id
 _symmetry_equiv_pos_as_xyz
  1  'x, y, z'
loop_
 _atom_site_type_symbol
 _atom_site_label
 _atom_site_symmetry_multiplicity
 _atom_site_fract_x
 _atom_site_fract_y
 _atom_site_fract_z
 _atom_site_occupancy
  Mg  Mg0  1  0.84279797  0.68559597  0.15063598  1
  Mg  Mg1  1  0.49999999  0.00000000  0.00000000  1
  Mg  Mg2  1  0.15720199  0.31440399  0.84936401  1
  Mg  Mg3  1  0.82225797  0.64451597  0.68289399  1
  Al  Al4  1  0.49999999  0.00000000  0.50000001  1
  Al  Al5  1  0.17774199  0.35548398  0.31710599  1
