# generated using pymatgen
data_HfGa3
_symmetry_space_group_name_H-M   'P 1'
_cell_length_a   4.87952089
_cell_length_b   5.94963217
_cell_length_c   5.94963169
_cell_angle_alpha   120.00000000
_cell_angle_beta   90.00000000
_cell_angle_gamma   90.00000000
_symmetry_Int_Tables_number   1
_chemical_formula_structural   HfGa3
_chemical_formula_sum   'Hf2 Ga6'
_cell_volume   149.58498835
_cell_formula_units_Z   2
loop_
 _symmetry_equiv_pos_site_id
 _symmetry_equiv_pos_as_xyz
  1  'x, y, z'
loop_
 _atom_site_type_symbol
 _atom_site_label
 _atom_site_symmetry_multiplicity
 _atom_site_fract_x
 _atom_site_fract_y
 _atom_site_fract_z
 _atom_site_occupancy
  Hf  Hf0  1  0.25000001  0.66666663  0.33333330  1
  Hf  Hf1  1  0.75000002  0.33333332  0.66666664  1
  Ga  Ga2  1  0.75000002  0.83446196  0.16553696  1
  Ga  Ga3  1  0.75000002  0.33107498  0.16553698  1
  Ga  Ga4  1  0.75000002  0.83446196  0.66892395  1
  Ga  Ga5  1  0.25000001  0.16553799  0.83446298  1
  Ga  Ga6  1  0.25000001  0.66892497  0.83446296  1
  Ga  Ga7  1  0.25000001  0.16553799  0.33107599  1
