# generated using pymatgen
data_Li2TiO2
_symmetry_space_group_name_H-M   'P 1'
_cell_length_a   3.18054199
_cell_length_b   4.63834381
_cell_length_c   5.56607485
_cell_angle_alpha   114.62402344
_cell_angle_beta   106.60115814
_cell_angle_gamma   90.00000000
_symmetry_Int_Tables_number   1
_chemical_formula_structural   Li2TiO2
_chemical_formula_sum   'Li2 Ti1 O2'
_cell_volume   70.86347000
_cell_formula_units_Z   1
loop_
 _symmetry_equiv_pos_site_id
 _symmetry_equiv_pos_as_xyz
  1  'x, y, z'
loop_
 _atom_site_type_symbol
 _atom_site_label
 _atom_site_symmetry_multiplicity
 _atom_site_fract_x
 _atom_site_fract_y
 _atom_site_fract_z
 _atom_site_occupancy
  Li  Li0  1  0.32251698  0.32251701  0.64503399  1
  Li  Li1  1  0.67748295  0.67748301  0.35496596  1
  Ti  Ti2  1  0.00000000  0.00000000  0.00000000  1
  O  O3  1  0.63863098  0.13863100  0.27726198  1
  O  O4  1  0.36136895  0.86136902  0.72273797  1
