# generated using pymatgen
data_Al6SiB(POs)3
_symmetry_space_group_name_H-M   'P 1'
_cell_length_a   6.53865385
_cell_length_b   6.60924339
_cell_length_c   6.60983181
_cell_angle_alpha   91.67843628
_cell_angle_beta   91.62316132
_cell_angle_gamma   91.65694427
_symmetry_Int_Tables_number   1
_chemical_formula_structural   Al6SiB(POs)3
_chemical_formula_sum   'Al6 Si1 B1 P3 Os3'
_cell_volume   285.28392828
_cell_formula_units_Z   1
loop_
 _symmetry_equiv_pos_site_id
 _symmetry_equiv_pos_as_xyz
  1  'x, y, z'
loop_
 _atom_site_type_symbol
 _atom_site_label
 _atom_site_symmetry_multiplicity
 _atom_site_fract_x
 _atom_site_fract_y
 _atom_site_fract_z
 _atom_site_occupancy
  Al  Al0  1  0.59343401  0.45458401  0.77978903  1
  Al  Al1  1  0.44792901  0.77945802  0.59028604  1
  Al  Al2  1  0.78815902  0.59831801  0.44845404  1
  Al  Al3  1  0.40867901  0.55102001  0.21366403  1
  Al  Al4  1  0.54721501  0.21386800  0.41130302  1
  Al  Al5  1  0.20986400  0.41085501  0.54871201  1
  P  P6  1  0.75117502  0.37772801  0.12726504  1
  P  P7  1  0.37366801  0.12763400  0.75013001  1
  Os  Os8  1  0.79201302  0.79357702  0.78786305  1
  Si  Si9  1  0.20776600  0.21163400  0.21142901  1
  P  P10  1  0.86232302  0.27771901  0.60690403  1
  Os  Os11  1  0.27201400  0.60984701  0.86432602  1
  Os  Os12  1  0.61048101  0.86605902  0.27452605  1
  B  B13  1  0.13528000  0.72769801  0.38534903  1
