# generated using pymatgen
data_LuCo2
_symmetry_space_group_name_H-M   'P 1'
_cell_length_a   5.14131689
_cell_length_b   5.14131689
_cell_length_c   5.14131689
_cell_angle_alpha   60.00000000
_cell_angle_beta   60.00000000
_cell_angle_gamma   60.00000000
_symmetry_Int_Tables_number   1
_chemical_formula_structural   LuCo2
_chemical_formula_sum   'Lu2 Co4'
_cell_volume   96.09662185
_cell_formula_units_Z   2
loop_
 _symmetry_equiv_pos_site_id
 _symmetry_equiv_pos_as_xyz
  1  'x, y, z'
loop_
 _atom_site_type_symbol
 _atom_site_label
 _atom_site_symmetry_multiplicity
 _atom_site_fract_x
 _atom_site_fract_y
 _atom_site_fract_z
 _atom_site_occupancy
  Lu  Lu0  1  0.74999999  0.74999999  0.74999999  1
  Lu  Lu1  1  0.00000000  0.00000000  0.00000000  1
  Co  Co2  1  0.37445500  0.87663499  0.37445500  1
  Co  Co3  1  0.37445500  0.37445500  0.37445500  1
  Co  Co4  1  0.37445500  0.37445500  0.87663499  1
  Co  Co5  1  0.87663499  0.37445500  0.37445500  1
