# generated using pymatgen
data_NiSe
_symmetry_space_group_name_H-M   'P 1'
_cell_length_a   6.03348589
_cell_length_b   6.03348589
_cell_length_c   6.03348589
_cell_angle_alpha   90.00000000
_cell_angle_beta   90.00000000
_cell_angle_gamma   90.00000000
_symmetry_Int_Tables_number   1
_chemical_formula_structural   NiSe
_chemical_formula_sum   'Ni6 Se6'
_cell_volume   219.63669709
_cell_formula_units_Z   6
loop_
 _symmetry_equiv_pos_site_id
 _symmetry_equiv_pos_as_xyz
  1  'x, y, z'
loop_
 _atom_site_type_symbol
 _atom_site_label
 _atom_site_symmetry_multiplicity
 _atom_site_fract_x
 _atom_site_fract_y
 _atom_site_fract_z
 _atom_site_occupancy
  Ni  Ni0  1  0.61263901  0.61263901  0.61263901  1
  Ni  Ni1  1  0.88736102  0.38736101  0.11263900  1
  Ni  Ni2  1  0.11263900  0.88736102  0.38736101  1
  Ni  Ni3  1  0.38736101  0.11263900  0.88736102  1
  Ni  Ni4  1  0.00039400  0.49960601  0.50039401  1
  Ni  Ni5  1  0.49960601  0.50039401  0.00039400  1
  Se  Se6  1  0.50039401  0.00039400  0.49960601  1
  Se  Se7  1  0.99960602  0.99960602  0.99960602  1
  Se  Se8  1  0.60685701  0.89314302  0.10685700  1
  Se  Se9  1  0.89314302  0.10685700  0.60685701  1
  Se  Se10  1  0.10685700  0.60685701  0.89314302  1
  Se  Se11  1  0.39314301  0.39314301  0.39314301  1
