# generated using pymatgen
data_Na2H5O7
_symmetry_space_group_name_H-M   'P 1'
_cell_length_a   3.46340799
_cell_length_b   6.22562599
_cell_length_c   6.22562599
_cell_angle_alpha   120.00000000
_cell_angle_beta   90.00000000
_cell_angle_gamma   90.00000000
_symmetry_Int_Tables_number   1
_chemical_formula_structural   Na2H5O7
_chemical_formula_sum   'Na2 H5 O7'
_cell_volume   116.25197502
_cell_formula_units_Z   1
loop_
 _symmetry_equiv_pos_site_id
 _symmetry_equiv_pos_as_xyz
  1  'x, y, z'
loop_
 _atom_site_type_symbol
 _atom_site_label
 _atom_site_symmetry_multiplicity
 _atom_site_fract_x
 _atom_site_fract_y
 _atom_site_fract_z
 _atom_site_occupancy
  Na  Na0  1  0.75000000  0.66666666  0.33333330  1
  Na  Na1  1  0.25000000  0.33333333  0.66666663  1
  H  H2  1  0.25000000  0.86173799  0.72291395  1
  H  H3  1  0.25000000  0.86117599  0.13826197  1
  H  H4  1  0.75000000  0.72291399  0.86117595  1
  H  H5  1  0.25000000  0.27708600  0.13882399  1
  H  H6  1  0.75000000  0.13882400  0.86173797  1
  O  O7  1  0.75000000  0.13826200  0.27708599  1
  O  O8  1  0.25000000  0.68595199  0.60104496  1
  O  O9  1  0.25000000  0.91509299  0.31404797  1
  O  O10  1  0.75000000  0.60104499  0.91509295  1
  O  O11  1  0.25000000  0.39895500  0.08490699  1
  O  O12  1  0.75000000  0.08490700  0.68595197  1
  O  O13  1  0.75000000  0.31404800  0.39895498  1
