# generated using pymatgen
data_SmGe2
_symmetry_space_group_name_H-M   'P 1'
_cell_length_a   4.24146795
_cell_length_b   7.14627600
_cell_length_c   7.14627552
_cell_angle_alpha   120.00000000
_cell_angle_beta   90.00000000
_cell_angle_gamma   90.00000000
_symmetry_Int_Tables_number   1
_chemical_formula_structural   SmGe2
_chemical_formula_sum   'Sm3 Ge6'
_cell_volume   187.58856575
_cell_formula_units_Z   3
loop_
 _symmetry_equiv_pos_site_id
 _symmetry_equiv_pos_as_xyz
  1  'x, y, z'
loop_
 _atom_site_type_symbol
 _atom_site_label
 _atom_site_symmetry_multiplicity
 _atom_site_fract_x
 _atom_site_fract_y
 _atom_site_fract_z
 _atom_site_occupancy
  Sm  Sm0  1  0.50000001  0.00000000  0.41693200  1
  Sm  Sm1  1  0.50000001  0.41693199  0.99999998  1
  Sm  Sm2  1  0.50000001  0.58306799  0.58306797  1
  Ge  Ge3  1  1.00000001  0.66666665  0.33333330  1
  Ge  Ge4  1  -0.00000000  0.33333333  0.66666665  1
  Ge  Ge5  1  0.50000001  0.00000000  -0.00000000  1
  Ge  Ge6  1  1.00000001  0.00000000  0.74953500  1
  Ge  Ge7  1  -0.00000000  0.74953498  -0.00000003  1
  Ge  Ge8  1  -0.00000000  0.25046499  0.25046499  1
