# generated using pymatgen
data_BaNaNd2Ti4O11
_symmetry_space_group_name_H-M   'P 1'
_cell_length_a   3.96157908
_cell_length_b   8.08613586
_cell_length_c   8.88909054
_cell_angle_alpha   117.05430603
_cell_angle_beta   90.00000000
_cell_angle_gamma   90.00000000
_symmetry_Int_Tables_number   1
_chemical_formula_structural   BaNaNd2Ti4O11
_chemical_formula_sum   'Ba1 Na1 Nd2 Ti4 O11'
_cell_volume   253.59319471
_cell_formula_units_Z   1
loop_
 _symmetry_equiv_pos_site_id
 _symmetry_equiv_pos_as_xyz
  1  'x, y, z'
loop_
 _atom_site_type_symbol
 _atom_site_label
 _atom_site_symmetry_multiplicity
 _atom_site_fract_x
 _atom_site_fract_y
 _atom_site_fract_z
 _atom_site_occupancy
  Na  Na0  1  0.49999999  0.00000000  0.50000000  1
  Ba  Ba1  1  0.49999999  0.50000000  0.49999999  1
  Nd  Nd2  1  0.49999999  0.26806400  -0.00000001  1
  Nd  Nd3  1  0.49999999  0.73193600  0.99999998  1
  Ti  Ti4  1  -0.00000000  0.87446900  0.74893797  1
  Ti  Ti5  1  -0.00000000  0.12553100  0.25106200  1
  Ti  Ti6  1  -0.00000000  0.62278200  0.24556398  1
  Ti  Ti7  1  -0.00000000  0.37721800  0.75443599  1
  O  O8  1  -0.00000000  0.13587500  0.79152299  1
  O  O9  1  -0.00000000  0.65564800  0.79152298  1
  O  O10  1  -0.00000000  0.86412500  0.20847698  1
  O  O11  1  -0.00000000  0.34435200  0.20847699  1
  O  O12  1  0.49999999  0.90866400  0.81732797  1
  O  O13  1  0.49999999  0.09133600  0.18267200  1
  O  O14  1  0.49999999  0.61848400  0.23696798  1
  O  O15  1  0.49999999  0.38151600  0.76303199  1
  O  O16  1  -0.00000000  0.75242000  0.50483998  1
  O  O17  1  -0.00000000  0.24758000  0.49515999  1
  O  O18  1  -0.00000000  0.50000000  -0.00000001  1
