# generated using pymatgen
data_CuS
_symmetry_space_group_name_H-M   'P 1'
_cell_length_a   5.41439199
_cell_length_b   5.41439199
_cell_length_c   6.58254194
_cell_angle_alpha   114.28458405
_cell_angle_beta   114.28458405
_cell_angle_gamma   90.00000000
_symmetry_Int_Tables_number   1
_chemical_formula_structural   CuS
_chemical_formula_sum   'Cu4 S4'
_cell_volume   156.97433494
_cell_formula_units_Z   4
loop_
 _symmetry_equiv_pos_site_id
 _symmetry_equiv_pos_as_xyz
  1  'x, y, z'
loop_
 _atom_site_type_symbol
 _atom_site_label
 _atom_site_symmetry_multiplicity
 _atom_site_fract_x
 _atom_site_fract_y
 _atom_site_fract_z
 _atom_site_occupancy
  Cu  Cu0  1  0.00000000  0.00000000  0.00000000  1
  Cu  Cu1  1  0.75000004  0.25000001  0.50000007  1
  Cu  Cu2  1  0.25000005  0.75000003  0.50000009  1
  Cu  Cu3  1  0.50000005  0.50000002  0.00000006  1
  S  S4  1  0.63791502  0.09997000  0.73788507  1
  S  S5  1  0.90003108  0.90003104  0.26211612  1
  S  S6  1  0.09996904  0.63791403  0.73788308  1
  S  S7  1  0.36208503  0.36208501  0.26211606  1
