# generated using pymatgen
data_Li4Ir2CN
_symmetry_space_group_name_H-M   'P 1'
_cell_length_a   3.06908798
_cell_length_b   3.06908703
_cell_length_c   13.73636627
_cell_angle_alpha   90.00000000
_cell_angle_beta   90.00000000
_cell_angle_gamma   120.00000763
_symmetry_Int_Tables_number   1
_chemical_formula_structural   Li4Ir2CN
_chemical_formula_sum   'Li4 Ir2 C1 N1'
_cell_volume   112.05235876
_cell_formula_units_Z   1
loop_
 _symmetry_equiv_pos_site_id
 _symmetry_equiv_pos_as_xyz
  1  'x, y, z'
loop_
 _atom_site_type_symbol
 _atom_site_label
 _atom_site_symmetry_multiplicity
 _atom_site_fract_x
 _atom_site_fract_y
 _atom_site_fract_z
 _atom_site_occupancy
  Li  Li0  1  0.66666665  0.33333332  0.91651398  1
  Li  Li1  1  0.33333329  0.66666663  0.41651399  1
  Li  Li2  1  0.33333329  0.66666663  0.08348600  1
  Li  Li3  1  0.66666665  0.33333332  0.58348599  1
  Ir  Ir4  1  0.66666665  0.33333332  0.25000000  1
  Ir  Ir5  1  0.33333329  0.66666663  0.74999999  1
  N  N6  1  0.00000000  0.00000000  0.00000000  1
  C  C7  1  0.00000000  0.00000000  0.49999999  1
