# generated using pymatgen
data_Ti3Cu2O7
_symmetry_space_group_name_H-M   'P 1'
_cell_length_a   5.23321581
_cell_length_b   5.23321581
_cell_length_c   6.98452377
_cell_angle_alpha   90.00000000
_cell_angle_beta   90.00000000
_cell_angle_gamma   120.00000000
_symmetry_Int_Tables_number   1
_chemical_formula_structural   Ti3Cu2O7
_chemical_formula_sum   'Ti3 Cu2 O7'
_cell_volume   165.65506565
_cell_formula_units_Z   1
loop_
 _symmetry_equiv_pos_site_id
 _symmetry_equiv_pos_as_xyz
  1  'x, y, z'
loop_
 _atom_site_type_symbol
 _atom_site_label
 _atom_site_symmetry_multiplicity
 _atom_site_fract_x
 _atom_site_fract_y
 _atom_site_fract_z
 _atom_site_occupancy
  Ti  Ti0  1  0.33333335  0.66666669  0.66014202  1
  Ti  Ti1  1  0.00000000  0.00000000  0.00000000  1
  Ti  Ti2  1  0.66666669  0.33333335  0.33985801  1
  Cu  Cu3  1  0.08569700  0.75531903  0.82605303  1
  Cu  Cu4  1  0.75532003  0.08569800  0.17394701  1
  O  O5  1  0.66962202  0.91430203  0.82605303  1
  O  O6  1  0.39041401  0.00000000  0.50000002  1
  O  O7  1  0.91430303  0.66962302  0.17394701  1
  O  O8  1  0.60958602  0.60958602  0.50000002  1
  O  O9  1  0.24468001  0.33037701  0.82605303  1
  O  O10  1  0.00000000  0.39041401  0.50000002  1
  O  O11  1  0.33037801  0.24468101  0.17394701  1
