# generated using pymatgen
data_Sm5Pb3
_symmetry_space_group_name_H-M   'P 1'
_cell_length_a   6.33446503
_cell_length_b   9.03629780
_cell_length_c   9.03629780
_cell_angle_alpha   120.00000000
_cell_angle_beta   90.00000000
_cell_angle_gamma   90.00000000
_symmetry_Int_Tables_number   1
_chemical_formula_structural   Sm5Pb3
_chemical_formula_sum   'Sm10 Pb6'
_cell_volume   447.94185525
_cell_formula_units_Z   2
loop_
 _symmetry_equiv_pos_site_id
 _symmetry_equiv_pos_as_xyz
  1  'x, y, z'
loop_
 _atom_site_type_symbol
 _atom_site_label
 _atom_site_symmetry_multiplicity
 _atom_site_fract_x
 _atom_site_fract_y
 _atom_site_fract_z
 _atom_site_occupancy
  Sm  Sm0  1  0.25000000  1.00000000  0.75272793  1
  Sm  Sm1  1  0.75000000  1.00000000  0.24727195  1
  Sm  Sm2  1  0.75000000  0.24727200  0.99999995  1
  Sm  Sm3  1  0.25000000  0.24727200  0.24727198  1
  Sm  Sm4  1  0.25000000  0.75272800  -0.00000003  1
  Sm  Sm5  1  0.75000000  0.75272800  0.75272794  1
  Sm  Sm6  1  0.50000000  0.66666667  0.33333329  1
  Sm  Sm7  1  1.00000000  0.33333333  0.66666663  1
  Sm  Sm8  1  0.50000000  0.33333333  0.66666663  1
  Sm  Sm9  1  1.00000000  0.66666667  0.33333329  1
  Pb  Pb10  1  0.25000000  0.61168100  0.61168095  1
  Pb  Pb11  1  0.75000000  0.61168100  -0.00000002  1
  Pb  Pb12  1  0.75000000  1.00000000  0.61168094  1
  Pb  Pb13  1  0.25000000  1.00000000  0.38831895  1
  Pb  Pb14  1  0.25000000  0.38831900  -0.00000002  1
  Pb  Pb15  1  0.75000000  0.38831900  0.38831897  1
