# generated using pymatgen
data_Li5CaSn14
_symmetry_space_group_name_H-M   'P 1'
_cell_length_a   4.73211002
_cell_length_b   8.34828758
_cell_length_c   13.27333736
_cell_angle_alpha   90.00000000
_cell_angle_beta   90.00000000
_cell_angle_gamma   106.46430969
_symmetry_Int_Tables_number   1
_chemical_formula_structural   Li5CaSn14
_chemical_formula_sum   'Li5 Ca1 Sn14'
_cell_volume   502.86264383
_cell_formula_units_Z   1
loop_
 _symmetry_equiv_pos_site_id
 _symmetry_equiv_pos_as_xyz
  1  'x, y, z'
loop_
 _atom_site_type_symbol
 _atom_site_label
 _atom_site_symmetry_multiplicity
 _atom_site_fract_x
 _atom_site_fract_y
 _atom_site_fract_z
 _atom_site_occupancy
  Li  Li0  1  0.09818700  0.19637399  0.90232598  1
  Li  Li1  1  0.90181302  0.80362597  0.40232599  1
  Li  Li2  1  0.09808300  0.19616599  0.24999999  1
  Li  Li3  1  0.90181302  0.80362597  0.09767400  1
  Li  Li4  1  0.90191702  0.80383397  0.74999998  1
  Ca  Ca5  1  0.09818700  0.19637399  0.59767398  1
  Sn  Sn6  1  0.70511301  0.41022599  0.74999998  1
  Sn  Sn7  1  0.29488701  0.58977398  0.24999999  1
  Sn  Sn8  1  0.24479301  0.48958598  0.42934599  1
  Sn  Sn9  1  0.57332100  0.14664199  0.42314099  1
  Sn  Sn10  1  0.42667902  0.85335797  0.57685898  1
  Sn  Sn11  1  0.26867201  0.53734398  0.74999998  1
  Sn  Sn12  1  0.73132801  0.46265598  0.24999999  1
  Sn  Sn13  1  0.75520701  0.51041398  0.92934597  1
  Sn  Sn14  1  0.75520701  0.51041398  0.57065398  1
  Sn  Sn15  1  0.42667902  0.85335797  0.92314097  1
  Sn  Sn16  1  0.54625600  0.09251200  0.74999998  1
  Sn  Sn17  1  0.45374402  0.90748797  0.24999999  1
  Sn  Sn18  1  0.24479301  0.48958598  0.07065400  1
  Sn  Sn19  1  0.57332100  0.14664199  0.07685900  1
