# generated using pymatgen
data_Sm3DyCo14
_symmetry_space_group_name_H-M   'P 1'
_cell_length_a   4.94785404
_cell_length_b   4.94785452
_cell_length_c   12.39730740
_cell_angle_alpha   78.48914337
_cell_angle_beta   78.48914337
_cell_angle_gamma   60.00000381
_symmetry_Int_Tables_number   1
_chemical_formula_structural   Sm3DyCo14
_chemical_formula_sum   'Sm3 Dy1 Co14'
_cell_volume   255.76723219
_cell_formula_units_Z   1
loop_
 _symmetry_equiv_pos_site_id
 _symmetry_equiv_pos_as_xyz
  1  'x, y, z'
loop_
 _atom_site_type_symbol
 _atom_site_label
 _atom_site_symmetry_multiplicity
 _atom_site_fract_x
 _atom_site_fract_y
 _atom_site_fract_z
 _atom_site_occupancy
  Sm  Sm0  1  0.05178400  0.05178400  0.84464900  1
  Sm  Sm1  1  0.94821600  0.94821603  0.15535098  1
  Sm  Sm2  1  0.14846100  0.14846100  0.55461700  1
  Dy  Dy3  1  0.85153900  0.85153902  0.44538299  1
  Co  Co4  1  0.50000000  0.50000001  0.49999999  1
  Co  Co5  1  0.27868100  0.27868101  0.16395800  1
  Co  Co6  1  0.72131900  0.72131902  0.83604199  1
  Co  Co7  1  0.38841000  0.38841001  0.83476899  1
  Co  Co8  1  0.61159000  0.61159002  0.16523099  1
  Co  Co9  1  0.50000000  1.00000003  -0.00000001  1
  Co  Co10  1  -0.00000000  0.50000001  1.00000000  1
  Co  Co11  1  0.50000000  0.50000001  0.99999999  1
  Co  Co12  1  0.60903300  0.60903302  0.67307399  1
  Co  Co13  1  0.60903300  0.10885900  0.67307399  1
  Co  Co14  1  0.10885900  0.60903302  0.67307400  1
  Co  Co15  1  0.39096700  0.39096701  0.32692599  1
  Co  Co16  1  0.39096700  0.89114102  0.32692599  1
  Co  Co17  1  0.89114100  0.39096701  0.32692599  1
