# generated using pymatgen
data_Cs2AgBr6
_symmetry_space_group_name_H-M   'P 1'
_cell_length_a   7.82895184
_cell_length_b   7.88400745
_cell_length_c   7.82895184
_cell_angle_alpha   119.76926422
_cell_angle_beta   90.00000000
_cell_angle_gamma   119.76926422
_symmetry_Int_Tables_number   1
_chemical_formula_structural   Cs2AgBr6
_chemical_formula_sum   'Cs2 Ag1 Br6'
_cell_volume   344.06509964
_cell_formula_units_Z   1
loop_
 _symmetry_equiv_pos_site_id
 _symmetry_equiv_pos_as_xyz
  1  'x, y, z'
loop_
 _atom_site_type_symbol
 _atom_site_label
 _atom_site_symmetry_multiplicity
 _atom_site_fract_x
 _atom_site_fract_y
 _atom_site_fract_z
 _atom_site_occupancy
  Cs  Cs0  1  0.24999997  0.49999995  0.74999998  1
  Cs  Cs1  1  0.74999998  0.49999995  0.24999997  1
  Ag  Ag2  1  0.00000000  0.00000000  0.00000000  1
  Br  Br3  1  0.73277602  0.00000000  0.77469502  1
  Br  Br4  1  0.75629298  0.51258595  0.75629298  1
  Br  Br5  1  0.22530500  0.00000000  0.73277602  1
  Br  Br6  1  0.77469495  0.99999991  0.26722394  1
  Br  Br7  1  0.24370697  0.48741396  0.24370697  1
  Br  Br8  1  0.26722401  0.00000000  0.22530500  1
