# generated using pymatgen
data_Sm5MoPb3
_symmetry_space_group_name_H-M   'P 1'
_cell_length_a   6.41715384
_cell_length_b   9.34038639
_cell_length_c   9.34038639
_cell_angle_alpha   120.00000000
_cell_angle_beta   90.00000000
_cell_angle_gamma   90.00000000
_symmetry_Int_Tables_number   1
_chemical_formula_structural   Sm5MoPb3
_chemical_formula_sum   'Sm10 Mo2 Pb6'
_cell_volume   484.84482778
_cell_formula_units_Z   2
loop_
 _symmetry_equiv_pos_site_id
 _symmetry_equiv_pos_as_xyz
  1  'x, y, z'
loop_
 _atom_site_type_symbol
 _atom_site_label
 _atom_site_symmetry_multiplicity
 _atom_site_fract_x
 _atom_site_fract_y
 _atom_site_fract_z
 _atom_site_occupancy
  Sm  Sm0  1  0.50000001  0.33333332  0.66666668  1
  Sm  Sm1  1  0.50000001  0.66666665  0.33333335  1
  Sm  Sm2  1  -0.00000000  0.66666665  0.33333335  1
  Sm  Sm3  1  -0.00000000  0.33333332  0.66666668  1
  Sm  Sm4  1  0.75000002  0.25576499  0.00000001  1
  Sm  Sm5  1  0.75000002  0.74423498  0.74423502  1
  Sm  Sm6  1  0.75000002  0.00000000  0.25576500  1
  Sm  Sm7  1  0.25000001  0.74423498  0.00000002  1
  Sm  Sm8  1  0.25000001  0.25576499  0.25576501  1
  Sm  Sm9  1  0.25000001  0.00000000  0.74423500  1
  Mo  Mo10  1  0.50000001  0.00000000  -0.00000000  1
  Mo  Mo11  1  0.00000000  0.00000000  0.00000000  1
  Pb  Pb12  1  0.75000002  0.61486498  0.00000002  1
  Pb  Pb13  1  0.75000002  0.38513499  0.38513501  1
  Pb  Pb14  1  0.75000002  0.00000000  0.61486500  1
  Pb  Pb15  1  0.25000001  0.38513499  0.00000001  1
  Pb  Pb16  1  0.25000001  0.61486498  0.61486502  1
  Pb  Pb17  1  0.25000001  0.99999997  0.38513503  1
