# generated using pymatgen
data_Pr2SiNi3Ge2
_symmetry_space_group_name_H-M   'P 1'
_cell_length_a   4.10152483
_cell_length_b   4.23903799
_cell_length_c   8.57351017
_cell_angle_alpha   75.68710327
_cell_angle_beta   90.00000000
_cell_angle_gamma   90.00000000
_symmetry_Int_Tables_number   1
_chemical_formula_structural   Pr2SiNi3Ge2
_chemical_formula_sum   'Pr2 Si1 Ni3 Ge2'
_cell_volume   144.43658763
_cell_formula_units_Z   1
loop_
 _symmetry_equiv_pos_site_id
 _symmetry_equiv_pos_as_xyz
  1  'x, y, z'
loop_
 _atom_site_type_symbol
 _atom_site_label
 _atom_site_symmetry_multiplicity
 _atom_site_fract_x
 _atom_site_fract_y
 _atom_site_fract_z
 _atom_site_occupancy
  Pr  Pr0  1  0.25000001  0.89235099  0.21529802  1
  Pr  Pr1  1  0.75000003  0.10764900  0.78470198  1
  Ni  Ni2  1  0.25000001  0.54105599  0.91788799  1
  Si  Si3  1  0.75000003  0.45894399  0.08211201  1
  Ni  Ni4  1  0.25000001  0.24986100  0.50027800  1
  Ni  Ni5  1  0.75000003  0.75013899  0.49972201  1
  Ge  Ge6  1  0.25000001  0.68207699  0.63584601  1
  Ge  Ge7  1  0.75000003  0.31792300  0.36415400  1
