# generated using pymatgen
data_SrTiO3
_symmetry_space_group_name_H-M   'P 1'
_cell_length_a   5.59626913
_cell_length_b   5.68506718
_cell_length_c   7.94369459
_cell_angle_alpha   89.74836731
_cell_angle_beta   90.03849792
_cell_angle_gamma   89.94843292
_symmetry_Int_Tables_number   1
_chemical_formula_structural   SrTiO3
_chemical_formula_sum   'Sr4 Ti4 O12'
_cell_volume   252.72736425
_cell_formula_units_Z   4
loop_
 _symmetry_equiv_pos_site_id
 _symmetry_equiv_pos_as_xyz
  1  'x, y, z'
loop_
 _atom_site_type_symbol
 _atom_site_label
 _atom_site_symmetry_multiplicity
 _atom_site_fract_x
 _atom_site_fract_y
 _atom_site_fract_z
 _atom_site_occupancy
  Sr  Sr0  1  0.99034901  0.44933801  0.75084294  1
  Sr  Sr1  1  0.50901505  0.95005402  0.75171396  1
  Sr  Sr2  1  0.00965103  0.55066201  0.24915700  1
  Sr  Sr3  1  0.49098499  0.04994600  0.24828597  1
  Ti  Ti4  1  0.00000000  0.00000000  0.49999999  1
  Ti  Ti5  1  0.50000002  0.50000001  -0.00000002  1
  Ti  Ti6  1  0.50000002  0.50000001  0.49999997  1
  Ti  Ti7  1  0.00000000  0.00000000  0.00000000  1
  O  O8  1  0.08873500  0.02319100  0.75228798  1
  O  O9  1  0.41112902  0.52331201  0.74886597  1
  O  O10  1  0.91126504  0.97680902  0.24771196  1
  O  O11  1  0.58887102  0.47668801  0.25113397  1
  O  O12  1  0.80090403  0.70681202  0.95326195  1
  O  O13  1  0.69603900  0.20833600  0.54644696  1
  O  O14  1  0.20681401  0.30105901  0.45363398  1
  O  O15  1  0.29597104  0.79874202  0.04668699  1
  O  O16  1  0.19909601  0.29318801  0.04673799  1
  O  O17  1  0.30396104  0.79166402  0.45355298  1
  O  O18  1  0.79318603  0.69894002  0.54636595  1
  O  O19  1  0.70402900  0.20125800  0.95331295  1
