# generated using pymatgen
data_Eu2Sc2RuO3
_symmetry_space_group_name_H-M   'P 1'
_cell_length_a   3.90177989
_cell_length_b   3.90178037
_cell_length_c   12.05248260
_cell_angle_alpha   90.00000000
_cell_angle_beta   90.00000000
_cell_angle_gamma   120.00000000
_symmetry_Int_Tables_number   1
_chemical_formula_structural   Eu2Sc2RuO3
_chemical_formula_sum   'Eu2 Sc2 Ru1 O3'
_cell_volume   158.90323184
_cell_formula_units_Z   1
loop_
 _symmetry_equiv_pos_site_id
 _symmetry_equiv_pos_as_xyz
  1  'x, y, z'
loop_
 _atom_site_type_symbol
 _atom_site_label
 _atom_site_symmetry_multiplicity
 _atom_site_fract_x
 _atom_site_fract_y
 _atom_site_fract_z
 _atom_site_occupancy
  Eu  Eu0  1  0.00000000  0.00000000  0.00000000  1
  Eu  Eu1  1  0.00000000  0.00000000  0.50000002  1
  Sc  Sc2  1  0.33333338  0.66666668  0.25000001  1
  Sc  Sc3  1  0.66666671  0.33333334  0.75000002  1
  Ru  Ru4  1  0.33333338  0.66666668  0.41876501  1
  O  O5  1  0.66666671  0.33333334  0.91876503  1
  O  O6  1  0.66666671  0.33333334  0.58123502  1
  O  O7  1  0.33333338  0.66666668  0.08123500  1
