# generated using pymatgen
data_Sm8Sn2Ir7
_symmetry_space_group_name_H-M   'P 1'
_cell_length_a   6.42889023
_cell_length_b   8.52864170
_cell_length_c   8.52864170
_cell_angle_alpha   120.00000000
_cell_angle_beta   90.00000000
_cell_angle_gamma   90.00000000
_symmetry_Int_Tables_number   1
_chemical_formula_structural   Sm8Sn2Ir7
_chemical_formula_sum   'Sm8 Sn2 Ir7'
_cell_volume   404.97329076
_cell_formula_units_Z   1
loop_
 _symmetry_equiv_pos_site_id
 _symmetry_equiv_pos_as_xyz
  1  'x, y, z'
loop_
 _atom_site_type_symbol
 _atom_site_label
 _atom_site_symmetry_multiplicity
 _atom_site_fract_x
 _atom_site_fract_y
 _atom_site_fract_z
 _atom_site_occupancy
  Sm  Sm0  1  0.49999998  0.66666668  0.33333330  1
  Sm  Sm1  1  0.49999998  0.33333334  0.66666663  1
  Sm  Sm2  1  0.99999996  0.33333334  0.66666663  1
  Sm  Sm3  1  -0.00000000  0.66666668  0.33333330  1
  Sm  Sm4  1  0.73408297  1.00000001  0.75681294  1
  Sm  Sm5  1  0.73408297  0.75681301  0.99999994  1
  Sm  Sm6  1  0.73408297  0.24318700  0.24318698  1
  Sm  Sm7  1  0.26591699  1.00000001  0.24318695  1
  Sn  Sn8  1  0.26591699  0.24318700  -0.00000001  1
  Sn  Sn9  1  0.26591699  0.75681301  0.75681295  1
  Ir  Ir10  1  0.74893697  0.00000000  0.39679399  1
  Ir  Ir11  1  0.74893697  0.39679401  0.99999995  1
  Ir  Ir12  1  0.74893697  0.60320601  0.60320596  1
  Ir  Ir13  1  0.25106299  0.00000000  0.60320598  1
  Ir  Ir14  1  0.25106299  0.60320601  -0.00000003  1
  Ir  Ir15  1  0.25106299  0.39679401  0.39679397  1
  Ir  Ir16  1  0.49999998  0.00000000  -0.00000000  1
