# generated using pymatgen
data_CaSn5Au
_symmetry_space_group_name_H-M   'P 1'
_cell_length_a   4.64173508
_cell_length_b   7.94886303
_cell_length_c   9.25507355
_cell_angle_alpha   90.00000000
_cell_angle_beta   90.00000000
_cell_angle_gamma   90.00000000
_symmetry_Int_Tables_number   1
_chemical_formula_structural   CaSn5Au
_chemical_formula_sum   'Ca2 Sn10 Au2'
_cell_volume   341.47997242
_cell_formula_units_Z   2
loop_
 _symmetry_equiv_pos_site_id
 _symmetry_equiv_pos_as_xyz
  1  'x, y, z'
loop_
 _atom_site_type_symbol
 _atom_site_label
 _atom_site_symmetry_multiplicity
 _atom_site_fract_x
 _atom_site_fract_y
 _atom_site_fract_z
 _atom_site_occupancy
  Ca  Ca0  1  0.49999999  0.00000000  0.72861104  1
  Ca  Ca1  1  0.00000000  0.50000000  0.27138901  1
  Sn  Sn2  1  0.00000000  0.30392700  0.88502404  1
  Sn  Sn3  1  0.49999999  0.19607300  0.11497601  1
  Sn  Sn4  1  0.00000000  0.69607300  0.88502404  1
  Sn  Sn5  1  0.00000000  0.00000000  0.36625202  1
  Sn  Sn6  1  0.49999999  0.80392700  0.11497601  1
  Sn  Sn7  1  0.49999999  0.50000000  0.63374803  1
  Sn  Sn8  1  0.00000000  0.72664100  0.58839403  1
  Sn  Sn9  1  0.49999999  0.77335900  0.41160602  1
  Au  Au10  1  0.49999999  0.50000000  0.95581305  1
  Au  Au11  1  0.00000000  0.00000000  0.04418700  1
  Sn  Sn12  1  0.49999999  0.22664100  0.41160602  1
  Sn  Sn13  1  0.00000000  0.27335900  0.58839403  1
