# generated using pymatgen
data_Tb2AgGe3
_symmetry_space_group_name_H-M   'P 1'
_cell_length_a   4.12827301
_cell_length_b   4.14361286
_cell_length_c   17.67850876
_cell_angle_alpha   90.00000000
_cell_angle_beta   90.00000000
_cell_angle_gamma   89.99449158
_symmetry_Int_Tables_number   1
_chemical_formula_structural   Tb2AgGe3
_chemical_formula_sum   'Tb4 Ag2 Ge6'
_cell_volume   302.40795318
_cell_formula_units_Z   2
loop_
 _symmetry_equiv_pos_site_id
 _symmetry_equiv_pos_as_xyz
  1  'x, y, z'
loop_
 _atom_site_type_symbol
 _atom_site_label
 _atom_site_symmetry_multiplicity
 _atom_site_fract_x
 _atom_site_fract_y
 _atom_site_fract_z
 _atom_site_occupancy
  Tb  Tb0  1  0.74878705  0.77654796  0.15359199  1
  Tb  Tb1  1  0.75121305  0.72345197  0.65359197  1
  Tb  Tb2  1  0.25121302  0.22345199  0.84640796  1
  Tb  Tb3  1  0.24878702  0.27654799  0.34640799  1
  Ag  Ag4  1  0.25004103  0.75751396  0.49928298  1
  Ag  Ag5  1  0.24995903  0.74248597  0.99928296  1
  Ge  Ge6  1  0.74995903  0.24248599  0.50071698  1
  Ge  Ge7  1  0.75004103  0.25751399  0.00071700  1
  Ge  Ge8  1  0.74954705  0.77907196  0.31352799  1
  Ge  Ge9  1  0.75045305  0.72092797  0.81352797  1
  Ge  Ge10  1  0.25045302  0.22092799  0.68647197  1
  Ge  Ge11  1  0.24954702  0.27907199  0.18647199  1
