# generated using pymatgen
data_Eu2Sn3
_symmetry_space_group_name_H-M   'P 1'
_cell_length_a   4.17759180
_cell_length_b   11.69622612
_cell_length_c   11.69622612
_cell_angle_alpha   90.00000000
_cell_angle_beta   90.00000000
_cell_angle_gamma   90.00000000
_symmetry_Int_Tables_number   1
_chemical_formula_structural   Eu2Sn3
_chemical_formula_sum   'Eu8 Sn12'
_cell_volume   571.50168301
_cell_formula_units_Z   4
loop_
 _symmetry_equiv_pos_site_id
 _symmetry_equiv_pos_as_xyz
  1  'x, y, z'
loop_
 _atom_site_type_symbol
 _atom_site_label
 _atom_site_symmetry_multiplicity
 _atom_site_fract_x
 _atom_site_fract_y
 _atom_site_fract_z
 _atom_site_occupancy
  Eu  Eu0  1  0.50000002  0.29393400  0.29393400  1
  Eu  Eu1  1  1.00000005  0.20606600  0.79393399  1
  Eu  Eu2  1  0.50000002  0.70606599  0.70606599  1
  Eu  Eu3  1  0.00000000  0.79393399  0.20606600  1
  Eu  Eu4  1  0.50000002  0.08684400  0.91315599  1
  Eu  Eu5  1  0.00000000  0.58684399  0.58684399  1
  Eu  Eu6  1  0.50000002  0.91315599  0.08684400  1
  Sn  Sn7  1  -0.00000000  0.41315600  0.41315600  1
  Eu  Eu8  1  0.50000002  0.00272800  0.67033199  1
  Sn  Sn9  1  0.00000000  0.49727199  0.17033200  1
  Sn  Sn10  1  0.00000000  0.50272799  0.82966799  1
  Sn  Sn11  1  0.00000000  0.89736699  0.89736699  1
  Sn  Sn12  1  0.00000000  0.17033200  0.49727199  1
  Sn  Sn13  1  0.50000002  0.39736700  0.60263299  1
  Sn  Sn14  1  1.00000005  0.10263300  0.10263300  1
  Sn  Sn15  1  0.50000002  0.99727199  0.32966800  1
  Sn  Sn16  1  0.50000002  0.67033199  0.00272800  1
  Sn  Sn17  1  0.00000000  0.82966799  0.50272799  1
  Sn  Sn18  1  0.50000002  0.32966800  0.99727199  1
  Sn  Sn19  1  0.50000002  0.60263299  0.39736700  1
