# generated using pymatgen
data_Sr6CaCd11
_symmetry_space_group_name_H-M   'P 1'
_cell_length_a   7.11212206
_cell_length_b   9.43250179
_cell_length_c   9.57007027
_cell_angle_alpha   90.00000000
_cell_angle_beta   111.81318665
_cell_angle_gamma   90.00000000
_symmetry_Int_Tables_number   1
_chemical_formula_structural   Sr6CaCd11
_chemical_formula_sum   'Sr6 Ca1 Cd11'
_cell_volume   596.04151702
_cell_formula_units_Z   1
loop_
 _symmetry_equiv_pos_site_id
 _symmetry_equiv_pos_as_xyz
  1  'x, y, z'
loop_
 _atom_site_type_symbol
 _atom_site_label
 _atom_site_symmetry_multiplicity
 _atom_site_fract_x
 _atom_site_fract_y
 _atom_site_fract_z
 _atom_site_occupancy
  Sr  Sr0  1  0.88360301  0.57748201  0.76720607  1
  Sr  Sr1  1  0.38360300  0.92251802  0.76720605  1
  Sr  Sr2  1  0.61639701  0.07748200  0.23279403  1
  Sr  Sr3  1  0.11639700  0.42251801  0.23279402  1
  Sr  Sr4  1  0.47159700  0.75000002  0.44319404  1
  Sr  Sr5  1  0.52840301  0.25000001  0.55680605  1
  Ca  Ca6  1  0.02840300  0.25000001  0.55680603  1
  Cd  Cd7  1  0.97159701  0.75000002  0.44319406  1
  Cd  Cd8  1  0.50000000  0.50000001  0.00000002  1
  Cd  Cd9  1  0.00000000  0.00000000  0.00000000  1
  Cd  Cd10  1  0.81468001  0.94872202  0.62936006  1
  Cd  Cd11  1  0.68532001  0.44872201  0.37064004  1
  Cd  Cd12  1  0.18532000  0.05127800  0.37064002  1
  Cd  Cd13  1  0.69742001  0.25000001  0.89484007  1
  Cd  Cd14  1  0.80258001  0.75000002  0.10516003  1
  Cd  Cd15  1  0.19742000  0.25000001  0.89484005  1
  Cd  Cd16  1  0.30258000  0.75000002  0.10516002  1
  Cd  Cd17  1  0.31468000  0.55127801  0.62936004  1
