# generated using pymatgen
data_AgSe
_symmetry_space_group_name_H-M   'P 1'
_cell_length_a   6.12883377
_cell_length_b   6.12883377
_cell_length_c   7.26583195
_cell_angle_alpha   114.94557953
_cell_angle_beta   114.94557953
_cell_angle_gamma   90.00000000
_symmetry_Int_Tables_number   1
_chemical_formula_structural   AgSe
_chemical_formula_sum   'Ag4 Se4'
_cell_volume   219.06118540
_cell_formula_units_Z   4
loop_
 _symmetry_equiv_pos_site_id
 _symmetry_equiv_pos_as_xyz
  1  'x, y, z'
loop_
 _atom_site_type_symbol
 _atom_site_label
 _atom_site_symmetry_multiplicity
 _atom_site_fract_x
 _atom_site_fract_y
 _atom_site_fract_z
 _atom_site_occupancy
  Ag  Ag0  1  0.50000005  0.50000003  1.00000005  1
  Ag  Ag1  1  0.75000005  0.25000002  0.50000004  1
  Ag  Ag2  1  0.25000005  0.75000005  0.50000006  1
  Ag  Ag3  1  0.00000000  0.00000000  0.00000000  1
  Se  Se4  1  0.10463204  0.60192304  0.73730304  1
  Se  Se5  1  0.63267104  0.13538001  0.73730303  1
  Se  Se6  1  0.39807704  0.36732902  0.26269704  1
  Se  Se7  1  0.86462009  0.89536806  0.26269709  1
