# generated using pymatgen
data_Li4Ni4BN2O3
_symmetry_space_group_name_H-M   'P 1'
_cell_length_a   3.58137012
_cell_length_b   3.58137012
_cell_length_c   12.92810345
_cell_angle_alpha   97.96169281
_cell_angle_beta   97.96169281
_cell_angle_gamma   90.00000000
_symmetry_Int_Tables_number   1
_chemical_formula_structural   Li4Ni4BN2O3
_chemical_formula_sum   'Li4 Ni4 B1 N2 O3'
_cell_volume   162.60619898
_cell_formula_units_Z   1
loop_
 _symmetry_equiv_pos_site_id
 _symmetry_equiv_pos_as_xyz
  1  'x, y, z'
loop_
 _atom_site_type_symbol
 _atom_site_label
 _atom_site_symmetry_multiplicity
 _atom_site_fract_x
 _atom_site_fract_y
 _atom_site_fract_z
 _atom_site_occupancy
  Li  Li0  1  0.70071596  0.70071597  0.40143199  1
  Li  Li1  1  0.29928398  0.29928399  0.59856800  1
  Li  Li2  1  0.00000000  0.00000000  0.00000000  1
  Li  Li3  1  0.39928097  0.89928096  0.79856200  1
  Ni  Ni4  1  0.60071898  0.10071900  0.20143799  1
  Ni  Ni5  1  0.10071899  0.60071898  0.20143799  1
  Ni  Ni6  1  0.89928096  0.39928098  0.79856200  1
  Ni  Ni7  1  0.85564096  0.85564097  0.71128199  1
  B  B8  1  0.55907497  0.55907498  0.11814999  1
  O  O9  1  0.14435899  0.14435899  0.28871800  1
  O  O10  1  0.44092498  0.44092498  0.88185000  1
  N  N11  1  0.79655396  0.79655397  0.59310799  1
  N  N12  1  0.20344599  0.20344599  0.40689200  1
  O  O13  1  0.49999997  0.49999998  -0.00000001  1
