# generated using pymatgen
data_TcOs3
_symmetry_space_group_name_H-M   'P 1'
_cell_length_a   5.93920422
_cell_length_b   7.06084776
_cell_length_c   7.06084824
_cell_angle_alpha   60.00000000
_cell_angle_beta   90.00000000
_cell_angle_gamma   90.00000000
_symmetry_Int_Tables_number   1
_chemical_formula_structural   TcOs3
_chemical_formula_sum   'Tc2 Os6'
_cell_volume   256.43223338
_cell_formula_units_Z   2
loop_
 _symmetry_equiv_pos_site_id
 _symmetry_equiv_pos_as_xyz
  1  'x, y, z'
loop_
 _atom_site_type_symbol
 _atom_site_label
 _atom_site_symmetry_multiplicity
 _atom_site_fract_x
 _atom_site_fract_y
 _atom_site_fract_z
 _atom_site_occupancy
  Os  Os0  1  0.49999998  0.00000000  0.00000000  1
  Tc  Tc1  1  0.00000000  0.00000000  0.00000000  1
  Tc  Tc2  1  0.24999999  0.00000000  0.28785700  1
  Os  Os3  1  0.74999997  0.28785701  -0.00000001  1
  Os  Os4  1  0.74999997  0.00000000  0.71214300  1
  Os  Os5  1  0.24999999  0.71214303  -0.00000002  1
  Os  Os6  1  0.24999999  0.28785701  0.71214299  1
  Os  Os7  1  0.74999997  0.71214303  0.28785698  1
