# generated using pymatgen
data_Ca7VO10
_symmetry_space_group_name_H-M   'P 1'
_cell_length_a   6.18900537
_cell_length_b   6.18900537
_cell_length_c   6.79332876
_cell_angle_alpha   90.00000000
_cell_angle_beta   90.00000000
_cell_angle_gamma   90.86480713
_symmetry_Int_Tables_number   1
_chemical_formula_structural   Ca7VO10
_chemical_formula_sum   'Ca7 V1 O10'
_cell_volume   260.18058145
_cell_formula_units_Z   1
loop_
 _symmetry_equiv_pos_site_id
 _symmetry_equiv_pos_as_xyz
  1  'x, y, z'
loop_
 _atom_site_type_symbol
 _atom_site_label
 _atom_site_symmetry_multiplicity
 _atom_site_fract_x
 _atom_site_fract_y
 _atom_site_fract_z
 _atom_site_occupancy
  Ca  Ca0  1  0.16359998  0.83639999  0.50000002  1
  Ca  Ca1  1  0.16359998  0.83639999  -0.00000000  1
  Ca  Ca2  1  0.55998297  0.86551999  0.75000003  1
  Ca  Ca3  1  0.13447999  0.44001700  0.25000001  1
  Ca  Ca4  1  0.44001699  0.13448000  0.25000001  1
  Ca  Ca5  1  0.86551998  0.55998299  0.75000003  1
  Ca  Ca6  1  0.83639999  0.16360000  -0.00000000  1
  V  V7  1  0.83639999  0.16360000  0.50000002  1
  O  O8  1  0.66917298  0.66917299  0.25000001  1
  O  O9  1  0.33082699  0.33082700  0.75000003  1
  O  O10  1  0.26474098  0.62015099  0.75000003  1
  O  O11  1  0.37984898  0.73525899  0.25000001  1
  O  O12  1  0.79195997  0.79195999  0.02581800  1
  O  O13  1  0.20803999  0.20804000  0.52581802  1
  O  O14  1  0.20803999  0.20804000  0.97418203  1
  O  O15  1  0.79195997  0.79195999  0.47418202  1
  O  O16  1  0.73525898  0.37984900  0.25000001  1
  O  O17  1  0.62015099  0.26474100  0.75000003  1
