# generated using pymatgen
data_CaCo3
_symmetry_space_group_name_H-M   'P 1'
_cell_length_a   4.92042780
_cell_length_b   4.92042732
_cell_length_c   8.54166222
_cell_angle_alpha   73.26023865
_cell_angle_beta   73.26023865
_cell_angle_gamma   59.99999619
_symmetry_Int_Tables_number   1
_chemical_formula_structural   CaCo3
_chemical_formula_sum   'Ca3 Co9'
_cell_volume   168.89799506
_cell_formula_units_Z   3
loop_
 _symmetry_equiv_pos_site_id
 _symmetry_equiv_pos_as_xyz
  1  'x, y, z'
loop_
 _atom_site_type_symbol
 _atom_site_label
 _atom_site_symmetry_multiplicity
 _atom_site_fract_x
 _atom_site_fract_y
 _atom_site_fract_z
 _atom_site_occupancy
  Ca  Ca0  1  0.13973600  0.13973600  0.58079301  1
  Ca  Ca1  1  0.86026400  0.86026402  0.41920706  1
  Ca  Ca2  1  0.00000000  0.00000000  0.00000000  1
  Co  Co3  1  0.58340700  0.58340701  0.75427804  1
  Co  Co4  1  0.58340701  0.07890800  0.75427803  1
  Co  Co5  1  0.07890799  0.58340701  0.75427803  1
  Co  Co6  1  0.41659300  0.41659301  0.24572203  1
  Co  Co7  1  0.41659299  0.92109202  0.24572204  1
  Co  Co8  1  0.92109201  0.41659301  0.24572205  1
  Co  Co9  1  0.33458100  0.33458101  0.99625603  1
  Co  Co10  1  0.66541900  0.66541901  0.00374404  1
  Co  Co11  1  0.50000000  0.50000001  0.50000004  1
