# generated using pymatgen
data_Pm
_symmetry_space_group_name_H-M   'P 1'
_cell_length_a   6.30199194
_cell_length_b   7.69198418
_cell_length_c   7.69198418
_cell_angle_alpha   60.00000000
_cell_angle_beta   90.00000000
_cell_angle_gamma   90.00000000
_symmetry_Int_Tables_number   1
_chemical_formula_structural   Pm
_chemical_formula_sum   Pm8
_cell_volume   322.91278436
_cell_formula_units_Z   8
loop_
 _symmetry_equiv_pos_site_id
 _symmetry_equiv_pos_as_xyz
  1  'x, y, z'
loop_
 _atom_site_type_symbol
 _atom_site_label
 _atom_site_symmetry_multiplicity
 _atom_site_fract_x
 _atom_site_fract_y
 _atom_site_fract_z
 _atom_site_occupancy
  Pm  Pm0  1  0.25000000  0.33333333  0.33333333  1
  Pm  Pm1  1  0.75000001  0.66666666  0.66666666  1
  Pm  Pm2  1  0.75000001  0.16542400  0.16542300  1
  Pm  Pm3  1  0.75000001  0.16542400  0.66915201  1
  Pm  Pm4  1  0.25000000  0.33084700  0.83457701  1
  Pm  Pm5  1  0.25000000  0.83457599  0.83457699  1
  Pm  Pm6  1  0.25000000  0.83457599  0.33084798  1
  Pm  Pm7  1  0.75000001  0.66915300  0.16542298  1
