# generated using pymatgen
data_Sm3Cd3Pd2Pb
_symmetry_space_group_name_H-M   'P 1'
_cell_length_a   4.21948624
_cell_length_b   7.97003412
_cell_length_c   7.97003412
_cell_angle_alpha   120.00000000
_cell_angle_beta   90.00000000
_cell_angle_gamma   90.00000000
_symmetry_Int_Tables_number   1
_chemical_formula_structural   Sm3Cd3Pd2Pb
_chemical_formula_sum   'Sm3 Cd3 Pd2 Pb1'
_cell_volume   232.11893423
_cell_formula_units_Z   1
loop_
 _symmetry_equiv_pos_site_id
 _symmetry_equiv_pos_as_xyz
  1  'x, y, z'
loop_
 _atom_site_type_symbol
 _atom_site_label
 _atom_site_symmetry_multiplicity
 _atom_site_fract_x
 _atom_site_fract_y
 _atom_site_fract_z
 _atom_site_occupancy
  Sm  Sm0  1  -0.00000000  0.59108299  0.59108300  1
  Sm  Sm1  1  -0.00000000  0.40891700  0.00000000  1
  Sm  Sm2  1  0.00000000  0.00000000  0.40891700  1
  Cd  Cd3  1  0.49999997  0.24956800  0.24956800  1
  Cd  Cd4  1  0.49999997  0.75043199  0.00000000  1
  Cd  Cd5  1  0.49999997  0.00000000  0.75043200  1
  Pd  Pd6  1  0.49999997  0.33333333  0.66666667  1
  Pd  Pd7  1  0.49999997  0.66666666  0.33333334  1
  Pb  Pb8  1  0.00000000  0.00000000  0.00000000  1
