# generated using pymatgen
data_ZnCu2
_symmetry_space_group_name_H-M   'P 1'
_cell_length_a   2.78495240
_cell_length_b   2.78495240
_cell_length_c   6.92423439
_cell_angle_alpha   78.39858246
_cell_angle_beta   78.39858246
_cell_angle_gamma   59.99999237
_symmetry_Int_Tables_number   1
_chemical_formula_structural   ZnCu2
_chemical_formula_sum   'Zn1 Cu2'
_cell_volume   45.23777217
_cell_formula_units_Z   1
loop_
 _symmetry_equiv_pos_site_id
 _symmetry_equiv_pos_as_xyz
  1  'x, y, z'
loop_
 _atom_site_type_symbol
 _atom_site_label
 _atom_site_symmetry_multiplicity
 _atom_site_fract_x
 _atom_site_fract_y
 _atom_site_fract_z
 _atom_site_occupancy
  Cu  Cu0  1  0.00000000  0.00000000  0.00000000  1
  Zn  Zn1  1  0.22233700  0.22233700  0.33298900  1
  Cu  Cu2  1  0.77766301  0.77766298  0.66701098  1
