# generated using pymatgen
data_Eu3C5O12
_symmetry_space_group_name_H-M   'P 1'
_cell_length_a   6.60637569
_cell_length_b   6.60637569
_cell_length_c   6.60637665
_cell_angle_alpha   100.50825500
_cell_angle_beta   100.50825500
_cell_angle_gamma   100.50823975
_symmetry_Int_Tables_number   1
_chemical_formula_structural   Eu3C5O12
_chemical_formula_sum   'Eu3 C5 O12'
_cell_volume   271.71697849
_cell_formula_units_Z   1
loop_
 _symmetry_equiv_pos_site_id
 _symmetry_equiv_pos_as_xyz
  1  'x, y, z'
loop_
 _atom_site_type_symbol
 _atom_site_label
 _atom_site_symmetry_multiplicity
 _atom_site_fract_x
 _atom_site_fract_y
 _atom_site_fract_z
 _atom_site_occupancy
  Eu  Eu0  1  0.07749898  0.61533702  0.61533701  1
  Eu  Eu1  1  0.61533699  0.61533702  0.07749905  1
  Eu  Eu2  1  0.61533702  0.07749900  0.61533701  1
  C  C3  1  0.92456002  0.18776600  0.18776604  1
  C  C4  1  0.18776600  0.18776600  0.92455999  1
  C  C5  1  0.18776597  0.92456002  0.18776604  1
  C  C6  1  0.06811400  0.06811400  0.51547999  1
  C  C7  1  0.06811398  0.51548001  0.06811402  1
  O  O8  1  0.51548001  0.06811400  0.06811402  1
  O  O9  1  0.56192299  0.56192301  0.56192303  1
  O  O10  1  0.94513402  0.18008500  0.41165304  1
  O  O11  1  0.18008499  0.41165301  0.94513399  1
  O  O12  1  0.41165297  0.94513402  0.18008505  1
  O  O13  1  0.94513401  0.41165301  0.18008505  1
  O  O14  1  0.41165301  0.18008500  0.94513400  1
  O  O15  1  0.18008496  0.94513402  0.41165303  1
  O  O16  1  0.06117200  0.06117200  0.72127498  1
  O  O17  1  0.06117197  0.72127502  0.06117203  1
  O  O18  1  0.72127502  0.06117200  0.06117203  1
  O  O19  1  0.10312500  0.10312500  0.10312501  1
