# generated using pymatgen
data_Li4CrO7
_symmetry_space_group_name_H-M   'P 1'
_cell_length_a   3.78743148
_cell_length_b   3.78782845
_cell_length_c   9.69104290
_cell_angle_alpha   89.99902344
_cell_angle_beta   89.99901581
_cell_angle_gamma   89.59299469
_symmetry_Int_Tables_number   1
_chemical_formula_structural   Li4CrO7
_chemical_formula_sum   'Li4 Cr1 O7'
_cell_volume   139.02555708
_cell_formula_units_Z   1
loop_
 _symmetry_equiv_pos_site_id
 _symmetry_equiv_pos_as_xyz
  1  'x, y, z'
loop_
 _atom_site_type_symbol
 _atom_site_label
 _atom_site_symmetry_multiplicity
 _atom_site_fract_x
 _atom_site_fract_y
 _atom_site_fract_z
 _atom_site_occupancy
  Li  Li0  1  0.50000196  0.99999503  0.74982100  1
  Li  Li1  1  0.00000298  0.49999701  0.25022300  1
  Li  Li2  1  0.50000597  0.50000601  0.49995500  1
  Li  Li3  1  0.99999798  0.00001400  0.99996701  1
  O  O4  1  0.49999796  0.99999403  0.96013800  1
  Cr  Cr5  1  0.99999596  0.49999701  0.46008201  1
  O  O6  1  0.49999796  0.99999903  0.53992400  1
  O  O7  1  0.99999696  0.49999201  0.03983401  1
  O  O8  1  0.50000297  0.50000101  0.29475200  1
  O  O9  1  0.00000300  0.00000600  0.79451900  1
  O  O10  1  0.99999598  0.00000000  0.20549101  1
  O  O11  1  0.50000097  0.49999901  0.70529400  1
