# generated using pymatgen
data_Cu2Se
_symmetry_space_group_name_H-M   'P 1'
_cell_length_a   4.00835180
_cell_length_b   7.58669138
_cell_length_c   7.68129444
_cell_angle_alpha   85.22194672
_cell_angle_beta   75.52254486
_cell_angle_gamma   74.75213623
_symmetry_Int_Tables_number   1
_chemical_formula_structural   Cu2Se
_chemical_formula_sum   'Cu8 Se4'
_cell_volume   218.17138103
_cell_formula_units_Z   4
loop_
 _symmetry_equiv_pos_site_id
 _symmetry_equiv_pos_as_xyz
  1  'x, y, z'
loop_
 _atom_site_type_symbol
 _atom_site_label
 _atom_site_symmetry_multiplicity
 _atom_site_fract_x
 _atom_site_fract_y
 _atom_site_fract_z
 _atom_site_occupancy
  Cu  Cu0  1  0.00613192  0.99098499  0.99037507  1
  Cu  Cu1  1  0.63058299  0.39957900  0.35116600  1
  Cu  Cu2  1  0.77890198  0.54469800  0.89775701  1
  Cu  Cu3  1  0.99495000  0.35171600  0.59980299  1
  Cu  Cu4  1  0.99680598  0.64424500  0.39326401  1
  Cu  Cu5  1  0.22502297  0.44189600  0.12474602  1
  Cu  Cu6  1  0.63364501  0.11828400  0.54740399  1
  Cu  Cu7  1  0.41182296  0.61675200  0.64446903  1
  Se  Se8  1  0.56278096  0.68883600  0.18518702  1
  Se  Se9  1  0.24812499  0.16940000  0.32938600  1
  Se  Se10  1  0.79865396  0.81173899  0.66457303  1
  Se  Se11  1  0.38757399  0.32587200  0.81787101  1
