# generated using pymatgen
data_Ca2TiRuO6
_symmetry_space_group_name_H-M   'P 1'
_cell_length_a   5.54268599
_cell_length_b   5.70614100
_cell_length_c   7.89808559
_cell_angle_alpha   90.00000000
_cell_angle_beta   89.97870636
_cell_angle_gamma   90.00000000
_symmetry_Int_Tables_number   1
_chemical_formula_structural   Ca2TiRuO6
_chemical_formula_sum   'Ca4 Ti2 Ru2 O12'
_cell_volume   249.79548220
_cell_formula_units_Z   2
loop_
 _symmetry_equiv_pos_site_id
 _symmetry_equiv_pos_as_xyz
  1  'x, y, z'
loop_
 _atom_site_type_symbol
 _atom_site_label
 _atom_site_symmetry_multiplicity
 _atom_site_fract_x
 _atom_site_fract_y
 _atom_site_fract_z
 _atom_site_occupancy
  Ca  Ca0  1  0.98726500  0.44385300  0.25249197  1
  Ca  Ca1  1  0.01273500  0.55614700  0.74750800  1
  Ca  Ca2  1  0.51273500  0.94385300  0.24750799  1
  Ca  Ca3  1  0.48726500  0.05614700  0.75249198  1
  Ti  Ti4  1  0.00000000  0.00000000  0.50000000  1
  Ti  Ti5  1  0.50000000  0.50000000  -0.00000001  1
  Ru  Ru6  1  0.00000000  0.00000000  0.00000000  1
  Ru  Ru7  1  0.50000000  0.50000000  0.49999998  1
  O  O8  1  0.09635100  0.03260700  0.24721200  1
  O  O9  1  0.90364900  0.96739300  0.75278797  1
  O  O10  1  0.40364900  0.53260700  0.25278799  1
  O  O11  1  0.59635100  0.46739300  0.74721198  1
  O  O12  1  0.80664600  0.70664600  0.05197098  1
  O  O13  1  0.19335400  0.29335400  0.94802899  1
  O  O14  1  0.69335400  0.20664600  0.44802898  1
  O  O15  1  0.30664600  0.79335400  0.55197099  1
  O  O16  1  0.70222100  0.19661600  0.04703798  1
  O  O17  1  0.29777900  0.80338400  0.95296199  1
  O  O18  1  0.79777900  0.69661600  0.45296198  1
  O  O19  1  0.20222100  0.30338400  0.54703799  1
