# generated using pymatgen
data_Mn2CuGe
_symmetry_space_group_name_H-M   'P 1'
_cell_length_a   3.07339096
_cell_length_b   3.07339096
_cell_length_c   12.28805161
_cell_angle_alpha   90.00000000
_cell_angle_beta   90.00000000
_cell_angle_gamma   90.00000000
_symmetry_Int_Tables_number   1
_chemical_formula_structural   Mn2CuGe
_chemical_formula_sum   'Mn4 Cu2 Ge2'
_cell_volume   116.06964223
_cell_formula_units_Z   2
loop_
 _symmetry_equiv_pos_site_id
 _symmetry_equiv_pos_as_xyz
  1  'x, y, z'
loop_
 _atom_site_type_symbol
 _atom_site_label
 _atom_site_symmetry_multiplicity
 _atom_site_fract_x
 _atom_site_fract_y
 _atom_site_fract_z
 _atom_site_occupancy
  Mn  Mn0  1  0.00000000  0.00000000  0.87506603  1
  Mn  Mn1  1  0.00000000  0.00000000  0.12493400  1
  Mn  Mn2  1  0.00000000  0.00000000  0.37482601  1
  Mn  Mn3  1  0.00000000  0.00000000  0.62517402  1
  Cu  Cu4  1  0.50000001  0.50000001  0.00000000  1
  Cu  Cu5  1  0.50000001  0.50000001  0.25000701  1
  Ge  Ge6  1  0.50000001  0.50000001  0.50000002  1
  Ge  Ge7  1  0.50000001  0.50000001  0.74999302  1
