# generated using pymatgen
data_TmNiGe3
_symmetry_space_group_name_H-M   'P 1'
_cell_length_a   4.07894421
_cell_length_b   4.07894421
_cell_length_c   5.76849794
_cell_angle_alpha   110.70481110
_cell_angle_beta   110.70481110
_cell_angle_gamma   90.00000000
_symmetry_Int_Tables_number   1
_chemical_formula_structural   TmNiGe3
_chemical_formula_sum   'Tm1 Ni1 Ge3'
_cell_volume   83.11681700
_cell_formula_units_Z   1
loop_
 _symmetry_equiv_pos_site_id
 _symmetry_equiv_pos_as_xyz
  1  'x, y, z'
loop_
 _atom_site_type_symbol
 _atom_site_label
 _atom_site_symmetry_multiplicity
 _atom_site_fract_x
 _atom_site_fract_y
 _atom_site_fract_z
 _atom_site_occupancy
  Tm  Tm0  1  0.00000000  0.00000000  0.00000000  1
  Ni  Ni1  1  0.36894099  0.36894098  0.73788204  1
  Ge  Ge2  1  0.63105898  0.63105897  0.26211803  1
  Ge  Ge3  1  0.25000000  0.74999997  0.50000003  1
  Ge  Ge4  1  0.74999997  0.24999999  0.50000003  1
