# generated using pymatgen
data_CsSbSe3
_symmetry_space_group_name_H-M   'P 1'
_cell_length_a   7.04458380
_cell_length_b   8.28795147
_cell_length_c   14.11246586
_cell_angle_alpha   90.00000000
_cell_angle_beta   90.00000000
_cell_angle_gamma   90.00000000
_symmetry_Int_Tables_number   1
_chemical_formula_structural   CsSbSe3
_chemical_formula_sum   'Cs4 Sb4 Se12'
_cell_volume   823.95869901
_cell_formula_units_Z   4
loop_
 _symmetry_equiv_pos_site_id
 _symmetry_equiv_pos_as_xyz
  1  'x, y, z'
loop_
 _atom_site_type_symbol
 _atom_site_label
 _atom_site_symmetry_multiplicity
 _atom_site_fract_x
 _atom_site_fract_y
 _atom_site_fract_z
 _atom_site_occupancy
  Cs  Cs0  1  0.75000002  0.00000000  0.66619501  1
  Cs  Cs1  1  0.25000001  0.00000000  0.33380500  1
  Cs  Cs2  1  0.75000002  0.49999997  0.16619500  1
  Cs  Cs3  1  0.25000001  0.49999997  0.83380501  1
  Sb  Sb4  1  0.50000001  0.00000000  0.00000000  1
  Sb  Sb5  1  0.00000000  0.00000000  0.00000000  1
  Sb  Sb6  1  0.00000000  0.49999997  0.50000001  1
  Sb  Sb7  1  0.50000001  0.49999997  0.50000001  1
  Se  Se8  1  0.28483601  0.75572196  0.08278800  1
  Se  Se9  1  0.71516402  0.25572199  0.41721200  1
  Se  Se10  1  0.21516401  0.24427799  0.08278800  1
  Se  Se11  1  0.78483602  0.75572196  0.91721201  1
  Se  Se12  1  0.28483601  0.74427796  0.58278801  1
  Se  Se13  1  0.71516402  0.24427799  0.91721201  1
  Se  Se14  1  0.75000002  0.00000000  0.15607400  1
  Se  Se15  1  0.21516401  0.25572199  0.58278801  1
  Se  Se16  1  0.25000001  0.49999997  0.34392600  1
  Se  Se17  1  0.75000002  0.49999997  0.65607401  1
  Se  Se18  1  0.25000001  0.00000000  0.84392601  1
  Se  Se19  1  0.78483602  0.74427796  0.41721200  1
