# generated using pymatgen
data_EuGa4
_symmetry_space_group_name_H-M   'P 1'
_cell_length_a   4.32712889
_cell_length_b   4.32712889
_cell_length_c   10.98884487
_cell_angle_alpha   90.00000000
_cell_angle_beta   90.00000000
_cell_angle_gamma   90.00000000
_symmetry_Int_Tables_number   1
_chemical_formula_structural   EuGa4
_chemical_formula_sum   'Eu2 Ga8'
_cell_volume   205.75561935
_cell_formula_units_Z   2
loop_
 _symmetry_equiv_pos_site_id
 _symmetry_equiv_pos_as_xyz
  1  'x, y, z'
loop_
 _atom_site_type_symbol
 _atom_site_label
 _atom_site_symmetry_multiplicity
 _atom_site_fract_x
 _atom_site_fract_y
 _atom_site_fract_z
 _atom_site_occupancy
  Eu  Eu0  1  0.00000000  0.00000000  0.99893201  1
  Eu  Eu1  1  0.50000001  0.50000001  0.49801601  1
  Ga  Ga2  1  0.00000000  0.50000001  0.23946600  1
  Ga  Ga3  1  0.50000001  0.00000000  0.75357001  1
  Ga  Ga4  1  0.50000001  0.00000000  0.23946600  1
  Ga  Ga5  1  0.00000000  0.50000001  0.75357001  1
  Ga  Ga6  1  0.00000000  0.00000000  0.61500801  1
  Ga  Ga7  1  0.00000000  0.00000000  0.38232000  1
  Ga  Ga8  1  0.50000001  0.50000001  0.89881801  1
  Ga  Ga9  1  0.50000001  0.50000001  0.12083300  1
