# generated using pymatgen
data_CaTiO3
_symmetry_space_group_name_H-M   'P 1'
_cell_length_a   5.61447477
_cell_length_b   5.84734106
_cell_length_c   7.80675220
_cell_angle_alpha   90.00000000
_cell_angle_beta   89.77677917
_cell_angle_gamma   90.00000000
_symmetry_Int_Tables_number   1
_chemical_formula_structural   CaTiO3
_chemical_formula_sum   'Ca4 Ti4 O12'
_cell_volume   256.29176937
_cell_formula_units_Z   4
loop_
 _symmetry_equiv_pos_site_id
 _symmetry_equiv_pos_as_xyz
  1  'x, y, z'
loop_
 _atom_site_type_symbol
 _atom_site_label
 _atom_site_symmetry_multiplicity
 _atom_site_fract_x
 _atom_site_fract_y
 _atom_site_fract_z
 _atom_site_occupancy
  Ca  Ca0  1  0.51383702  0.93809499  0.24966102  1
  Ca  Ca1  1  0.98616304  0.43809500  0.25033904  1
  Ca  Ca2  1  0.48616302  0.06190500  0.75033902  1
  Ca  Ca3  1  0.01383700  0.56190499  0.74966100  1
  Ti  Ti4  1  0.00000000  0.00000000  0.50000000  1
  Ti  Ti5  1  0.50000002  0.49999999  0.00000002  1
  Ti  Ti6  1  0.00000000  0.00000000  0.00000000  1
  Ti  Ti7  1  0.50000002  0.49999999  0.50000002  1
  O  O8  1  0.30927901  0.79049899  0.55045902  1
  O  O9  1  0.19072101  0.29049900  0.94954101  1
  O  O10  1  0.70396503  0.19502600  0.04862903  1
  O  O11  1  0.79603503  0.69502599  0.45137104  1
  O  O12  1  0.69072103  0.20950100  0.44954103  1
  O  O13  1  0.80927903  0.70950099  0.05045903  1
  O  O14  1  0.29603501  0.80497399  0.95137102  1
  O  O15  1  0.20396501  0.30497400  0.54862901  1
  O  O16  1  0.40421602  0.52866799  0.24782202  1
  O  O17  1  0.09578400  0.02866800  0.25217801  1
  O  O18  1  0.59578402  0.47133200  0.75217803  1
  O  O19  1  0.90421604  0.97133199  0.74782204  1
