# generated using pymatgen
data_Li6CuO9
_symmetry_space_group_name_H-M   'P 1'
_cell_length_a   5.40844202
_cell_length_b   5.43574095
_cell_length_c   9.86627579
_cell_angle_alpha   90.78516388
_cell_angle_beta   90.00000000
_cell_angle_gamma   119.83400726
_symmetry_Int_Tables_number   1
_chemical_formula_structural   Li6CuO9
_chemical_formula_sum   'Li6 Cu1 O9'
_cell_volume   251.58492539
_cell_formula_units_Z   1
loop_
 _symmetry_equiv_pos_site_id
 _symmetry_equiv_pos_as_xyz
  1  'x, y, z'
loop_
 _atom_site_type_symbol
 _atom_site_label
 _atom_site_symmetry_multiplicity
 _atom_site_fract_x
 _atom_site_fract_y
 _atom_site_fract_z
 _atom_site_occupancy
  Li  Li0  1  0.98824599  0.64738300  0.17432703  1
  Li  Li1  1  0.65913699  0.64738300  0.67432704  1
  Li  Li2  1  0.96798299  0.29482700  0.85313104  1
  Li  Li3  1  0.32684400  0.29482700  0.35313102  1
  Li  Li4  1  0.60745600  0.15789500  0.90070703  1
  Li  Li5  1  0.45757199  0.53558300  0.50084203  1
  Cu  Cu6  1  0.93317199  0.55080100  0.74434704  1
  O  O7  1  0.61762899  0.55080100  0.24434703  1
  O  O8  1  0.85935500  0.05269500  0.70617402  1
  O  O9  1  0.00086000  0.03549100  0.94569903  1
  O  O10  1  0.03463100  0.03549100  0.44569901  1
  O  O11  1  0.19334000  0.05269500  0.20617401  1
  O  O12  1  0.34305399  0.46781300  0.80012704  1
  O  O13  1  0.12475899  0.46781300  0.30012703  1
  O  O14  1  0.07801099  0.53558300  0.00084202  1
  O  O15  1  0.55043900  0.15789500  0.40070702  1
