# generated using pymatgen
data_MgTiO3
_symmetry_space_group_name_H-M   'P 1'
_cell_length_a   3.20346498
_cell_length_b   6.53679276
_cell_length_c   6.53679276
_cell_angle_alpha   106.04586792
_cell_angle_beta   90.00000000
_cell_angle_gamma   90.00000000
_symmetry_Int_Tables_number   1
_chemical_formula_structural   MgTiO3
_chemical_formula_sum   'Mg2 Ti2 O6'
_cell_volume   131.55010724
_cell_formula_units_Z   2
loop_
 _symmetry_equiv_pos_site_id
 _symmetry_equiv_pos_as_xyz
  1  'x, y, z'
loop_
 _atom_site_type_symbol
 _atom_site_label
 _atom_site_symmetry_multiplicity
 _atom_site_fract_x
 _atom_site_fract_y
 _atom_site_fract_z
 _atom_site_occupancy
  Ti  Ti0  1  -0.00000000  0.49999999  -0.00000001  1
  Mg  Mg1  1  0.00000000  0.00000000  0.49999999  1
  Mg  Mg2  1  0.50000000  0.49999999  0.49999998  1
  Ti  Ti3  1  0.50000000  0.00000000  -0.00000000  1
  O  O4  1  -0.00000000  0.35637799  0.64362198  1
  O  O5  1  0.50000000  0.32635799  0.04928499  1
  O  O6  1  0.50000000  0.95071498  0.67364196  1
  O  O7  1  0.50000000  0.04928500  0.32635799  1
  O  O8  1  0.50000000  0.67364198  0.95071496  1
  O  O9  1  -0.00000000  0.64362198  0.35637798  1
