# generated using pymatgen
data_BaAgSb
_symmetry_space_group_name_H-M   'P 1'
_cell_length_a   4.94231415
_cell_length_b   4.94231367
_cell_length_c   9.20051289
_cell_angle_alpha   90.00000000
_cell_angle_beta   90.00000000
_cell_angle_gamma   120.00000000
_symmetry_Int_Tables_number   1
_chemical_formula_structural   BaAgSb
_chemical_formula_sum   'Ba2 Ag2 Sb2'
_cell_volume   194.62710452
_cell_formula_units_Z   2
loop_
 _symmetry_equiv_pos_site_id
 _symmetry_equiv_pos_as_xyz
  1  'x, y, z'
loop_
 _atom_site_type_symbol
 _atom_site_label
 _atom_site_symmetry_multiplicity
 _atom_site_fract_x
 _atom_site_fract_y
 _atom_site_fract_z
 _atom_site_occupancy
  Ba  Ba0  1  0.00000000  0.00000000  0.50000001  1
  Ba  Ba1  1  0.00000000  0.00000000  0.00000000  1
  Ag  Ag2  1  0.33333329  0.66666664  0.25000000  1
  Ag  Ag3  1  0.66666663  0.33333332  0.75000001  1
  Sb  Sb4  1  0.33333329  0.66666664  0.75000001  1
  Sb  Sb5  1  0.66666663  0.33333332  0.25000000  1
