# generated using pymatgen
data_Ti4WC2
_symmetry_space_group_name_H-M   'P 1'
_cell_length_a   3.13513374
_cell_length_b   3.13513374
_cell_length_c   10.41286373
_cell_angle_alpha   81.34169769
_cell_angle_beta   81.34169769
_cell_angle_gamma   60.00000381
_symmetry_Int_Tables_number   1
_chemical_formula_structural   Ti4WC2
_chemical_formula_sum   'Ti4 W1 C2'
_cell_volume   87.28714183
_cell_formula_units_Z   1
loop_
 _symmetry_equiv_pos_site_id
 _symmetry_equiv_pos_as_xyz
  1  'x, y, z'
loop_
 _atom_site_type_symbol
 _atom_site_label
 _atom_site_symmetry_multiplicity
 _atom_site_fract_x
 _atom_site_fract_y
 _atom_site_fract_z
 _atom_site_occupancy
  Ti  Ti0  1  0.62658100  0.62658101  0.12025700  1
  Ti  Ti1  1  0.37531800  0.37531801  0.87404602  1
  Ti  Ti2  1  0.79040300  0.79040302  0.62879101  1
  Ti  Ti3  1  0.20568000  0.20568000  0.38296001  1
  W  W4  1  0.49749700  0.49749701  0.50750901  1
  C  C5  1  0.00406300  0.00406300  0.98781103  1
  C  C6  1  0.91545800  0.91545802  0.25362600  1
