# generated using pymatgen
data_YNbPO3
_symmetry_space_group_name_H-M   'P 1'
_cell_length_a   3.96922159
_cell_length_b   3.96922159
_cell_length_c   8.55924225
_cell_angle_alpha   76.59294891
_cell_angle_beta   76.59294891
_cell_angle_gamma   60.00000763
_symmetry_Int_Tables_number   1
_chemical_formula_structural   YNbPO3
_chemical_formula_sum   'Y1 Nb1 P1 O3'
_cell_volume   112.51870307
_cell_formula_units_Z   1
loop_
 _symmetry_equiv_pos_site_id
 _symmetry_equiv_pos_as_xyz
  1  'x, y, z'
loop_
 _atom_site_type_symbol
 _atom_site_label
 _atom_site_symmetry_multiplicity
 _atom_site_fract_x
 _atom_site_fract_y
 _atom_site_fract_z
 _atom_site_occupancy
  Y  Y0  1  0.00000000  0.00000000  0.00000000  1
  Nb  Nb1  1  0.50000002  0.50000000  0.49999996  1
  P  P2  1  0.39078902  0.39078900  0.82763295  1
  O  O3  1  0.60921103  0.60921100  0.17236697  1
  O  O4  1  0.16736501  0.16736500  0.49790498  1
  O  O5  1  0.83263504  0.83263500  0.50209495  1
