# generated using pymatgen
data_Ti5Pt11
_symmetry_space_group_name_H-M   'P 1'
_cell_length_a   5.71125793
_cell_length_b   5.79965401
_cell_length_c   8.85011578
_cell_angle_alpha   109.12679291
_cell_angle_beta   90.00000000
_cell_angle_gamma   90.00000000
_symmetry_Int_Tables_number   1
_chemical_formula_structural   Ti5Pt11
_chemical_formula_sum   'Ti5 Pt11'
_cell_volume   276.96236758
_cell_formula_units_Z   1
loop_
 _symmetry_equiv_pos_site_id
 _symmetry_equiv_pos_as_xyz
  1  'x, y, z'
loop_
 _atom_site_type_symbol
 _atom_site_label
 _atom_site_symmetry_multiplicity
 _atom_site_fract_x
 _atom_site_fract_y
 _atom_site_fract_z
 _atom_site_occupancy
  Ti  Ti0  1  0.00000000  0.36383099  0.72766199  1
  Ti  Ti1  1  0.00000000  0.63616899  0.27233798  1
  Ti  Ti2  1  0.50000001  0.86383099  0.72766197  1
  Ti  Ti3  1  0.50000001  0.13616900  0.27233799  1
  Ti  Ti4  1  0.81852201  0.31732100  -0.00000001  1
  Pt  Pt5  1  0.68147801  0.81732099  0.99999997  1
  Pt  Pt6  1  0.31852200  0.18267900  0.99999999  1
  Pt  Pt7  1  0.50000001  0.61919799  0.23839598  1
  Pt  Pt8  1  0.25000000  0.00211000  0.50000000  1
  Pt  Pt9  1  0.00000000  0.11919800  0.23839600  1
  Pt  Pt10  1  0.75000001  0.99788998  0.49999997  1
  Pt  Pt11  1  0.18147800  0.68267899  0.99999998  1
  Pt  Pt12  1  0.50000001  0.38080199  0.76160399  1
  Pt  Pt13  1  0.00000000  0.88080199  0.76160397  1
  Pt  Pt14  1  0.75000001  0.49788999  0.49999998  1
  Pt  Pt15  1  0.25000000  0.50210999  0.49999998  1
