# generated using pymatgen
data_Sr2ZrNbO6
_symmetry_space_group_name_H-M   'P 1'
_cell_length_a   5.88909197
_cell_length_b   5.88909197
_cell_length_c   5.88909197
_cell_angle_alpha   85.56925964
_cell_angle_beta   62.52425766
_cell_angle_gamma   117.47574615
_symmetry_Int_Tables_number   1
_chemical_formula_structural   Sr2ZrNbO6
_chemical_formula_sum   'Sr2 Zr1 Nb1 O6'
_cell_volume   149.44767851
_cell_formula_units_Z   1
loop_
 _symmetry_equiv_pos_site_id
 _symmetry_equiv_pos_as_xyz
  1  'x, y, z'
loop_
 _atom_site_type_symbol
 _atom_site_label
 _atom_site_symmetry_multiplicity
 _atom_site_fract_x
 _atom_site_fract_y
 _atom_site_fract_z
 _atom_site_occupancy
  Sr  Sr0  1  0.00000009  0.75000002  0.24999991  1
  Sr  Sr1  1  0.00000003  0.25000001  0.74999995  1
  Nb  Nb2  1  0.50000004  0.50000002  -0.00000005  1
  Zr  Zr3  1  0.50000010  1.00000003  0.49999988  1
  O  O4  1  0.06097209  0.78048602  0.71951389  1
  O  O5  1  0.50000001  0.28048601  0.78048595  1
  O  O6  1  0.50000007  0.71951402  0.21951392  1
  O  O7  1  0.93902799  0.21951401  0.28048598  1
  O  O8  1  0.50000007  0.75000002  0.74999990  1
  O  O9  1  0.50000001  0.25000001  0.24999997  1
