# generated using pymatgen
data_LaCe(SiRu)4
_symmetry_space_group_name_H-M   'P 1'
_cell_length_a   4.24298286
_cell_length_b   4.24298286
_cell_length_c   9.95616341
_cell_angle_alpha   90.00000000
_cell_angle_beta   90.00000000
_cell_angle_gamma   90.00000000
_symmetry_Int_Tables_number   1
_chemical_formula_structural   LaCe(SiRu)4
_chemical_formula_sum   'La1 Ce1 Si4 Ru4'
_cell_volume   179.23984991
_cell_formula_units_Z   1
loop_
 _symmetry_equiv_pos_site_id
 _symmetry_equiv_pos_as_xyz
  1  'x, y, z'
loop_
 _atom_site_type_symbol
 _atom_site_label
 _atom_site_symmetry_multiplicity
 _atom_site_fract_x
 _atom_site_fract_y
 _atom_site_fract_z
 _atom_site_occupancy
  La  La0  1  0.50000002  0.50000002  0.49999998  1
  Ce  Ce1  1  0.00000000  0.00000000  0.00000000  1
  Si  Si2  1  0.50000002  0.50000002  0.11762400  1
  Si  Si3  1  0.00000000  0.00000000  0.61983597  1
  Si  Si4  1  0.00000000  0.00000000  0.38016398  1
  Si  Si5  1  0.50000002  0.50000002  0.88237596  1
  Ru  Ru6  1  0.00000000  0.50000002  0.24786099  1
  Ru  Ru7  1  0.50000002  0.00000000  0.75213897  1
  Ru  Ru8  1  0.50000002  0.00000000  0.24786099  1
  Ru  Ru9  1  0.00000000  0.50000002  0.75213897  1
