# generated using pymatgen
data_Li6TiNiO10
_symmetry_space_group_name_H-M   'P 1'
_cell_length_a   3.15041208
_cell_length_b   4.69768286
_cell_length_c   14.15076256
_cell_angle_alpha   90.00000000
_cell_angle_beta   90.00000000
_cell_angle_gamma   90.00000000
_symmetry_Int_Tables_number   1
_chemical_formula_structural   Li6TiNiO10
_chemical_formula_sum   'Li6 Ti1 Ni1 O10'
_cell_volume   209.42614679
_cell_formula_units_Z   1
loop_
 _symmetry_equiv_pos_site_id
 _symmetry_equiv_pos_as_xyz
  1  'x, y, z'
loop_
 _atom_site_type_symbol
 _atom_site_label
 _atom_site_symmetry_multiplicity
 _atom_site_fract_x
 _atom_site_fract_y
 _atom_site_fract_z
 _atom_site_occupancy
  Li  Li0  1  0.49999999  0.77052202  0.00576200  1
  Li  Li1  1  0.49999999  0.72585802  0.33333334  1
  Li  Li2  1  0.49999999  0.77876402  0.66059102  1
  Li  Li3  1  -0.00000000  0.22123601  0.16059101  1
  Li  Li4  1  0.00000000  0.22947801  0.50576202  1
  Li  Li5  1  0.00000000  0.27414201  0.83333803  1
  Ti  Ti6  1  0.00000000  0.95253403  0.59856202  1
  O  O7  1  0.49999999  0.04746600  0.09856200  1
  Ni  Ni8  1  0.00000000  0.93065503  0.27062501  1
  O  O9  1  0.00000000  0.95383303  0.93364103  1
  O  O10  1  0.49999999  0.06934500  0.77062502  1
  O  O11  1  0.49999999  0.04616700  0.43364101  1
  O  O12  1  0.49999999  0.44226901  0.56314802  1
  O  O13  1  0.49999999  0.42494201  0.22873801  1
  O  O14  1  0.49999999  0.46835501  0.90334403  1
  O  O15  1  0.00000000  0.55773102  0.06314800  1
  O  O16  1  -0.00000000  0.53164502  0.40334401  1
  O  O17  1  0.00000000  0.57505802  0.72873802  1
