# generated using pymatgen
data_Hf5Ru3
_symmetry_space_group_name_H-M   'P 1'
_cell_length_a   5.57309198
_cell_length_b   8.36741257
_cell_length_c   8.36741352
_cell_angle_alpha   83.63253021
_cell_angle_beta   70.54759216
_cell_angle_gamma   70.54760742
_symmetry_Int_Tables_number   1
_chemical_formula_structural   Hf5Ru3
_chemical_formula_sum   'Hf10 Ru6'
_cell_volume   346.91807253
_cell_formula_units_Z   2
loop_
 _symmetry_equiv_pos_site_id
 _symmetry_equiv_pos_as_xyz
  1  'x, y, z'
loop_
 _atom_site_type_symbol
 _atom_site_label
 _atom_site_symmetry_multiplicity
 _atom_site_fract_x
 _atom_site_fract_y
 _atom_site_fract_z
 _atom_site_occupancy
  Hf  Hf0  1  0.20264598  0.86987203  0.72483501  1
  Hf  Hf1  1  0.79735401  0.13012800  0.27516497  1
  Hf  Hf2  1  0.07251798  0.72483502  0.13012802  1
  Hf  Hf3  1  0.70264699  0.72483502  0.86987199  1
  Hf  Hf4  1  0.92748201  0.27516501  0.86987197  1
  Hf  Hf5  1  0.29735300  0.27516501  0.13012800  1
  Hf  Hf6  1  0.57251901  0.13012800  0.72483498  1
  Hf  Hf7  1  0.42748098  0.86987203  0.27516501  1
  Hf  Hf8  1  0.24999999  0.50000001  0.50000000  1
  Hf  Hf9  1  0.75000000  0.50000001  0.49999998  1
  Ru  Ru10  1  0.75000002  0.00000000  -0.00000003  1
  Ru  Ru11  1  0.25000001  0.00000000  -0.00000001  1
  Ru  Ru12  1  0.66323900  0.50000001  0.17352299  1
  Ru  Ru13  1  0.33676099  0.50000001  0.82647700  1
  Ru  Ru14  1  0.16323800  0.17352301  0.50000000  1
  Ru  Ru15  1  0.83676199  0.82647702  0.49999999  1
