# generated using pymatgen
data_Li3Cr2CoO8
_symmetry_space_group_name_H-M   'P 1'
_cell_length_a   5.71531010
_cell_length_b   6.07695961
_cell_length_c   5.81640816
_cell_angle_alpha   118.59154510
_cell_angle_beta   90.00000000
_cell_angle_gamma   118.05014801
_symmetry_Int_Tables_number   1
_chemical_formula_structural   Li3Cr2CoO8
_chemical_formula_sum   'Li3 Cr2 Co1 O8'
_cell_volume   149.79680926
_cell_formula_units_Z   1
loop_
 _symmetry_equiv_pos_site_id
 _symmetry_equiv_pos_as_xyz
  1  'x, y, z'
loop_
 _atom_site_type_symbol
 _atom_site_label
 _atom_site_symmetry_multiplicity
 _atom_site_fract_x
 _atom_site_fract_y
 _atom_site_fract_z
 _atom_site_occupancy
  Li  Li0  1  0.49999997  0.49999997  -0.00000004  1
  Li  Li1  1  0.99999996  0.49999997  -0.00000004  1
  Li  Li2  1  0.61490998  0.22981999  0.36490997  1
  Cr  Cr3  1  0.38508995  0.77017995  0.63508992  1
  Cr  Cr4  1  0.00000000  0.00000000  0.49999999  1
  Co  Co5  1  0.00000000  0.00000000  0.00000000  1
  O  O6  1  0.23495600  0.00046200  0.25023099  1
  O  O7  1  0.23449395  0.99953694  0.74976790  1
  O  O8  1  0.76504394  0.99953794  0.74976890  1
  O  O9  1  0.76550599  0.00046300  0.25023199  1
  O  O10  1  0.72432297  0.44864597  0.23642096  1
  O  O11  1  0.27567697  0.55135396  0.76357894  1
  O  O12  1  0.27567797  0.55135496  0.28777495  1
  O  O13  1  0.72432197  0.44864497  0.71222495  1
