# generated using pymatgen
data_Li2Co2O5
_symmetry_space_group_name_H-M   'P 1'
_cell_length_a   3.00633192
_cell_length_b   6.93589544
_cell_length_c   10.14976501
_cell_angle_alpha   93.18906403
_cell_angle_beta   90.03108215
_cell_angle_gamma   97.00646973
_symmetry_Int_Tables_number   1
_chemical_formula_structural   Li2Co2O5
_chemical_formula_sum   'Li4 Co4 O10'
_cell_volume   209.72741035
_cell_formula_units_Z   2
loop_
 _symmetry_equiv_pos_site_id
 _symmetry_equiv_pos_as_xyz
  1  'x, y, z'
loop_
 _atom_site_type_symbol
 _atom_site_label
 _atom_site_symmetry_multiplicity
 _atom_site_fract_x
 _atom_site_fract_y
 _atom_site_fract_z
 _atom_site_occupancy
  Li  Li0  1  0.30806911  0.80404302  0.68454899  1
  Li  Li1  1  0.23924906  0.41318101  0.10932900  1
  Li  Li2  1  0.76075110  0.58681901  0.89067100  1
  Li  Li3  1  0.69193104  0.19595700  0.31545100  1
  Co  Co4  1  0.24679512  0.90416102  0.11359399  1
  Co  Co5  1  0.23833305  0.34833501  0.61537700  1
  Co  Co6  1  0.76166710  0.65166501  0.38462300  1
  Co  Co7  1  0.75320503  0.09583900  0.88640600  1
  O  O8  1  0.16793902  0.15122500  0.18007400  1
  O  O9  1  0.29097809  0.66639802  0.02464199  1
  O  O10  1  0.23553407  0.52366801  0.76233600  1
  O  O11  1  0.21132604  0.26828701  0.43799900  1
  O  O12  1  0.54530413  0.86634102  0.29251699  1
  O  O13  1  0.45469603  0.13365900  0.70748300  1
  O  O14  1  0.78867412  0.73171302  0.56200099  1
  O  O15  1  0.76446608  0.47633201  0.23766400  1
  O  O16  1  0.70902206  0.33360201  0.97535800  1
  O  O17  1  0.83206113  0.84877502  0.81992599  1
