# generated using pymatgen
data_Ti2CrSe4
_symmetry_space_group_name_H-M   'P 1'
_cell_length_a   7.70815945
_cell_length_b   7.72436142
_cell_length_c   7.72823620
_cell_angle_alpha   60.84103012
_cell_angle_beta   60.92358017
_cell_angle_gamma   60.94352722
_symmetry_Int_Tables_number   1
_chemical_formula_structural   Ti2CrSe4
_chemical_formula_sum   'Ti4 Cr2 Se8'
_cell_volume   331.99055296
_cell_formula_units_Z   2
loop_
 _symmetry_equiv_pos_site_id
 _symmetry_equiv_pos_as_xyz
  1  'x, y, z'
loop_
 _atom_site_type_symbol
 _atom_site_label
 _atom_site_symmetry_multiplicity
 _atom_site_fract_x
 _atom_site_fract_y
 _atom_site_fract_z
 _atom_site_occupancy
  Ti  Ti0  1  0.50000098  0.50001799  0.49999803  1
  Ti  Ti1  1  0.99998699  0.00000100  0.50000300  1
  Ti  Ti2  1  -0.00000001  0.49999299  0.00000002  1
  Ti  Ti3  1  0.62450299  0.12483800  0.12493300  1
  Cr  Cr4  1  0.37550198  0.87515899  0.87506505  1
  Cr  Cr5  1  0.00001199  0.49999299  0.49999603  1
  Se  Se6  1  0.23025799  0.26829500  0.26822901  1
  Se  Se7  1  0.23114599  0.27005600  0.73095503  1
  Se  Se8  1  0.24577398  0.74581899  0.74569205  1
  Se  Se9  1  0.23113098  0.73085499  0.27016203  1
  Se  Se10  1  0.75419699  0.25419700  0.25432100  1
  Se  Se11  1  0.76886899  0.26914800  0.72983702  1
  Se  Se12  1  0.76974498  0.73168399  0.73177504  1
  Se  Se13  1  0.76887698  0.72994099  0.26903003  1
