# generated using pymatgen
data_La2CoSi7
_symmetry_space_group_name_H-M   'P 1'
_cell_length_a   4.16340208
_cell_length_b   4.16340208
_cell_length_c   9.93137646
_cell_angle_alpha   90.00000000
_cell_angle_beta   90.00000000
_cell_angle_gamma   90.00000000
_symmetry_Int_Tables_number   1
_chemical_formula_structural   La2CoSi7
_chemical_formula_sum   'La2 Co1 Si7'
_cell_volume   172.14965406
_cell_formula_units_Z   1
loop_
 _symmetry_equiv_pos_site_id
 _symmetry_equiv_pos_as_xyz
  1  'x, y, z'
loop_
 _atom_site_type_symbol
 _atom_site_label
 _atom_site_symmetry_multiplicity
 _atom_site_fract_x
 _atom_site_fract_y
 _atom_site_fract_z
 _atom_site_occupancy
  La  La0  1  0.00000000  0.49999999  0.75624697  1
  La  La1  1  0.49999999  0.00000000  0.24375299  1
  Si  Si2  1  0.00000000  0.49999999  0.36998698  1
  Co  Co3  1  0.00000000  0.00000000  0.00000000  1
  Si  Si4  1  0.49999999  0.00000000  0.63001297  1
  Si  Si5  1  0.49999999  0.49999999  0.00000000  1
  Si  Si6  1  0.49999999  0.00000000  0.87281596  1
  Si  Si7  1  0.00000000  0.00000000  0.49999998  1
  Si  Si8  1  0.49999999  0.49999999  0.49999998  1
  Si  Si9  1  0.00000000  0.49999999  0.12718399  1
