# generated using pymatgen
data_SrCrO4
_symmetry_space_group_name_H-M   'P 1'
_cell_length_a   4.21102381
_cell_length_b   5.84129620
_cell_length_c   7.51977968
_cell_angle_alpha   90.00000000
_cell_angle_beta   106.25999451
_cell_angle_gamma   90.00000000
_symmetry_Int_Tables_number   1
_chemical_formula_structural   SrCrO4
_chemical_formula_sum   'Sr2 Cr2 O8'
_cell_volume   177.57169482
_cell_formula_units_Z   2
loop_
 _symmetry_equiv_pos_site_id
 _symmetry_equiv_pos_as_xyz
  1  'x, y, z'
loop_
 _atom_site_type_symbol
 _atom_site_label
 _atom_site_symmetry_multiplicity
 _atom_site_fract_x
 _atom_site_fract_y
 _atom_site_fract_z
 _atom_site_occupancy
  Sr  Sr0  1  0.14201001  0.24999999  0.28401999  1
  Sr  Sr1  1  0.85799003  0.74999997  0.71597997  1
  Cr  Cr2  1  0.59184602  0.74999997  0.18369199  1
  Cr  Cr3  1  0.40815402  0.24999999  0.81630798  1
  O  O4  1  0.68692903  0.50980798  0.37385798  1
  O  O5  1  0.31307101  0.49019198  0.62614198  1
  O  O6  1  0.68692903  0.99019197  0.37385798  1
  O  O7  1  0.31307101  0.00980800  0.62614198  1
  O  O8  1  0.50000002  0.49999998  0.99999997  1
  O  O9  1  0.50000002  0.00000000  0.99999997  1
  O  O10  1  0.08200100  0.74999997  0.16400200  1
  O  O11  1  0.91799903  0.24999999  0.83599797  1
