# generated using pymatgen
data_BaCrO4
_symmetry_space_group_name_H-M   'P 1'
_cell_length_a   5.81097317
_cell_length_b   5.81193018
_cell_length_c   7.83849478
_cell_angle_alpha   69.00945282
_cell_angle_beta   68.44210815
_cell_angle_gamma   89.98648071
_symmetry_Int_Tables_number   1
_chemical_formula_structural   BaCrO4
_chemical_formula_sum   'Ba2 Cr2 O8'
_cell_volume   227.22528491
_cell_formula_units_Z   2
loop_
 _symmetry_equiv_pos_site_id
 _symmetry_equiv_pos_as_xyz
  1  'x, y, z'
loop_
 _atom_site_type_symbol
 _atom_site_label
 _atom_site_symmetry_multiplicity
 _atom_site_fract_x
 _atom_site_fract_y
 _atom_site_fract_z
 _atom_site_occupancy
  Ba  Ba0  1  0.62552393  0.87522197  0.24951803  1
  Ba  Ba1  1  0.37523099  0.12300200  0.74950499  1
  Cr  Cr2  1  0.12311897  0.37578999  0.25170102  1
  Cr  Cr3  1  0.87621795  0.62451598  0.75162800  1
  O  O4  1  0.29559398  0.22915299  0.10527500  1
  O  O5  1  0.72999495  0.59786798  0.60520300  1
  O  O6  1  0.09803595  0.67465198  0.09763904  1
  O  O7  1  0.17529694  0.80324997  0.59773204  1
  O  O8  1  0.69284294  0.77943997  0.89839602  1
  O  O9  1  0.90253897  0.32134499  0.89746198  1
  O  O10  1  0.28155397  0.40207699  0.39898201  1
  O  O11  1  0.82405098  0.19368499  0.39695897  1
