# generated using pymatgen
data_Sr(MgCd)2
_symmetry_space_group_name_H-M   'P 1'
_cell_length_a   5.08095407
_cell_length_b   5.08095407
_cell_length_c   7.34074450
_cell_angle_alpha   110.24767303
_cell_angle_beta   110.24767303
_cell_angle_gamma   90.00000000
_symmetry_Int_Tables_number   1
_chemical_formula_structural   Sr(MgCd)2
_chemical_formula_sum   'Sr1 Mg2 Cd2'
_cell_volume   165.26027377
_cell_formula_units_Z   1
loop_
 _symmetry_equiv_pos_site_id
 _symmetry_equiv_pos_as_xyz
  1  'x, y, z'
loop_
 _atom_site_type_symbol
 _atom_site_label
 _atom_site_symmetry_multiplicity
 _atom_site_fract_x
 _atom_site_fract_y
 _atom_site_fract_z
 _atom_site_occupancy
  Sr  Sr0  1  0.00000000  0.00000000  0.00000000  1
  Mg  Mg1  1  0.38495401  0.38495400  0.76990804  1
  Mg  Mg2  1  0.25000002  0.75000000  0.50000004  1
  Cd  Cd3  1  0.61504602  0.61504600  0.23009204  1
  Cd  Cd4  1  0.75000000  0.25000000  0.50000004  1
