# generated using pymatgen
data_BaSb4
_symmetry_space_group_name_H-M   'P 1'
_cell_length_a   4.75945377
_cell_length_b   11.45502758
_cell_length_c   11.45502758
_cell_angle_alpha   76.14650726
_cell_angle_beta   78.00975037
_cell_angle_gamma   78.00975037
_symmetry_Int_Tables_number   1
_chemical_formula_structural   BaSb4
_chemical_formula_sum   'Ba4 Sb16'
_cell_volume   584.86294169
_cell_formula_units_Z   4
loop_
 _symmetry_equiv_pos_site_id
 _symmetry_equiv_pos_as_xyz
  1  'x, y, z'
loop_
 _atom_site_type_symbol
 _atom_site_label
 _atom_site_symmetry_multiplicity
 _atom_site_fract_x
 _atom_site_fract_y
 _atom_site_fract_z
 _atom_site_occupancy
  Ba  Ba0  1  0.61189400  0.88810597  0.88810594  1
  Ba  Ba1  1  0.38790501  0.36180399  0.86238595  1
  Ba  Ba2  1  0.38790499  0.86238597  0.36180396  1
  Ba  Ba3  1  0.61210802  0.38789199  0.38789197  1
  Sb  Sb4  1  0.40999502  0.09000500  0.09000499  1
  Sb  Sb5  1  0.41154000  0.58845998  0.58845996  1
  Sb  Sb6  1  0.59010401  0.65851898  0.16127297  1
  Sb  Sb7  1  0.59010503  0.16127299  0.65851796  1
  Sb  Sb8  1  0.80298803  0.30110999  0.09291398  1
  Sb  Sb9  1  0.80410101  0.80059197  0.59120595  1
  Sb  Sb10  1  0.19487699  0.44859599  0.16164998  1
  Sb  Sb11  1  0.19595398  0.94985197  0.65823995  1
  Sb  Sb12  1  0.80298704  0.09291400  0.30111098  1
  Sb  Sb13  1  0.80410102  0.59120598  0.80059195  1
  Sb  Sb14  1  0.19595399  0.65823998  0.94985195  1
  Sb  Sb15  1  0.19487800  0.16164999  0.44859498  1
  Sb  Sb16  1  0.00134598  0.62204598  0.37526197  1
  Sb  Sb17  1  0.99995605  0.12489400  0.87519395  1
  Sb  Sb18  1  0.99995602  0.87519397  0.12489397  1
  Sb  Sb19  1  0.00134699  0.37526199  0.62204497  1
