# generated using pymatgen
data_Ho2Fe11
_symmetry_space_group_name_H-M   'P 1'
_cell_length_a   4.99335384
_cell_length_b   6.51835966
_cell_length_c   6.51835966
_cell_angle_alpha   80.59563446
_cell_angle_beta   67.47898102
_cell_angle_gamma   67.47898102
_symmetry_Int_Tables_number   1
_chemical_formula_structural   Ho2Fe11
_chemical_formula_sum   'Ho2 Fe11'
_cell_volume   181.00246047
_cell_formula_units_Z   1
loop_
 _symmetry_equiv_pos_site_id
 _symmetry_equiv_pos_as_xyz
  1  'x, y, z'
loop_
 _atom_site_type_symbol
 _atom_site_label
 _atom_site_symmetry_multiplicity
 _atom_site_fract_x
 _atom_site_fract_y
 _atom_site_fract_z
 _atom_site_occupancy
  Ho  Ho0  1  0.00000000  0.00000000  0.00000000  1
  Ho  Ho1  1  -0.00000001  0.32655400  0.67344597  1
  Fe  Fe2  1  0.34060999  0.65938999  0.65938995  1
  Fe  Fe3  1  0.65939002  0.34061000  0.34060996  1
  Fe  Fe4  1  0.32336201  0.17663800  0.17663798  1
  Fe  Fe5  1  0.67663800  0.82336199  0.82336193  1
  Fe  Fe6  1  1.00000002  0.67344599  0.32655393  1
  Fe  Fe7  1  0.49999999  0.75627599  0.24372395  1
  Fe  Fe8  1  0.50000000  0.49999999  -0.00000003  1
  Fe  Fe9  1  -0.00000002  0.49999999  -0.00000002  1
  Fe  Fe10  1  0.49999998  0.99999999  0.49999994  1
  Fe  Fe11  1  1.00000005  0.00000000  0.49999995  1
  Fe  Fe12  1  0.50000001  0.24372400  0.75627595  1
