# generated using pymatgen
data_ScAlZnAg
_symmetry_space_group_name_H-M   'P 1'
_cell_length_a   4.31127787
_cell_length_b   4.31127787
_cell_length_c   5.07054806
_cell_angle_alpha   115.15885162
_cell_angle_beta   115.15885162
_cell_angle_gamma   90.00000000
_symmetry_Int_Tables_number   1
_chemical_formula_structural   ScAlZnAg
_chemical_formula_sum   'Sc1 Al1 Zn1 Ag1'
_cell_volume   75.31085969
_cell_formula_units_Z   1
loop_
 _symmetry_equiv_pos_site_id
 _symmetry_equiv_pos_as_xyz
  1  'x, y, z'
loop_
 _atom_site_type_symbol
 _atom_site_label
 _atom_site_symmetry_multiplicity
 _atom_site_fract_x
 _atom_site_fract_y
 _atom_site_fract_z
 _atom_site_occupancy
  Sc  Sc0  1  0.00000000  0.00000000  0.00000000  1
  Al  Al1  1  0.49999997  0.50000000  -0.00000006  1
  Zn  Zn2  1  0.74999999  0.25000000  0.49999993  1
  Ag  Ag3  1  0.24999996  0.75000000  0.49999992  1
