# generated using pymatgen
data_DySnPd
_symmetry_space_group_name_H-M   'P 1'
_cell_length_a   4.05062389
_cell_length_b   7.70472193
_cell_length_c   7.70472193
_cell_angle_alpha   120.00000000
_cell_angle_beta   90.00000000
_cell_angle_gamma   90.00000000
_symmetry_Int_Tables_number   1
_chemical_formula_structural   DySnPd
_chemical_formula_sum   'Dy3 Sn3 Pd3'
_cell_volume   208.24111965
_cell_formula_units_Z   3
loop_
 _symmetry_equiv_pos_site_id
 _symmetry_equiv_pos_as_xyz
  1  'x, y, z'
loop_
 _atom_site_type_symbol
 _atom_site_label
 _atom_site_symmetry_multiplicity
 _atom_site_fract_x
 _atom_site_fract_y
 _atom_site_fract_z
 _atom_site_occupancy
  Dy  Dy0  1  -0.00000000  0.41079300  0.41079301  1
  Dy  Dy1  1  0.00000000  0.00000000  0.58920701  1
  Dy  Dy2  1  -0.00000000  0.58920701  1.00000001  1
  Sn  Sn3  1  0.50000001  0.75031401  0.75031401  1
  Sn  Sn4  1  0.50000001  0.00000000  0.24968600  1
  Sn  Sn5  1  0.50000001  0.24968600  1.00000001  1
  Pd  Pd6  1  0.50000001  0.66666667  0.33333334  1
  Pd  Pd7  1  0.50000001  0.33333334  0.66666668  1
  Pd  Pd8  1  0.00000000  0.00000000  0.00000000  1
