# generated using pymatgen
data_Ti2CrS4
_symmetry_space_group_name_H-M   'P 1'
_cell_length_a   7.26219082
_cell_length_b   7.26197195
_cell_length_c   7.26741123
_cell_angle_alpha   60.04469299
_cell_angle_beta   60.04460907
_cell_angle_gamma   60.02354813
_symmetry_Int_Tables_number   1
_chemical_formula_structural   Ti2CrS4
_chemical_formula_sum   'Ti4 Cr2 S8'
_cell_volume   271.24208298
_cell_formula_units_Z   2
loop_
 _symmetry_equiv_pos_site_id
 _symmetry_equiv_pos_as_xyz
  1  'x, y, z'
loop_
 _atom_site_type_symbol
 _atom_site_label
 _atom_site_symmetry_multiplicity
 _atom_site_fract_x
 _atom_site_fract_y
 _atom_site_fract_z
 _atom_site_occupancy
  Ti  Ti0  1  0.12509857  0.12512088  0.62465965  1
  Ti  Ti1  1  0.87489373  0.87488993  0.37534002  1
  Ti  Ti2  1  0.99999565  0.49997064  0.00002212  1
  Ti  Ti3  1  0.49997747  0.00000828  0.00001628  1
  Cr  Cr4  1  0.50002139  0.49999162  0.99999654  1
  Cr  Cr5  1  0.50003399  0.49999163  0.49999018  1
  S  S6  1  0.26214240  0.26213862  0.21358733  1
  S  S7  1  0.28657639  0.73679792  0.23990871  1
  S  S8  1  0.73670218  0.73675725  0.23990512  1
  S  S9  1  0.73677522  0.28657260  0.23993775  1
  S  S10  1  0.26329770  0.26326426  0.76006679  1
  S  S11  1  0.26322884  0.71342899  0.76005546  1
  S  S12  1  0.73784584  0.73786554  0.78640891  1
  S  S13  1  0.71340948  0.26319789  0.76010513  1
