# generated using pymatgen
data_La4SbF5
_symmetry_space_group_name_H-M   'P 1'
_cell_length_a   3.85980606
_cell_length_b   11.55337811
_cell_length_c   11.55337811
_cell_angle_alpha   65.31263733
_cell_angle_beta   80.38410187
_cell_angle_gamma   80.38410187
_symmetry_Int_Tables_number   1
_chemical_formula_structural   La4SbF5
_chemical_formula_sum   'La8 Sb2 F10'
_cell_volume   458.81285033
_cell_formula_units_Z   2
loop_
 _symmetry_equiv_pos_site_id
 _symmetry_equiv_pos_as_xyz
  1  'x, y, z'
loop_
 _atom_site_type_symbol
 _atom_site_label
 _atom_site_symmetry_multiplicity
 _atom_site_fract_x
 _atom_site_fract_y
 _atom_site_fract_z
 _atom_site_occupancy
  La  La0  1  0.71090099  0.14088700  0.43731101  1
  La  La1  1  0.90163696  0.94614803  0.25057699  1
  La  La2  1  0.28909897  0.85911303  0.56268900  1
  La  La3  1  0.71090198  0.43731102  0.14088599  1
  La  La4  1  0.28909798  0.56268902  0.85911402  1
  La  La5  1  0.09836300  0.05385200  0.74942302  1
  La  La6  1  0.90163798  0.25057601  0.94614802  1
  La  La7  1  0.09836197  0.74942403  0.05385199  1
  Sb  Sb8  1  0.49999997  0.64774502  0.35225500  1
  Sb  Sb9  1  0.49999998  0.35225501  0.64774501  1
  F  F10  1  0.91607197  0.58392802  0.58392800  1
  F  F11  1  0.08392798  0.41607201  0.41607201  1
  F  F12  1  0.69242196  0.80757803  0.80757801  1
  F  F13  1  0.30757799  0.19242201  0.19242200  1
  F  F14  1  0.49999996  1.00000004  1.00000001  1
  F  F15  1  0.69429696  0.95703903  0.65436700  1
  F  F16  1  0.30570298  0.34563301  0.04296099  1
  F  F17  1  0.69429697  0.65436702  0.95703901  1
  F  F18  1  0.00000000  0.00000000  0.00000000  1
  F  F19  1  0.30570299  0.04296100  0.34563301  1
