# generated using pymatgen
data_Zr3Sn
_symmetry_space_group_name_H-M   'P 1'
_cell_length_a   5.69511414
_cell_length_b   8.44360638
_cell_length_c   8.44360638
_cell_angle_alpha   83.46941376
_cell_angle_beta   70.29093933
_cell_angle_gamma   70.29093933
_symmetry_Int_Tables_number   1
_chemical_formula_structural   Zr3Sn
_chemical_formula_sum   'Zr12 Sn4'
_cell_volume   359.85096481
_cell_formula_units_Z   4
loop_
 _symmetry_equiv_pos_site_id
 _symmetry_equiv_pos_as_xyz
  1  'x, y, z'
loop_
 _atom_site_type_symbol
 _atom_site_label
 _atom_site_symmetry_multiplicity
 _atom_site_fract_x
 _atom_site_fract_y
 _atom_site_fract_z
 _atom_site_occupancy
  Zr  Zr0  1  0.30869702  0.81219100  0.97773103  1
  Zr  Zr1  1  0.09861900  0.18780900  0.02226901  1
  Zr  Zr2  1  0.87911297  0.02226800  0.81219102  1
  Zr  Zr3  1  0.71357101  0.97773199  0.18780904  1
  Zr  Zr4  1  0.00184502  0.62316000  0.33015102  1
  Zr  Zr5  1  0.95515598  0.37684000  0.66984903  1
  Zr  Zr6  1  0.37499501  0.66984900  0.62316003  1
  Zr  Zr7  1  0.66800399  0.33015100  0.37684002  1
  Zr  Zr8  1  0.97928099  0.59805800  0.97122504  1
  Zr  Zr9  1  0.54856500  0.40194200  0.02877502  1
  Zr  Zr10  1  0.42266099  0.02877500  0.59805701  1
  Zr  Zr11  1  0.04949303  0.97122499  0.40194303  1
  Sn  Sn12  1  0.50907801  0.67743200  0.25802503  1
  Sn  Sn13  1  0.44453500  0.32256800  0.74197502  1
  Sn  Sn14  1  0.81348900  0.74197600  0.67743204  1
  Sn  Sn15  1  0.23289800  0.25802400  0.32256801  1
