# generated using pymatgen
data_LaIn2
_symmetry_space_group_name_H-M   'P 1'
_cell_length_a   4.68724918
_cell_length_b   7.67017984
_cell_length_c   7.67017937
_cell_angle_alpha   120.00000000
_cell_angle_beta   90.00000000
_cell_angle_gamma   90.00000000
_symmetry_Int_Tables_number   1
_chemical_formula_structural   LaIn2
_chemical_formula_sum   'La3 In6'
_cell_volume   238.81397692
_cell_formula_units_Z   3
loop_
 _symmetry_equiv_pos_site_id
 _symmetry_equiv_pos_as_xyz
  1  'x, y, z'
loop_
 _atom_site_type_symbol
 _atom_site_label
 _atom_site_symmetry_multiplicity
 _atom_site_fract_x
 _atom_site_fract_y
 _atom_site_fract_z
 _atom_site_occupancy
  La  La0  1  0.49999998  0.99999999  0.42543195  1
  La  La1  1  0.49999998  0.42543200  -0.00000002  1
  La  La2  1  0.49999998  0.57456800  0.57456797  1
  In  In3  1  -0.00000000  0.99999999  0.74699195  1
  In  In4  1  -0.00000000  0.74699200  -0.00000004  1
  In  In5  1  0.99999996  0.25300800  0.25300799  1
  In  In6  1  -0.00000000  0.66666666  0.33333330  1
  In  In7  1  -0.00000000  0.33333333  0.66666665  1
  In  In8  1  0.49999998  0.00000000  -0.00000000  1
