# generated using pymatgen
data_LiY2CoO7
_symmetry_space_group_name_H-M   'P 1'
_cell_length_a   3.83491707
_cell_length_b   6.38458824
_cell_length_c   6.38458824
_cell_angle_alpha   118.91206360
_cell_angle_beta   90.00000000
_cell_angle_gamma   90.00000000
_symmetry_Int_Tables_number   1
_chemical_formula_structural   LiY2CoO7
_chemical_formula_sum   'Li1 Y2 Co1 O7'
_cell_volume   136.83897967
_cell_formula_units_Z   1
loop_
 _symmetry_equiv_pos_site_id
 _symmetry_equiv_pos_as_xyz
  1  'x, y, z'
loop_
 _atom_site_type_symbol
 _atom_site_label
 _atom_site_symmetry_multiplicity
 _atom_site_fract_x
 _atom_site_fract_y
 _atom_site_fract_z
 _atom_site_occupancy
  Li  Li0  1  0.00000000  0.00000000  0.00000000  1
  Y  Y1  1  -0.00000000  0.30379300  0.69620699  1
  Y  Y2  1  -0.00000000  0.69620699  0.30379300  1
  Co  Co3  1  -0.00000000  0.04413800  0.33751799  1
  O  O4  1  -0.00000000  0.33751800  0.04413800  1
  O  O5  1  0.49999999  0.00000000  -0.00000000  1
  O  O6  1  0.49999999  0.31420800  0.68579199  1
  O  O7  1  0.49999999  0.68579199  0.31420800  1
  O  O8  1  0.99999998  0.66248199  0.95586199  1
  O  O9  1  0.99999998  0.95586199  0.66248200  1
  O  O10  1  -0.00000000  0.49999999  0.50000000  1
