# generated using pymatgen
data_LiSbSe2
_symmetry_space_group_name_H-M   'P 1'
_cell_length_a   4.80486298
_cell_length_b   10.21266174
_cell_length_c   11.06423664
_cell_angle_alpha   90.00000000
_cell_angle_beta   90.00000000
_cell_angle_gamma   90.00000000
_symmetry_Int_Tables_number   1
_chemical_formula_structural   LiSbSe2
_chemical_formula_sum   'Li4 Sb4 Se8'
_cell_volume   542.92696352
_cell_formula_units_Z   4
loop_
 _symmetry_equiv_pos_site_id
 _symmetry_equiv_pos_as_xyz
  1  'x, y, z'
loop_
 _atom_site_type_symbol
 _atom_site_label
 _atom_site_symmetry_multiplicity
 _atom_site_fract_x
 _atom_site_fract_y
 _atom_site_fract_z
 _atom_site_occupancy
  Li  Li0  1  0.00000000  0.28055901  0.07732900  1
  Li  Li1  1  0.00000000  0.28055901  0.42267101  1
  Li  Li2  1  0.00000000  0.71944102  0.92267103  1
  Li  Li3  1  0.00000000  0.71944102  0.57732902  1
  Sb  Sb4  1  0.50000000  0.25961101  0.75000002  1
  Sb  Sb5  1  0.50000000  0.74038902  0.25000001  1
  Sb  Sb6  1  0.50000000  0.00000000  0.50000002  1
  Sb  Sb7  1  0.50000000  0.00000000  0.00000000  1
  Se  Se8  1  0.50000000  0.24973301  0.98003803  1
  Se  Se9  1  0.50000000  0.75026702  0.01996200  1
  Se  Se10  1  0.50000000  0.24973301  0.51996202  1
  Se  Se11  1  0.50000000  0.75026702  0.48003802  1
  Se  Se12  1  0.00000000  0.52517201  0.75000002  1
  Se  Se13  1  0.00000000  0.47482801  0.25000001  1
  Se  Se14  1  0.00000000  0.07516300  0.25000001  1
  Se  Se15  1  0.00000000  0.92483702  0.75000002  1
