# generated using pymatgen
data_Cu3SnS4
_symmetry_space_group_name_H-M   'P 1'
_cell_length_a   5.61813211
_cell_length_b   5.61813211
_cell_length_c   6.81721687
_cell_angle_alpha   114.33396912
_cell_angle_beta   114.33396912
_cell_angle_gamma   90.00000000
_symmetry_Int_Tables_number   1
_chemical_formula_structural   Cu3SnS4
_chemical_formula_sum   'Cu3 Sn1 S4'
_cell_volume   174.86454349
_cell_formula_units_Z   1
loop_
 _symmetry_equiv_pos_site_id
 _symmetry_equiv_pos_as_xyz
  1  'x, y, z'
loop_
 _atom_site_type_symbol
 _atom_site_label
 _atom_site_symmetry_multiplicity
 _atom_site_fract_x
 _atom_site_fract_y
 _atom_site_fract_z
 _atom_site_occupancy
  Cu  Cu0  1  0.24999996  0.74999997  0.49999995  1
  Cu  Cu1  1  0.74999996  0.24999999  0.49999996  1
  Cu  Cu2  1  0.49999996  0.49999998  -0.00000004  1
  Sn  Sn3  1  0.00000000  0.00000000  0.00000000  1
  S  S4  1  0.88209093  0.88209096  0.28288392  1
  S  S5  1  0.40079297  0.40079298  0.28288396  1
  S  S6  1  0.59920697  0.11790899  0.71711597  1
  S  S7  1  0.11790897  0.59920697  0.71711596  1
