# generated using pymatgen
data_Li2AgO6
_symmetry_space_group_name_H-M   'P 1'
_cell_length_a   5.02778196
_cell_length_b   5.02778196
_cell_length_c   5.51891804
_cell_angle_alpha   90.00000000
_cell_angle_beta   90.00000000
_cell_angle_gamma   120.00000000
_symmetry_Int_Tables_number   1
_chemical_formula_structural   Li2AgO6
_chemical_formula_sum   'Li2 Ag1 O6'
_cell_volume   120.81961495
_cell_formula_units_Z   1
loop_
 _symmetry_equiv_pos_site_id
 _symmetry_equiv_pos_as_xyz
  1  'x, y, z'
loop_
 _atom_site_type_symbol
 _atom_site_label
 _atom_site_symmetry_multiplicity
 _atom_site_fract_x
 _atom_site_fract_y
 _atom_site_fract_z
 _atom_site_occupancy
  Li  Li0  1  0.47729000  0.00000000  0.99999999  1
  Li  Li1  1  0.52271001  0.52271001  0.33333333  1
  Ag  Ag2  1  0.00000000  0.47729001  0.66666666  1
  O  O3  1  0.41503700  0.25429701  0.12933300  1
  O  O4  1  0.83926001  0.58496401  0.46266700  1
  O  O5  1  0.74570401  0.16074100  0.79599999  1
  O  O6  1  0.16074001  0.74570302  0.87066699  1
  O  O7  1  0.25429600  0.41503601  0.53733300  1
  O  O8  1  0.58496301  0.83925902  0.20400000  1
