# generated using pymatgen
data_La13IrRu6
_symmetry_space_group_name_H-M   'P 1'
_cell_length_a   6.17649603
_cell_length_b   9.97699165
_cell_length_c   9.97699165
_cell_angle_alpha   120.00000000
_cell_angle_beta   90.00000000
_cell_angle_gamma   90.00000000
_symmetry_Int_Tables_number   1
_chemical_formula_structural   La13IrRu6
_chemical_formula_sum   'La13 Ir1 Ru6'
_cell_volume   532.44164437
_cell_formula_units_Z   1
loop_
 _symmetry_equiv_pos_site_id
 _symmetry_equiv_pos_as_xyz
  1  'x, y, z'
loop_
 _atom_site_type_symbol
 _atom_site_label
 _atom_site_symmetry_multiplicity
 _atom_site_fract_x
 _atom_site_fract_y
 _atom_site_fract_z
 _atom_site_occupancy
  La  La0  1  0.43193200  0.33333334  0.66666665  1
  La  La1  1  0.93193200  0.66666668  0.33333331  1
  La  La2  1  0.24615900  0.12941700  0.87058199  1
  La  La3  1  0.24615900  0.74116501  0.87058197  1
  La  La4  1  0.24615900  0.12941700  0.25883399  1
  La  La5  1  0.74615900  0.87058302  0.12941797  1
  La  La6  1  0.74615900  0.25883501  0.12941799  1
  La  La7  1  0.74615900  0.87058302  0.74116597  1
  La  La8  1  0.46424800  0.53691001  0.46308898  1
  La  La9  1  0.46424800  0.92617902  0.46308897  1
  La  La10  1  0.46424800  0.53691001  0.07381998  1
  La  La11  1  0.96424800  0.46309001  0.53691098  1
  Ir  Ir12  1  0.96424800  0.07382100  0.53691099  1
  La  La13  1  0.96424800  0.46309001  0.92617998  1
  Ru  Ru14  1  0.19804400  0.81171402  0.18828597  1
  Ru  Ru15  1  0.19804400  0.37657201  0.18828599  1
  Ru  Ru16  1  0.19804400  0.81171402  0.62342797  1
  Ru  Ru17  1  0.69804400  0.18828600  0.81171399  1
  Ru  Ru18  1  0.69804400  0.62342801  0.81171397  1
  Ru  Ru19  1  0.69804400  0.18828600  0.37657199  1
