# generated using pymatgen
data_YbSi2
_symmetry_space_group_name_H-M   'P 1'
_cell_length_a   4.57928991
_cell_length_b   7.23886490
_cell_length_c   7.30340719
_cell_angle_alpha   90.00000000
_cell_angle_beta   90.00000000
_cell_angle_gamma   90.00000000
_symmetry_Int_Tables_number   1
_chemical_formula_structural   YbSi2
_chemical_formula_sum   'Yb4 Si8'
_cell_volume   242.09962994
_cell_formula_units_Z   4
loop_
 _symmetry_equiv_pos_site_id
 _symmetry_equiv_pos_as_xyz
  1  'x, y, z'
loop_
 _atom_site_type_symbol
 _atom_site_label
 _atom_site_symmetry_multiplicity
 _atom_site_fract_x
 _atom_site_fract_y
 _atom_site_fract_z
 _atom_site_occupancy
  Yb  Yb0  1  0.25000000  0.47668301  0.70047998  1
  Yb  Yb1  1  0.25000000  0.97668301  0.79951998  1
  Yb  Yb2  1  0.75000001  0.02331700  0.20047999  1
  Yb  Yb3  1  0.75000001  0.52331701  0.29951999  1
  Si  Si4  1  0.75000001  0.84195201  0.55873899  1
  Si  Si5  1  0.25000000  0.15804800  0.44126099  1
  Si  Si6  1  0.75000001  0.34195200  0.94126098  1
  Si  Si7  1  0.25000000  0.65804801  0.05873900  1
  Si  Si8  1  0.75000001  0.70210401  0.89182398  1
  Si  Si9  1  0.25000000  0.79789601  0.39182399  1
  Si  Si10  1  0.25000000  0.29789600  0.10817600  1
  Si  Si11  1  0.75000001  0.20210400  0.60817598  1
