# generated using pymatgen
data_KLi(CuS2)2
_symmetry_space_group_name_H-M   'P 1'
_cell_length_a   5.54560614
_cell_length_b   7.43031788
_cell_length_c   9.59673882
_cell_angle_alpha   90.00000000
_cell_angle_beta   106.79401398
_cell_angle_gamma   90.00000000
_symmetry_Int_Tables_number   1
_chemical_formula_structural   KLi(CuS2)2
_chemical_formula_sum   'K2 Li2 Cu4 S8'
_cell_volume   378.57391929
_cell_formula_units_Z   2
loop_
 _symmetry_equiv_pos_site_id
 _symmetry_equiv_pos_as_xyz
  1  'x, y, z'
loop_
 _atom_site_type_symbol
 _atom_site_label
 _atom_site_symmetry_multiplicity
 _atom_site_fract_x
 _atom_site_fract_y
 _atom_site_fract_z
 _atom_site_occupancy
  K  K0  1  0.92818797  0.75000001  0.36472500  1
  K  K1  1  0.56346298  0.25000000  0.63527500  1
  Li  Li2  1  0.38705299  0.75000001  0.77407601  1
  Li  Li3  1  0.61297698  0.25000000  0.22592400  1
  Cu  Cu4  1  0.47886099  0.50000001  1.00000001  1
  Cu  Cu5  1  0.47886099  0.00000000  1.00000001  1
  Cu  Cu6  1  0.89123797  0.75000001  0.78259600  1
  Cu  Cu7  1  0.10864200  0.25000000  0.21740400  1
  S  S8  1  0.72897698  0.75000001  0.98377001  1
  S  S9  1  0.74520698  0.25000000  0.01622999  1
  S  S10  1  0.54098798  0.75000001  0.57603000  1
  S  S11  1  0.96495797  0.25000000  0.42397000  1
  S  S12  1  0.36153799  0.50240801  0.21478300  1
  S  S13  1  0.14675500  0.49759201  0.78521701  1
  S  S14  1  0.36153799  0.99759202  0.21478300  1
  S  S15  1  0.14675500  0.00240800  0.78521701  1
