# generated using pymatgen
data_Yb2Zn2CuSn
_symmetry_space_group_name_H-M   'P 1'
_cell_length_a   4.49329185
_cell_length_b   4.49329185
_cell_length_c   7.12157488
_cell_angle_alpha   90.00000000
_cell_angle_beta   90.00000000
_cell_angle_gamma   120.00000000
_symmetry_Int_Tables_number   1
_chemical_formula_structural   Yb2Zn2CuSn
_chemical_formula_sum   'Yb2 Zn2 Cu1 Sn1'
_cell_volume   124.51908868
_cell_formula_units_Z   1
loop_
 _symmetry_equiv_pos_site_id
 _symmetry_equiv_pos_as_xyz
  1  'x, y, z'
loop_
 _atom_site_type_symbol
 _atom_site_label
 _atom_site_symmetry_multiplicity
 _atom_site_fract_x
 _atom_site_fract_y
 _atom_site_fract_z
 _atom_site_occupancy
  Yb  Yb0  1  0.00000000  0.00000000  0.50248701  1
  Yb  Yb1  1  0.00000000  0.00000000  0.00248700  1
  Zn  Zn2  1  0.66666669  0.33333334  0.67410001  1
  Zn  Zn3  1  0.33333334  0.66666668  0.17410000  1
  Sn  Sn4  1  0.33333334  0.66666668  0.77085301  1
  Cu  Cu5  1  0.66666669  0.33333334  0.27085300  1
