# generated using pymatgen
data_Hf3Al2Si7
_symmetry_space_group_name_H-M   'P 1'
_cell_length_a   4.91853189
_cell_length_b   4.91853333
_cell_length_c   8.87569809
_cell_angle_alpha   90.00000000
_cell_angle_beta   90.00000000
_cell_angle_gamma   119.99999237
_symmetry_Int_Tables_number   1
_chemical_formula_structural   Hf3Al2Si7
_chemical_formula_sum   'Hf3 Al2 Si7'
_cell_volume   185.95347405
_cell_formula_units_Z   1
loop_
 _symmetry_equiv_pos_site_id
 _symmetry_equiv_pos_as_xyz
  1  'x, y, z'
loop_
 _atom_site_type_symbol
 _atom_site_label
 _atom_site_symmetry_multiplicity
 _atom_site_fract_x
 _atom_site_fract_y
 _atom_site_fract_z
 _atom_site_occupancy
  Hf  Hf0  1  0.33844001  0.33843999  -0.00000000  1
  Hf  Hf1  1  0.00000000  0.66155998  -0.00000000  1
  Hf  Hf2  1  0.33844001  0.00000000  0.49999999  1
  Al  Al3  1  0.00000000  0.00000000  0.25000000  1
  Al  Al4  1  0.66156002  0.66155998  0.49999999  1
  Si  Si5  1  0.33333334  0.66666665  0.74999999  1
  Si  Si6  1  0.66156002  0.99999997  0.99999999  1
  Si  Si7  1  0.00000000  0.00000000  0.74999999  1
  Si  Si8  1  0.66666668  0.33333332  0.25000000  1
  Si  Si9  1  1.00000002  0.33843999  0.49999999  1
  Si  Si10  1  0.66666668  0.33333332  0.74999999  1
  Si  Si11  1  0.33333334  0.66666665  0.25000000  1
