# generated using pymatgen
data_SrPb3
_symmetry_space_group_name_H-M   'P 1'
_cell_length_a   6.70059061
_cell_length_b   6.70059061
_cell_length_c   10.87177658
_cell_angle_alpha   90.00000000
_cell_angle_beta   90.00000000
_cell_angle_gamma   103.31240082
_symmetry_Int_Tables_number   1
_chemical_formula_structural   SrPb3
_chemical_formula_sum   'Sr4 Pb12'
_cell_volume   475.00384949
_cell_formula_units_Z   4
loop_
 _symmetry_equiv_pos_site_id
 _symmetry_equiv_pos_as_xyz
  1  'x, y, z'
loop_
 _atom_site_type_symbol
 _atom_site_label
 _atom_site_symmetry_multiplicity
 _atom_site_fract_x
 _atom_site_fract_y
 _atom_site_fract_z
 _atom_site_occupancy
  Sr  Sr0  1  0.08568900  0.08568900  0.75000003  1
  Sr  Sr1  1  0.91431095  0.91431098  0.25000001  1
  Sr  Sr2  1  0.71376698  0.28623299  -0.00000000  1
  Sr  Sr3  1  0.71376698  0.28623299  0.50000002  1
  Pb  Pb4  1  0.28623297  0.71376698  -0.00000000  1
  Pb  Pb5  1  0.28623297  0.71376698  0.50000002  1
  Pb  Pb6  1  0.52558797  0.52558799  0.25000001  1
  Pb  Pb7  1  0.47441197  0.47441199  0.75000003  1
  Pb  Pb8  1  0.01780298  0.44449799  0.25000001  1
  Pb  Pb9  1  0.55550195  0.98219698  0.75000003  1
  Pb  Pb10  1  0.98219696  0.55550199  0.75000003  1
  Pb  Pb11  1  0.44449799  0.01780300  0.25000001  1
  Pb  Pb12  1  0.20396999  0.20397000  0.03497000  1
  Pb  Pb13  1  0.79602995  0.79602998  0.96503004  1
  Pb  Pb14  1  0.20396999  0.20397000  0.46503002  1
  Pb  Pb15  1  0.79602995  0.79602998  0.53497002  1
