# generated using pymatgen
data_LiBeReCN2
_symmetry_space_group_name_H-M   'P 1'
_cell_length_a   3.02795887
_cell_length_b   3.02795887
_cell_length_c   7.20393372
_cell_angle_alpha   77.86825562
_cell_angle_beta   77.86825562
_cell_angle_gamma   59.99998093
_symmetry_Int_Tables_number   1
_chemical_formula_structural   LiBeReCN2
_chemical_formula_sum   'Li1 Be1 Re1 C1 N2'
_cell_volume   55.49073106
_cell_formula_units_Z   1
loop_
 _symmetry_equiv_pos_site_id
 _symmetry_equiv_pos_as_xyz
  1  'x, y, z'
loop_
 _atom_site_type_symbol
 _atom_site_label
 _atom_site_symmetry_multiplicity
 _atom_site_fract_x
 _atom_site_fract_y
 _atom_site_fract_z
 _atom_site_occupancy
  Li  Li0  1  0.66780400  0.66780400  0.99658801  1
  Be  Be1  1  0.33219600  0.33219600  0.00341199  1
  Re  Re2  1  0.81843700  0.81843700  0.54468900  1
  N  N3  1  0.18156300  0.18156300  0.45531101  1
  N  N4  1  0.92441899  0.92441900  0.22674298  1
  C  C5  1  0.07558100  0.07558100  0.77325702  1
