# generated using pymatgen
data_Sb2Rh
_symmetry_space_group_name_H-M   'P 1'
_cell_length_a   6.65008020
_cell_length_b   6.65008020
_cell_length_c   6.65008020
_cell_angle_alpha   90.00000000
_cell_angle_beta   90.00000000
_cell_angle_gamma   90.00000000
_symmetry_Int_Tables_number   1
_chemical_formula_structural   Sb2Rh
_chemical_formula_sum   'Sb8 Rh4'
_cell_volume   294.09026559
_cell_formula_units_Z   4
loop_
 _symmetry_equiv_pos_site_id
 _symmetry_equiv_pos_as_xyz
  1  'x, y, z'
loop_
 _atom_site_type_symbol
 _atom_site_label
 _atom_site_symmetry_multiplicity
 _atom_site_fract_x
 _atom_site_fract_y
 _atom_site_fract_z
 _atom_site_occupancy
  Sb  Sb0  1  0.12868500  0.87131497  0.37131499  1
  Sb  Sb1  1  0.87131497  0.37131499  0.12868500  1
  Sb  Sb2  1  0.37131499  0.12868500  0.87131497  1
  Sb  Sb3  1  0.62868498  0.62868498  0.62868498  1
  Sb  Sb4  1  0.87252297  0.12747700  0.62747698  1
  Sb  Sb5  1  0.12747700  0.62747698  0.87252297  1
  Sb  Sb6  1  0.62747698  0.87252297  0.12747700  1
  Sb  Sb7  1  0.37252299  0.37252299  0.37252299  1
  Rh  Rh8  1  0.50470098  0.49529898  0.99529897  1
  Rh  Rh9  1  0.49529898  0.99529897  0.50470098  1
  Rh  Rh10  1  0.99529897  0.50470098  0.49529898  1
  Rh  Rh11  1  0.00470100  0.00470100  0.00470100  1
