# generated using pymatgen
data_EuAl(NiSn)2
_symmetry_space_group_name_H-M   'P 1'
_cell_length_a   4.35310411
_cell_length_b   5.63463402
_cell_length_c   5.63463449
_cell_angle_alpha   60.00000381
_cell_angle_beta   90.00000000
_cell_angle_gamma   90.00000000
_symmetry_Int_Tables_number   1
_chemical_formula_structural   EuAl(NiSn)2
_chemical_formula_sum   'Eu1 Al1 Ni2 Sn2'
_cell_volume   119.69090903
_cell_formula_units_Z   1
loop_
 _symmetry_equiv_pos_site_id
 _symmetry_equiv_pos_as_xyz
  1  'x, y, z'
loop_
 _atom_site_type_symbol
 _atom_site_label
 _atom_site_symmetry_multiplicity
 _atom_site_fract_x
 _atom_site_fract_y
 _atom_site_fract_z
 _atom_site_occupancy
  Eu  Eu0  1  0.00000000  0.00000000  0.00000000  1
  Al  Al1  1  0.99999997  0.33333333  0.33333334  1
  Ni  Ni2  1  0.99999997  0.66666667  0.66666669  1
  Ni  Ni3  1  0.49999999  0.00000000  0.50000002  1
  Sn  Sn4  1  0.49999999  0.50000000  1.00000003  1
  Sn  Sn5  1  0.49999999  0.50000000  0.50000002  1
