# generated using pymatgen
data_K4NaICl6
_symmetry_space_group_name_H-M   'P 1'
_cell_length_a   6.88038778
_cell_length_b   6.88038778
_cell_length_c   9.26311684
_cell_angle_alpha   90.00000000
_cell_angle_beta   90.00000000
_cell_angle_gamma   90.00000000
_symmetry_Int_Tables_number   1
_chemical_formula_structural   K4NaICl6
_chemical_formula_sum   'K4 Na1 I1 Cl6'
_cell_volume   438.51350600
_cell_formula_units_Z   1
loop_
 _symmetry_equiv_pos_site_id
 _symmetry_equiv_pos_as_xyz
  1  'x, y, z'
loop_
 _atom_site_type_symbol
 _atom_site_label
 _atom_site_symmetry_multiplicity
 _atom_site_fract_x
 _atom_site_fract_y
 _atom_site_fract_z
 _atom_site_occupancy
  Na  Na0  1  0.50000002  0.50000002  0.00000000  1
  K  K1  1  0.00000000  0.00000000  0.00000000  1
  K  K2  1  0.50000002  0.50000002  0.50000001  1
  K  K3  1  0.00000000  0.00000000  0.50000001  1
  K  K4  1  0.35420701  0.85420703  0.29760301  1
  Cl  Cl5  1  0.14579300  0.35420701  0.29760301  1
  I  I6  1  0.85420703  0.64579302  0.29760301  1
  Cl  Cl7  1  0.35420701  0.14579300  0.70239701  1
  Cl  Cl8  1  0.64579302  0.85420703  0.70239701  1
  Cl  Cl9  1  0.64579302  0.14579300  0.29760301  1
  Cl  Cl10  1  0.85420703  0.35420701  0.70239701  1
  Cl  Cl11  1  0.14579300  0.64579302  0.70239701  1
