# generated using pymatgen
data_EuSc2(BIr)3
_symmetry_space_group_name_H-M   'P 1'
_cell_length_a   5.14808798
_cell_length_b   5.14808798
_cell_length_c   5.14808798
_cell_angle_alpha   60.00000000
_cell_angle_beta   60.00000000
_cell_angle_gamma   60.00000000
_symmetry_Int_Tables_number   1
_chemical_formula_structural   EuSc2(BIr)3
_chemical_formula_sum   'Eu1 Sc2 B3 Ir3'
_cell_volume   96.47679836
_cell_formula_units_Z   1
loop_
 _symmetry_equiv_pos_site_id
 _symmetry_equiv_pos_as_xyz
  1  'x, y, z'
loop_
 _atom_site_type_symbol
 _atom_site_label
 _atom_site_symmetry_multiplicity
 _atom_site_fract_x
 _atom_site_fract_y
 _atom_site_fract_z
 _atom_site_occupancy
  Eu  Eu0  1  0.25000001  0.25000001  0.25000001  1
  Sc  Sc1  1  0.75000002  0.75000002  0.75000002  1
  Sc  Sc2  1  0.00000000  0.00000000  0.00000000  1
  Ir  Ir3  1  0.77792702  0.77792702  0.22207300  1
  B  B4  1  0.22207300  0.77792702  0.77792702  1
  B  B5  1  0.22207300  0.77792702  0.22207300  1
  B  B6  1  0.22207300  0.22207300  0.77792702  1
  Ir  Ir7  1  0.77792702  0.22207300  0.22207300  1
  Ir  Ir8  1  0.77792702  0.22207300  0.77792702  1
