# generated using pymatgen
data_Dy5Si3C
_symmetry_space_group_name_H-M   'P 1'
_cell_length_a   6.23609781
_cell_length_b   8.23999977
_cell_length_c   8.23999977
_cell_angle_alpha   120.00000000
_cell_angle_beta   90.00000000
_cell_angle_gamma   90.00000000
_symmetry_Int_Tables_number   1
_chemical_formula_structural   Dy5Si3C
_chemical_formula_sum   'Dy10 Si6 C2'
_cell_volume   366.68905681
_cell_formula_units_Z   2
loop_
 _symmetry_equiv_pos_site_id
 _symmetry_equiv_pos_as_xyz
  1  'x, y, z'
loop_
 _atom_site_type_symbol
 _atom_site_label
 _atom_site_symmetry_multiplicity
 _atom_site_fract_x
 _atom_site_fract_y
 _atom_site_fract_z
 _atom_site_occupancy
  Dy  Dy0  1  0.50000002  0.33333334  0.66666665  1
  Dy  Dy1  1  0.50000002  0.66666668  0.33333332  1
  Dy  Dy2  1  1.00000003  0.66666668  0.33333332  1
  Dy  Dy3  1  -0.00000000  0.33333334  0.66666665  1
  Dy  Dy4  1  0.75000002  0.22246700  0.99999999  1
  Dy  Dy5  1  0.75000002  0.77753301  0.77753298  1
  Dy  Dy6  1  0.75000002  0.00000000  0.22246700  1
  Dy  Dy7  1  0.25000001  0.77753301  -0.00000002  1
  Dy  Dy8  1  0.25000001  0.22246700  0.22246699  1
  Dy  Dy9  1  0.25000001  0.00000000  0.77753300  1
  Si  Si10  1  0.75000002  0.59279501  -0.00000001  1
  Si  Si11  1  0.75000002  0.40720501  0.40720499  1
  Si  Si12  1  0.75000002  0.00000000  0.59279500  1
  Si  Si13  1  0.25000001  0.40720501  0.99999998  1
  Si  Si14  1  0.25000001  0.59279501  0.59279498  1
  Si  Si15  1  0.25000001  0.00000000  0.40720500  1
  C  C16  1  0.50000002  0.00000000  -0.00000000  1
  C  C17  1  0.00000000  0.00000000  0.00000000  1
