# generated using pymatgen
data_Eu2Cd2PdPb
_symmetry_space_group_name_H-M   'P 1'
_cell_length_a   4.56985378
_cell_length_b   7.91869020
_cell_length_c   9.02089119
_cell_angle_alpha   90.00000000
_cell_angle_beta   90.00000000
_cell_angle_gamma   90.00000000
_symmetry_Int_Tables_number   1
_chemical_formula_structural   Eu2Cd2PdPb
_chemical_formula_sum   'Eu4 Cd4 Pd2 Pb2'
_cell_volume   326.44130230
_cell_formula_units_Z   2
loop_
 _symmetry_equiv_pos_site_id
 _symmetry_equiv_pos_as_xyz
  1  'x, y, z'
loop_
 _atom_site_type_symbol
 _atom_site_label
 _atom_site_symmetry_multiplicity
 _atom_site_fract_x
 _atom_site_fract_y
 _atom_site_fract_z
 _atom_site_occupancy
  Eu  Eu0  1  0.25000001  0.03383000  0.31567999  1
  Eu  Eu1  1  0.25000001  0.53382999  0.18432000  1
  Eu  Eu2  1  0.75000004  0.96616998  0.68431999  1
  Eu  Eu3  1  0.75000004  0.46616999  0.81567998  1
  Cd  Cd4  1  0.25000001  0.14537900  0.93638098  1
  Cd  Cd5  1  0.25000001  0.64537898  0.56361899  1
  Cd  Cd6  1  0.75000004  0.85462098  0.06361900  1
  Cd  Cd7  1  0.75000004  0.35462099  0.43638099  1
  Pd  Pd8  1  0.25000001  0.26436099  0.62403799  1
  Pb  Pb9  1  0.25000001  0.76436098  0.87596198  1
  Pd  Pd10  1  0.75000004  0.73563898  0.37596199  1
  Pb  Pb11  1  0.75000004  0.23563899  0.12403800  1
