# generated using pymatgen
data_KHO
_symmetry_space_group_name_H-M   'P 1'
_cell_length_a   4.22056913
_cell_length_b   4.26771116
_cell_length_c   5.99164534
_cell_angle_alpha   106.57759857
_cell_angle_beta   90.00000000
_cell_angle_gamma   90.00000000
_symmetry_Int_Tables_number   1
_chemical_formula_structural   KHO
_chemical_formula_sum   'K2 H2 O2'
_cell_volume   103.43664784
_cell_formula_units_Z   2
loop_
 _symmetry_equiv_pos_site_id
 _symmetry_equiv_pos_as_xyz
  1  'x, y, z'
loop_
 _atom_site_type_symbol
 _atom_site_label
 _atom_site_symmetry_multiplicity
 _atom_site_fract_x
 _atom_site_fract_y
 _atom_site_fract_z
 _atom_site_occupancy
  K  K0  1  0.23951899  0.16249100  0.28372201  1
  K  K1  1  0.73951898  0.83750898  0.71627805  1
  H  H2  1  0.10893000  0.43882399  0.91253203  1
  H  H3  1  0.60892998  0.56117599  0.08746802  1
  O  O4  1  0.25351399  0.34211099  0.78220903  1
  O  O5  1  0.75351398  0.65788899  0.21779103  1
