# generated using pymatgen
data_LiSi3O5
_symmetry_space_group_name_H-M   'P 1'
_cell_length_a   5.08372402
_cell_length_b   5.08372307
_cell_length_c   5.75978422
_cell_angle_alpha   90.00000000
_cell_angle_beta   90.00000000
_cell_angle_gamma   120.00000763
_symmetry_Int_Tables_number   1
_chemical_formula_structural   LiSi3O5
_chemical_formula_sum   'Li1 Si3 O5'
_cell_volume   128.91417182
_cell_formula_units_Z   1
loop_
 _symmetry_equiv_pos_site_id
 _symmetry_equiv_pos_as_xyz
  1  'x, y, z'
loop_
 _atom_site_type_symbol
 _atom_site_label
 _atom_site_symmetry_multiplicity
 _atom_site_fract_x
 _atom_site_fract_y
 _atom_site_fract_z
 _atom_site_occupancy
  Li  Li0  1  0.45504800  0.00000000  0.00000000  1
  Si  Si1  1  1.00000001  0.45504800  0.66666664  1
  Si  Si2  1  0.54495201  0.54495200  0.33333332  1
  Si  Si3  1  0.70145200  0.09913400  0.75831297  1
  O  O4  1  0.39768201  0.29854700  0.09164700  1
  O  O5  1  0.90086501  0.60231700  0.42497998  1
  O  O6  1  0.60231802  0.90086600  0.24168699  1
  O  O7  1  0.29854801  0.39768300  0.57501998  1
  O  O8  1  0.09913502  0.70145300  0.90835297  1
