# generated using pymatgen
data_Li2Co2(PO4)3
_symmetry_space_group_name_H-M   'P 1'
_cell_length_a   4.57176208
_cell_length_b   5.74383402
_cell_length_c   8.42696667
_cell_angle_alpha   76.07325745
_cell_angle_beta   89.60108185
_cell_angle_gamma   84.52623749
_symmetry_Int_Tables_number   1
_chemical_formula_structural   Li2Co2(PO4)3
_chemical_formula_sum   'Li2 Co2 P3 O12'
_cell_volume   213.77382106
_cell_formula_units_Z   1
loop_
 _symmetry_equiv_pos_site_id
 _symmetry_equiv_pos_as_xyz
  1  'x, y, z'
loop_
 _atom_site_type_symbol
 _atom_site_label
 _atom_site_symmetry_multiplicity
 _atom_site_fract_x
 _atom_site_fract_y
 _atom_site_fract_z
 _atom_site_occupancy
  Li  Li0  1  0.00000001  0.50000000  0.50000001  1
  Li  Li1  1  0.00000000  0.00000000  0.00000000  1
  Co  Co2  1  0.00000001  0.50000000  -0.00000001  1
  Co  Co3  1  0.05256100  0.04187600  0.33031301  1
  P  P4  1  0.94743900  0.95812400  0.66968702  1
  P  P5  1  0.50649200  0.65668300  0.22975000  1
  P  P6  1  0.49350800  0.34331700  0.77025003  1
  O  O7  1  0.69480900  0.68843000  0.07220700  1
  O  O8  1  0.30519100  0.31157000  0.92779303  1
  O  O9  1  0.69620200  0.69745800  0.36993301  1
  O  O10  1  0.30379800  0.30254200  0.63006702  1
  O  O11  1  0.28900701  0.90122000  0.18433299  1
  O  O12  1  0.71099299  0.09878000  0.81566704  1
  O  O13  1  0.67456700  0.55515500  0.73401602  1
  O  O14  1  0.32543300  0.44484500  0.26598400  1
  O  O15  1  0.14234801  0.80219100  0.52372700  1
  O  O16  1  0.85765199  0.19780900  0.47627303  1
  O  O17  1  0.12634301  0.78435400  0.87311401  1
  O  O18  1  0.87365699  0.21564600  0.12688601  1
