# generated using pymatgen
data_SrCa(CoO3)2
_symmetry_space_group_name_H-M   'P 1'
_cell_length_a   4.22790766
_cell_length_b   5.97524357
_cell_length_c   5.97524357
_cell_angle_alpha   89.77324677
_cell_angle_beta   90.00000000
_cell_angle_gamma   90.00000000
_symmetry_Int_Tables_number   1
_chemical_formula_structural   SrCa(CoO3)2
_chemical_formula_sum   'Sr1 Ca1 Co2 O6'
_cell_volume   150.95006986
_cell_formula_units_Z   1
loop_
 _symmetry_equiv_pos_site_id
 _symmetry_equiv_pos_as_xyz
  1  'x, y, z'
loop_
 _atom_site_type_symbol
 _atom_site_label
 _atom_site_symmetry_multiplicity
 _atom_site_fract_x
 _atom_site_fract_y
 _atom_site_fract_z
 _atom_site_occupancy
  Sr  Sr0  1  0.50000001  0.00000000  0.00000000  1
  Ca  Ca1  1  0.50000001  0.50000002  0.50000002  1
  Co  Co2  1  0.00000000  0.00000000  0.50000002  1
  Co  Co3  1  -0.00000000  0.50000002  -0.00000000  1
  O  O4  1  0.50000001  0.00000000  0.50000002  1
  O  O5  1  0.50000001  0.50000002  -0.00000000  1
  O  O6  1  0.00000000  0.26621048  0.73378956  1
  O  O7  1  0.00000000  0.73378956  0.26621048  1
  O  O8  1  -0.00000000  0.75915644  0.75915644  1
  O  O9  1  -0.00000000  0.24084360  0.24084360  1
