# generated using pymatgen
data_Ba4Bi2SeO8
_symmetry_space_group_name_H-M   'P 1'
_cell_length_a   4.33926964
_cell_length_b   4.33926964
_cell_length_c   19.62513161
_cell_angle_alpha   83.65275574
_cell_angle_beta   83.65275574
_cell_angle_gamma   60.00000381
_symmetry_Int_Tables_number   1
_chemical_formula_structural   Ba4Bi2SeO8
_chemical_formula_sum   'Ba4 Bi2 Se1 O8'
_cell_volume   317.40128008
_cell_formula_units_Z   1
loop_
 _symmetry_equiv_pos_site_id
 _symmetry_equiv_pos_as_xyz
  1  'x, y, z'
loop_
 _atom_site_type_symbol
 _atom_site_label
 _atom_site_symmetry_multiplicity
 _atom_site_fract_x
 _atom_site_fract_y
 _atom_site_fract_z
 _atom_site_occupancy
  Ba  Ba0  1  0.99398599  0.99398602  0.01804201  1
  Ba  Ba1  1  0.61125100  0.61125101  0.16624701  1
  Ba  Ba2  1  0.52273800  0.52273801  0.43178600  1
  Ba  Ba3  1  0.80665799  0.80665802  0.58002601  1
  Bi  Bi4  1  0.08018800  0.08018800  0.75943600  1
  Bi  Bi5  1  0.23987700  0.23987701  0.28036900  1
  Se  Se6  1  0.37583100  0.37583101  0.87250700  1
  O  O7  1  0.85336399  0.85336402  0.43990801  1
  O  O8  1  0.75834299  0.75834302  0.72497100  1
  O  O9  1  0.65995100  0.65995101  0.02014701  1
  O  O10  1  0.48102100  0.48102101  0.55693700  1
  O  O11  1  0.12025900  0.12025900  0.63922300  1
  O  O12  1  0.95250899  0.95250902  0.14247301  1
  O  O13  1  0.30703800  0.30703801  0.07888600  1
  O  O14  1  0.17078700  0.17078700  0.48763900  1
