# generated using pymatgen
data_KI3ClF13
_symmetry_space_group_name_H-M   'P 1'
_cell_length_a   7.89126921
_cell_length_b   7.89945412
_cell_length_c   10.06905460
_cell_angle_alpha   91.19085693
_cell_angle_beta   90.68032837
_cell_angle_gamma   90.00075531
_symmetry_Int_Tables_number   1
_chemical_formula_structural   KI3ClF13
_chemical_formula_sum   'K1 I3 Cl1 F13'
_cell_volume   627.49199927
_cell_formula_units_Z   1
loop_
 _symmetry_equiv_pos_site_id
 _symmetry_equiv_pos_as_xyz
  1  'x, y, z'
loop_
 _atom_site_type_symbol
 _atom_site_label
 _atom_site_symmetry_multiplicity
 _atom_site_fract_x
 _atom_site_fract_y
 _atom_site_fract_z
 _atom_site_occupancy
  K  K0  1  0.90335297  0.29274200  0.99619095  1
  I  I1  1  0.79533396  0.59543400  0.99488494  1
  I  I2  1  0.70598695  0.90047800  0.00440695  1
  I  I3  1  0.59820498  0.20311600  0.00580299  1
  Cl  Cl4  1  0.09698397  0.70699700  0.99631694  1
  F  F5  1  0.20526198  0.40401400  0.99489295  1
  F  F6  1  0.29394799  0.09995000  0.00437399  1
  F  F7  1  0.40201296  0.79734200  0.00558396  1
  F  F8  1  0.00232298  0.50293200  0.11850597  1
  F  F9  1  0.79888898  0.10811000  0.12536099  1
  F  F10  1  0.70205897  0.38621300  0.87617795  1
  F  F11  1  0.60883196  0.70421700  0.12295396  1
  F  F12  1  0.49802495  0.99694000  0.88177093  1
  F  F13  1  0.10653299  0.20301600  0.87356897  1
  F  F14  1  0.20495796  0.89885900  0.12511495  1
  F  F15  1  0.29458197  0.60712500  0.87617995  1
  F  F16  1  0.39455198  0.30143800  0.12388098  1
  F  F17  1  0.89016295  0.79107700  0.87403093  1
