# generated using pymatgen
data_Be
_symmetry_space_group_name_H-M   'P 1'
_cell_length_a   4.23520708
_cell_length_b   5.20729017
_cell_length_c   5.20728970
_cell_angle_alpha   120.00000000
_cell_angle_beta   90.00000000
_cell_angle_gamma   90.00000000
_symmetry_Int_Tables_number   1
_chemical_formula_structural   Be
_chemical_formula_sum   Be8
_cell_volume   99.45549888
_cell_formula_units_Z   8
loop_
 _symmetry_equiv_pos_site_id
 _symmetry_equiv_pos_as_xyz
  1  'x, y, z'
loop_
 _atom_site_type_symbol
 _atom_site_label
 _atom_site_symmetry_multiplicity
 _atom_site_fract_x
 _atom_site_fract_y
 _atom_site_fract_z
 _atom_site_occupancy
  Be  Be0  1  0.25000000  0.66666663  0.33333330  1
  Be  Be1  1  0.74999999  0.33333331  0.66666664  1
  Be  Be2  1  0.74999999  0.83416595  0.16583396  1
  Be  Be3  1  0.74999999  0.33166798  0.16583398  1
  Be  Be4  1  0.74999999  0.83416595  0.66833195  1
  Be  Be5  1  0.25000000  0.16583399  0.83416598  1
  Be  Be6  1  0.25000000  0.66833196  0.83416596  1
  Be  Be7  1  0.25000000  0.16583399  0.33166799  1
