# generated using pymatgen
data_SmSn2
_symmetry_space_group_name_H-M   'P 1'
_cell_length_a   4.58651018
_cell_length_b   7.46840620
_cell_length_c   7.46840572
_cell_angle_alpha   120.00000000
_cell_angle_beta   90.00000000
_cell_angle_gamma   90.00000000
_symmetry_Int_Tables_number   1
_chemical_formula_structural   SmSn2
_chemical_formula_sum   'Sm3 Sn6'
_cell_volume   221.54850693
_cell_formula_units_Z   3
loop_
 _symmetry_equiv_pos_site_id
 _symmetry_equiv_pos_as_xyz
  1  'x, y, z'
loop_
 _atom_site_type_symbol
 _atom_site_label
 _atom_site_symmetry_multiplicity
 _atom_site_fract_x
 _atom_site_fract_y
 _atom_site_fract_z
 _atom_site_occupancy
  Sm  Sm0  1  0.99999996  0.42568698  0.42568699  1
  Sm  Sm1  1  0.00000000  0.00000000  0.57431300  1
  Sm  Sm2  1  -0.00000000  0.57431298  -0.00000001  1
  Sn  Sn3  1  0.49999998  0.75439797  0.75439798  1
  Sn  Sn4  1  0.49999998  0.99999996  0.24560197  1
  Sn  Sn5  1  0.49999998  0.24560199  -0.00000001  1
  Sn  Sn6  1  0.49999998  0.66666664  0.33333332  1
  Sn  Sn7  1  0.49999998  0.33333332  0.66666666  1
  Sn  Sn8  1  0.00000000  0.00000000  0.00000000  1
