# generated using pymatgen
data_Ca4Zn2(CdSn2)3
_symmetry_space_group_name_H-M   'P 1'
_cell_length_a   4.42204905
_cell_length_b   4.42204905
_cell_length_c   21.22191048
_cell_angle_alpha   90.00000000
_cell_angle_beta   90.00000000
_cell_angle_gamma   90.00000000
_symmetry_Int_Tables_number   1
_chemical_formula_structural   Ca4Zn2(CdSn2)3
_chemical_formula_sum   'Ca4 Zn2 Cd3 Sn6'
_cell_volume   414.98422535
_cell_formula_units_Z   1
loop_
 _symmetry_equiv_pos_site_id
 _symmetry_equiv_pos_as_xyz
  1  'x, y, z'
loop_
 _atom_site_type_symbol
 _atom_site_label
 _atom_site_symmetry_multiplicity
 _atom_site_fract_x
 _atom_site_fract_y
 _atom_site_fract_z
 _atom_site_occupancy
  Ca  Ca0  1  0.49999999  0.00000000  0.36378901  1
  Ca  Ca1  1  0.49999999  0.00000000  0.88118402  1
  Ca  Ca2  1  0.00000000  0.49999999  0.11881600  1
  Ca  Ca3  1  0.00000000  0.49999999  0.63621102  1
  Cd  Cd4  1  0.49999999  0.49999999  0.50000001  1
  Cd  Cd5  1  0.00000000  0.00000000  0.00000000  1
  Zn  Zn6  1  0.00000000  0.00000000  0.50000001  1
  Zn  Zn7  1  0.49999999  0.49999999  0.24063201  1
  Cd  Cd8  1  0.49999999  0.49999999  0.75936802  1
  Sn  Sn9  1  0.00000000  0.00000000  0.23997101  1
  Sn  Sn10  1  0.00000000  0.00000000  0.76002902  1
  Sn  Sn11  1  0.49999999  0.00000000  0.06751400  1
  Sn  Sn12  1  0.49999999  0.00000000  0.58071801  1
  Sn  Sn13  1  0.00000000  0.49999999  0.41928201  1
  Sn  Sn14  1  0.00000000  0.49999999  0.93248602  1
