# generated using pymatgen
data_Ho3Sn
_symmetry_space_group_name_H-M   'P 1'
_cell_length_a   4.75901318
_cell_length_b   4.75901318
_cell_length_c   4.75901318
_cell_angle_alpha   90.00000000
_cell_angle_beta   90.00000000
_cell_angle_gamma   90.00000000
_symmetry_Int_Tables_number   1
_chemical_formula_structural   Ho3Sn
_chemical_formula_sum   'Ho3 Sn1'
_cell_volume   107.78311271
_cell_formula_units_Z   1
loop_
 _symmetry_equiv_pos_site_id
 _symmetry_equiv_pos_as_xyz
  1  'x, y, z'
loop_
 _atom_site_type_symbol
 _atom_site_label
 _atom_site_symmetry_multiplicity
 _atom_site_fract_x
 _atom_site_fract_y
 _atom_site_fract_z
 _atom_site_occupancy
  Ho  Ho0  1  0.00000000  0.00000000  0.00000000  1
  Ho  Ho1  1  0.49999998  0.49999998  0.00000000  1
  Ho  Ho2  1  0.49999998  0.00000000  0.49999998  1
  Sn  Sn3  1  0.00000000  0.49999998  0.49999998  1
