# generated using pymatgen
data_Mg2CdAg5
_symmetry_space_group_name_H-M   'P 1'
_cell_length_a   4.83773518
_cell_length_b   5.40768003
_cell_length_c   5.84959984
_cell_angle_alpha   90.00000000
_cell_angle_beta   90.00000000
_cell_angle_gamma   90.00000000
_symmetry_Int_Tables_number   1
_chemical_formula_structural   Mg2CdAg5
_chemical_formula_sum   'Mg2 Cd1 Ag5'
_cell_volume   153.03093636
_cell_formula_units_Z   1
loop_
 _symmetry_equiv_pos_site_id
 _symmetry_equiv_pos_as_xyz
  1  'x, y, z'
loop_
 _atom_site_type_symbol
 _atom_site_label
 _atom_site_symmetry_multiplicity
 _atom_site_fract_x
 _atom_site_fract_y
 _atom_site_fract_z
 _atom_site_occupancy
  Mg  Mg0  1  0.49999998  0.33221600  0.50000001  1
  Mg  Mg1  1  0.00000000  0.66778400  0.00000000  1
  Ag  Ag2  1  0.00000000  0.66649700  0.50000001  1
  Cd  Cd3  1  0.49999998  0.33350300  0.00000000  1
  Ag  Ag4  1  0.00000000  0.16650000  0.74820702  1
  Ag  Ag5  1  0.49999998  0.83349999  0.75179302  1
  Ag  Ag6  1  0.00000000  0.16650000  0.25179301  1
  Ag  Ag7  1  0.49999998  0.83349999  0.24820701  1
