# generated using pymatgen
data_Tm(SiNi2)2
_symmetry_space_group_name_H-M   'P 1'
_cell_length_a   3.72727108
_cell_length_b   6.91779423
_cell_length_c   6.91779423
_cell_angle_alpha   90.00000000
_cell_angle_beta   90.00000000
_cell_angle_gamma   90.00000000
_symmetry_Int_Tables_number   1
_chemical_formula_structural   Tm(SiNi2)2
_chemical_formula_sum   'Tm2 Si4 Ni8'
_cell_volume   178.37182626
_cell_formula_units_Z   2
loop_
 _symmetry_equiv_pos_site_id
 _symmetry_equiv_pos_as_xyz
  1  'x, y, z'
loop_
 _atom_site_type_symbol
 _atom_site_label
 _atom_site_symmetry_multiplicity
 _atom_site_fract_x
 _atom_site_fract_y
 _atom_site_fract_z
 _atom_site_occupancy
  Tm  Tm0  1  0.00000000  0.49999998  0.49999998  1
  Tm  Tm1  1  0.49999999  0.00000000  0.00000000  1
  Ni  Ni2  1  0.49999999  0.58827198  0.14768500  1
  Ni  Ni3  1  0.49999999  0.41172799  0.85231497  1
  Ni  Ni4  1  0.49999999  0.14768500  0.58827198  1
  Ni  Ni5  1  0.49999999  0.85231497  0.41172799  1
  Ni  Ni6  1  0.00000000  0.08827200  0.35231499  1
  Ni  Ni7  1  0.00000000  0.91172797  0.64768498  1
  Ni  Ni8  1  0.00000000  0.64768498  0.91172797  1
  Ni  Ni9  1  0.00000000  0.35231499  0.08827200  1
  Si  Si10  1  -0.00000000  0.21726799  0.78273197  1
  Si  Si11  1  0.49999999  0.28273199  0.28273199  1
  Si  Si12  1  0.49999999  0.71726798  0.71726798  1
  Si  Si13  1  0.00000000  0.78273197  0.21726799  1
