# generated using pymatgen
data_Ni
_symmetry_space_group_name_H-M   'P 1'
_cell_length_a   5.89121294
_cell_length_b   5.93826485
_cell_length_c   5.99373579
_cell_angle_alpha   116.00270081
_cell_angle_beta   90.00000000
_cell_angle_gamma   90.00000000
_symmetry_Int_Tables_number   1
_chemical_formula_structural   Ni
_chemical_formula_sum   Ni12
_cell_volume   188.45691630
_cell_formula_units_Z   12
loop_
 _symmetry_equiv_pos_site_id
 _symmetry_equiv_pos_as_xyz
  1  'x, y, z'
loop_
 _atom_site_type_symbol
 _atom_site_label
 _atom_site_symmetry_multiplicity
 _atom_site_fract_x
 _atom_site_fract_y
 _atom_site_fract_z
 _atom_site_occupancy
  Ni  Ni0  1  0.00049500  0.72817600  0.71443695  1
  Ni  Ni1  1  0.50049501  0.27182400  0.78556298  1
  Ni  Ni2  1  0.99950501  0.27182400  0.28556298  1
  Ni  Ni3  1  0.49950501  0.72817600  0.21443696  1
  Ni  Ni4  1  0.36390500  0.65692800  0.82542996  1
  Ni  Ni5  1  0.86390501  0.34307200  0.67456997  1
  Ni  Ni6  1  0.63609501  0.34307200  0.17456998  1
  Ni  Ni7  1  0.13609500  0.65692800  0.32542996  1
  Ni  Ni8  1  0.63397301  0.84660100  0.63210795  1
  Ni  Ni9  1  0.13397300  0.15339900  0.86789198  1
  Ni  Ni10  1  0.36602700  0.15339900  0.36789199  1
  Ni  Ni11  1  0.86602701  0.84660100  0.13210795  1
