# generated using pymatgen
data_Li4MnO7
_symmetry_space_group_name_H-M   'P 1'
_cell_length_a   3.75582600
_cell_length_b   6.41893911
_cell_length_c   6.56284618
_cell_angle_alpha   106.36349487
_cell_angle_beta   90.00000000
_cell_angle_gamma   107.01116943
_symmetry_Int_Tables_number   1
_chemical_formula_structural   Li4MnO7
_chemical_formula_sum   'Li4 Mn1 O7'
_cell_volume   144.58193239
_cell_formula_units_Z   1
loop_
 _symmetry_equiv_pos_site_id
 _symmetry_equiv_pos_as_xyz
  1  'x, y, z'
loop_
 _atom_site_type_symbol
 _atom_site_label
 _atom_site_symmetry_multiplicity
 _atom_site_fract_x
 _atom_site_fract_y
 _atom_site_fract_z
 _atom_site_occupancy
  Li  Li0  1  0.39856495  0.79713000  0.27944101  1
  Li  Li1  1  0.59958099  0.19916200  0.72360101  1
  Li  Li2  1  0.29676497  0.59353000  0.70212701  1
  Li  Li3  1  0.69738198  0.39476400  0.30197501  1
  Mn  Mn4  1  0.13317898  0.26635800  0.68856201  1
  O  O5  1  0.25629397  0.51258800  0.37866801  1
  O  O6  1  0.35976596  0.71953200  0.98976302  1
  O  O7  1  0.44850595  0.89701200  0.64595101  1
  O  O8  1  0.54544199  0.09088400  0.35467601  1
  O  O9  1  0.63571498  0.27143000  0.98872101  1
  O  O10  1  0.75446597  0.50893200  0.65968901  1
  O  O11  1  0.87433896  0.74867800  0.28682501  1
