# generated using pymatgen
data_Sr2NbCoO6
_symmetry_space_group_name_H-M   'P 1'
_cell_length_a   4.05787516
_cell_length_b   4.05787516
_cell_length_c   8.28339481
_cell_angle_alpha   90.00000000
_cell_angle_beta   90.00000000
_cell_angle_gamma   90.00000000
_symmetry_Int_Tables_number   1
_chemical_formula_structural   Sr2NbCoO6
_chemical_formula_sum   'Sr2 Nb1 Co1 O6'
_cell_volume   136.39728469
_cell_formula_units_Z   1
loop_
 _symmetry_equiv_pos_site_id
 _symmetry_equiv_pos_as_xyz
  1  'x, y, z'
loop_
 _atom_site_type_symbol
 _atom_site_label
 _atom_site_symmetry_multiplicity
 _atom_site_fract_x
 _atom_site_fract_y
 _atom_site_fract_z
 _atom_site_occupancy
  Sr  Sr0  1  0.49999998  0.49999998  0.03415300  1
  Sr  Sr1  1  0.49999998  0.49999998  0.49771601  1
  Nb  Nb2  1  0.00000000  0.00000000  0.75217102  1
  Co  Co3  1  0.00000000  0.00000000  0.25412501  1
  O  O4  1  0.49999998  0.00000000  0.23752801  1
  O  O5  1  -0.00000000  0.49999998  0.23752801  1
  O  O6  1  0.49999998  0.00000000  0.71355702  1
  O  O7  1  -0.00000000  0.49999998  0.71355702  1
  O  O8  1  0.00000000  0.00000000  0.99817902  1
  O  O9  1  0.00000000  0.00000000  0.47358601  1
