# generated using pymatgen
data_Sr2TiCr2O9
_symmetry_space_group_name_H-M   'P 1'
_cell_length_a   5.55859995
_cell_length_b   5.55859947
_cell_length_c   6.80549002
_cell_angle_alpha   90.00000000
_cell_angle_beta   90.00000000
_cell_angle_gamma   120.00000763
_symmetry_Int_Tables_number   1
_chemical_formula_structural   Sr2TiCr2O9
_chemical_formula_sum   'Sr2 Ti1 Cr2 O9'
_cell_volume   182.10455144
_cell_formula_units_Z   1
loop_
 _symmetry_equiv_pos_site_id
 _symmetry_equiv_pos_as_xyz
  1  'x, y, z'
loop_
 _atom_site_type_symbol
 _atom_site_label
 _atom_site_symmetry_multiplicity
 _atom_site_fract_x
 _atom_site_fract_y
 _atom_site_fract_z
 _atom_site_occupancy
  Sr  Sr0  1  0.33333338  0.66666667  0.66777500  1
  Sr  Sr1  1  0.66666670  0.33333333  0.33222500  1
  Ti  Ti2  1  0.00000000  0.00000000  0.50000000  1
  Cr  Cr3  1  0.33333338  0.66666667  0.16164100  1
  Cr  Cr4  1  0.66666670  0.33333333  0.83835900  1
  O  O5  1  0.16740902  0.33481800  0.33784300  1
  O  O6  1  0.50000000  0.00000000  0.00000000  1
  O  O7  1  0.83259105  0.66518200  0.66215700  1
  O  O8  1  0.33481901  0.16741000  0.66215700  1
  O  O9  1  0.66518106  0.83259000  0.33784300  1
  O  O10  1  1.00000004  0.50000000  -0.00000000  1
  O  O11  1  0.16740906  0.83259000  0.33784300  1
  O  O12  1  0.50000004  0.50000000  1.00000000  1
  O  O13  1  0.83259102  0.16741000  0.66215700  1
