# generated using pymatgen
data_LiAg3
_symmetry_space_group_name_H-M   'P 1'
_cell_length_a   5.53362846
_cell_length_b   5.53362846
_cell_length_c   5.74358320
_cell_angle_alpha   90.00000000
_cell_angle_beta   90.00000000
_cell_angle_gamma   98.18038940
_symmetry_Int_Tables_number   1
_chemical_formula_structural   LiAg3
_chemical_formula_sum   'Li2 Ag6'
_cell_volume   174.08498896
_cell_formula_units_Z   2
loop_
 _symmetry_equiv_pos_site_id
 _symmetry_equiv_pos_as_xyz
  1  'x, y, z'
loop_
 _atom_site_type_symbol
 _atom_site_label
 _atom_site_symmetry_multiplicity
 _atom_site_fract_x
 _atom_site_fract_y
 _atom_site_fract_z
 _atom_site_occupancy
  Li  Li0  1  0.12406400  0.47952798  0.74999997  1
  Li  Li1  1  0.52047198  0.87593596  0.24999999  1
  Ag  Ag2  1  0.87593597  0.52047198  0.24999999  1
  Ag  Ag3  1  0.47952798  0.12406400  0.74999997  1
  Ag  Ag4  1  0.66380497  0.66380497  0.74999997  1
  Ag  Ag5  1  0.33619499  0.33619499  0.24999999  1
  Ag  Ag6  1  0.00000000  0.00000000  0.49999998  1
  Ag  Ag7  1  0.00000000  0.00000000  0.00000000  1
