# generated using pymatgen
data_LiTiNbPO
_symmetry_space_group_name_H-M   'P 1'
_cell_length_a   3.31081390
_cell_length_b   3.31081390
_cell_length_c   8.97651386
_cell_angle_alpha   90.00000000
_cell_angle_beta   90.00000000
_cell_angle_gamma   120.00000000
_symmetry_Int_Tables_number   1
_chemical_formula_structural   LiTiNbPO
_chemical_formula_sum   'Li1 Ti1 Nb1 P1 O1'
_cell_volume   85.21339694
_cell_formula_units_Z   1
loop_
 _symmetry_equiv_pos_site_id
 _symmetry_equiv_pos_as_xyz
  1  'x, y, z'
loop_
 _atom_site_type_symbol
 _atom_site_label
 _atom_site_symmetry_multiplicity
 _atom_site_fract_x
 _atom_site_fract_y
 _atom_site_fract_z
 _atom_site_occupancy
  Li  Li0  1  0.33333334  0.66666668  0.70827601  1
  Ti  Ti1  1  0.66666668  0.33333334  0.29172400  1
  Nb  Nb2  1  0.00000000  0.00000000  0.00000000  1
  P  P3  1  0.33333334  0.66666668  0.12738400  1
  O  O4  1  0.66666668  0.33333334  0.87261601  1
