# generated using pymatgen
data_Ba2TiRuO6
_symmetry_space_group_name_H-M   'P 1'
_cell_length_a   4.10176706
_cell_length_b   8.10123825
_cell_length_c   9.09257030
_cell_angle_alpha   116.45448303
_cell_angle_beta   90.00000000
_cell_angle_gamma   90.00000000
_symmetry_Int_Tables_number   1
_chemical_formula_structural   Ba2TiRuO6
_chemical_formula_sum   'Ba4 Ti2 Ru2 O12'
_cell_volume   270.50300567
_cell_formula_units_Z   2
loop_
 _symmetry_equiv_pos_site_id
 _symmetry_equiv_pos_as_xyz
  1  'x, y, z'
loop_
 _atom_site_type_symbol
 _atom_site_label
 _atom_site_symmetry_multiplicity
 _atom_site_fract_x
 _atom_site_fract_y
 _atom_site_fract_z
 _atom_site_occupancy
  Ba  Ba0  1  0.49999999  0.12614800  0.74804299  1
  Ba  Ba1  1  0.49999999  0.37810499  0.25195700  1
  Ba  Ba2  1  0.49999999  0.62189499  0.74804300  1
  Ba  Ba3  1  0.49999999  0.87385198  0.25195702  1
  Ti  Ti4  1  0.00000000  0.00000000  0.00000000  1
  Ti  Ti5  1  -0.00000000  0.24928300  0.49856600  1
  Ru  Ru6  1  -0.00000000  0.49999999  0.00000001  1
  Ru  Ru7  1  -0.00000000  0.75071699  0.50143401  1
  O  O8  1  -0.00000000  0.74991499  1.00000000  1
  O  O9  1  0.00000000  0.00000000  0.49999999  1
  O  O10  1  -0.00000000  0.25008500  0.00000001  1
  O  O11  1  -0.00000000  0.49999999  0.50000000  1
  O  O12  1  -0.00000000  0.37238999  0.74477999  1
  O  O13  1  -0.00000000  0.62760999  0.25522001  1
  O  O14  1  -0.00000000  0.87660598  0.75321201  1
  O  O15  1  -0.00000000  0.12339400  0.24678800  1
  O  O16  1  0.49999999  0.49999999  0.00000001  1
  O  O17  1  0.49999999  0.75057799  0.50115601  1
  O  O18  1  0.49999999  0.00000000  -0.00000000  1
  O  O19  1  0.49999999  0.24942200  0.49884400  1
