# generated using pymatgen
data_Tm4Al5Ir
_symmetry_space_group_name_H-M   'P 1'
_cell_length_a   3.97780991
_cell_length_b   3.97781038
_cell_length_c   17.34530067
_cell_angle_alpha   90.00000000
_cell_angle_beta   90.00000000
_cell_angle_gamma   120.00000000
_symmetry_Int_Tables_number   1
_chemical_formula_structural   Tm4Al5Ir
_chemical_formula_sum   'Tm4 Al5 Ir1'
_cell_volume   237.68433856
_cell_formula_units_Z   1
loop_
 _symmetry_equiv_pos_site_id
 _symmetry_equiv_pos_as_xyz
  1  'x, y, z'
loop_
 _atom_site_type_symbol
 _atom_site_label
 _atom_site_symmetry_multiplicity
 _atom_site_fract_x
 _atom_site_fract_y
 _atom_site_fract_z
 _atom_site_occupancy
  Tm  Tm0  1  0.00000000  0.00000000  0.60577601  1
  Tm  Tm1  1  0.00000000  0.00000000  0.89422402  1
  Tm  Tm2  1  0.00000000  0.00000000  0.39422401  1
  Tm  Tm3  1  0.00000000  0.00000000  0.10577600  1
  Al  Al4  1  0.33333339  0.66666670  0.00557500  1
  Al  Al5  1  0.66666671  0.33333335  0.50557501  1
  Al  Al6  1  0.33333339  0.66666670  0.49442501  1
  Al  Al7  1  0.66666671  0.33333335  0.99442502  1
  Ir  Ir8  1  0.33333339  0.66666670  0.75000001  1
  Al  Al9  1  0.66666671  0.33333335  0.25000000  1
