# generated using pymatgen
data_Dy3Cu9Sn2
_symmetry_space_group_name_H-M   'P 1'
_cell_length_a   4.20196199
_cell_length_b   8.15454102
_cell_length_c   8.15454102
_cell_angle_alpha   75.76702881
_cell_angle_beta   75.06959534
_cell_angle_gamma   75.06959534
_symmetry_Int_Tables_number   1
_chemical_formula_structural   Dy3Cu9Sn2
_chemical_formula_sum   'Dy3 Cu9 Sn2'
_cell_volume   256.00194992
_cell_formula_units_Z   1
loop_
 _symmetry_equiv_pos_site_id
 _symmetry_equiv_pos_as_xyz
  1  'x, y, z'
loop_
 _atom_site_type_symbol
 _atom_site_label
 _atom_site_symmetry_multiplicity
 _atom_site_fract_x
 _atom_site_fract_y
 _atom_site_fract_z
 _atom_site_occupancy
  Dy  Dy0  1  0.31622994  0.68376999  0.68377001  1
  Dy  Dy1  1  0.68376998  0.31622999  0.31622999  1
  Dy  Dy2  1  0.00000000  0.00000000  0.00000000  1
  Cu  Cu3  1  0.34143100  0.02992400  0.28721399  1
  Cu  Cu4  1  0.65856892  0.97007598  0.71278602  1
  Cu  Cu5  1  0.34143198  0.28721399  0.02992301  1
  Cu  Cu6  1  0.65856794  0.71278599  0.97007700  1
  Cu  Cu7  1  0.13252499  0.14611600  0.58883399  1
  Cu  Cu8  1  0.86747493  0.85388398  0.41116601  1
  Cu  Cu9  1  0.13252494  0.58883399  0.14611602  1
  Cu  Cu10  1  0.86747497  0.41116599  0.85388398  1
  Cu  Cu11  1  -0.00000005  0.49999999  0.50000002  1
  Sn  Sn12  1  0.49999994  0.71189199  0.28810802  1
  Sn  Sn13  1  0.49999998  0.28810799  0.71189199  1
