# generated using pymatgen
data_Sr3Ca(RuO4)2
_symmetry_space_group_name_H-M   'P 1'
_cell_length_a   5.54793978
_cell_length_b   5.57063246
_cell_length_c   6.86397362
_cell_angle_alpha   66.05950165
_cell_angle_beta   90.00000000
_cell_angle_gamma   90.00000000
_symmetry_Int_Tables_number   1
_chemical_formula_structural   Sr3Ca(RuO4)2
_chemical_formula_sum   'Sr3 Ca1 Ru2 O8'
_cell_volume   193.88425210
_cell_formula_units_Z   1
loop_
 _symmetry_equiv_pos_site_id
 _symmetry_equiv_pos_as_xyz
  1  'x, y, z'
loop_
 _atom_site_type_symbol
 _atom_site_label
 _atom_site_symmetry_multiplicity
 _atom_site_fract_x
 _atom_site_fract_y
 _atom_site_fract_z
 _atom_site_occupancy
  Sr  Sr0  1  0.50000002  0.14350100  0.71299802  1
  Sr  Sr1  1  0.00000000  0.64564400  0.70871302  1
  Sr  Sr2  1  0.50000002  0.85806900  0.28386101  1
  Ca  Ca3  1  0.00000000  0.36214000  0.27572101  1
  Ru  Ru4  1  0.00000000  0.00524400  0.98951303  1
  Ru  Ru5  1  0.50000002  0.50353200  0.99293603  1
  O  O6  1  0.24804201  0.73369900  0.01406401  1
  O  O7  1  0.75195803  0.25223800  0.01406400  1
  O  O8  1  0.24804201  0.25223800  0.01406400  1
  O  O9  1  0.75195803  0.73369900  0.01406401  1
  O  O10  1  0.00000000  0.83477000  0.33046001  1
  O  O11  1  0.50000002  0.33653200  0.32693601  1
  O  O12  1  0.50000002  0.66073000  0.67854002  1
  O  O13  1  0.00000000  0.17796900  0.64406302  1
