# generated using pymatgen
data_Sr3Eu3(SnO5)2
_symmetry_space_group_name_H-M   'P 1'
_cell_length_a   5.90272284
_cell_length_b   6.82016802
_cell_length_c   6.82016802
_cell_angle_alpha   90.00000000
_cell_angle_beta   90.00000000
_cell_angle_gamma   90.00000000
_symmetry_Int_Tables_number   1
_chemical_formula_structural   Sr3Eu3(SnO5)2
_chemical_formula_sum   'Sr3 Eu3 Sn2 O10'
_cell_volume   274.56333347
_cell_formula_units_Z   1
loop_
 _symmetry_equiv_pos_site_id
 _symmetry_equiv_pos_as_xyz
  1  'x, y, z'
loop_
 _atom_site_type_symbol
 _atom_site_label
 _atom_site_symmetry_multiplicity
 _atom_site_fract_x
 _atom_site_fract_y
 _atom_site_fract_z
 _atom_site_occupancy
  Sr  Sr0  1  0.00000000  0.50000000  0.50000000  1
  Sr  Sr1  1  0.00000000  0.00000000  0.00000000  1
  Sr  Sr2  1  0.50000001  0.32680700  0.82680700  1
  Eu  Eu3  1  0.50000001  0.82680700  0.67319300  1
  Eu  Eu4  1  0.50000001  0.17319300  0.32680700  1
  Eu  Eu5  1  0.50000001  0.67319300  0.17319300  1
  Sn  Sn6  1  0.00000000  0.00000000  0.50000000  1
  Sn  Sn7  1  0.00000000  0.50000000  -0.00000000  1
  O  O8  1  0.24186601  0.13860000  0.63860000  1
  O  O9  1  0.24186601  0.86140000  0.36140000  1
  O  O10  1  0.24186601  0.36140000  0.13860000  1
  O  O11  1  0.24186601  0.63860000  0.86140000  1
  O  O12  1  0.75813402  0.13860000  0.63860000  1
  O  O13  1  0.75813402  0.63860000  0.86140000  1
  O  O14  1  0.75813402  0.36140000  0.13860000  1
  O  O15  1  0.75813402  0.86140000  0.36140000  1
  O  O16  1  0.50000001  0.00000000  0.00000000  1
  O  O17  1  0.50000001  0.50000000  0.50000000  1
