# generated using pymatgen
data_AcMg3
_symmetry_space_group_name_H-M   'P 1'
_cell_length_a   5.72744179
_cell_length_b   7.21955204
_cell_length_c   7.21955156
_cell_angle_alpha   120.00000000
_cell_angle_beta   90.00000000
_cell_angle_gamma   90.00000000
_symmetry_Int_Tables_number   1
_chemical_formula_structural   AcMg3
_chemical_formula_sum   'Ac2 Mg6'
_cell_volume   258.53050190
_cell_formula_units_Z   2
loop_
 _symmetry_equiv_pos_site_id
 _symmetry_equiv_pos_as_xyz
  1  'x, y, z'
loop_
 _atom_site_type_symbol
 _atom_site_label
 _atom_site_symmetry_multiplicity
 _atom_site_fract_x
 _atom_site_fract_y
 _atom_site_fract_z
 _atom_site_occupancy
  Ac  Ac0  1  0.25000001  0.66666665  0.33333331  1
  Ac  Ac1  1  0.75000003  0.33333333  0.66666666  1
  Mg  Mg2  1  0.75000003  0.83456598  0.16543397  1
  Mg  Mg3  1  0.75000003  0.33086799  0.16543399  1
  Mg  Mg4  1  0.75000003  0.83456598  0.66913198  1
  Mg  Mg5  1  0.25000001  0.16543400  0.83456600  1
  Mg  Mg6  1  0.25000001  0.66913198  0.83456598  1
  Mg  Mg7  1  0.25000001  0.16543400  0.33086800  1
