# generated using pymatgen
data_Eu3Bi5O12
_symmetry_space_group_name_H-M   'P 1'
_cell_length_a   7.34393740
_cell_length_b   7.34393740
_cell_length_c   7.34393740
_cell_angle_alpha   60.00000000
_cell_angle_beta   60.00000000
_cell_angle_gamma   60.00000000
_symmetry_Int_Tables_number   1
_chemical_formula_structural   Eu3Bi5O12
_chemical_formula_sum   'Eu3 Bi5 O12'
_cell_volume   280.07342374
_cell_formula_units_Z   1
loop_
 _symmetry_equiv_pos_site_id
 _symmetry_equiv_pos_as_xyz
  1  'x, y, z'
loop_
 _atom_site_type_symbol
 _atom_site_label
 _atom_site_symmetry_multiplicity
 _atom_site_fract_x
 _atom_site_fract_y
 _atom_site_fract_z
 _atom_site_occupancy
  Eu  Eu0  1  0.37500000  0.37500000  0.87500001  1
  Eu  Eu1  1  0.37500000  0.37500000  0.37500000  1
  Eu  Eu2  1  0.37500000  0.87500001  0.37500000  1
  Bi  Bi3  1  0.87500001  0.37500000  0.37500000  1
  Bi  Bi4  1  0.87500001  0.87500001  0.37500000  1
  Bi  Bi5  1  0.87500001  0.87500001  0.87500001  1
  Bi  Bi6  1  0.87500001  0.37500000  0.87500001  1
  Bi  Bi7  1  0.37500000  0.87500001  0.87500001  1
  O  O8  1  0.79707501  0.79707501  0.20292500  1
  O  O9  1  0.20292500  0.20292500  0.79707501  1
  O  O10  1  0.79707501  0.20292500  0.20292500  1
  O  O11  1  0.20292500  0.79707501  0.79707501  1
  O  O12  1  0.79707501  0.20292500  0.79707501  1
  O  O13  1  0.20292500  0.79707501  0.20292500  1
  O  O14  1  0.95292501  0.95292501  0.54707501  1
  O  O15  1  0.54707501  0.54707501  0.95292501  1
  O  O16  1  0.95292501  0.54707501  0.54707501  1
  O  O17  1  0.54707501  0.95292501  0.95292501  1
  O  O18  1  0.95292501  0.54707501  0.95292501  1
  O  O19  1  0.54707501  0.95292501  0.54707501  1
