# generated using pymatgen
data_LiNiO2
_symmetry_space_group_name_H-M   'P 1'
_cell_length_a   2.96773696
_cell_length_b   5.14394093
_cell_length_c   5.17641211
_cell_angle_alpha   98.93834686
_cell_angle_beta   106.64893341
_cell_angle_gamma   90.00407410
_symmetry_Int_Tables_number   1
_chemical_formula_structural   LiNiO2
_chemical_formula_sum   'Li2 Ni2 O4'
_cell_volume   74.70719627
_cell_formula_units_Z   2
loop_
 _symmetry_equiv_pos_site_id
 _symmetry_equiv_pos_as_xyz
  1  'x, y, z'
loop_
 _atom_site_type_symbol
 _atom_site_label
 _atom_site_symmetry_multiplicity
 _atom_site_fract_x
 _atom_site_fract_y
 _atom_site_fract_z
 _atom_site_occupancy
  Li  Li0  1  0.50104601  0.50741698  0.00211700  1
  Li  Li1  1  0.99896302  0.99256297  0.99788598  1
  Ni  Ni2  1  0.74999802  0.25000399  0.49999901  1
  Ni  Ni3  1  0.25000000  0.75000297  0.49999997  1
  O  O4  1  0.13642000  0.38106599  0.27267099  1
  O  O5  1  0.36357901  0.11894100  0.72732999  1
  O  O6  1  0.63566001  0.87394297  0.27114099  1
  O  O7  1  0.86433402  0.62606398  0.72885799  1
