# generated using pymatgen
data_VOs4
_symmetry_space_group_name_H-M   'P 1'
_cell_length_a   4.17352200
_cell_length_b   4.18833590
_cell_length_c   6.47823191
_cell_angle_alpha   108.26206207
_cell_angle_beta   108.79111481
_cell_angle_gamma   90.00000000
_symmetry_Int_Tables_number   1
_chemical_formula_structural   VOs4
_chemical_formula_sum   'V1 Os4'
_cell_volume   101.16114509
_cell_formula_units_Z   1
loop_
 _symmetry_equiv_pos_site_id
 _symmetry_equiv_pos_as_xyz
  1  'x, y, z'
loop_
 _atom_site_type_symbol
 _atom_site_label
 _atom_site_symmetry_multiplicity
 _atom_site_fract_x
 _atom_site_fract_y
 _atom_site_fract_z
 _atom_site_occupancy
  V  V0  1  0.00000000  0.00000000  0.00000000  1
  Os  Os1  1  0.25025100  0.77889504  0.50050200  1
  Os  Os2  1  0.74974899  0.22110501  0.49949798  1
  Os  Os3  1  0.65482199  0.63395503  0.30964399  1
  Os  Os4  1  0.34517800  0.36604502  0.69035599  1
