# generated using pymatgen
data_Li5P2H
_symmetry_space_group_name_H-M   'P 1'
_cell_length_a   4.30023003
_cell_length_b   4.30022955
_cell_length_c   7.79570103
_cell_angle_alpha   90.00000000
_cell_angle_beta   90.00000000
_cell_angle_gamma   120.00000000
_symmetry_Int_Tables_number   1
_chemical_formula_structural   Li5P2H
_chemical_formula_sum   'Li5 P2 H1'
_cell_volume   124.84441921
_cell_formula_units_Z   1
loop_
 _symmetry_equiv_pos_site_id
 _symmetry_equiv_pos_as_xyz
  1  'x, y, z'
loop_
 _atom_site_type_symbol
 _atom_site_label
 _atom_site_symmetry_multiplicity
 _atom_site_fract_x
 _atom_site_fract_y
 _atom_site_fract_z
 _atom_site_occupancy
  Li  Li0  1  0.00000000  0.00000000  0.75000000  1
  Li  Li1  1  0.00000000  0.00000000  0.25000000  1
  Li  Li2  1  0.66666664  0.33333333  0.42091300  1
  Li  Li3  1  0.33333329  0.66666666  0.92091300  1
  H  H4  1  0.33333329  0.66666666  0.57908700  1
  Li  Li5  1  0.66666664  0.33333333  0.07908700  1
  P  P6  1  0.66666664  0.33333333  0.75000000  1
  P  P7  1  0.33333329  0.66666666  0.25000000  1
