# generated using pymatgen
data_LiTi5S8
_symmetry_space_group_name_H-M   'P 1'
_cell_length_a   7.42768002
_cell_length_b   7.47381353
_cell_length_c   7.47381353
_cell_angle_alpha   61.14568329
_cell_angle_beta   60.20398331
_cell_angle_gamma   60.20398331
_symmetry_Int_Tables_number   1
_chemical_formula_structural   LiTi5S8
_chemical_formula_sum   'Li1 Ti5 S8'
_cell_volume   296.75506043
_cell_formula_units_Z   1
loop_
 _symmetry_equiv_pos_site_id
 _symmetry_equiv_pos_as_xyz
  1  'x, y, z'
loop_
 _atom_site_type_symbol
 _atom_site_label
 _atom_site_symmetry_multiplicity
 _atom_site_fract_x
 _atom_site_fract_y
 _atom_site_fract_z
 _atom_site_occupancy
  Li  Li0  1  0.98488099  0.01511900  0.01511902  1
  Ti  Ti1  1  0.12523201  0.62448801  0.62448800  1
  Ti  Ti2  1  0.62579201  0.62448801  0.62448801  1
  Ti  Ti3  1  0.26353600  0.23646400  0.23646400  1
  Ti  Ti4  1  0.62454101  0.62455001  0.12636800  1
  Ti  Ti5  1  0.62454099  0.12636800  0.62455002  1
  S  S6  1  0.39252401  0.86818801  0.86818800  1
  S  S7  1  0.87110001  0.86818901  0.86818802  1
  S  S8  1  0.86439501  0.86621701  0.40499301  1
  S  S9  1  0.86439600  0.40499300  0.86621602  1
  S  S10  1  0.87146700  0.37706200  0.37706302  1
  S  S11  1  0.37440700  0.37706300  0.37706301  1
  S  S12  1  0.38159400  0.37707900  0.85973301  1
  S  S13  1  0.38159501  0.85973301  0.37707800  1
