# generated using pymatgen
data_Tm2AlSi5
_symmetry_space_group_name_H-M   'P 1'
_cell_length_a   4.04154205
_cell_length_b   5.34826565
_cell_length_c   13.29105568
_cell_angle_alpha   90.00000000
_cell_angle_beta   90.00000000
_cell_angle_gamma   112.19974518
_symmetry_Int_Tables_number   1
_chemical_formula_structural   Tm2AlSi5
_chemical_formula_sum   'Tm4 Al2 Si10'
_cell_volume   265.99325550
_cell_formula_units_Z   2
loop_
 _symmetry_equiv_pos_site_id
 _symmetry_equiv_pos_as_xyz
  1  'x, y, z'
loop_
 _atom_site_type_symbol
 _atom_site_label
 _atom_site_symmetry_multiplicity
 _atom_site_fract_x
 _atom_site_fract_y
 _atom_site_fract_z
 _atom_site_occupancy
  Tm  Tm0  1  0.42003398  0.84006803  0.11054900  1
  Tm  Tm1  1  0.57996599  0.15993201  0.88945102  1
  Tm  Tm2  1  0.57996599  0.15993201  0.61054901  1
  Tm  Tm3  1  0.42003398  0.84006803  0.38945101  1
  Al  Al4  1  0.14656899  0.29313801  0.25000001  1
  Al  Al5  1  0.85343098  0.70686202  0.75000002  1
  Si  Si6  1  0.70902699  0.41805401  0.09796500  1
  Si  Si7  1  0.29097299  0.58194602  0.90203502  1
  Si  Si8  1  0.29097299  0.58194602  0.59796501  1
  Si  Si9  1  0.70902699  0.41805401  0.40203501  1
  Si  Si10  1  0.12320400  0.24640801  0.03984600  1
  Si  Si11  1  0.87679598  0.75359203  0.96015402  1
  Si  Si12  1  0.87679598  0.75359203  0.53984601  1
  Si  Si13  1  0.12320400  0.24640801  0.46015401  1
  Si  Si14  1  0.84645298  0.69290602  0.25000001  1
  Si  Si15  1  0.15354699  0.30709401  0.75000002  1
