# generated using pymatgen
data_LiMg6In13
_symmetry_space_group_name_H-M   'P 1'
_cell_length_a   4.20775700
_cell_length_b   4.20775700
_cell_length_c   21.10191536
_cell_angle_alpha   90.00000000
_cell_angle_beta   90.00000000
_cell_angle_gamma   90.00000000
_symmetry_Int_Tables_number   1
_chemical_formula_structural   LiMg6In13
_chemical_formula_sum   'Li1 Mg6 In13'
_cell_volume   373.61403147
_cell_formula_units_Z   1
loop_
 _symmetry_equiv_pos_site_id
 _symmetry_equiv_pos_as_xyz
  1  'x, y, z'
loop_
 _atom_site_type_symbol
 _atom_site_label
 _atom_site_symmetry_multiplicity
 _atom_site_fract_x
 _atom_site_fract_y
 _atom_site_fract_z
 _atom_site_occupancy
  Li  Li0  1  0.00000000  0.00000000  0.19781301  1
  Mg  Mg1  1  0.00000000  0.00000000  0.39962201  1
  Mg  Mg2  1  0.00000000  0.00000000  0.60037802  1
  Mg  Mg3  1  0.00000000  0.00000000  0.80218702  1
  Mg  Mg4  1  0.00000000  0.00000000  0.00000000  1
  Mg  Mg5  1  0.50000000  0.50000000  0.00000000  1
  In  In6  1  0.50000000  0.50000000  0.19837701  1
  Mg  Mg7  1  0.50000000  0.50000000  0.39949001  1
  In  In8  1  0.50000000  0.50000000  0.60051002  1
  In  In9  1  0.50000000  0.50000000  0.80162302  1
  In  In10  1  0.50000000  0.00000000  0.09656200  1
  In  In11  1  0.50000000  0.00000000  0.29915701  1
  In  In12  1  0.50000000  0.00000000  0.50000002  1
  In  In13  1  0.50000000  0.00000000  0.70084302  1
  In  In14  1  0.50000000  0.00000000  0.90343803  1
  In  In15  1  0.00000000  0.50000000  0.09656200  1
  In  In16  1  0.00000000  0.50000000  0.29915701  1
  In  In17  1  0.00000000  0.50000000  0.50000002  1
  In  In18  1  0.00000000  0.50000000  0.70084302  1
  In  In19  1  0.00000000  0.50000000  0.90343803  1
