# generated using pymatgen
data_CeSn
_symmetry_space_group_name_H-M   'P 1'
_cell_length_a   4.09444284
_cell_length_b   6.04418421
_cell_length_c   8.39902401
_cell_angle_alpha   90.00000000
_cell_angle_beta   90.00000000
_cell_angle_gamma   90.00000000
_symmetry_Int_Tables_number   1
_chemical_formula_structural   CeSn
_chemical_formula_sum   'Ce4 Sn4'
_cell_volume   207.85540757
_cell_formula_units_Z   4
loop_
 _symmetry_equiv_pos_site_id
 _symmetry_equiv_pos_as_xyz
  1  'x, y, z'
loop_
 _atom_site_type_symbol
 _atom_site_label
 _atom_site_symmetry_multiplicity
 _atom_site_fract_x
 _atom_site_fract_y
 _atom_site_fract_z
 _atom_site_occupancy
  Ce  Ce0  1  0.25000001  0.38303099  0.68111400  1
  Ce  Ce1  1  0.75000003  0.61696898  0.31888600  1
  Ce  Ce2  1  0.75000003  0.88303097  0.81888600  1
  Ce  Ce3  1  0.25000001  0.11696900  0.18111400  1
  Sn  Sn4  1  0.25000001  0.86394097  0.53851600  1
  Sn  Sn5  1  0.75000003  0.13605900  0.46148400  1
  Sn  Sn6  1  0.75000003  0.36394099  0.96148400  1
  Sn  Sn7  1  0.25000001  0.63605898  0.03851600  1
