# generated using pymatgen
data_TmAg
_symmetry_space_group_name_H-M   'P 1'
_cell_length_a   3.70934892
_cell_length_b   3.70934892
_cell_length_c   7.50878811
_cell_angle_alpha   90.00000000
_cell_angle_beta   90.00000000
_cell_angle_gamma   90.00000000
_symmetry_Int_Tables_number   1
_chemical_formula_structural   TmAg
_chemical_formula_sum   'Tm2 Ag2'
_cell_volume   103.31543837
_cell_formula_units_Z   2
loop_
 _symmetry_equiv_pos_site_id
 _symmetry_equiv_pos_as_xyz
  1  'x, y, z'
loop_
 _atom_site_type_symbol
 _atom_site_label
 _atom_site_symmetry_multiplicity
 _atom_site_fract_x
 _atom_site_fract_y
 _atom_site_fract_z
 _atom_site_occupancy
  Tm  Tm0  1  0.50000001  0.50000001  0.23626500  1
  Tm  Tm1  1  0.50000001  0.50000001  0.76373499  1
  Ag  Ag2  1  0.00000000  0.00000000  0.49999999  1
  Ag  Ag3  1  0.00000000  0.00000000  0.00000000  1
