# generated using pymatgen
data_NaTi5CoO10
_symmetry_space_group_name_H-M   'P 1'
_cell_length_a   5.61209822
_cell_length_b   5.61209822
_cell_length_c   8.90265751
_cell_angle_alpha   108.37242126
_cell_angle_beta   108.37242126
_cell_angle_gamma   90.00000000
_symmetry_Int_Tables_number   1
_chemical_formula_structural   NaTi5CoO10
_chemical_formula_sum   'Na1 Ti5 Co1 O10'
_cell_volume   250.99775746
_cell_formula_units_Z   1
loop_
 _symmetry_equiv_pos_site_id
 _symmetry_equiv_pos_as_xyz
  1  'x, y, z'
loop_
 _atom_site_type_symbol
 _atom_site_label
 _atom_site_symmetry_multiplicity
 _atom_site_fract_x
 _atom_site_fract_y
 _atom_site_fract_z
 _atom_site_occupancy
  Na  Na0  1  0.49999997  0.49999998  -0.00000002  1
  Ti  Ti1  1  0.62794697  0.12794699  0.25589399  1
  Ti  Ti2  1  0.37205297  0.87205296  0.74410597  1
  Ti  Ti3  1  0.12794698  0.62794697  0.25589398  1
  Ti  Ti4  1  0.87205295  0.37205298  0.74410597  1
  Ti  Ti5  1  0.24999997  0.74999996  0.49999998  1
  O  O6  1  0.15252698  0.62271597  0.77524298  1
  Co  Co7  1  0.74999996  0.24999999  0.49999998  1
  O  O8  1  0.62271596  0.62271597  0.77524297  1
  O  O9  1  0.15252699  0.15252699  0.77524299  1
  O  O10  1  0.62271597  0.15252699  0.77524298  1
  O  O11  1  0.49999998  0.00000000  -0.00000001  1
  O  O12  1  0.84747295  0.37728398  0.22475698  1
  O  O13  1  -0.00000001  0.49999998  -0.00000001  1
  O  O14  1  0.84747295  0.84747296  0.22475697  1
  O  O15  1  0.37728398  0.37728398  0.22475698  1
  O  O16  1  0.37728397  0.84747296  0.22475698  1
