# generated using pymatgen
data_Li7TiO8
_symmetry_space_group_name_H-M   'P 1'
_cell_length_a   5.17397690
_cell_length_b   5.89739132
_cell_length_c   6.38604593
_cell_angle_alpha   89.99621582
_cell_angle_beta   74.06405640
_cell_angle_gamma   89.93468475
_symmetry_Int_Tables_number   1
_chemical_formula_structural   Li7TiO8
_chemical_formula_sum   'Li7 Ti1 O8'
_cell_volume   187.36857003
_cell_formula_units_Z   1
loop_
 _symmetry_equiv_pos_site_id
 _symmetry_equiv_pos_as_xyz
  1  'x, y, z'
loop_
 _atom_site_type_symbol
 _atom_site_label
 _atom_site_symmetry_multiplicity
 _atom_site_fract_x
 _atom_site_fract_y
 _atom_site_fract_z
 _atom_site_occupancy
  Li  Li0  1  0.50001799  0.49849498  0.49999602  1
  Li  Li1  1  0.99997998  0.75150497  0.50000503  1
  Li  Li2  1  0.50002301  0.99849396  0.49999603  1
  Li  Li3  1  0.99997797  0.25150699  0.50000303  1
  Li  Li4  1  0.00000501  0.50083998  0.99999904  1
  Li  Li5  1  0.49999500  0.74915797  0.00000201  1
  Li  Li6  1  0.00000600  0.00081200  0.99999804  1
  Ti  Ti7  1  0.49999399  0.24918799  0.00000200  1
  O  O8  1  0.11101801  0.50142698  0.66925803  1
  O  O9  1  0.61101400  0.74847097  0.66926903  1
  O  O10  1  0.11101300  0.00141400  0.66925203  1
  O  O11  1  0.61100598  0.24848499  0.66926403  1
  O  O12  1  0.88898598  0.50152898  0.33073102  1
  O  O13  1  0.38898200  0.74857397  0.33074202  1
  O  O14  1  0.88899496  0.00151600  0.33073602  1
  O  O15  1  0.38898699  0.24858599  0.33074702  1
