# generated using pymatgen
data_Tm(CoGe)2
_symmetry_space_group_name_H-M   'P 1'
_cell_length_a   4.18271589
_cell_length_b   4.18271589
_cell_length_c   5.61050653
_cell_angle_alpha   111.88577271
_cell_angle_beta   111.88577271
_cell_angle_gamma   90.00000000
_symmetry_Int_Tables_number   1
_chemical_formula_structural   Tm(CoGe)2
_chemical_formula_sum   'Tm1 Co2 Ge2'
_cell_volume   83.41010032
_cell_formula_units_Z   1
loop_
 _symmetry_equiv_pos_site_id
 _symmetry_equiv_pos_as_xyz
  1  'x, y, z'
loop_
 _atom_site_type_symbol
 _atom_site_label
 _atom_site_symmetry_multiplicity
 _atom_site_fract_x
 _atom_site_fract_y
 _atom_site_fract_z
 _atom_site_occupancy
  Tm  Tm0  1  0.00000000  0.00000000  0.00000000  1
  Co  Co1  1  0.63133998  0.63134000  0.26267995  1
  Co  Co2  1  0.36865999  0.36866000  0.73731999  1
  Ge  Ge3  1  0.24999997  0.75000000  0.49999997  1
  Ge  Ge4  1  0.75000000  0.25000000  0.49999998  1
