# generated using pymatgen
data_LuFeGe3
_symmetry_space_group_name_H-M   'P 1'
_cell_length_a   3.93441606
_cell_length_b   3.93441606
_cell_length_c   5.49454832
_cell_angle_alpha   110.97920227
_cell_angle_beta   110.97920227
_cell_angle_gamma   90.00000000
_symmetry_Int_Tables_number   1
_chemical_formula_structural   LuFeGe3
_chemical_formula_sum   'Lu1 Fe1 Ge3'
_cell_volume   73.34510477
_cell_formula_units_Z   1
loop_
 _symmetry_equiv_pos_site_id
 _symmetry_equiv_pos_as_xyz
  1  'x, y, z'
loop_
 _atom_site_type_symbol
 _atom_site_label
 _atom_site_symmetry_multiplicity
 _atom_site_fract_x
 _atom_site_fract_y
 _atom_site_fract_z
 _atom_site_occupancy
  Lu  Lu0  1  0.00000000  0.00000000  0.00000000  1
  Ge  Ge1  1  0.62549697  0.62549698  0.25099396  1
  Ge  Ge2  1  0.37450298  0.37450299  0.74900597  1
  Fe  Fe3  1  0.74999998  0.24999999  0.49999997  1
  Ge  Ge4  1  0.24999998  0.74999998  0.49999996  1
