# generated using pymatgen
data_Ba2Ti2CuO4
_symmetry_space_group_name_H-M   'P 1'
_cell_length_a   6.07445812
_cell_length_b   6.81418610
_cell_length_c   8.68142319
_cell_angle_alpha   113.10752106
_cell_angle_beta   101.28220367
_cell_angle_gamma   90.00000000
_symmetry_Int_Tables_number   1
_chemical_formula_structural   Ba2Ti2CuO4
_chemical_formula_sum   'Ba4 Ti4 Cu2 O8'
_cell_volume   322.95188772
_cell_formula_units_Z   2
loop_
 _symmetry_equiv_pos_site_id
 _symmetry_equiv_pos_as_xyz
  1  'x, y, z'
loop_
 _atom_site_type_symbol
 _atom_site_label
 _atom_site_symmetry_multiplicity
 _atom_site_fract_x
 _atom_site_fract_y
 _atom_site_fract_z
 _atom_site_occupancy
  Ba  Ba0  1  0.49801897  0.74701798  0.23644496  1
  Ba  Ba1  1  0.00198099  0.51057298  0.76355497  1
  Ba  Ba2  1  0.50198098  0.25298199  0.76355497  1
  Ba  Ba3  1  0.99801895  0.48942698  0.23644496  1
  Ti  Ti4  1  0.74999995  0.98246597  0.99999994  1
  Ti  Ti5  1  0.24999999  0.01753400  0.99999998  1
  Ti  Ti6  1  0.59007597  0.30888499  0.38673397  1
  Ti  Ti7  1  0.90992395  0.92215097  0.61326594  1
  Cu  Cu8  1  0.40992397  0.69111498  0.61326596  1
  Cu  Cu9  1  0.09007600  0.07784900  0.38673399  1
  O  O10  1  0.54504198  0.22485999  0.12418398  1
  O  O11  1  0.95495796  0.10067600  0.87581597  1
  O  O12  1  0.45495797  0.77513997  0.87581595  1
  O  O13  1  0.04504198  0.89932397  0.12418396  1
  O  O14  1  0.78985797  0.11741600  0.47936898  1
  O  O15  1  0.71014196  0.63804698  0.52063096  1
  O  O16  1  0.21014197  0.88258397  0.52063096  1
  O  O17  1  0.28985798  0.36195299  0.47936898  1
