# generated using pymatgen
data_Ba3HfTiCrO9
_symmetry_space_group_name_H-M   'P 1'
_cell_length_a   5.89772606
_cell_length_b   5.89772558
_cell_length_c   7.25207615
_cell_angle_alpha   90.00000000
_cell_angle_beta   90.00000000
_cell_angle_gamma   120.00000000
_symmetry_Int_Tables_number   1
_chemical_formula_structural   Ba3HfTiCrO9
_chemical_formula_sum   'Ba3 Hf1 Ti1 Cr1 O9'
_cell_volume   218.45507827
_cell_formula_units_Z   1
loop_
 _symmetry_equiv_pos_site_id
 _symmetry_equiv_pos_as_xyz
  1  'x, y, z'
loop_
 _atom_site_type_symbol
 _atom_site_label
 _atom_site_symmetry_multiplicity
 _atom_site_fract_x
 _atom_site_fract_y
 _atom_site_fract_z
 _atom_site_occupancy
  Ba  Ba0  1  0.66666664  0.33333332  0.33427399  1
  Ba  Ba1  1  0.00000000  0.00000000  0.00000000  1
  Ba  Ba2  1  0.33333329  0.66666664  0.66572599  1
  Hf  Hf3  1  0.00000000  0.00000000  0.49999999  1
  Ti  Ti4  1  0.66666664  0.33333332  0.84135298  1
  Cr  Cr5  1  0.33333329  0.66666664  0.15864700  1
  O  O6  1  0.17839898  0.35679799  0.31422599  1
  O  O7  1  0.17839895  0.82160097  0.31422599  1
  O  O8  1  0.64320195  0.82160097  0.31422599  1
  O  O9  1  0.35679799  0.17839899  0.68577399  1
  O  O10  1  0.82160098  0.17839899  0.68577399  1
  O  O11  1  0.82160096  0.64320198  0.68577399  1
  O  O12  1  0.49999997  0.49999998  -0.00000000  1
  O  O13  1  -0.00000003  0.49999998  0.99999998  1
  O  O14  1  0.49999999  0.00000000  -0.00000000  1
