# generated using pymatgen
data_SrCa3Nb4O12
_symmetry_space_group_name_H-M   'P 1'
_cell_length_a   5.54978609
_cell_length_b   5.73043394
_cell_length_c   8.29749393
_cell_angle_alpha   90.00000000
_cell_angle_beta   90.66213226
_cell_angle_gamma   90.00000000
_symmetry_Int_Tables_number   1
_chemical_formula_structural   SrCa3Nb4O12
_chemical_formula_sum   'Sr1 Ca3 Nb4 O12'
_cell_volume   263.86494523
_cell_formula_units_Z   1
loop_
 _symmetry_equiv_pos_site_id
 _symmetry_equiv_pos_as_xyz
  1  'x, y, z'
loop_
 _atom_site_type_symbol
 _atom_site_label
 _atom_site_symmetry_multiplicity
 _atom_site_fract_x
 _atom_site_fract_y
 _atom_site_fract_z
 _atom_site_occupancy
  Sr  Sr0  1  0.24556299  0.74855601  0.00361400  1
  Ca  Ca1  1  0.75443697  0.24855600  0.99638606  1
  Ca  Ca2  1  0.25830999  0.83709201  0.50185103  1
  Ca  Ca3  1  0.74168997  0.33709200  0.49814903  1
  Nb  Nb4  1  0.74886497  0.78056301  0.25159802  1
  Nb  Nb5  1  0.25113499  0.28056300  0.74840204  1
  Nb  Nb6  1  0.76535197  0.76963401  0.74435105  1
  Nb  Nb7  1  0.23464799  0.26963400  0.25564902  1
  O  O8  1  0.56489198  0.04248800  0.67722704  1
  O  O9  1  0.43510798  0.54248801  0.32277302  1
  O  O10  1  0.52606898  0.07701400  0.32479202  1
  O  O11  1  0.47393098  0.57701401  0.67520804  1
  O  O12  1  0.94463597  0.44640900  0.24740602  1
  O  O13  1  0.05536400  0.94640901  0.75259404  1
  O  O14  1  0.92574497  0.47099400  0.75635605  1
  O  O15  1  0.07425500  0.97099401  0.24364401  1
  O  O16  1  0.85629297  0.73012801  0.50373103  1
  O  O17  1  0.14370699  0.23012800  0.49626903  1
  O  O18  1  0.71018297  0.78051101  0.96666806  1
  O  O19  1  0.28981699  0.28051100  0.03333200  1
