# generated using pymatgen
data_La7Sn9
_symmetry_space_group_name_H-M   'P 1'
_cell_length_a   6.81694412
_cell_length_b   7.86182213
_cell_length_c   9.91693497
_cell_angle_alpha   90.00000000
_cell_angle_beta   90.00000000
_cell_angle_gamma   90.00000000
_symmetry_Int_Tables_number   1
_chemical_formula_structural   La7Sn9
_chemical_formula_sum   'La7 Sn9'
_cell_volume   531.48426715
_cell_formula_units_Z   1
loop_
 _symmetry_equiv_pos_site_id
 _symmetry_equiv_pos_as_xyz
  1  'x, y, z'
loop_
 _atom_site_type_symbol
 _atom_site_label
 _atom_site_symmetry_multiplicity
 _atom_site_fract_x
 _atom_site_fract_y
 _atom_site_fract_z
 _atom_site_occupancy
  La  La0  1  0.66272299  0.17493300  0.43628300  1
  La  La1  1  0.16272300  0.32506699  0.56371700  1
  La  La2  1  0.83727698  0.67493299  0.06371700  1
  La  La3  1  0.33727699  0.82506699  0.93628300  1
  La  La4  1  0.14352700  0.03649700  0.25000000  1
  La  La5  1  0.64352699  0.46350299  0.75000000  1
  La  La6  1  0.35647299  0.53649699  0.25000000  1
  Sn  Sn7  1  0.85647298  0.96350298  0.75000000  1
  Sn  Sn8  1  0.66272299  0.17493300  0.06371700  1
  Sn  Sn9  1  0.16272300  0.32506699  0.93628300  1
  Sn  Sn10  1  0.83727698  0.67493299  0.43628300  1
  Sn  Sn11  1  0.33727699  0.82506699  0.56371700  1
  Sn  Sn12  1  0.04990100  0.62199599  0.75000000  1
  Sn  Sn13  1  0.54990099  0.87800399  0.25000000  1
  Sn  Sn14  1  0.45009899  0.12199600  0.75000000  1
  Sn  Sn15  1  0.95009898  0.37800399  0.25000000  1
