# generated using pymatgen
data_EuGe2
_symmetry_space_group_name_H-M   'P 1'
_cell_length_a   6.38356686
_cell_length_b   6.38356686
_cell_length_c   6.38356686
_cell_angle_alpha   90.00000000
_cell_angle_beta   90.00000000
_cell_angle_gamma   90.00000000
_symmetry_Int_Tables_number   1
_chemical_formula_structural   EuGe2
_chemical_formula_sum   'Eu4 Ge8'
_cell_volume   260.12987580
_cell_formula_units_Z   4
loop_
 _symmetry_equiv_pos_site_id
 _symmetry_equiv_pos_as_xyz
  1  'x, y, z'
loop_
 _atom_site_type_symbol
 _atom_site_label
 _atom_site_symmetry_multiplicity
 _atom_site_fract_x
 _atom_site_fract_y
 _atom_site_fract_z
 _atom_site_occupancy
  Eu  Eu0  1  0.61895901  0.38104101  0.88104102  1
  Eu  Eu1  1  0.38104101  0.88104102  0.61895901  1
  Eu  Eu2  1  0.11895900  0.11895900  0.11895900  1
  Eu  Eu3  1  0.88104102  0.61895901  0.38104101  1
  Ge  Ge4  1  0.16139900  0.33860101  0.66139901  1
  Ge  Ge5  1  0.66139901  0.16139900  0.33860101  1
  Ge  Ge6  1  0.33860101  0.66139901  0.16139900  1
  Ge  Ge7  1  0.83860102  0.83860102  0.83860102  1
  Ge  Ge8  1  0.59169401  0.90830602  0.09169400  1
  Ge  Ge9  1  0.09169400  0.59169401  0.90830602  1
  Ge  Ge10  1  0.40830601  0.40830601  0.40830601  1
  Ge  Ge11  1  0.90830602  0.09169400  0.59169401  1
