# generated using pymatgen
data_Hf2Al3
_symmetry_space_group_name_H-M   'P 1'
_cell_length_a   6.76534986
_cell_length_b   7.54526281
_cell_length_c   7.54526281
_cell_angle_alpha   90.00000000
_cell_angle_beta   90.00000000
_cell_angle_gamma   90.00000000
_symmetry_Int_Tables_number   1
_chemical_formula_structural   Hf2Al3
_chemical_formula_sum   'Hf8 Al12'
_cell_volume   385.15807177
_cell_formula_units_Z   4
loop_
 _symmetry_equiv_pos_site_id
 _symmetry_equiv_pos_as_xyz
  1  'x, y, z'
loop_
 _atom_site_type_symbol
 _atom_site_label
 _atom_site_symmetry_multiplicity
 _atom_site_fract_x
 _atom_site_fract_y
 _atom_site_fract_z
 _atom_site_occupancy
  Hf  Hf0  1  0.00000000  0.15400300  0.15400300  1
  Hf  Hf1  1  0.00000000  0.84599702  0.84599702  1
  Hf  Hf2  1  0.50000001  0.65400302  0.34599701  1
  Hf  Hf3  1  0.50000001  0.34599701  0.65400302  1
  Hf  Hf4  1  -0.00000000  0.68144702  0.31855301  1
  Hf  Hf5  1  -0.00000000  0.31855301  0.68144702  1
  Hf  Hf6  1  0.50000001  0.81855302  0.81855302  1
  Hf  Hf7  1  0.50000001  0.18144700  0.18144700  1
  Al  Al8  1  0.25000000  0.50000001  0.00000000  1
  Al  Al9  1  0.75000001  0.50000001  0.00000000  1
  Al  Al10  1  0.25000000  0.00000000  0.50000001  1
  Al  Al11  1  0.75000001  0.00000000  0.50000001  1
  Al  Al12  1  0.22280100  0.37041801  0.37041801  1
  Al  Al13  1  0.77719902  0.62958202  0.62958202  1
  Al  Al14  1  0.22280100  0.62958202  0.62958202  1
  Al  Al15  1  0.72280101  0.87041802  0.12958200  1
  Al  Al16  1  0.27719901  0.87041802  0.12958200  1
  Al  Al17  1  0.77719902  0.37041801  0.37041801  1
  Al  Al18  1  0.27719901  0.12958200  0.87041802  1
  Al  Al19  1  0.72280101  0.12958200  0.87041802  1
