# generated using pymatgen
data_YbCdPd
_symmetry_space_group_name_H-M   'P 1'
_cell_length_a   4.34376383
_cell_length_b   6.95261192
_cell_length_c   8.12430668
_cell_angle_alpha   90.00000000
_cell_angle_beta   90.00000000
_cell_angle_gamma   90.00000000
_symmetry_Int_Tables_number   1
_chemical_formula_structural   YbCdPd
_chemical_formula_sum   'Yb4 Cd4 Pd4'
_cell_volume   245.35815785
_cell_formula_units_Z   4
loop_
 _symmetry_equiv_pos_site_id
 _symmetry_equiv_pos_as_xyz
  1  'x, y, z'
loop_
 _atom_site_type_symbol
 _atom_site_label
 _atom_site_symmetry_multiplicity
 _atom_site_fract_x
 _atom_site_fract_y
 _atom_site_fract_z
 _atom_site_occupancy
  Yb  Yb0  1  0.75000003  0.46534401  0.80661203  1
  Yb  Yb1  1  0.25000001  0.03465600  0.30661201  1
  Yb  Yb2  1  0.75000003  0.96534401  0.69338803  1
  Yb  Yb3  1  0.25000001  0.53465601  0.19338801  1
  Cd  Cd4  1  0.25000001  0.64615801  0.56540902  1
  Cd  Cd5  1  0.25000001  0.14615800  0.93459104  1
  Cd  Cd6  1  0.75000003  0.35384200  0.43459102  1
  Cd  Cd7  1  0.75000003  0.85384201  0.06540900  1
  Pd  Pd8  1  0.25000001  0.75467601  0.88668904  1
  Pd  Pd9  1  0.25000001  0.25467600  0.61331102  1
  Pd  Pd10  1  0.75000003  0.74532401  0.38668902  1
  Pd  Pd11  1  0.75000003  0.24532400  0.11331100  1
