# generated using pymatgen
data_Yb4Co3Si5
_symmetry_space_group_name_H-M   'P 1'
_cell_length_a   3.90728211
_cell_length_b   3.90728235
_cell_length_c   15.58528996
_cell_angle_alpha   90.00000000
_cell_angle_beta   90.00000000
_cell_angle_gamma   119.99999237
_symmetry_Int_Tables_number   1
_chemical_formula_structural   Yb4Co3Si5
_chemical_formula_sum   'Yb4 Co3 Si5'
_cell_volume   206.06067434
_cell_formula_units_Z   1
loop_
 _symmetry_equiv_pos_site_id
 _symmetry_equiv_pos_as_xyz
  1  'x, y, z'
loop_
 _atom_site_type_symbol
 _atom_site_label
 _atom_site_symmetry_multiplicity
 _atom_site_fract_x
 _atom_site_fract_y
 _atom_site_fract_z
 _atom_site_occupancy
  Yb  Yb0  1  0.00000000  0.00000000  0.50000000  1
  Yb  Yb1  1  0.00000000  0.00000000  0.00000000  1
  Yb  Yb2  1  0.00000000  0.00000000  0.75000000  1
  Yb  Yb3  1  0.00000000  0.00000000  0.25000000  1
  Co  Co4  1  0.66666662  0.33333333  0.62749900  1
  Co  Co5  1  0.33333327  0.66666666  0.37250100  1
  Si  Si6  1  0.33333327  0.66666666  0.12749900  1
  Co  Co7  1  0.66666662  0.33333333  0.87250100  1
  Si  Si8  1  0.66666662  0.33333333  0.12201100  1
  Si  Si9  1  0.33333327  0.66666666  0.87798900  1
  Si  Si10  1  0.33333327  0.66666666  0.62201100  1
  Si  Si11  1  0.66666662  0.33333333  0.37798900  1
