# generated using pymatgen
data_YbScSn
_symmetry_space_group_name_H-M   'P 1'
_cell_length_a   4.26358414
_cell_length_b   4.26358414
_cell_length_c   8.79610825
_cell_angle_alpha   104.02565002
_cell_angle_beta   104.02565002
_cell_angle_gamma   90.00000000
_symmetry_Int_Tables_number   1
_chemical_formula_structural   YbScSn
_chemical_formula_sum   'Yb2 Sc2 Sn2'
_cell_volume   150.21185709
_cell_formula_units_Z   2
loop_
 _symmetry_equiv_pos_site_id
 _symmetry_equiv_pos_as_xyz
  1  'x, y, z'
loop_
 _atom_site_type_symbol
 _atom_site_label
 _atom_site_symmetry_multiplicity
 _atom_site_fract_x
 _atom_site_fract_y
 _atom_site_fract_z
 _atom_site_occupancy
  Yb  Yb0  1  0.67623596  0.67623597  0.35247197  1
  Yb  Yb1  1  0.32376398  0.32376399  0.64752797  1
  Sc  Sc2  1  0.49999996  0.99999996  0.99999994  1
  Sc  Sc3  1  -0.00000001  0.49999998  -0.00000001  1
  Sn  Sn4  1  0.13459099  0.13459099  0.26918199  1
  Sn  Sn5  1  0.86540895  0.86540897  0.73081795  1
