# generated using pymatgen
data_SrCuO2
_symmetry_space_group_name_H-M   'P 1'
_cell_length_a   5.34010077
_cell_length_b   5.99370289
_cell_length_c   8.04554176
_cell_angle_alpha   90.00000000
_cell_angle_beta   90.00000000
_cell_angle_gamma   115.76647949
_symmetry_Int_Tables_number   1
_chemical_formula_structural   SrCuO2
_chemical_formula_sum   'Sr4 Cu4 O8'
_cell_volume   231.90974457
_cell_formula_units_Z   4
loop_
 _symmetry_equiv_pos_site_id
 _symmetry_equiv_pos_as_xyz
  1  'x, y, z'
loop_
 _atom_site_type_symbol
 _atom_site_label
 _atom_site_symmetry_multiplicity
 _atom_site_fract_x
 _atom_site_fract_y
 _atom_site_fract_z
 _atom_site_occupancy
  Sr  Sr0  1  0.66536399  0.32458501  0.09599000  1
  Sr  Sr1  1  0.83463600  0.67541501  0.59599002  1
  Sr  Sr2  1  0.33463602  0.67541501  0.90401003  1
  Sr  Sr3  1  0.16536401  0.32458501  0.40401001  1
  Cu  Cu4  1  0.48477599  0.08375400  0.63334902  1
  Cu  Cu5  1  0.01522404  0.91624601  0.13334900  1
  Cu  Cu6  1  0.51522402  0.91624601  0.36665101  1
  Cu  Cu7  1  0.98477597  0.08375400  0.86665103  1
  O  O8  1  0.14062501  0.24802300  0.06691700  1
  O  O9  1  0.35937502  0.75197701  0.56691702  1
  O  O10  1  0.85937500  0.75197701  0.93308303  1
  O  O11  1  0.64062499  0.24802300  0.43308301  1
  O  O12  1  0.19961000  0.14496500  0.69054902  1
  O  O13  1  0.30039003  0.85503501  0.19054901  1
  O  O14  1  0.80039001  0.85503501  0.30945101  1
  O  O15  1  0.69960998  0.14496500  0.80945102  1
