# generated using pymatgen
data_TiSiP
_symmetry_space_group_name_H-M   'P 1'
_cell_length_a   3.52007103
_cell_length_b   6.63663912
_cell_length_c   7.92389584
_cell_angle_alpha   90.00000000
_cell_angle_beta   90.00000000
_cell_angle_gamma   90.00000000
_symmetry_Int_Tables_number   1
_chemical_formula_structural   TiSiP
_chemical_formula_sum   'Ti4 Si4 P4'
_cell_volume   185.11362581
_cell_formula_units_Z   4
loop_
 _symmetry_equiv_pos_site_id
 _symmetry_equiv_pos_as_xyz
  1  'x, y, z'
loop_
 _atom_site_type_symbol
 _atom_site_label
 _atom_site_symmetry_multiplicity
 _atom_site_fract_x
 _atom_site_fract_y
 _atom_site_fract_z
 _atom_site_occupancy
  Ti  Ti0  1  0.25000000  0.03914500  0.83051002  1
  Ti  Ti1  1  0.74999999  0.96085498  0.16949000  1
  Ti  Ti2  1  0.25000000  0.53914499  0.66949001  1
  Ti  Ti3  1  0.74999999  0.46085499  0.33051001  1
  Si  Si4  1  0.74999999  0.37071999  0.94233002  1
  Si  Si5  1  0.25000000  0.62927999  0.05767000  1
  Si  Si6  1  0.74999999  0.87071998  0.55767001  1
  Si  Si7  1  0.25000000  0.12928000  0.44233001  1
  P  P8  1  0.25000000  0.76237999  0.36364801  1
  P  P9  1  0.74999999  0.23762000  0.63635201  1
  P  P10  1  0.25000000  0.26238000  0.13635200  1
  P  P11  1  0.74999999  0.73761999  0.86364802  1
