# generated using pymatgen
data_LaCoSi
_symmetry_space_group_name_H-M   'P 1'
_cell_length_a   4.18943501
_cell_length_b   4.18943501
_cell_length_c   7.05885220
_cell_angle_alpha   90.00000000
_cell_angle_beta   90.00000000
_cell_angle_gamma   90.00000000
_symmetry_Int_Tables_number   1
_chemical_formula_structural   LaCoSi
_chemical_formula_sum   'La2 Co2 Si2'
_cell_volume   123.89249605
_cell_formula_units_Z   2
loop_
 _symmetry_equiv_pos_site_id
 _symmetry_equiv_pos_as_xyz
  1  'x, y, z'
loop_
 _atom_site_type_symbol
 _atom_site_label
 _atom_site_symmetry_multiplicity
 _atom_site_fract_x
 _atom_site_fract_y
 _atom_site_fract_z
 _atom_site_occupancy
  La  La0  1  0.50000000  0.00000000  0.31063699  1
  La  La1  1  0.00000000  0.50000000  0.68936298  1
  Co  Co2  1  0.50000000  0.50000000  0.00000000  1
  Co  Co3  1  0.00000000  0.00000000  0.00000000  1
  Si  Si4  1  0.00000000  0.50000000  0.17619400  1
  Si  Si5  1  0.50000000  0.00000000  0.82380598  1
