# generated using pymatgen
data_K2IO7
_symmetry_space_group_name_H-M   'P 1'
_cell_length_a   5.91740179
_cell_length_b   6.46183014
_cell_length_c   11.27272320
_cell_angle_alpha   90.00000000
_cell_angle_beta   77.41407013
_cell_angle_gamma   90.00000000
_symmetry_Int_Tables_number   1
_chemical_formula_structural   K2IO7
_chemical_formula_sum   'K4 I2 O14'
_cell_volume   420.68017127
_cell_formula_units_Z   2
loop_
 _symmetry_equiv_pos_site_id
 _symmetry_equiv_pos_as_xyz
  1  'x, y, z'
loop_
 _atom_site_type_symbol
 _atom_site_label
 _atom_site_symmetry_multiplicity
 _atom_site_fract_x
 _atom_site_fract_y
 _atom_site_fract_z
 _atom_site_occupancy
  K  K0  1  0.75000002  0.67774199  0.25000001  1
  K  K1  1  0.25000001  0.32225799  0.75000000  1
  K  K2  1  0.25785201  0.79601998  0.54778300  1
  K  K3  1  0.74214802  0.20398000  0.45221701  1
  I  I4  1  0.24214801  0.79601998  0.95221700  1
  I  I5  1  0.75785202  0.20398000  0.04778302  1
  O  O6  1  0.25000001  0.08763900  0.25000000  1
  O  O7  1  0.75000002  0.91236098  0.75000001  1
  O  O8  1  0.00908600  0.93040298  0.30565800  1
  O  O9  1  0.99091403  0.06959600  0.69434202  1
  O  O10  1  0.49091401  0.93040298  0.19434201  1
  O  O11  1  0.50908601  0.06959600  0.80565801  1
  O  O12  1  0.61991902  0.41081499  0.13749901  1
  O  O13  1  0.38008101  0.58918499  0.86250100  1
  O  O14  1  0.88008102  0.41081499  0.36250102  1
  O  O15  1  0.11991900  0.58918499  0.63749900  1
  O  O16  1  0.01768100  0.70779698  0.06694800  1
  O  O17  1  0.98231902  0.29220299  0.93305202  1
  O  O18  1  0.48231901  0.70779698  0.43305201  1
  O  O19  1  0.51768101  0.29220299  0.56694801  1
