# generated using pymatgen
data_Tm2Ge3
_symmetry_space_group_name_H-M   'P 1'
_cell_length_a   4.04419422
_cell_length_b   4.18956518
_cell_length_c   7.72837782
_cell_angle_alpha   105.72680664
_cell_angle_beta   105.16772461
_cell_angle_gamma   90.00000000
_symmetry_Int_Tables_number   1
_chemical_formula_structural   Tm2Ge3
_chemical_formula_sum   'Tm2 Ge3'
_cell_volume   121.29738448
_cell_formula_units_Z   1
loop_
 _symmetry_equiv_pos_site_id
 _symmetry_equiv_pos_as_xyz
  1  'x, y, z'
loop_
 _atom_site_type_symbol
 _atom_site_label
 _atom_site_symmetry_multiplicity
 _atom_site_fract_x
 _atom_site_fract_y
 _atom_site_fract_z
 _atom_site_occupancy
  Tm  Tm0  1  0.74861994  0.24861999  0.49723999  1
  Tm  Tm1  1  0.00090300  0.00090400  0.00180700  1
  Ge  Ge2  1  0.40450597  0.40450699  0.80901300  1
  Ge  Ge3  1  0.18557598  0.68557598  0.37115201  1
  Ge  Ge4  1  0.57829395  0.57829398  0.15658799  1
