# generated using pymatgen
data_Be
_symmetry_space_group_name_H-M   'P 1'
_cell_length_a   4.14204979
_cell_length_b   5.58493423
_cell_length_c   5.58493423
_cell_angle_alpha   82.09620667
_cell_angle_beta   68.23358154
_cell_angle_gamma   68.23358154
_symmetry_Int_Tables_number   1
_chemical_formula_structural   Be
_chemical_formula_sum   Be13
_cell_volume   111.43085087
_cell_formula_units_Z   13
loop_
 _symmetry_equiv_pos_site_id
 _symmetry_equiv_pos_as_xyz
  1  'x, y, z'
loop_
 _atom_site_type_symbol
 _atom_site_label
 _atom_site_symmetry_multiplicity
 _atom_site_fract_x
 _atom_site_fract_y
 _atom_site_fract_z
 _atom_site_occupancy
  Be  Be0  1  0.00000000  0.00000000  0.00000000  1
  Be  Be1  1  0.50000000  0.50000000  -0.00000003  1
  Be  Be2  1  -0.00000003  0.50000000  0.99999997  1
  Be  Be3  1  0.00000000  0.00000000  0.49999999  1
  Be  Be4  1  0.49999997  1.00000000  0.49999995  1
  Be  Be5  1  1.00000005  0.35073700  0.64926294  1
  Be  Be6  1  1.00000003  0.64926300  0.35073694  1
  Be  Be7  1  0.35073698  0.64926300  0.64926296  1
  Be  Be8  1  0.64926302  0.35073700  0.35073696  1
  Be  Be9  1  0.49999998  0.78176600  0.21823396  1
  Be  Be10  1  0.50000002  0.21823400  0.78176596  1
  Be  Be11  1  0.28176601  0.21823400  0.21823398  1
  Be  Be12  1  0.71823400  0.78176600  0.78176594  1
