# generated using pymatgen
data_CuSe
_symmetry_space_group_name_H-M   'P 1'
_cell_length_a   6.34682274
_cell_length_b   6.34682274
_cell_length_c   7.01182270
_cell_angle_alpha   98.65976715
_cell_angle_beta   98.65976715
_cell_angle_gamma   119.91642761
_symmetry_Int_Tables_number   1
_chemical_formula_structural   CuSe
_chemical_formula_sum   'Cu5 Se5'
_cell_volume   233.48127952
_cell_formula_units_Z   5
loop_
 _symmetry_equiv_pos_site_id
 _symmetry_equiv_pos_as_xyz
  1  'x, y, z'
loop_
 _atom_site_type_symbol
 _atom_site_label
 _atom_site_symmetry_multiplicity
 _atom_site_fract_x
 _atom_site_fract_y
 _atom_site_fract_z
 _atom_site_occupancy
  Cu  Cu0  1  0.33270396  0.66729598  0.00000002  1
  Cu  Cu1  1  0.66729599  0.33270399  0.00000002  1
  Cu  Cu2  1  0.94332895  0.94332898  0.83170007  1
  Cu  Cu3  1  0.05667100  0.05667100  0.16830001  1
  Cu  Cu4  1  0.28836799  0.28836799  0.77058504  1
  Se  Se5  1  0.71163196  0.71163198  0.22941504  1
  Se  Se6  1  0.92379497  0.55966699  0.77122806  1
  Se  Se7  1  0.55966695  0.92379498  0.77122805  1
  Se  Se8  1  0.07620497  0.44033299  0.22877202  1
  Se  Se9  1  0.44033300  0.07620500  0.22877202  1
