# generated using pymatgen
data_EuTiS2
_symmetry_space_group_name_H-M   'P 1'
_cell_length_a   3.68504739
_cell_length_b   3.68504739
_cell_length_c   7.93654346
_cell_angle_alpha   76.57591248
_cell_angle_beta   76.57591248
_cell_angle_gamma   60.00001144
_symmetry_Int_Tables_number   1
_chemical_formula_structural   EuTiS2
_chemical_formula_sum   'Eu1 Ti1 S2'
_cell_volume   89.91961035
_cell_formula_units_Z   1
loop_
 _symmetry_equiv_pos_site_id
 _symmetry_equiv_pos_as_xyz
  1  'x, y, z'
loop_
 _atom_site_type_symbol
 _atom_site_label
 _atom_site_symmetry_multiplicity
 _atom_site_fract_x
 _atom_site_fract_y
 _atom_site_fract_z
 _atom_site_occupancy
  Eu  Eu0  1  0.81802402  0.81802400  0.54592804  1
  Ti  Ti1  1  0.98685103  0.98685100  0.03944705  1
  S  S2  1  0.59369002  0.59369000  0.21893003  1
  S  S3  1  0.37943501  0.37943500  0.86169502  1
