# generated using pymatgen
data_YAlFe11
_symmetry_space_group_name_H-M   'P 1'
_cell_length_a   5.01689196
_cell_length_b   6.60725021
_cell_length_c   6.60725021
_cell_angle_alpha   81.81277466
_cell_angle_beta   67.68796539
_cell_angle_gamma   67.68796539
_symmetry_Int_Tables_number   1
_chemical_formula_structural   YAlFe11
_chemical_formula_sum   'Y1 Al1 Fe11'
_cell_volume   187.44803707
_cell_formula_units_Z   1
loop_
 _symmetry_equiv_pos_site_id
 _symmetry_equiv_pos_as_xyz
  1  'x, y, z'
loop_
 _atom_site_type_symbol
 _atom_site_label
 _atom_site_symmetry_multiplicity
 _atom_site_fract_x
 _atom_site_fract_y
 _atom_site_fract_z
 _atom_site_occupancy
  Y  Y0  1  0.00456009  0.99543995  0.99543994  1
  Fe  Fe1  1  0.66029102  0.33970898  0.33970901  1
  Fe  Fe2  1  0.33869406  0.66130597  0.66130597  1
  Fe  Fe3  1  0.99155802  0.35078398  0.66610001  1
  Fe  Fe4  1  0.99155805  0.66609997  0.35078401  1
  Fe  Fe5  1  0.27460902  0.22539099  0.22539100  1
  Al  Al6  1  0.50473907  0.78519896  0.20532299  1
  Fe  Fe7  1  0.50473901  0.20532299  0.78519899  1
  Fe  Fe8  1  0.49564499  0.00213000  0.50069901  1
  Fe  Fe9  1  0.00152600  0.00213000  0.50069899  1
  Fe  Fe10  1  0.49564504  0.50069897  0.00213000  1
  Fe  Fe11  1  0.00152605  0.50069897  0.00212998  1
  Fe  Fe12  1  0.73490906  0.76509096  0.76509098  1
