# generated using pymatgen
data_YCoSi
_symmetry_space_group_name_H-M   'P 1'
_cell_length_a   4.27014399
_cell_length_b   4.27014399
_cell_length_c   10.12630367
_cell_angle_alpha   90.63516998
_cell_angle_beta   101.56622314
_cell_angle_gamma   119.88367462
_symmetry_Int_Tables_number   1
_chemical_formula_structural   YCoSi
_chemical_formula_sum   'Y2 Co2 Si2'
_cell_volume   155.49838188
_cell_formula_units_Z   2
loop_
 _symmetry_equiv_pos_site_id
 _symmetry_equiv_pos_as_xyz
  1  'x, y, z'
loop_
 _atom_site_type_symbol
 _atom_site_label
 _atom_site_symmetry_multiplicity
 _atom_site_fract_x
 _atom_site_fract_y
 _atom_site_fract_z
 _atom_site_occupancy
  Y  Y0  1  0.21469101  0.11564800  0.33033899  1
  Y  Y1  1  0.59475002  0.29401301  0.88876297  1
  Si  Si2  1  0.40525001  0.70598702  0.11123698  1
  Si  Si3  1  0.78530903  0.88435203  0.66966096  1
  Co  Co4  1  0.19343001  0.59094002  0.78436997  1
  Co  Co5  1  0.80657003  0.40906001  0.21562999  1
