# generated using pymatgen
data_Co3CuTeRu
_symmetry_space_group_name_H-M   'P 1'
_cell_length_a   4.45681477
_cell_length_b   4.49469566
_cell_length_c   6.26596117
_cell_angle_alpha   90.00000000
_cell_angle_beta   90.00000000
_cell_angle_gamma   92.55830383
_symmetry_Int_Tables_number   1
_chemical_formula_structural   Co3CuTeRu
_chemical_formula_sum   'Co3 Cu1 Te1 Ru1'
_cell_volume   125.39479360
_cell_formula_units_Z   1
loop_
 _symmetry_equiv_pos_site_id
 _symmetry_equiv_pos_as_xyz
  1  'x, y, z'
loop_
 _atom_site_type_symbol
 _atom_site_label
 _atom_site_symmetry_multiplicity
 _atom_site_fract_x
 _atom_site_fract_y
 _atom_site_fract_z
 _atom_site_occupancy
  Co  Co0  1  0.57756004  0.27289701  0.09942300  1
  Co  Co1  1  0.67423404  0.08959300  0.56603298  1
  Co  Co2  1  0.07756004  0.77289702  0.90057698  1
  Cu  Cu3  1  0.17423404  0.58959302  0.43396699  1
  Te  Te4  1  0.56070506  0.57500902  0.75198598  1
  Ru  Ru5  1  0.06070501  0.07500900  0.24801399  1
