# generated using pymatgen
data_ZnAgS2
_symmetry_space_group_name_H-M   'P 1'
_cell_length_a   4.22538424
_cell_length_b   4.22972441
_cell_length_c   5.17619610
_cell_angle_alpha   90.00730133
_cell_angle_beta   90.00000000
_cell_angle_gamma   119.96605682
_symmetry_Int_Tables_number   1
_chemical_formula_structural   ZnAgS2
_chemical_formula_sum   'Zn1 Ag1 S2'
_cell_volume   80.14345645
_cell_formula_units_Z   1
loop_
 _symmetry_equiv_pos_site_id
 _symmetry_equiv_pos_as_xyz
  1  'x, y, z'
loop_
 _atom_site_type_symbol
 _atom_site_label
 _atom_site_symmetry_multiplicity
 _atom_site_fract_x
 _atom_site_fract_y
 _atom_site_fract_z
 _atom_site_occupancy
  Ag  Ag0  1  0.00000000  0.00000000  0.00000000  1
  Zn  Zn1  1  0.00000000  0.00000000  0.49999999  1
  S  S2  1  0.33298194  0.66596400  0.29965302  1
  S  S3  1  0.66701794  0.33403600  0.70034700  1
