# generated using pymatgen
data_BaCoO3
_symmetry_space_group_name_H-M   'P 1'
_cell_length_a   4.03279781
_cell_length_b   7.91393328
_cell_length_c   8.05112553
_cell_angle_alpha   90.02568054
_cell_angle_beta   90.11080170
_cell_angle_gamma   89.99542999
_symmetry_Int_Tables_number   1
_chemical_formula_structural   BaCoO3
_chemical_formula_sum   'Ba4 Co4 O12'
_cell_volume   256.95352158
_cell_formula_units_Z   4
loop_
 _symmetry_equiv_pos_site_id
 _symmetry_equiv_pos_as_xyz
  1  'x, y, z'
loop_
 _atom_site_type_symbol
 _atom_site_label
 _atom_site_symmetry_multiplicity
 _atom_site_fract_x
 _atom_site_fract_y
 _atom_site_fract_z
 _atom_site_occupancy
  Ba  Ba0  1  0.49990501  0.24622700  0.75339402  1
  Ba  Ba1  1  0.50009099  0.75375699  0.24657996  1
  Ba  Ba2  1  0.50003801  0.24631100  0.24668999  1
  Ba  Ba3  1  0.49995799  0.75364699  0.75332799  1
  Co  Co4  1  0.99999901  0.50005099  0.50002898  1
  Co  Co5  1  0.00002897  0.99996898  0.99997699  1
  Co  Co6  1  0.99999501  0.50008699  0.99997201  1
  Co  Co7  1  0.99999700  0.99992598  0.49997595  1
  O  O8  1  0.50000001  0.00003100  0.99999605  1
  O  O9  1  0.50000600  0.49993899  0.49998899  1
  O  O10  1  0.49999600  0.49994499  0.00000796  1
  O  O11  1  0.49999601  0.00001600  0.49999802  1
  O  O12  1  0.99954402  0.23616000  0.00026197  1
  O  O13  1  0.99989100  0.75250199  0.50006897  1
  O  O14  1  0.00044598  0.76393399  0.99975301  1
  O  O15  1  0.00011199  0.24756700  0.49993201  1
  O  O16  1  0.00280198  0.50014399  0.24922798  1
  O  O17  1  0.00024800  0.00013600  0.75087004  1
  O  O18  1  0.99720801  0.49974199  0.75083200  1
  O  O19  1  0.99973700  0.99990598  0.24911894  1
