# generated using pymatgen
data_Eu2Ga(Sn2Pd)2
_symmetry_space_group_name_H-M   'P 1'
_cell_length_a   4.37334204
_cell_length_b   4.42266989
_cell_length_c   11.42925930
_cell_angle_alpha   90.00000000
_cell_angle_beta   101.02995300
_cell_angle_gamma   90.00000000
_symmetry_Int_Tables_number   1
_chemical_formula_structural   Eu2Ga(Sn2Pd)2
_chemical_formula_sum   'Eu2 Ga1 Sn4 Pd2'
_cell_volume   216.97936691
_cell_formula_units_Z   1
loop_
 _symmetry_equiv_pos_site_id
 _symmetry_equiv_pos_as_xyz
  1  'x, y, z'
loop_
 _atom_site_type_symbol
 _atom_site_label
 _atom_site_symmetry_multiplicity
 _atom_site_fract_x
 _atom_site_fract_y
 _atom_site_fract_z
 _atom_site_occupancy
  Eu  Eu0  1  0.17863400  0.00000000  0.35726800  1
  Eu  Eu1  1  0.82136598  0.00000000  0.64273199  1
  Ga  Ga2  1  0.49999999  0.50000001  -0.00000001  1
  Sn  Sn3  1  0.42985499  0.00000000  0.85971000  1
  Sn  Sn4  1  0.57014499  0.00000000  0.14028999  1
  Sn  Sn5  1  0.07126700  0.50000001  0.14253400  1
  Sn  Sn6  1  0.92873298  0.50000001  0.85746599  1
  Pd  Pd7  1  0.70404699  0.50000001  0.40809399  1
  Pd  Pd8  1  0.29595299  0.50000001  0.59190600  1
