# generated using pymatgen
data_BaAu
_symmetry_space_group_name_H-M   'P 1'
_cell_length_a   4.70663309
_cell_length_b   5.12890387
_cell_length_c   6.73004150
_cell_angle_alpha   67.60153961
_cell_angle_beta   90.00000000
_cell_angle_gamma   90.00000000
_symmetry_Int_Tables_number   1
_chemical_formula_structural   BaAu
_chemical_formula_sum   'Ba2 Au2'
_cell_volume   150.20555521
_cell_formula_units_Z   2
loop_
 _symmetry_equiv_pos_site_id
 _symmetry_equiv_pos_as_xyz
  1  'x, y, z'
loop_
 _atom_site_type_symbol
 _atom_site_label
 _atom_site_symmetry_multiplicity
 _atom_site_fract_x
 _atom_site_fract_y
 _atom_site_fract_z
 _atom_site_occupancy
  Ba  Ba0  1  0.74999999  0.13369901  0.73260198  1
  Ba  Ba1  1  0.25000000  0.86630103  0.26739797  1
  Au  Au2  1  0.74999999  0.41508102  0.16983799  1
  Au  Au3  1  0.25000000  0.58491902  0.83016196  1
