# generated using pymatgen
data_CsLiAs2(S2O5)2
_symmetry_space_group_name_H-M   'P 1'
_cell_length_a   8.03238201
_cell_length_b   8.03238201
_cell_length_c   8.03238201
_cell_angle_alpha   85.29810333
_cell_angle_beta   85.29810333
_cell_angle_gamma   85.29810333
_symmetry_Int_Tables_number   1
_chemical_formula_structural   CsLiAs2(S2O5)2
_chemical_formula_sum   'Cs1 Li1 As2 S4 O10'
_cell_volume   513.28087776
_cell_formula_units_Z   1
loop_
 _symmetry_equiv_pos_site_id
 _symmetry_equiv_pos_as_xyz
  1  'x, y, z'
loop_
 _atom_site_type_symbol
 _atom_site_label
 _atom_site_symmetry_multiplicity
 _atom_site_fract_x
 _atom_site_fract_y
 _atom_site_fract_z
 _atom_site_occupancy
  Li  Li0  1  0.62407398  0.62407398  0.62407398  1
  Cs  Cs1  1  0.41401999  0.49247598  0.91500199  1
  As  As2  1  0.49247599  0.91500196  0.41401998  1
  As  As3  1  0.91500197  0.41401998  0.49247598  1
  S  S4  1  0.74907098  0.52836598  0.49113298  1
  S  S5  1  0.52836598  0.49113298  0.74907099  1
  O  O6  1  0.49113299  0.74907097  0.52836598  1
  S  S7  1  0.76006198  0.76006197  0.76006198  1
  S  S8  1  0.28784300  0.94531796  0.28666098  1
  O  O9  1  0.94531797  0.28666099  0.28784298  1
  O  O10  1  0.28666099  0.28784299  0.94531800  1
  O  O11  1  0.68827598  0.93931096  0.24447598  1
  O  O12  1  0.93931097  0.24447599  0.68827599  1
  O  O13  1  0.24447600  0.68827597  0.93931099  1
  O  O14  1  0.48507698  0.12014300  0.54394499  1
  O  O15  1  0.12014300  0.54394498  0.48507699  1
  O  O16  1  0.54394498  0.48507698  0.12014299  1
  O  O17  1  0.01137500  0.01137500  0.01137500  1
