# generated using pymatgen
data_Tm2Ge8Ir
_symmetry_space_group_name_H-M   'P 1'
_cell_length_a   4.16372013
_cell_length_b   7.74185610
_cell_length_c   7.74185514
_cell_angle_alpha   120.00000000
_cell_angle_beta   90.00000000
_cell_angle_gamma   90.00000000
_symmetry_Int_Tables_number   1
_chemical_formula_structural   Tm2Ge8Ir
_chemical_formula_sum   'Tm2 Ge8 Ir1'
_cell_volume   216.12365206
_cell_formula_units_Z   1
loop_
 _symmetry_equiv_pos_site_id
 _symmetry_equiv_pos_as_xyz
  1  'x, y, z'
loop_
 _atom_site_type_symbol
 _atom_site_label
 _atom_site_symmetry_multiplicity
 _atom_site_fract_x
 _atom_site_fract_y
 _atom_site_fract_z
 _atom_site_occupancy
  Tm  Tm0  1  -0.00000000  0.33333332  0.66666664  1
  Tm  Tm1  1  0.99999997  0.66666663  0.33333329  1
  Ge  Ge2  1  0.49999998  0.28872199  0.28872198  1
  Ge  Ge3  1  0.49999998  0.00000000  0.71127800  1
  Ge  Ge4  1  -0.00000000  0.81143096  0.81143094  1
  Ge  Ge5  1  -0.00000000  0.18856899  -0.00000001  1
  Ge  Ge6  1  0.49999998  0.71127797  -0.00000005  1
  Ge  Ge7  1  0.99999997  0.00000000  0.18856900  1
  Ge  Ge8  1  0.49999998  0.62041897  0.62041896  1
  Ge  Ge9  1  0.49999998  0.37958098  -0.00000003  1
  Ir  Ir10  1  0.49999998  0.00000000  0.37958100  1
