# generated using pymatgen
data_Yb4Zn3Ge5
_symmetry_space_group_name_H-M   'P 1'
_cell_length_a   4.28840590
_cell_length_b   4.28840542
_cell_length_c   17.72033119
_cell_angle_alpha   90.00000000
_cell_angle_beta   90.00000000
_cell_angle_gamma   120.00000000
_symmetry_Int_Tables_number   1
_chemical_formula_structural   Yb4Zn3Ge5
_chemical_formula_sum   'Yb4 Zn3 Ge5'
_cell_volume   282.22415844
_cell_formula_units_Z   1
loop_
 _symmetry_equiv_pos_site_id
 _symmetry_equiv_pos_as_xyz
  1  'x, y, z'
loop_
 _atom_site_type_symbol
 _atom_site_label
 _atom_site_symmetry_multiplicity
 _atom_site_fract_x
 _atom_site_fract_y
 _atom_site_fract_z
 _atom_site_occupancy
  Yb  Yb0  1  0.00000000  0.00000000  0.62863503  1
  Yb  Yb1  1  0.00000000  0.00000000  0.37136502  1
  Yb  Yb2  1  0.00000000  0.00000000  0.12863501  1
  Yb  Yb3  1  0.00000000  0.00000000  0.87136504  1
  Zn  Zn4  1  0.66666666  0.33333333  0.75000003  1
  Zn  Zn5  1  0.33333329  0.66666666  0.25000001  1
  Zn  Zn6  1  0.66666666  0.33333333  0.25000001  1
  Ge  Ge7  1  0.33333329  0.66666666  0.75000003  1
  Ge  Ge8  1  0.66666666  0.33333333  0.52492902  1
  Ge  Ge9  1  0.33333329  0.66666666  0.47507102  1
  Ge  Ge10  1  0.33333329  0.66666666  0.02492900  1
  Ge  Ge11  1  0.66666666  0.33333333  0.97507104  1
