# generated using pymatgen
data_MnNb2Ga2Ni11
_symmetry_space_group_name_H-M   'P 1'
_cell_length_a   4.78896093
_cell_length_b   6.89455414
_cell_length_c   6.89455414
_cell_angle_alpha   120.00000000
_cell_angle_beta   90.00000000
_cell_angle_gamma   90.00000000
_symmetry_Int_Tables_number   1
_chemical_formula_structural   MnNb2Ga2Ni11
_chemical_formula_sum   'Mn1 Nb2 Ga2 Ni11'
_cell_volume   197.14433331
_cell_formula_units_Z   1
loop_
 _symmetry_equiv_pos_site_id
 _symmetry_equiv_pos_as_xyz
  1  'x, y, z'
loop_
 _atom_site_type_symbol
 _atom_site_label
 _atom_site_symmetry_multiplicity
 _atom_site_fract_x
 _atom_site_fract_y
 _atom_site_fract_z
 _atom_site_occupancy
  Nb  Nb0  1  0.25000000  0.00000000  0.75510299  1
  Nb  Nb1  1  0.75000001  0.00000000  0.24489700  1
  Mn  Mn2  1  0.75000001  0.24489700  0.00000000  1
  Ga  Ga3  1  0.25000000  0.24489700  0.24489700  1
  Ga  Ga4  1  0.25000000  0.75510299  0.00000001  1
  Ni  Ni5  1  0.75000001  0.75510299  0.75510300  1
  Ni  Ni6  1  0.50000001  0.66666666  0.33333334  1
  Ni  Ni7  1  -0.00000000  0.33333333  0.66666666  1
  Ni  Ni8  1  0.50000001  0.33333333  0.66666666  1
  Ni  Ni9  1  -0.00000000  0.66666666  0.33333334  1
  Ni  Ni10  1  0.25000000  0.60229699  0.60229700  1
  Ni  Ni11  1  0.75000001  0.60229699  0.00000000  1
  Ni  Ni12  1  0.75000001  0.00000000  0.60229699  1
  Ni  Ni13  1  0.25000000  0.00000000  0.39770300  1
  Ni  Ni14  1  0.25000000  0.39770299  0.00000000  1
  Ni  Ni15  1  0.75000001  0.39770299  0.39770300  1
