# generated using pymatgen
data_Tm2GaGe6
_symmetry_space_group_name_H-M   'P 1'
_cell_length_a   5.76348019
_cell_length_b   8.03839779
_cell_length_c   8.25473976
_cell_angle_alpha   90.00000000
_cell_angle_beta   110.43235016
_cell_angle_gamma   90.00000000
_symmetry_Int_Tables_number   1
_chemical_formula_structural   Tm2GaGe6
_chemical_formula_sum   'Tm4 Ga2 Ge12'
_cell_volume   358.37415748
_cell_formula_units_Z   2
loop_
 _symmetry_equiv_pos_site_id
 _symmetry_equiv_pos_as_xyz
  1  'x, y, z'
loop_
 _atom_site_type_symbol
 _atom_site_label
 _atom_site_symmetry_multiplicity
 _atom_site_fract_x
 _atom_site_fract_y
 _atom_site_fract_z
 _atom_site_occupancy
  Tm  Tm0  1  0.88245395  0.41897201  0.76490797  1
  Tm  Tm1  1  0.11754599  0.58102802  0.23509200  1
  Tm  Tm2  1  0.61754597  0.91897202  0.23509198  1
  Tm  Tm3  1  0.38245398  0.08102800  0.76490799  1
  Ge  Ge4  1  0.79725896  0.25000001  0.09451797  1
  Ga  Ga5  1  0.20274099  0.75000002  0.90548200  1
  Ge  Ge6  1  0.70274096  0.75000002  0.90548198  1
  Ge  Ge7  1  0.29725898  0.25000001  0.09451799  1
  Ge  Ge8  1  0.00000000  0.00000000  0.00000000  1
  Ge  Ge9  1  0.49999997  0.50000001  -0.00000002  1
  Ga  Ga10  1  0.96632895  0.25000001  0.43265797  1
  Ge  Ge11  1  0.03367100  0.75000002  0.56734201  1
  Ge  Ge12  1  0.53367097  0.75000002  0.56734199  1
  Ge  Ge13  1  0.46632898  0.25000001  0.43265799  1
  Ge  Ge14  1  0.81844896  0.04830100  0.63689797  1
  Ge  Ge15  1  0.18155099  0.95169902  0.36310200  1
  Ge  Ge16  1  0.68155096  0.54830101  0.36310198  1
  Ge  Ge17  1  0.31844898  0.45169901  0.63689800  1
