# generated using pymatgen
data_Sc2Al
_symmetry_space_group_name_H-M   'P 1'
_cell_length_a   3.17157412
_cell_length_b   3.17157412
_cell_length_c   6.02918386
_cell_angle_alpha   105.24924469
_cell_angle_beta   105.24924469
_cell_angle_gamma   90.00000000
_symmetry_Int_Tables_number   1
_chemical_formula_structural   Sc2Al
_chemical_formula_sum   'Sc2 Al1'
_cell_volume   56.29525936
_cell_formula_units_Z   1
loop_
 _symmetry_equiv_pos_site_id
 _symmetry_equiv_pos_as_xyz
  1  'x, y, z'
loop_
 _atom_site_type_symbol
 _atom_site_label
 _atom_site_symmetry_multiplicity
 _atom_site_fract_x
 _atom_site_fract_y
 _atom_site_fract_z
 _atom_site_occupancy
  Sc  Sc0  1  0.34353098  0.34353099  0.68706200  1
  Sc  Sc1  1  0.65646897  0.65646897  0.31293799  1
  Al  Al2  1  0.00000000  0.00000000  0.00000000  1
