# generated using pymatgen
data_SrLiTiNbO6
_symmetry_space_group_name_H-M   'P 1'
_cell_length_a   5.43536425
_cell_length_b   5.43651772
_cell_length_c   5.78610516
_cell_angle_alpha   117.99586487
_cell_angle_beta   117.98619080
_cell_angle_gamma   90.04692841
_symmetry_Int_Tables_number   1
_chemical_formula_structural   SrLiTiNbO6
_chemical_formula_sum   'Sr1 Li1 Ti1 Nb1 O6'
_cell_volume   127.84302466
_cell_formula_units_Z   1
loop_
 _symmetry_equiv_pos_site_id
 _symmetry_equiv_pos_as_xyz
  1  'x, y, z'
loop_
 _atom_site_type_symbol
 _atom_site_label
 _atom_site_symmetry_multiplicity
 _atom_site_fract_x
 _atom_site_fract_y
 _atom_site_fract_z
 _atom_site_occupancy
  Li  Li0  1  0.74991898  0.24993700  0.49986202  1
  Sr  Sr1  1  0.25008001  0.75006301  0.50013905  1
  Nb  Nb2  1  0.00000000  0.00000300  0.99999501  1
  Ti  Ti3  1  0.49999999  0.50000000  0.00000103  1
  O  O4  1  0.27374100  0.27372700  0.54734602  1
  O  O5  1  0.68774198  0.19988000  0.99996302  1
  O  O6  1  0.72625899  0.72627301  0.45265505  1
  O  O7  1  0.31225801  0.80012001  0.00003805  1
  O  O8  1  0.19991200  0.31218400  0.99992003  1
  O  O9  1  0.80008699  0.68781501  0.00008104  1
