# generated using pymatgen
data_PrGe2
_symmetry_space_group_name_H-M   'P 1'
_cell_length_a   4.13755417
_cell_length_b   4.23314190
_cell_length_c   8.27479458
_cell_angle_alpha   104.82012177
_cell_angle_beta   104.47807312
_cell_angle_gamma   90.00000000
_symmetry_Int_Tables_number   1
_chemical_formula_structural   PrGe2
_chemical_formula_sum   'Pr2 Ge4'
_cell_volume   135.34406062
_cell_formula_units_Z   2
loop_
 _symmetry_equiv_pos_site_id
 _symmetry_equiv_pos_as_xyz
  1  'x, y, z'
loop_
 _atom_site_type_symbol
 _atom_site_label
 _atom_site_symmetry_multiplicity
 _atom_site_fract_x
 _atom_site_fract_y
 _atom_site_fract_z
 _atom_site_occupancy
  Pr  Pr0  1  0.36906798  0.61906801  0.73813596  1
  Pr  Pr1  1  0.63093197  0.38093200  0.26186398  1
  Ge  Ge2  1  0.78822597  0.03822600  0.57645198  1
  Ge  Ge3  1  0.21177398  0.96177401  0.42354796  1
  Ge  Ge4  1  0.95208996  0.20209000  0.90417997  1
  Ge  Ge5  1  0.04790999  0.79791001  0.09581997  1
