# generated using pymatgen
data_Yb2Si3
_symmetry_space_group_name_H-M   'P 1'
_cell_length_a   4.23726177
_cell_length_b   6.77877617
_cell_length_c   7.82088804
_cell_angle_alpha   101.00741577
_cell_angle_beta   105.71746826
_cell_angle_gamma   90.00000000
_symmetry_Int_Tables_number   1
_chemical_formula_structural   Yb2Si3
_chemical_formula_sum   'Yb4 Si6'
_cell_volume   211.94670598
_cell_formula_units_Z   2
loop_
 _symmetry_equiv_pos_site_id
 _symmetry_equiv_pos_as_xyz
  1  'x, y, z'
loop_
 _atom_site_type_symbol
 _atom_site_label
 _atom_site_symmetry_multiplicity
 _atom_site_fract_x
 _atom_site_fract_y
 _atom_site_fract_z
 _atom_site_occupancy
  Yb  Yb0  1  0.84770905  0.15140300  0.29858902  1
  Yb  Yb1  1  0.45088003  0.65140302  0.29858901  1
  Yb  Yb2  1  0.15229101  0.84859702  0.70141101  1
  Yb  Yb3  1  0.54912004  0.34859701  0.70141102  1
  Si  Si4  1  0.91320606  0.47332001  0.55457702  1
  Si  Si5  1  0.35862902  0.02668000  0.44542301  1
  Si  Si6  1  0.08679401  0.52668001  0.44542301  1
  Si  Si7  1  0.64137105  0.97332003  0.55457702  1
  Si  Si8  1  0.78675505  0.75000002  0.00000001  1
  Si  Si9  1  0.21324501  0.25000001  0.00000000  1
