# generated using pymatgen
data_NaCu3S5
_symmetry_space_group_name_H-M   'P 1'
_cell_length_a   3.54613400
_cell_length_b   6.07129526
_cell_length_c   11.44001961
_cell_angle_alpha   90.00000000
_cell_angle_beta   90.00000000
_cell_angle_gamma   106.98018646
_symmetry_Int_Tables_number   1
_chemical_formula_structural   NaCu3S5
_chemical_formula_sum   'Na2 Cu6 S10'
_cell_volume   235.56212748
_cell_formula_units_Z   2
loop_
 _symmetry_equiv_pos_site_id
 _symmetry_equiv_pos_as_xyz
  1  'x, y, z'
loop_
 _atom_site_type_symbol
 _atom_site_label
 _atom_site_symmetry_multiplicity
 _atom_site_fract_x
 _atom_site_fract_y
 _atom_site_fract_z
 _atom_site_occupancy
  Na  Na0  1  0.83891601  0.67783200  0.75000003  1
  Na  Na1  1  0.16108400  0.32216800  0.25000001  1
  Cu  Cu2  1  0.19974801  0.39949600  0.92864003  1
  Cu  Cu3  1  0.80025201  0.60050400  0.07136000  1
  Cu  Cu4  1  0.80025201  0.60050400  0.42864001  1
  Cu  Cu5  1  0.19974801  0.39949600  0.57136002  1
  Cu  Cu6  1  0.54913400  0.09826800  0.85469803  1
  Cu  Cu7  1  0.45086601  0.90173200  0.14530200  1
  S  S8  1  0.45086601  0.90173200  0.35469801  1
  S  S9  1  0.54913400  0.09826800  0.64530202  1
  S  S10  1  0.00000000  0.00000000  0.00000000  1
  S  S11  1  0.00000000  0.00000000  0.50000002  1
  S  S12  1  0.11748600  0.23497200  0.75000003  1
  S  S13  1  0.88251401  0.76502800  0.25000001  1
  S  S14  1  0.38187101  0.76374200  0.95772703  1
  S  S15  1  0.61812900  0.23625800  0.04227300  1
  S  S16  1  0.61812900  0.23625800  0.45772702  1
  S  S17  1  0.38187101  0.76374200  0.54227302  1
