# generated using pymatgen
data_Ca3Al5O8
_symmetry_space_group_name_H-M   'P 1'
_cell_length_a   3.16040206
_cell_length_b   3.16040254
_cell_length_c   24.36537743
_cell_angle_alpha   90.00000000
_cell_angle_beta   90.00000000
_cell_angle_gamma   119.99999237
_symmetry_Int_Tables_number   1
_chemical_formula_structural   Ca3Al5O8
_chemical_formula_sum   'Ca3 Al5 O8'
_cell_volume   210.76017281
_cell_formula_units_Z   1
loop_
 _symmetry_equiv_pos_site_id
 _symmetry_equiv_pos_as_xyz
  1  'x, y, z'
loop_
 _atom_site_type_symbol
 _atom_site_label
 _atom_site_symmetry_multiplicity
 _atom_site_fract_x
 _atom_site_fract_y
 _atom_site_fract_z
 _atom_site_occupancy
  Ca  Ca0  1  0.00000000  0.00000000  0.65723402  1
  Ca  Ca1  1  0.00000000  0.00000000  0.15723400  1
  Ca  Ca2  1  0.00000000  0.00000000  0.34276601  1
  Al  Al3  1  0.00000000  0.00000000  0.84276602  1
  Al  Al4  1  0.66666664  0.33333332  0.55518101  1
  Al  Al5  1  0.33333330  0.66666664  0.05518100  1
  Al  Al6  1  0.33333330  0.66666664  0.44481901  1
  Al  Al7  1  0.66666664  0.33333332  0.94481902  1
  O  O8  1  0.33333330  0.66666664  0.25000001  1
  O  O9  1  0.66666664  0.33333332  0.75000002  1
  O  O10  1  0.33333330  0.66666664  0.60870001  1
  O  O11  1  0.66666664  0.33333332  0.10870000  1
  O  O12  1  0.66666664  0.33333332  0.39130001  1
  O  O13  1  0.00000000  0.00000000  0.00000000  1
  O  O14  1  0.33333330  0.66666664  0.89130002  1
  O  O15  1  0.00000000  0.00000000  0.50000001  1
