# generated using pymatgen
data_Na2Li2CuH5
_symmetry_space_group_name_H-M   'P 1'
_cell_length_a   3.57662797
_cell_length_b   3.57662797
_cell_length_c   10.42179775
_cell_angle_alpha   99.88048553
_cell_angle_beta   99.88048553
_cell_angle_gamma   90.00000000
_symmetry_Int_Tables_number   1
_chemical_formula_structural   Na2Li2CuH5
_chemical_formula_sum   'Na2 Li2 Cu1 H5'
_cell_volume   129.33339273
_cell_formula_units_Z   1
loop_
 _symmetry_equiv_pos_site_id
 _symmetry_equiv_pos_as_xyz
  1  'x, y, z'
loop_
 _atom_site_type_symbol
 _atom_site_label
 _atom_site_symmetry_multiplicity
 _atom_site_fract_x
 _atom_site_fract_y
 _atom_site_fract_z
 _atom_site_occupancy
  Na  Na0  1  0.62688399  0.62688400  0.25376799  1
  Na  Na1  1  0.37311599  0.37311600  0.74623201  1
  Li  Li2  1  0.00000000  0.00000000  0.00000000  1
  Li  Li3  1  0.75000000  0.25000000  0.50000000  1
  Cu  Cu4  1  0.24999999  0.75000000  0.50000000  1
  H  H5  1  0.80828499  0.80828500  0.61656999  1
  H  H6  1  0.19171500  0.19171500  0.38343001  1
  H  H7  1  0.88083599  0.88083600  0.76167200  1
  H  H8  1  0.49999999  0.50000000  -0.00000002  1
  H  H9  1  0.11916400  0.11916400  0.23832800  1
