# generated using pymatgen
data_La2InRh2
_symmetry_space_group_name_H-M   'P 1'
_cell_length_a   3.76358294
_cell_length_b   7.85567617
_cell_length_c   7.85567617
_cell_angle_alpha   90.00000000
_cell_angle_beta   90.00000000
_cell_angle_gamma   90.00000000
_symmetry_Int_Tables_number   1
_chemical_formula_structural   La2InRh2
_chemical_formula_sum   'La4 In2 Rh4'
_cell_volume   232.25690649
_cell_formula_units_Z   2
loop_
 _symmetry_equiv_pos_site_id
 _symmetry_equiv_pos_as_xyz
  1  'x, y, z'
loop_
 _atom_site_type_symbol
 _atom_site_label
 _atom_site_symmetry_multiplicity
 _atom_site_fract_x
 _atom_site_fract_y
 _atom_site_fract_z
 _atom_site_occupancy
  La  La0  1  0.50000001  0.67251599  0.82748398  1
  La  La1  1  0.50000001  0.82748398  0.32748399  1
  La  La2  1  0.50000001  0.32748399  0.17251600  1
  La  La3  1  0.50000001  0.17251600  0.67251599  1
  In  In4  1  0.00000000  0.49999999  0.49999999  1
  In  In5  1  0.00000000  0.00000000  0.00000000  1
  Rh  Rh6  1  1.00000001  0.63101699  0.13101700  1
  Rh  Rh7  1  1.00000001  0.86898298  0.63101699  1
  Rh  Rh8  1  0.00000000  0.13101700  0.36898299  1
  Rh  Rh9  1  1.00000001  0.36898299  0.86898298  1
