# generated using pymatgen
data_Hf5Ge11Rh
_symmetry_space_group_name_H-M   'P 1'
_cell_length_a   7.38432503
_cell_length_b   7.38432503
_cell_length_c   7.38432503
_cell_angle_alpha   109.47122192
_cell_angle_beta   109.47122192
_cell_angle_gamma   109.47122192
_symmetry_Int_Tables_number   1
_chemical_formula_structural   Hf5Ge11Rh
_chemical_formula_sum   'Hf5 Ge11 Rh1'
_cell_volume   309.96346091
_cell_formula_units_Z   1
loop_
 _symmetry_equiv_pos_site_id
 _symmetry_equiv_pos_as_xyz
  1  'x, y, z'
loop_
 _atom_site_type_symbol
 _atom_site_label
 _atom_site_symmetry_multiplicity
 _atom_site_fract_x
 _atom_site_fract_y
 _atom_site_fract_z
 _atom_site_occupancy
  Hf  Hf0  1  0.50000003  0.50000001  0.50000003  1
  Hf  Hf1  1  0.00000003  0.50000001  0.00000003  1
  Hf  Hf2  1  0.00000000  0.00000000  0.49999999  1
  Hf  Hf3  1  0.50000000  0.00000000  1.00000000  1
  Ge  Ge4  1  0.50000005  0.75000002  0.25000005  1
  Hf  Hf5  1  0.75000001  0.25000001  0.50000003  1
  Ge  Ge6  1  0.25000003  0.50000001  0.75000003  1
  Ge  Ge7  1  0.25000005  0.75000002  0.50000004  1
  Ge  Ge8  1  0.50000001  0.25000001  0.75000002  1
  Ge  Ge9  1  0.75000003  0.50000001  0.25000004  1
  Ge  Ge10  1  0.00000005  0.71138802  0.71138803  1
  Ge  Ge11  1  0.71138804  0.71138802  1.00000005  1
  Ge  Ge12  1  0.71138800  0.00000000  0.71138801  1
  Ge  Ge13  1  0.00000002  0.28861201  0.28861201  1
  Ge  Ge14  1  0.28861202  0.28861201  1.00000001  1
  Ge  Ge15  1  0.28861200  0.00000000  0.28861200  1
  Rh  Rh16  1  0.00000000  0.00000000  0.00000000  1
