# generated using pymatgen
data_Ti4CrO5
_symmetry_space_group_name_H-M   'P 1'
_cell_length_a   4.87235498
_cell_length_b   5.30444193
_cell_length_c   5.30444193
_cell_angle_alpha   89.99932861
_cell_angle_beta   89.99996948
_cell_angle_gamma   89.99996185
_symmetry_Int_Tables_number   1
_chemical_formula_structural   Ti4CrO5
_chemical_formula_sum   'Ti4 Cr1 O5'
_cell_volume   137.09395977
_cell_formula_units_Z   1
loop_
 _symmetry_equiv_pos_site_id
 _symmetry_equiv_pos_as_xyz
  1  'x, y, z'
loop_
 _atom_site_type_symbol
 _atom_site_label
 _atom_site_symmetry_multiplicity
 _atom_site_fract_x
 _atom_site_fract_y
 _atom_site_fract_z
 _atom_site_occupancy
  Ti  Ti0  1  0.42839800  0.00000000  0.50000000  1
  Ti  Ti1  1  0.42839800  0.50000002  -0.00000001  1
  Ti  Ti2  1  0.00562500  0.00000000  1.00000004  1
  Ti  Ti3  1  0.00562500  0.50000002  0.50000003  1
  Cr  Cr4  1  0.78864900  0.49999902  0.99999901  1
  O  O5  1  0.78864800  0.00000100  0.50000098  1
  O  O6  1  0.27441600  0.25000001  0.25000000  1
  O  O7  1  0.27441600  0.75000003  0.75000002  1
  O  O8  1  0.27441300  0.25000001  0.75000002  1
  O  O9  1  0.27441300  0.75000003  0.25000001  1
