# generated using pymatgen
data_Li8Ca2Zn3Ir
_symmetry_space_group_name_H-M   'P 1'
_cell_length_a   4.52587223
_cell_length_b   8.82391644
_cell_length_c   8.82391644
_cell_angle_alpha   120.00000000
_cell_angle_beta   90.00000000
_cell_angle_gamma   90.00000000
_symmetry_Int_Tables_number   1
_chemical_formula_structural   Li8Ca2Zn3Ir
_chemical_formula_sum   'Li8 Ca2 Zn3 Ir1'
_cell_volume   305.17973678
_cell_formula_units_Z   1
loop_
 _symmetry_equiv_pos_site_id
 _symmetry_equiv_pos_as_xyz
  1  'x, y, z'
loop_
 _atom_site_type_symbol
 _atom_site_label
 _atom_site_symmetry_multiplicity
 _atom_site_fract_x
 _atom_site_fract_y
 _atom_site_fract_z
 _atom_site_occupancy
  Li  Li0  1  0.74999996  0.66666665  0.33333336  1
  Li  Li1  1  0.24999999  0.33333332  0.66666669  1
  Li  Li2  1  0.74999996  0.85186297  0.04295303  1
  Li  Li3  1  0.24999999  0.14813700  0.95704701  1
  Li  Li4  1  0.74999996  0.19108999  0.14813701  1
  Li  Li5  1  0.74999996  0.95704697  0.80891004  1
  Li  Li6  1  0.24999999  0.04295300  0.19109000  1
  Li  Li7  1  0.24999999  0.80890998  0.85186304  1
  Zn  Zn8  1  0.74999996  0.08481700  0.37991201  1
  Ca  Ca9  1  0.24999999  0.91518297  0.62008804  1
  Zn  Zn10  1  0.74999996  0.29509499  0.91518302  1
  Zn  Zn11  1  0.74999996  0.62008798  0.70490503  1
  Ca  Ca12  1  0.24999999  0.37991199  0.29509502  1
  Ir  Ir13  1  0.24999999  0.70490498  0.08481703  1
