# generated using pymatgen
data_NaCuS3
_symmetry_space_group_name_H-M   'P 1'
_cell_length_a   5.99172020
_cell_length_b   6.14982271
_cell_length_c   5.99172020
_cell_angle_alpha   119.15315247
_cell_angle_beta   90.00000000
_cell_angle_gamma   119.15315247
_symmetry_Int_Tables_number   1
_chemical_formula_structural   NaCuS3
_chemical_formula_sum   'Na2 Cu2 S6'
_cell_volume   160.03007035
_cell_formula_units_Z   2
loop_
 _symmetry_equiv_pos_site_id
 _symmetry_equiv_pos_as_xyz
  1  'x, y, z'
loop_
 _atom_site_type_symbol
 _atom_site_label
 _atom_site_symmetry_multiplicity
 _atom_site_fract_x
 _atom_site_fract_y
 _atom_site_fract_z
 _atom_site_occupancy
  Na  Na0  1  0.25000000  0.50000002  0.74999999  1
  Na  Na1  1  0.74999999  0.50000002  0.25000000  1
  Cu  Cu2  1  0.49999998  0.00000000  0.49999998  1
  Cu  Cu3  1  0.00000000  0.00000000  0.00000000  1
  S  S4  1  0.76529597  0.00000100  0.23470499  1
  S  S5  1  0.23470402  0.99999903  0.76529500  1
  S  S6  1  0.76529597  0.00000000  0.76529597  1
  S  S7  1  0.23470399  0.00000000  0.23470399  1
  S  S8  1  0.75312099  0.50624202  0.75312099  1
  S  S9  1  0.24687900  0.49375802  0.24687900  1
