# generated using pymatgen
data_Ba3EuCd5Pb11
_symmetry_space_group_name_H-M   'P 1'
_cell_length_a   5.20950794
_cell_length_b   11.09264755
_cell_length_c   11.09264755
_cell_angle_alpha   90.00000000
_cell_angle_beta   90.00000000
_cell_angle_gamma   90.00000000
_symmetry_Int_Tables_number   1
_chemical_formula_structural   Ba3EuCd5Pb11
_chemical_formula_sum   'Ba3 Eu1 Cd5 Pb11'
_cell_volume   641.01343671
_cell_formula_units_Z   1
loop_
 _symmetry_equiv_pos_site_id
 _symmetry_equiv_pos_as_xyz
  1  'x, y, z'
loop_
 _atom_site_type_symbol
 _atom_site_label
 _atom_site_symmetry_multiplicity
 _atom_site_fract_x
 _atom_site_fract_y
 _atom_site_fract_z
 _atom_site_occupancy
  Ba  Ba0  1  0.00000000  0.85205803  0.14794201  1
  Ba  Ba1  1  0.50000001  0.64794203  0.64794203  1
  Ba  Ba2  1  0.50000001  0.35205801  0.35205801  1
  Eu  Eu3  1  1.00000001  0.14794201  0.85205803  1
  Cd  Cd4  1  1.00000001  0.52933202  0.85920503  1
  Cd  Cd5  1  -0.00000000  0.47066802  0.14079501  1
  Pb  Pb6  1  0.50000001  0.64079503  0.02933200  1
  Cd  Cd7  1  0.50000001  0.35920501  0.97066804  1
  Cd  Cd8  1  0.00000000  0.85920503  0.52933202  1
  Cd  Cd9  1  0.50000001  0.02933200  0.64079503  1
  Pb  Pb10  1  0.50000001  0.97066804  0.35920501  1
  Pb  Pb11  1  1.00000001  0.14079501  0.47066802  1
  Pb  Pb12  1  0.00000000  0.81246803  0.81246803  1
  Pb  Pb13  1  0.50000001  0.31246801  0.68753203  1
  Pb  Pb14  1  0.50000001  0.68753203  0.31246801  1
  Pb  Pb15  1  0.00000000  0.18753201  0.18753201  1
  Pb  Pb16  1  0.00000000  0.40460902  0.59539102  1
  Pb  Pb17  1  0.50000001  0.09539100  0.09539100  1
  Pb  Pb18  1  0.50000001  0.90460904  0.90460904  1
  Pb  Pb19  1  -0.00000000  0.59539102  0.40460902  1
