# generated using pymatgen
data_Ca2Co2O5
_symmetry_space_group_name_H-M   'P 1'
_cell_length_a   5.25508595
_cell_length_b   5.58986330
_cell_length_c   8.30128002
_cell_angle_alpha   109.43766022
_cell_angle_beta   108.45275879
_cell_angle_gamma   90.00000000
_symmetry_Int_Tables_number   1
_chemical_formula_structural   Ca2Co2O5
_chemical_formula_sum   'Ca4 Co4 O10'
_cell_volume   216.61268986
_cell_formula_units_Z   2
loop_
 _symmetry_equiv_pos_site_id
 _symmetry_equiv_pos_as_xyz
  1  'x, y, z'
loop_
 _atom_site_type_symbol
 _atom_site_label
 _atom_site_symmetry_multiplicity
 _atom_site_fract_x
 _atom_site_fract_y
 _atom_site_fract_z
 _atom_site_occupancy
  Ca  Ca0  1  0.10232499  0.64424797  0.21981296  1
  Ca  Ca1  1  0.37885098  0.91968395  0.78001293  1
  Ca  Ca2  1  0.88251200  0.35575198  0.78018695  1
  Ca  Ca3  1  0.59883800  0.08031600  0.21998699  1
  Co  Co4  1  0.20900999  0.32618598  0.50209597  1
  Co  Co5  1  0.70691399  0.67381397  0.49790395  1
  Co  Co6  1  0.50268799  0.49999997  -0.00000002  1
  Co  Co7  1  0.00157998  0.99999995  -0.00000004  1
  O  O8  1  0.87042400  0.39054998  0.50009896  1
  O  O9  1  0.37032499  0.60944997  0.49990095  1
  O  O10  1  0.67199899  0.71023896  0.28897496  1
  O  O11  1  0.38302400  0.28976099  0.71102496  1
  O  O12  1  0.18255700  0.07699400  0.30027598  1
  O  O13  1  0.88228099  0.92300595  0.69972393  1
  O  O14  1  0.73494399  0.74370296  0.97287093  1
  O  O15  1  0.76207300  0.25629699  0.02712899  1
  O  O16  1  0.26342500  0.26421299  0.02729099  1
  O  O17  1  0.23613399  0.73578696  0.97270893  1
