# generated using pymatgen
data_HfPt4
_symmetry_space_group_name_H-M   'P 1'
_cell_length_a   7.05464983
_cell_length_b   7.05464983
_cell_length_c   7.05464983
_cell_angle_alpha   90.00000000
_cell_angle_beta   90.00000000
_cell_angle_gamma   90.00000000
_symmetry_Int_Tables_number   1
_chemical_formula_structural   HfPt4
_chemical_formula_sum   'Hf4 Pt16'
_cell_volume   351.09640689
_cell_formula_units_Z   4
loop_
 _symmetry_equiv_pos_site_id
 _symmetry_equiv_pos_as_xyz
  1  'x, y, z'
loop_
 _atom_site_type_symbol
 _atom_site_label
 _atom_site_symmetry_multiplicity
 _atom_site_fract_x
 _atom_site_fract_y
 _atom_site_fract_z
 _atom_site_occupancy
  Hf  Hf0  1  0.06340700  0.06340700  0.06340700  1
  Hf  Hf1  1  0.43659301  0.93659302  0.56340701  1
  Hf  Hf2  1  0.56340701  0.43659301  0.93659302  1
  Hf  Hf3  1  0.93659302  0.56340701  0.43659301  1
  Pt  Pt4  1  0.68255602  0.68255602  0.68255602  1
  Pt  Pt5  1  0.81744402  0.31744401  0.18255600  1
  Pt  Pt6  1  0.18255600  0.81744402  0.31744401  1
  Pt  Pt7  1  0.31744401  0.18255600  0.81744402  1
  Pt  Pt8  1  0.78510902  0.94922102  0.38618901  1
  Pt  Pt9  1  0.38618901  0.78510902  0.94922102  1
  Pt  Pt10  1  0.94922102  0.38618901  0.78510902  1
  Pt  Pt11  1  0.55077901  0.61381101  0.28510901  1
  Pt  Pt12  1  0.88618902  0.71489102  0.05077900  1
  Pt  Pt13  1  0.05077900  0.88618902  0.71489102  1
  Pt  Pt14  1  0.11381100  0.21489101  0.44922101  1
  Pt  Pt15  1  0.61381101  0.28510901  0.55077901  1
  Pt  Pt16  1  0.44922101  0.11381100  0.21489101  1
  Pt  Pt17  1  0.28510901  0.55077901  0.61381101  1
  Pt  Pt18  1  0.21489101  0.44922101  0.11381100  1
  Pt  Pt19  1  0.71489102  0.05077900  0.88618902  1
