# generated using pymatgen
data_CaReO3
_symmetry_space_group_name_H-M   'P 1'
_cell_length_a   5.48374224
_cell_length_b   5.55807781
_cell_length_c   7.74553013
_cell_angle_alpha   90.00000000
_cell_angle_beta   90.00000000
_cell_angle_gamma   90.00000000
_symmetry_Int_Tables_number   1
_chemical_formula_structural   CaReO3
_chemical_formula_sum   'Ca4 Re4 O12'
_cell_volume   236.07652442
_cell_formula_units_Z   4
loop_
 _symmetry_equiv_pos_site_id
 _symmetry_equiv_pos_as_xyz
  1  'x, y, z'
loop_
 _atom_site_type_symbol
 _atom_site_label
 _atom_site_symmetry_multiplicity
 _atom_site_fract_x
 _atom_site_fract_y
 _atom_site_fract_z
 _atom_site_occupancy
  Ca  Ca0  1  0.99269196  0.03943700  0.25000000  1
  Ca  Ca1  1  0.49269198  0.46056302  0.74999999  1
  Ca  Ca2  1  0.50730798  0.53943702  0.25000000  1
  Ca  Ca3  1  0.00730800  0.96056303  0.74999999  1
  Re  Re4  1  0.49999998  0.00000000  0.00000000  1
  Re  Re5  1  0.49999998  0.00000000  0.49999999  1
  Re  Re6  1  0.00000000  0.50000002  0.00000000  1
  Re  Re7  1  0.00000000  0.50000002  0.49999999  1
  O  O8  1  0.56906198  0.01467100  0.74999999  1
  O  O9  1  0.21508399  0.20913001  0.53662899  1
  O  O10  1  0.21508399  0.20913001  0.96337098  1
  O  O11  1  0.71508397  0.29087001  0.03662900  1
  O  O12  1  0.71508397  0.29087001  0.46337099  1
  O  O13  1  0.06906200  0.48532902  0.25000000  1
  O  O14  1  0.93093796  0.51467102  0.74999999  1
  O  O15  1  0.28491599  0.70913002  0.96337098  1
  O  O16  1  0.28491599  0.70913002  0.53662899  1
  O  O17  1  0.78491597  0.79087003  0.03662900  1
  O  O18  1  0.78491597  0.79087003  0.46337099  1
  O  O19  1  0.43093798  0.98532903  0.25000000  1
