# generated using pymatgen
data_Ho3Ge4
_symmetry_space_group_name_H-M   'P 1'
_cell_length_a   5.68399000
_cell_length_b   7.58090734
_cell_length_c   8.93105412
_cell_angle_alpha   83.14857483
_cell_angle_beta   71.44499207
_cell_angle_gamma   67.98257446
_symmetry_Int_Tables_number   1
_chemical_formula_structural   Ho3Ge4
_chemical_formula_sum   'Ho6 Ge8'
_cell_volume   338.22564804
_cell_formula_units_Z   2
loop_
 _symmetry_equiv_pos_site_id
 _symmetry_equiv_pos_as_xyz
  1  'x, y, z'
loop_
 _atom_site_type_symbol
 _atom_site_label
 _atom_site_symmetry_multiplicity
 _atom_site_fract_x
 _atom_site_fract_y
 _atom_site_fract_z
 _atom_site_occupancy
  Ho  Ho0  1  0.49277695  0.50000001  0.49999999  1
  Ho  Ho1  1  0.74277691  1.00000002  0.00000001  1
  Ho  Ho2  1  0.42230191  0.99693202  0.66549798  1
  Ho  Ho3  1  0.08473200  0.00306800  0.33450199  1
  Ho  Ho4  1  0.16923395  0.50306801  0.16549800  1
  Ho  Ho5  1  0.83779995  0.49693201  0.83450198  1
  Ge  Ge6  1  0.48957098  0.17602100  0.34137899  1
  Ge  Ge7  1  0.00697092  0.82397901  0.65862098  1
  Ge  Ge8  1  0.41559197  0.32397901  0.84137897  1
  Ge  Ge9  1  0.58094994  0.67602101  0.15862100  1
  Ge  Ge10  1  0.91034394  0.66855801  0.49892099  1
  Ge  Ge11  1  0.07782297  0.33144201  0.50107899  1
  Ge  Ge12  1  0.32890192  0.83144201  0.99892097  1
  Ge  Ge13  1  0.15926498  0.16855800  0.00107900  1
