# generated using pymatgen
data_Sr2EuNbO6
_symmetry_space_group_name_H-M   'P 1'
_cell_length_a   5.89062500
_cell_length_b   6.12033606
_cell_length_c   8.46341419
_cell_angle_alpha   90.02274323
_cell_angle_beta   90.48027039
_cell_angle_gamma   89.97959900
_symmetry_Int_Tables_number   1
_chemical_formula_structural   Sr2EuNbO6
_chemical_formula_sum   'Sr4 Eu2 Nb2 O12'
_cell_volume   305.11736270
_cell_formula_units_Z   2
loop_
 _symmetry_equiv_pos_site_id
 _symmetry_equiv_pos_as_xyz
  1  'x, y, z'
loop_
 _atom_site_type_symbol
 _atom_site_label
 _atom_site_symmetry_multiplicity
 _atom_site_fract_x
 _atom_site_fract_y
 _atom_site_fract_z
 _atom_site_occupancy
  Sr  Sr0  1  0.50867828  0.53480356  0.24920770  1
  Sr  Sr1  1  0.00870073  0.96517067  0.74917705  1
  Sr  Sr2  1  0.99793082  0.52049014  0.99954523  1
  Sr  Sr3  1  0.49780937  0.97960266  0.49954437  1
  Eu  Eu4  1  0.98062366  0.06663011  0.25174398  1
  Eu  Eu5  1  0.48034125  0.43337846  0.75116063  1
  Nb  Nb6  1  0.49938913  0.99943059  0.00116473  1
  Nb  Nb7  1  0.99922069  0.50032505  0.50083583  1
  O  O8  1  0.23946893  0.21205102  0.95717616  1
  O  O9  1  0.28648054  0.66001766  0.56272661  1
  O  O10  1  0.78674597  0.84004844  0.06277371  1
  O  O11  1  0.73955051  0.28832291  0.45721939  1
  O  O12  1  0.35084903  0.71264771  0.93901764  1
  O  O13  1  0.20132892  0.23629002  0.54743636  1
  O  O14  1  0.70153550  0.26354162  0.04754911  1
  O  O15  1  0.85063082  0.78739350  0.43905014  1
  O  O16  1  0.36820970  0.97533127  0.22265739  1
  O  O17  1  0.06695332  0.44990090  0.26966066  1
  O  O18  1  0.56718702  0.04998208  0.76950291  1
  O  O19  1  0.86836525  0.52464176  0.72285086  1
