# generated using pymatgen
data_CaReO3
_symmetry_space_group_name_H-M   'P 1'
_cell_length_a   5.29357910
_cell_length_b   5.84403181
_cell_length_c   7.45579290
_cell_angle_alpha   90.00000000
_cell_angle_beta   90.00000000
_cell_angle_gamma   90.00000000
_symmetry_Int_Tables_number   1
_chemical_formula_structural   CaReO3
_chemical_formula_sum   'Ca4 Re4 O12'
_cell_volume   230.65125111
_cell_formula_units_Z   4
loop_
 _symmetry_equiv_pos_site_id
 _symmetry_equiv_pos_as_xyz
  1  'x, y, z'
loop_
 _atom_site_type_symbol
 _atom_site_label
 _atom_site_symmetry_multiplicity
 _atom_site_fract_x
 _atom_site_fract_y
 _atom_site_fract_z
 _atom_site_occupancy
  Ca  Ca0  1  0.01930900  0.91642803  0.75000001  1
  Ca  Ca1  1  0.51930899  0.58357202  0.25000000  1
  Ca  Ca2  1  0.48069099  0.41642801  0.75000001  1
  Ca  Ca3  1  0.98069098  0.08357200  0.25000000  1
  Re  Re4  1  0.49999999  0.00000000  0.50000001  1
  Re  Re5  1  -0.00000000  0.50000002  0.50000001  1
  Re  Re6  1  -0.00000000  0.50000002  0.00000000  1
  Re  Re7  1  0.49999999  0.00000000  -0.00000000  1
  O  O8  1  0.69847299  0.32714901  0.44157701  1
  O  O9  1  0.19847300  0.17285101  0.55842301  1
  O  O10  1  0.80152698  0.82714903  0.05842300  1
  O  O11  1  0.30152699  0.67285102  0.94157701  1
  O  O12  1  0.30152699  0.67285102  0.55842301  1
  O  O13  1  0.80152698  0.82714903  0.44157701  1
  O  O14  1  0.19847300  0.17285101  0.94157701  1
  O  O15  1  0.69847299  0.32714901  0.05842300  1
  O  O16  1  0.12368500  0.45447201  0.25000000  1
  O  O17  1  0.62368499  0.04552800  0.75000001  1
  O  O18  1  0.37631499  0.95447203  0.25000000  1
  O  O19  1  0.87631498  0.54552802  0.75000001  1
