# generated using pymatgen
data_Tm2LuGa9
_symmetry_space_group_name_H-M   'P 1'
_cell_length_a   5.33290434
_cell_length_b   5.33290434
_cell_length_c   9.26965237
_cell_angle_alpha   73.28245544
_cell_angle_beta   73.28245544
_cell_angle_gamma   60.00000000
_symmetry_Int_Tables_number   1
_chemical_formula_structural   Tm2LuGa9
_chemical_formula_sum   'Tm2 Lu1 Ga9'
_cell_volume   215.34611798
_cell_formula_units_Z   1
loop_
 _symmetry_equiv_pos_site_id
 _symmetry_equiv_pos_as_xyz
  1  'x, y, z'
loop_
 _atom_site_type_symbol
 _atom_site_label
 _atom_site_symmetry_multiplicity
 _atom_site_fract_x
 _atom_site_fract_y
 _atom_site_fract_z
 _atom_site_occupancy
  Tm  Tm0  1  0.86045398  0.86045395  0.41863805  1
  Tm  Tm1  1  0.13954600  0.13954599  0.58136202  1
  Lu  Lu2  1  0.00000000  0.00000000  0.00000000  1
  Ga  Ga3  1  0.91766097  0.41819898  0.24594103  1
  Ga  Ga4  1  0.41819899  0.41819898  0.24594102  1
  Ga  Ga5  1  0.41819900  0.91766095  0.24594103  1
  Ga  Ga6  1  0.08233901  0.58180097  0.75405904  1
  Ga  Ga7  1  0.58180099  0.58180097  0.75405905  1
  Ga  Ga8  1  0.58180098  0.08233900  0.75405904  1
  Ga  Ga9  1  0.66728499  0.66728496  0.99814506  1
  Ga  Ga10  1  0.33271499  0.33271498  0.00185501  1
  Ga  Ga11  1  0.49999999  0.49999997  0.50000004  1
