# generated using pymatgen
data_TiSi2
_symmetry_space_group_name_H-M   'P 1'
_cell_length_a   4.81766796
_cell_length_b   4.81766891
_cell_length_c   6.62329817
_cell_angle_alpha   90.00000000
_cell_angle_beta   90.00000000
_cell_angle_gamma   119.99999237
_symmetry_Int_Tables_number   1
_chemical_formula_structural   TiSi2
_chemical_formula_sum   'Ti3 Si6'
_cell_volume   133.13087516
_cell_formula_units_Z   3
loop_
 _symmetry_equiv_pos_site_id
 _symmetry_equiv_pos_as_xyz
  1  'x, y, z'
loop_
 _atom_site_type_symbol
 _atom_site_label
 _atom_site_symmetry_multiplicity
 _atom_site_fract_x
 _atom_site_fract_y
 _atom_site_fract_z
 _atom_site_occupancy
  Ti  Ti0  1  -0.00000001  0.50000000  0.83333298  1
  Ti  Ti1  1  0.50000000  0.00000000  0.16666700  1
  Ti  Ti2  1  0.49999999  0.50000000  0.49999999  1
  Si  Si3  1  0.15923799  0.84076200  0.49999999  1
  Si  Si4  1  0.84076199  0.68152400  0.16666700  1
  Si  Si5  1  0.31847600  0.15923800  0.83333298  1
  Si  Si6  1  0.84076200  0.15923800  0.49999999  1
  Si  Si7  1  0.15923800  0.31847600  0.16666700  1
  Si  Si8  1  0.68152399  0.84076200  0.83333298  1
