# generated using pymatgen
data_Pr2Co7
_symmetry_space_group_name_H-M   'P 1'
_cell_length_a   5.05035210
_cell_length_b   5.05035210
_cell_length_c   12.65244007
_cell_angle_alpha   78.48759460
_cell_angle_beta   78.48759460
_cell_angle_gamma   60.00000000
_symmetry_Int_Tables_number   1
_chemical_formula_structural   Pr2Co7
_chemical_formula_sum   'Pr4 Co14'
_cell_volume   271.95565042
_cell_formula_units_Z   2
loop_
 _symmetry_equiv_pos_site_id
 _symmetry_equiv_pos_as_xyz
  1  'x, y, z'
loop_
 _atom_site_type_symbol
 _atom_site_label
 _atom_site_symmetry_multiplicity
 _atom_site_fract_x
 _atom_site_fract_y
 _atom_site_fract_z
 _atom_site_occupancy
  Pr  Pr0  1  0.05119000  0.05119000  0.84642899  1
  Pr  Pr1  1  0.94880997  0.94880995  0.15357105  1
  Pr  Pr2  1  0.14819499  0.14819499  0.55541500  1
  Pr  Pr3  1  0.85180497  0.85180496  0.44458504  1
  Co  Co4  1  0.49999998  0.49999997  0.50000002  1
  Co  Co5  1  0.27895799  0.27895799  0.16312701  1
  Co  Co6  1  0.72104197  0.72104196  0.83687303  1
  Co  Co7  1  0.38685699  0.38685698  0.83942901  1
  Co  Co8  1  0.61314298  0.61314297  0.16057103  1
  Co  Co9  1  0.49999998  0.00000000  0.00000001  1
  Co  Co10  1  -0.00000000  0.49999997  0.00000001  1
  Co  Co11  1  0.49999998  0.49999997  0.00000003  1
  Co  Co12  1  0.60464398  0.60464397  0.67852002  1
  Co  Co13  1  0.60464398  0.11219099  0.67852001  1
  Co  Co14  1  0.11219099  0.60464397  0.67852001  1
  Co  Co15  1  0.39535599  0.39535598  0.32148002  1
  Co  Co16  1  0.39535598  0.88780895  0.32148003  1
  Co  Co17  1  0.88780897  0.39535598  0.32148003  1
