# generated using pymatgen
data_Ce(AlSi)2
_symmetry_space_group_name_H-M   'P 1'
_cell_length_a   4.18677378
_cell_length_b   4.18677378
_cell_length_c   6.07805109
_cell_angle_alpha   110.14624023
_cell_angle_beta   110.14624023
_cell_angle_gamma   90.00000000
_symmetry_Int_Tables_number   1
_chemical_formula_structural   Ce(AlSi)2
_chemical_formula_sum   'Ce1 Al2 Si2'
_cell_volume   93.04978170
_cell_formula_units_Z   1
loop_
 _symmetry_equiv_pos_site_id
 _symmetry_equiv_pos_as_xyz
  1  'x, y, z'
loop_
 _atom_site_type_symbol
 _atom_site_label
 _atom_site_symmetry_multiplicity
 _atom_site_fract_x
 _atom_site_fract_y
 _atom_site_fract_z
 _atom_site_occupancy
  Ce  Ce0  1  0.99354505  0.99354505  0.98708998  1
  Al  Al1  1  0.74193004  0.24193001  0.48385999  1
  Al  Al2  1  0.24193001  0.74193004  0.48385999  1
  Si  Si3  1  0.40063002  0.40063002  0.80125998  1
  Si  Si4  1  0.62196303  0.62196303  0.24392599  1
