# generated using pymatgen
data_KNaAgNO7
_symmetry_space_group_name_H-M   'P 1'
_cell_length_a   6.37236023
_cell_length_b   6.37236023
_cell_length_c   6.52460814
_cell_angle_alpha   90.00000000
_cell_angle_beta   90.00000000
_cell_angle_gamma   120.00000000
_symmetry_Int_Tables_number   1
_chemical_formula_structural   KNaAgNO7
_chemical_formula_sum   'K1 Na1 Ag1 N1 O7'
_cell_volume   229.44875311
_cell_formula_units_Z   1
loop_
 _symmetry_equiv_pos_site_id
 _symmetry_equiv_pos_as_xyz
  1  'x, y, z'
loop_
 _atom_site_type_symbol
 _atom_site_label
 _atom_site_symmetry_multiplicity
 _atom_site_fract_x
 _atom_site_fract_y
 _atom_site_fract_z
 _atom_site_occupancy
  Na  Na0  1  0.00000000  0.00000000  0.49999999  1
  K  K1  1  0.66666665  0.33333334  0.19767900  1
  N  N2  1  0.33333334  0.66666669  0.80232098  1
  Ag  Ag3  1  0.77688899  0.63155002  0.28699299  1
  O  O4  1  0.85466098  0.22311101  0.28699299  1
  O  O5  1  0.66666665  0.33333334  0.93189398  1
  O  O6  1  0.63155000  0.85466102  0.71300699  1
  O  O7  1  0.36844999  0.14533900  0.28699299  1
  O  O8  1  0.33333334  0.66666669  0.06810600  1
  O  O9  1  0.14533902  0.77688902  0.71300699  1
  O  O10  1  0.22311100  0.36845001  0.71300699  1
