# generated using pymatgen
data_YbEuS3
_symmetry_space_group_name_H-M   'P 1'
_cell_length_a   3.86268401
_cell_length_b   6.58230829
_cell_length_c   9.48585796
_cell_angle_alpha   90.00000000
_cell_angle_beta   90.00000000
_cell_angle_gamma   107.06246185
_symmetry_Int_Tables_number   1
_chemical_formula_structural   YbEuS3
_chemical_formula_sum   'Yb2 Eu2 S6'
_cell_volume   230.56602009
_cell_formula_units_Z   2
loop_
 _symmetry_equiv_pos_site_id
 _symmetry_equiv_pos_as_xyz
  1  'x, y, z'
loop_
 _atom_site_type_symbol
 _atom_site_label
 _atom_site_symmetry_multiplicity
 _atom_site_fract_x
 _atom_site_fract_y
 _atom_site_fract_z
 _atom_site_occupancy
  Yb  Yb0  1  0.25197097  0.50394200  0.75000000  1
  Yb  Yb1  1  0.74802897  0.49605800  0.25000000  1
  Eu  Eu2  1  0.00000000  0.00000000  0.50000000  1
  Eu  Eu3  1  0.00000000  0.00000000  0.00000000  1
  S  S4  1  0.35828196  0.71656400  0.43576200  1
  S  S5  1  0.35828196  0.71656400  0.06423800  1
  S  S6  1  0.64171798  0.28343600  0.93576200  1
  S  S7  1  0.64171798  0.28343600  0.56423800  1
  S  S8  1  0.91246396  0.82492800  0.75000000  1
  S  S9  1  0.08753599  0.17507200  0.25000000  1
