# generated using pymatgen
data_CeGa2
_symmetry_space_group_name_H-M   'P 1'
_cell_length_a   4.45799208
_cell_length_b   5.64511156
_cell_length_c   5.64511156
_cell_angle_alpha   77.52278137
_cell_angle_beta   66.74311829
_cell_angle_gamma   66.74311829
_symmetry_Int_Tables_number   1
_chemical_formula_structural   CeGa2
_chemical_formula_sum   'Ce2 Ga4'
_cell_volume   119.61014324
_cell_formula_units_Z   2
loop_
 _symmetry_equiv_pos_site_id
 _symmetry_equiv_pos_as_xyz
  1  'x, y, z'
loop_
 _atom_site_type_symbol
 _atom_site_label
 _atom_site_symmetry_multiplicity
 _atom_site_fract_x
 _atom_site_fract_y
 _atom_site_fract_z
 _atom_site_occupancy
  Ce  Ce0  1  0.47208202  0.77791798  0.27791794  1
  Ce  Ce1  1  0.52791800  0.22208199  0.72208196  1
  Ga  Ga2  1  0.16592101  0.37477699  0.29338097  1
  Ga  Ga3  1  0.83407901  0.62522298  0.70661894  1
  Ga  Ga4  1  0.16592102  0.79338098  0.87477692  1
  Ga  Ga5  1  0.83407899  0.20661899  0.12522299  1
