# generated using pymatgen
data_Eu2TeO2
_symmetry_space_group_name_H-M   'P 1'
_cell_length_a   4.00054598
_cell_length_b   6.77587509
_cell_length_c   8.54556656
_cell_angle_alpha   77.98313141
_cell_angle_beta   76.46310425
_cell_angle_gamma   72.83016205
_symmetry_Int_Tables_number   1
_chemical_formula_structural   Eu2TeO2
_chemical_formula_sum   'Eu4 Te2 O4'
_cell_volume   212.74802585
_cell_formula_units_Z   2
loop_
 _symmetry_equiv_pos_site_id
 _symmetry_equiv_pos_as_xyz
  1  'x, y, z'
loop_
 _atom_site_type_symbol
 _atom_site_label
 _atom_site_symmetry_multiplicity
 _atom_site_fract_x
 _atom_site_fract_y
 _atom_site_fract_z
 _atom_site_occupancy
  Eu  Eu0  1  0.34086998  0.76594602  0.55231401  1
  Eu  Eu1  1  0.04344798  0.71627802  0.19682602  1
  Eu  Eu2  1  0.95655201  0.28372201  0.80317399  1
  Eu  Eu3  1  0.65913000  0.23405401  0.44768599  1
  Te  Te4  1  0.66823398  0.78789102  0.87564101  1
  Te  Te5  1  0.33176600  0.21210901  0.12435900  1
  O  O6  1  0.14704500  0.13048800  0.57542200  1
  O  O7  1  0.85295498  0.86951203  0.42457801  1
  O  O8  1  0.55071799  0.58627202  0.31229201  1
  O  O9  1  0.44928199  0.41372801  0.68770800  1
