# generated using pymatgen
data_Li3TiS3
_symmetry_space_group_name_H-M   'P 1'
_cell_length_a   6.04490948
_cell_length_b   6.76225615
_cell_length_c   6.76225615
_cell_angle_alpha   68.48048401
_cell_angle_beta   72.66410828
_cell_angle_gamma   107.33589172
_symmetry_Int_Tables_number   1
_chemical_formula_structural   Li3TiS3
_chemical_formula_sum   'Li6 Ti2 S6'
_cell_volume   218.13391807
_cell_formula_units_Z   2
loop_
 _symmetry_equiv_pos_site_id
 _symmetry_equiv_pos_as_xyz
  1  'x, y, z'
loop_
 _atom_site_type_symbol
 _atom_site_label
 _atom_site_symmetry_multiplicity
 _atom_site_fract_x
 _atom_site_fract_y
 _atom_site_fract_z
 _atom_site_occupancy
  Li  Li0  1  0.14219693  0.44218797  0.45790808  1
  Li  Li1  1  0.20000891  0.55781197  0.90009611  1
  Li  Li2  1  0.10010486  0.90009595  0.54209215  1
  Li  Li3  1  0.70000896  0.09990399  0.44218806  1
  Li  Li4  1  0.60010491  0.45790797  0.09990409  1
  Li  Li5  1  0.64219690  0.54209197  0.55781212  1
  Ti  Ti6  1  0.39789699  0.00000000  1.00000005  1
  Ti  Ti7  1  0.89789697  0.00000000  1.00000007  1
  S  S8  1  0.15150097  0.17937999  0.16874504  1
  S  S9  1  0.47212086  0.82061995  0.34812515  1
  S  S10  1  0.65150085  0.83125495  0.82062017  1
  S  S11  1  0.32024596  0.16874499  0.65187506  1
  S  S12  1  0.82024592  0.34812498  0.83125511  1
  S  S13  1  0.97212087  0.65187496  0.17938014  1
