# generated using pymatgen
data_Dy2Ge(IrRh4)3
_symmetry_space_group_name_H-M   'P 1'
_cell_length_a   4.07602882
_cell_length_b   9.10288239
_cell_length_c   9.10288239
_cell_angle_alpha   120.00000000
_cell_angle_beta   90.00000000
_cell_angle_gamma   90.00000000
_symmetry_Int_Tables_number   1
_chemical_formula_structural   Dy2Ge(IrRh4)3
_chemical_formula_sum   'Dy2 Ge1 Ir3 Rh12'
_cell_volume   292.49991285
_cell_formula_units_Z   1
loop_
 _symmetry_equiv_pos_site_id
 _symmetry_equiv_pos_as_xyz
  1  'x, y, z'
loop_
 _atom_site_type_symbol
 _atom_site_label
 _atom_site_symmetry_multiplicity
 _atom_site_fract_x
 _atom_site_fract_y
 _atom_site_fract_z
 _atom_site_occupancy
  Dy  Dy0  1  0.50000002  0.66666664  0.33333331  1
  Dy  Dy1  1  0.50000002  0.33333332  0.66666663  1
  Ge  Ge2  1  0.00000000  0.00000000  0.00000000  1
  Rh  Rh3  1  -0.00000000  0.49999998  0.49999997  1
  Rh  Rh4  1  1.00000004  0.00000000  0.49999998  1
  Rh  Rh5  1  -0.00000000  0.49999998  -0.00000000  1
  Rh  Rh6  1  0.50000002  0.69905597  0.69905596  1
  Rh  Rh7  1  0.50000002  0.30094399  0.30094398  1
  Rh  Rh8  1  0.50000002  0.00000000  0.30094399  1
  Rh  Rh9  1  0.50000002  0.00000000  0.69905597  1
  Rh  Rh10  1  0.50000002  0.30094399  -0.00000000  1
  Rh  Rh11  1  0.50000002  0.69905597  -0.00000000  1
  Ir  Ir12  1  -0.00000000  0.81967096  0.18032799  1
  Rh  Rh13  1  -0.00000000  0.18032899  0.81967196  1
  Ir  Ir14  1  -0.00000000  0.36065698  0.18032799  1
  Rh  Rh15  1  -0.00000000  0.63934297  0.81967196  1
  Ir  Ir16  1  -0.00000000  0.81967096  0.63934197  1
  Rh  Rh17  1  -0.00000000  0.18032899  0.36065798  1
