# generated using pymatgen
data_Li2MnCoGe2
_symmetry_space_group_name_H-M   'P 1'
_cell_length_a   3.96696568
_cell_length_b   3.96696568
_cell_length_c   6.80720997
_cell_angle_alpha   73.05942535
_cell_angle_beta   73.05942535
_cell_angle_gamma   60.00000381
_symmetry_Int_Tables_number   1
_chemical_formula_structural   Li2MnCoGe2
_chemical_formula_sum   'Li2 Mn1 Co1 Ge2'
_cell_volume   87.36325899
_cell_formula_units_Z   1
loop_
 _symmetry_equiv_pos_site_id
 _symmetry_equiv_pos_as_xyz
  1  'x, y, z'
loop_
 _atom_site_type_symbol
 _atom_site_label
 _atom_site_symmetry_multiplicity
 _atom_site_fract_x
 _atom_site_fract_y
 _atom_site_fract_z
 _atom_site_occupancy
  Li  Li0  1  0.00000000  0.00000000  0.00000000  1
  Li  Li1  1  0.50000002  0.50000001  0.49999996  1
  Mn  Mn2  1  0.63094702  0.63094702  0.10715896  1
  Co  Co3  1  0.11855800  0.11855800  0.64432598  1
  Ge  Ge4  1  0.88144203  0.88144202  0.35567394  1
  Ge  Ge5  1  0.36905301  0.36905301  0.89284095  1
