# generated using pymatgen
data_Li5MnO8
_symmetry_space_group_name_H-M   'P 1'
_cell_length_a   5.82149363
_cell_length_b   5.82149363
_cell_length_c   5.90283394
_cell_angle_alpha   60.45479202
_cell_angle_beta   60.45479202
_cell_angle_gamma   60.00000000
_symmetry_Int_Tables_number   1
_chemical_formula_structural   Li5MnO8
_chemical_formula_sum   'Li5 Mn1 O8'
_cell_volume   142.41832785
_cell_formula_units_Z   1
loop_
 _symmetry_equiv_pos_site_id
 _symmetry_equiv_pos_as_xyz
  1  'x, y, z'
loop_
 _atom_site_type_symbol
 _atom_site_label
 _atom_site_symmetry_multiplicity
 _atom_site_fract_x
 _atom_site_fract_y
 _atom_site_fract_z
 _atom_site_occupancy
  Li  Li0  1  0.88319303  0.88319305  0.35042096  1
  Li  Li1  1  0.50085202  0.50085203  0.49744398  1
  Li  Li2  1  0.50087602  0.50087603  0.00307098  1
  Li  Li3  1  0.50087601  0.99517706  0.00307097  1
  Li  Li4  1  0.99517704  0.50087603  0.00307097  1
  Mn  Mn5  1  0.11600800  0.11600801  0.65197600  1
  O  O6  1  0.73738103  0.73738104  0.78785697  1
  O  O7  1  0.29020700  0.74849304  0.21280698  1
  O  O8  1  0.74849303  0.29020702  0.21280698  1
  O  O9  1  0.74849303  0.74849304  0.21280697  1
  O  O10  1  0.25248501  0.25248501  0.78312400  1
  O  O11  1  0.25248500  0.71190604  0.78312399  1
  O  O12  1  0.71190603  0.25248501  0.78312398  1
  O  O13  1  0.26156801  0.26156802  0.21529599  1
