# generated using pymatgen
data_Tb4Si7GeIr3
_symmetry_space_group_name_H-M   'P 1'
_cell_length_a   4.38015938
_cell_length_b   4.38015938
_cell_length_c   18.03262329
_cell_angle_alpha   83.02415466
_cell_angle_beta   83.02415466
_cell_angle_gamma   60.00001144
_symmetry_Int_Tables_number   1
_chemical_formula_structural   Tb4Si7GeIr3
_chemical_formula_sum   'Tb4 Si7 Ge1 Ir3'
_cell_volume   296.65809813
_cell_formula_units_Z   1
loop_
 _symmetry_equiv_pos_site_id
 _symmetry_equiv_pos_as_xyz
  1  'x, y, z'
loop_
 _atom_site_type_symbol
 _atom_site_label
 _atom_site_symmetry_multiplicity
 _atom_site_fract_x
 _atom_site_fract_y
 _atom_site_fract_z
 _atom_site_occupancy
  Tb  Tb0  1  0.65028696  0.65028698  0.04913901  1
  Tb  Tb1  1  0.25016099  0.25016099  0.24951700  1
  Tb  Tb2  1  0.85005795  0.85005797  0.44982601  1
  Tb  Tb3  1  0.45009797  0.45009798  0.64970599  1
  Ge  Ge4  1  0.04969700  0.04969700  0.85090897  1
  Si  Si5  1  0.99959594  0.99959597  0.00121203  1
  Si  Si6  1  0.59990697  0.59990698  0.20027901  1
  Si  Si7  1  0.20003299  0.20003299  0.39990099  1
  Si  Si8  1  0.80005196  0.80005197  0.59984400  1
  Si  Si9  1  0.40048098  0.40048099  0.79855698  1
  Si  Si10  1  0.35011498  0.35011499  0.94965498  1
  Ir  Ir11  1  0.14996299  0.14996299  0.55011098  1
  Ir  Ir12  1  0.74978996  0.74978997  0.75062999  1
  Si  Si13  1  0.94985395  0.94985397  0.15043802  1
  Ir  Ir14  1  0.54990797  0.54990798  0.35027600  1
