# generated using pymatgen
data_Al4CuSe8
_symmetry_space_group_name_H-M   'P 1'
_cell_length_a   7.68162489
_cell_length_b   7.68162489
_cell_length_c   7.68162489
_cell_angle_alpha   60.00000000
_cell_angle_beta   60.00000000
_cell_angle_gamma   60.00000000
_symmetry_Int_Tables_number   1
_chemical_formula_structural   Al4CuSe8
_chemical_formula_sum   'Al4 Cu1 Se8'
_cell_volume   320.51199658
_cell_formula_units_Z   1
loop_
 _symmetry_equiv_pos_site_id
 _symmetry_equiv_pos_as_xyz
  1  'x, y, z'
loop_
 _atom_site_type_symbol
 _atom_site_label
 _atom_site_symmetry_multiplicity
 _atom_site_fract_x
 _atom_site_fract_y
 _atom_site_fract_z
 _atom_site_occupancy
  Al  Al0  1  0.11755500  0.11755400  0.64733699  1
  Al  Al1  1  0.11755500  0.11755400  0.11755400  1
  Al  Al2  1  0.11755500  0.64733699  0.11755400  1
  Al  Al3  1  0.64733799  0.11755400  0.11755400  1
  Cu  Cu4  1  0.50000000  0.50000000  0.50000000  1
  Se  Se5  1  0.36564000  0.36564100  0.90307799  1
  Se  Se6  1  0.36564000  0.36564100  0.36564100  1
  Se  Se7  1  0.36564000  0.90307799  0.36564100  1
  Se  Se8  1  0.90307699  0.36564100  0.36564100  1
  Se  Se9  1  0.87816899  0.87816799  0.36549500  1
  Se  Se10  1  0.87816899  0.87816799  0.87816799  1
  Se  Se11  1  0.87816899  0.36549500  0.87816799  1
  Se  Se12  1  0.36549600  0.87816799  0.87816799  1
