# generated using pymatgen
data_Na2Li2P3O10
_symmetry_space_group_name_H-M   'P 1'
_cell_length_a   5.48360682
_cell_length_b   6.64174175
_cell_length_c   7.67151594
_cell_angle_alpha   108.57517242
_cell_angle_beta   95.51966095
_cell_angle_gamma   104.95740509
_symmetry_Int_Tables_number   1
_chemical_formula_structural   Na2Li2P3O10
_chemical_formula_sum   'Na2 Li2 P3 O10'
_cell_volume   250.97113209
_cell_formula_units_Z   1
loop_
 _symmetry_equiv_pos_site_id
 _symmetry_equiv_pos_as_xyz
  1  'x, y, z'
loop_
 _atom_site_type_symbol
 _atom_site_label
 _atom_site_symmetry_multiplicity
 _atom_site_fract_x
 _atom_site_fract_y
 _atom_site_fract_z
 _atom_site_occupancy
  Na  Na0  1  0.28519704  0.68325400  0.27334400  1
  Na  Na1  1  0.71480304  0.31674600  0.72665597  1
  Li  Li2  1  0.00000000  0.00000000  0.00000000  1
  Li  Li3  1  0.88598603  0.01633400  0.28555296  1
  P  P4  1  0.11401405  0.98366600  0.71444702  1
  P  P5  1  0.35675605  0.71306600  0.77418000  1
  P  P6  1  0.64324403  0.28693400  0.22581998  1
  O  O7  1  0.37642506  0.89203900  0.66195600  1
  O  O8  1  0.62357502  0.10796100  0.33804397  1
  O  O9  1  0.26199503  0.45001700  0.63355399  1
  O  O10  1  0.73800505  0.54998300  0.36644598  1
  O  O11  1  0.62583606  0.76431600  0.92927098  1
  O  O12  1  0.37416402  0.23568400  0.07072899  1
  O  O13  1  0.12690404  0.74020100  0.91393301  1
  O  O14  1  0.87309604  0.25979900  0.08606697  1
  O  O15  1  0.02444505  0.96818900  0.22431802  1
  O  O16  1  0.97555503  0.03181100  0.77568195  1
