# generated using pymatgen
data_LaTiS3
_symmetry_space_group_name_H-M   'P 1'
_cell_length_a   3.96878695
_cell_length_b   8.14227581
_cell_length_c   13.73027229
_cell_angle_alpha   90.00000000
_cell_angle_beta   90.00000000
_cell_angle_gamma   90.00000000
_symmetry_Int_Tables_number   1
_chemical_formula_structural   LaTiS3
_chemical_formula_sum   'La4 Ti4 S12'
_cell_volume   443.69317274
_cell_formula_units_Z   4
loop_
 _symmetry_equiv_pos_site_id
 _symmetry_equiv_pos_as_xyz
  1  'x, y, z'
loop_
 _atom_site_type_symbol
 _atom_site_label
 _atom_site_symmetry_multiplicity
 _atom_site_fract_x
 _atom_site_fract_y
 _atom_site_fract_z
 _atom_site_occupancy
  La  La0  1  0.25000000  0.09661400  0.17106200  1
  La  La1  1  0.75000001  0.40338601  0.67106199  1
  La  La2  1  0.25000000  0.59661401  0.32893799  1
  La  La3  1  0.75000001  0.90338602  0.82893798  1
  Ti  Ti4  1  0.75000001  0.66128502  0.05128100  1
  Ti  Ti5  1  0.25000000  0.33871501  0.94871898  1
  Ti  Ti6  1  0.75000001  0.16128500  0.44871899  1
  Ti  Ti7  1  0.25000000  0.83871502  0.55128099  1
  S  S8  1  0.25000000  0.48647301  0.10902100  1
  S  S9  1  0.25000000  0.84350902  0.99616498  1
  S  S10  1  0.75000001  0.51352701  0.89097898  1
  S  S11  1  0.25000000  0.34350901  0.50383499  1
  S  S12  1  0.75000001  0.15649100  0.00383500  1
  S  S13  1  0.75000001  0.81063102  0.21208900  1
  S  S14  1  0.25000000  0.68936902  0.71208898  1
  S  S15  1  0.75000001  0.31063101  0.28791099  1
  S  S16  1  0.25000000  0.18936900  0.78791098  1
  S  S17  1  0.75000001  0.65649102  0.49616499  1
  S  S18  1  0.25000000  0.98647302  0.39097899  1
  S  S19  1  0.75000001  0.01352700  0.60902099  1
