# generated using pymatgen
data_Fe
_symmetry_space_group_name_H-M   'P 1'
_cell_length_a   3.08531499
_cell_length_b   3.18655205
_cell_length_c   4.50441837
_cell_angle_alpha   110.71465302
_cell_angle_beta   90.00000000
_cell_angle_gamma   90.00000000
_symmetry_Int_Tables_number   1
_chemical_formula_structural   Fe
_chemical_formula_sum   Fe4
_cell_volume   41.42238201
_cell_formula_units_Z   4
loop_
 _symmetry_equiv_pos_site_id
 _symmetry_equiv_pos_as_xyz
  1  'x, y, z'
loop_
 _atom_site_type_symbol
 _atom_site_label
 _atom_site_symmetry_multiplicity
 _atom_site_fract_x
 _atom_site_fract_y
 _atom_site_fract_z
 _atom_site_occupancy
  Fe  Fe0  1  0.50000000  0.85383900  0.70767802  1
  Fe  Fe1  1  0.50000000  0.56030600  0.12061201  1
  Fe  Fe2  1  0.00000000  0.43946200  0.87892401  1
  Fe  Fe3  1  0.00000000  0.14639300  0.29278600  1
