# generated using pymatgen
data_Sr4Co2CuO10
_symmetry_space_group_name_H-M   'P 1'
_cell_length_a   3.87229991
_cell_length_b   3.87229991
_cell_length_c   14.45735455
_cell_angle_alpha   97.69625854
_cell_angle_beta   97.69625854
_cell_angle_gamma   90.00000000
_symmetry_Int_Tables_number   1
_chemical_formula_structural   Sr4Co2CuO10
_chemical_formula_sum   'Sr4 Co2 Cu1 O10'
_cell_volume   212.86027533
_cell_formula_units_Z   1
loop_
 _symmetry_equiv_pos_site_id
 _symmetry_equiv_pos_as_xyz
  1  'x, y, z'
loop_
 _atom_site_type_symbol
 _atom_site_label
 _atom_site_symmetry_multiplicity
 _atom_site_fract_x
 _atom_site_fract_y
 _atom_site_fract_z
 _atom_site_occupancy
  Sr  Sr0  1  0.29745901  0.29745901  0.59491802  1
  Sr  Sr1  1  0.70254102  0.70254102  0.40508202  1
  Sr  Sr2  1  0.43271601  0.43271601  0.86543202  1
  Sr  Sr3  1  0.56728402  0.56728401  0.13456801  1
  Co  Co4  1  0.13929500  0.13929500  0.27859001  1
  Co  Co5  1  0.86070503  0.86070502  0.72141003  1
  Cu  Cu6  1  0.00000000  0.00000000  0.00000000  1
  O  O7  1  0.20865301  0.20865301  0.41730601  1
  O  O8  1  0.79134702  0.79134702  0.58269402  1
  O  O9  1  0.63617402  0.13617400  0.27234801  1
  O  O10  1  0.36382601  0.86382602  0.72765202  1
  O  O11  1  0.13617401  0.63617402  0.27234801  1
  O  O12  1  0.86382602  0.36382601  0.72765202  1
  O  O13  1  0.06606500  0.06606500  0.13213000  1
  O  O14  1  0.93393503  0.93393502  0.86787003  1
  O  O15  1  0.50000001  0.00000000  0.00000000  1
  O  O16  1  0.00000000  0.50000001  0.00000000  1
