# generated using pymatgen
data_In3CuS4
_symmetry_space_group_name_H-M   'P 1'
_cell_length_a   5.70906210
_cell_length_b   5.70906210
_cell_length_c   6.99467182
_cell_angle_alpha   114.08558655
_cell_angle_beta   114.08558655
_cell_angle_gamma   90.00000000
_symmetry_Int_Tables_number   1
_chemical_formula_structural   In3CuS4
_chemical_formula_sum   'In3 Cu1 S4'
_cell_volume   186.17855806
_cell_formula_units_Z   1
loop_
 _symmetry_equiv_pos_site_id
 _symmetry_equiv_pos_as_xyz
  1  'x, y, z'
loop_
 _atom_site_type_symbol
 _atom_site_label
 _atom_site_symmetry_multiplicity
 _atom_site_fract_x
 _atom_site_fract_y
 _atom_site_fract_z
 _atom_site_occupancy
  Cu  Cu0  1  0.50000002  0.50000000  0.00000004  1
  In  In1  1  0.00000000  0.00000000  0.00000000  1
  In  In2  1  0.75000001  0.25000000  0.50000002  1
  In  In3  1  0.25000003  0.75000000  0.50000003  1
  S  S4  1  0.11916602  0.61390200  0.76831902  1
  S  S5  1  0.84558303  0.88083400  0.23168106  1
  S  S6  1  0.64915300  0.15441700  0.76831901  1
  S  S7  1  0.38609801  0.35084700  0.23168102  1
