# generated using pymatgen
data_Ho4Co13Sn3
_symmetry_space_group_name_H-M   'P 1'
_cell_length_a   6.06088400
_cell_length_b   6.06088400
_cell_length_c   12.47828484
_cell_angle_alpha   75.94477081
_cell_angle_beta   75.94477081
_cell_angle_gamma   60.00000000
_symmetry_Int_Tables_number   1
_chemical_formula_structural   Ho4Co13Sn3
_chemical_formula_sum   'Ho4 Co13 Sn3'
_cell_volume   381.04150609
_cell_formula_units_Z   1
loop_
 _symmetry_equiv_pos_site_id
 _symmetry_equiv_pos_as_xyz
  1  'x, y, z'
loop_
 _atom_site_type_symbol
 _atom_site_label
 _atom_site_symmetry_multiplicity
 _atom_site_fract_x
 _atom_site_fract_y
 _atom_site_fract_z
 _atom_site_occupancy
  Ho  Ho0  1  0.00000000  0.00000000  0.00000000  1
  Ho  Ho1  1  0.13124300  0.13124300  0.60627099  1
  Ho  Ho2  1  0.86875700  0.86875700  0.39372902  1
  Ho  Ho3  1  0.39998400  0.39998400  0.80004800  1
  Co  Co4  1  0.60001600  0.60001600  0.19995202  1
  Co  Co5  1  0.63503800  0.13090200  0.59902200  1
  Co  Co6  1  0.63503800  0.63503800  0.59902201  1
  Co  Co7  1  0.13090200  0.63503800  0.59902200  1
  Co  Co8  1  0.86909800  0.36496200  0.40097801  1
  Sn  Sn9  1  0.36496200  0.36496200  0.40097800  1
  Co  Co10  1  0.36496200  0.86909800  0.40097801  1
  Co  Co11  1  0.88323900  0.43236900  0.80115301  1
  Co  Co12  1  0.88323900  0.88323900  0.80115301  1
  Co  Co13  1  0.43236900  0.88323900  0.80115301  1
  Co  Co14  1  0.56763100  0.11676100  0.19884701  1
  Co  Co15  1  0.11676100  0.11676100  0.19884700  1
  Co  Co16  1  0.11676100  0.56763100  0.19884701  1
  Co  Co17  1  0.50000000  0.50000000  0.00000002  1
  Sn  Sn18  1  -0.00000000  0.50000000  0.00000001  1
  Sn  Sn19  1  0.50000000  0.00000000  0.00000001  1
