# generated using pymatgen
data_NbS
_symmetry_space_group_name_H-M   'P 1'
_cell_length_a   3.35742998
_cell_length_b   3.35743022
_cell_length_c   17.58302879
_cell_angle_alpha   90.00000000
_cell_angle_beta   90.00000000
_cell_angle_gamma   120.00000000
_symmetry_Int_Tables_number   1
_chemical_formula_structural   NbS
_chemical_formula_sum   'Nb4 S4'
_cell_volume   171.64781459
_cell_formula_units_Z   4
loop_
 _symmetry_equiv_pos_site_id
 _symmetry_equiv_pos_as_xyz
  1  'x, y, z'
loop_
 _atom_site_type_symbol
 _atom_site_label
 _atom_site_symmetry_multiplicity
 _atom_site_fract_x
 _atom_site_fract_y
 _atom_site_fract_z
 _atom_site_occupancy
  Nb  Nb0  1  0.33333337  0.66666670  0.25000000  1
  Nb  Nb1  1  0.66666669  0.33333335  0.75000001  1
  Nb  Nb2  1  0.00000000  0.00000000  0.00000000  1
  Nb  Nb3  1  0.00000000  0.00000000  0.50000001  1
  S  S4  1  0.00000000  0.00000000  0.66107401  1
  S  S5  1  0.00000000  0.00000000  0.16107400  1
  S  S6  1  0.00000000  0.00000000  0.83892601  1
  S  S7  1  0.00000000  0.00000000  0.33892600  1
