# generated using pymatgen
data_Ba2CuS4
_symmetry_space_group_name_H-M   'P 1'
_cell_length_a   7.07032919
_cell_length_b   7.12572813
_cell_length_c   9.30405140
_cell_angle_alpha   90.00000000
_cell_angle_beta   71.59136963
_cell_angle_gamma   90.00000000
_symmetry_Int_Tables_number   1
_chemical_formula_structural   Ba2CuS4
_chemical_formula_sum   'Ba4 Cu2 S8'
_cell_volume   444.76303470
_cell_formula_units_Z   2
loop_
 _symmetry_equiv_pos_site_id
 _symmetry_equiv_pos_as_xyz
  1  'x, y, z'
loop_
 _atom_site_type_symbol
 _atom_site_label
 _atom_site_symmetry_multiplicity
 _atom_site_fract_x
 _atom_site_fract_y
 _atom_site_fract_z
 _atom_site_occupancy
  Ba  Ba0  1  0.28156599  0.25000000  0.92710704  1
  Ba  Ba1  1  0.71843397  0.74999999  0.07289302  1
  Ba  Ba2  1  0.21533699  0.25000000  0.45561802  1
  Ba  Ba3  1  0.78466297  0.74999999  0.54438204  1
  Cu  Cu4  1  0.79487297  0.25000000  0.28886903  1
  Cu  Cu5  1  0.20512699  0.74999999  0.71113103  1
  S  S6  1  0.00284800  0.99638098  0.22840501  1
  S  S7  1  0.99715196  0.49638099  0.77159505  1
  S  S8  1  0.35749699  0.74999999  0.45352803  1
  S  S9  1  0.64250298  0.25000000  0.54647204  1
  S  S10  1  0.41070399  0.74999999  0.85978304  1
  S  S11  1  0.58929598  0.25000000  0.14021702  1
  S  S12  1  0.00284800  0.50361899  0.22840501  1
  S  S13  1  0.99715196  0.00361900  0.77159505  1
