# generated using pymatgen
data_BaSrCaTi2CuO8
_symmetry_space_group_name_H-M   'P 1'
_cell_length_a   3.99960089
_cell_length_b   3.99960089
_cell_length_c   12.23232555
_cell_angle_alpha   90.00000000
_cell_angle_beta   90.00000000
_cell_angle_gamma   90.00000000
_symmetry_Int_Tables_number   1
_chemical_formula_structural   BaSrCaTi2CuO8
_chemical_formula_sum   'Ba1 Sr1 Ca1 Ti2 Cu1 O8'
_cell_volume   195.67815420
_cell_formula_units_Z   1
loop_
 _symmetry_equiv_pos_site_id
 _symmetry_equiv_pos_as_xyz
  1  'x, y, z'
loop_
 _atom_site_type_symbol
 _atom_site_label
 _atom_site_symmetry_multiplicity
 _atom_site_fract_x
 _atom_site_fract_y
 _atom_site_fract_z
 _atom_site_occupancy
  Ba  Ba0  1  0.00000000  0.00000000  0.19480801  1
  Sr  Sr1  1  0.00000000  0.00000000  0.80519203  1
  Ca  Ca2  1  0.00000000  0.00000000  0.50000002  1
  Ti  Ti3  1  0.50000001  0.50000001  0.00000000  1
  Ti  Ti4  1  0.50000001  0.50000001  0.64063702  1
  Cu  Cu5  1  0.50000001  0.50000001  0.35936301  1
  O  O6  1  0.50000001  0.50000001  0.16208501  1
  O  O7  1  0.00000000  0.50000001  0.62802302  1
  O  O8  1  0.50000001  0.00000000  0.62802302  1
  O  O9  1  0.50000001  0.00000000  0.37197701  1
  O  O10  1  0.00000000  0.50000001  0.37197701  1
  O  O11  1  0.00000000  0.50000001  0.00000000  1
  O  O12  1  0.50000001  0.50000001  0.83791503  1
  O  O13  1  0.50000001  0.00000000  0.00000000  1
