# generated using pymatgen
data_Eu5CdPd4
_symmetry_space_group_name_H-M   'P 1'
_cell_length_a   7.60761976
_cell_length_b   8.28120804
_cell_length_c   8.28120804
_cell_angle_alpha   90.00000000
_cell_angle_beta   90.00000000
_cell_angle_gamma   90.00000000
_symmetry_Int_Tables_number   1
_chemical_formula_structural   Eu5CdPd4
_chemical_formula_sum   'Eu10 Cd2 Pd8'
_cell_volume   521.71844113
_cell_formula_units_Z   2
loop_
 _symmetry_equiv_pos_site_id
 _symmetry_equiv_pos_as_xyz
  1  'x, y, z'
loop_
 _atom_site_type_symbol
 _atom_site_label
 _atom_site_symmetry_multiplicity
 _atom_site_fract_x
 _atom_site_fract_y
 _atom_site_fract_z
 _atom_site_occupancy
  Eu  Eu0  1  0.00000000  0.70203200  0.70203200  1
  Eu  Eu1  1  0.00000000  0.29796800  0.29796800  1
  Eu  Eu2  1  0.50000002  0.79796800  0.20203200  1
  Eu  Eu3  1  0.50000002  0.20203200  0.79796800  1
  Eu  Eu4  1  0.25000001  0.00000000  0.50000000  1
  Eu  Eu5  1  0.25000001  0.50000000  0.00000000  1
  Eu  Eu6  1  0.75000002  0.50000000  0.00000000  1
  Eu  Eu7  1  0.75000002  0.00000000  0.50000000  1
  Eu  Eu8  1  0.50000002  0.64989500  0.64989500  1
  Cd  Cd9  1  0.50000002  0.35010500  0.35010500  1
  Eu  Eu10  1  0.00000000  0.85010500  0.14989500  1
  Cd  Cd11  1  0.00000000  0.14989500  0.85010500  1
  Pd  Pd12  1  0.30638601  0.88114800  0.88114800  1
  Pd  Pd13  1  0.30638601  0.11885200  0.11885200  1
  Pd  Pd14  1  0.19361401  0.61885200  0.38114800  1
  Pd  Pd15  1  0.19361401  0.38114800  0.61885200  1
  Pd  Pd16  1  0.69361402  0.11885200  0.11885200  1
  Pd  Pd17  1  0.69361402  0.88114800  0.88114800  1
  Pd  Pd18  1  0.80638603  0.61885200  0.38114800  1
  Pd  Pd19  1  0.80638603  0.38114800  0.61885200  1
