# generated using pymatgen
data_Tm4Ga12Pd
_symmetry_space_group_name_H-M   'P 1'
_cell_length_a   7.50416565
_cell_length_b   7.50416565
_cell_length_c   7.50416565
_cell_angle_alpha   109.47122192
_cell_angle_beta   109.47122192
_cell_angle_gamma   109.47122192
_symmetry_Int_Tables_number   1
_chemical_formula_structural   Tm4Ga12Pd
_chemical_formula_sum   'Tm4 Ga12 Pd1'
_cell_volume   325.30094523
_cell_formula_units_Z   1
loop_
 _symmetry_equiv_pos_site_id
 _symmetry_equiv_pos_as_xyz
  1  'x, y, z'
loop_
 _atom_site_type_symbol
 _atom_site_label
 _atom_site_symmetry_multiplicity
 _atom_site_fract_x
 _atom_site_fract_y
 _atom_site_fract_z
 _atom_site_occupancy
  Tm  Tm0  1  0.50000003  0.50000001  0.50000003  1
  Tm  Tm1  1  0.00000000  0.00000000  0.49999999  1
  Tm  Tm2  1  0.00000003  0.50000001  0.00000003  1
  Tm  Tm3  1  0.50000006  1.00000003  1.00000005  1
  Ga  Ga4  1  0.70293206  1.00000003  0.70293206  1
  Ga  Ga5  1  0.29706802  0.29706801  0.00000002  1
  Ga  Ga6  1  0.70293204  0.70293202  1.00000004  1
  Ga  Ga7  1  0.00000004  0.70293202  0.70293203  1
  Ga  Ga8  1  0.00000002  0.29706801  0.29706801  1
  Ga  Ga9  1  0.29706806  1.00000003  0.29706806  1
  Ga  Ga10  1  0.50000001  0.25000001  0.75000002  1
  Ga  Ga11  1  0.50000005  0.75000002  0.25000005  1
  Ga  Ga12  1  0.75000001  0.25000001  0.50000003  1
  Ga  Ga13  1  0.25000005  0.75000002  0.50000004  1
  Ga  Ga14  1  0.75000003  0.50000001  0.25000004  1
  Ga  Ga15  1  0.25000003  0.50000001  0.75000002  1
  Pd  Pd16  1  0.00000000  0.00000000  0.00000000  1
