# generated using pymatgen
data_La2Co2B2O5
_symmetry_space_group_name_H-M   'P 1'
_cell_length_a   3.45069695
_cell_length_b   3.54537225
_cell_length_c   11.77295017
_cell_angle_alpha   92.83417511
_cell_angle_beta   96.17323303
_cell_angle_gamma   90.19396210
_symmetry_Int_Tables_number   1
_chemical_formula_structural   La2Co2B2O5
_chemical_formula_sum   'La2 Co2 B2 O5'
_cell_volume   143.01450059
_cell_formula_units_Z   1
loop_
 _symmetry_equiv_pos_site_id
 _symmetry_equiv_pos_as_xyz
  1  'x, y, z'
loop_
 _atom_site_type_symbol
 _atom_site_label
 _atom_site_symmetry_multiplicity
 _atom_site_fract_x
 _atom_site_fract_y
 _atom_site_fract_z
 _atom_site_occupancy
  La  La0  1  0.80657301  0.02396300  0.65067402  1
  La  La1  1  0.19342701  0.97603702  0.34932601  1
  Co  Co2  1  0.38734501  0.55496401  0.86003403  1
  Co  Co3  1  0.61265502  0.44503601  0.13996600  1
  B  B4  1  0.00000000  0.00000000  0.00000000  1
  B  B5  1  0.26752601  0.50621001  0.54051902  1
  O  O6  1  0.73247402  0.49379001  0.45948101  1
  O  O7  1  0.88880002  0.06465100  0.87876503  1
  O  O8  1  0.11120001  0.93534902  0.12123500  1
  O  O9  1  0.31350701  0.52738401  0.66870202  1
  O  O10  1  0.68649302  0.47261601  0.33129801  1
