# generated using pymatgen
data_YbZnP
_symmetry_space_group_name_H-M   'P 1'
_cell_length_a   4.12520599
_cell_length_b   7.08432579
_cell_length_c   8.17085361
_cell_angle_alpha   90.00000000
_cell_angle_beta   90.00000000
_cell_angle_gamma   90.00000000
_symmetry_Int_Tables_number   1
_chemical_formula_structural   YbZnP
_chemical_formula_sum   'Yb4 Zn4 P4'
_cell_volume   238.78750354
_cell_formula_units_Z   4
loop_
 _symmetry_equiv_pos_site_id
 _symmetry_equiv_pos_as_xyz
  1  'x, y, z'
loop_
 _atom_site_type_symbol
 _atom_site_label
 _atom_site_symmetry_multiplicity
 _atom_site_fract_x
 _atom_site_fract_y
 _atom_site_fract_z
 _atom_site_occupancy
  Yb  Yb0  1  0.25000000  0.04652700  0.31048201  1
  Yb  Yb1  1  0.25000000  0.54652702  0.18951801  1
  Yb  Yb2  1  0.75000000  0.95347303  0.68951803  1
  Yb  Yb3  1  0.75000000  0.45347301  0.81048204  1
  Zn  Zn4  1  0.25000000  0.63444902  0.56468403  1
  Zn  Zn5  1  0.25000000  0.13444900  0.93531604  1
  Zn  Zn6  1  0.75000000  0.36555101  0.43531602  1
  Zn  Zn7  1  0.75000000  0.86555103  0.06468400  1
  P  P8  1  0.25000000  0.25077501  0.61980003  1
  P  P9  1  0.25000000  0.75077502  0.88020004  1
  P  P10  1  0.75000000  0.74922502  0.38020002  1
  P  P11  1  0.75000000  0.24922501  0.11980001  1
