# generated using pymatgen
data_Ni
_symmetry_space_group_name_H-M   'P 1'
_cell_length_a   4.61511087
_cell_length_b   4.61511087
_cell_length_c   6.37443018
_cell_angle_alpha   90.00000000
_cell_angle_beta   90.00000000
_cell_angle_gamma   107.99141693
_symmetry_Int_Tables_number   1
_chemical_formula_structural   Ni
_chemical_formula_sum   Ni8
_cell_volume   129.13177051
_cell_formula_units_Z   8
loop_
 _symmetry_equiv_pos_site_id
 _symmetry_equiv_pos_as_xyz
  1  'x, y, z'
loop_
 _atom_site_type_symbol
 _atom_site_label
 _atom_site_symmetry_multiplicity
 _atom_site_fract_x
 _atom_site_fract_y
 _atom_site_fract_z
 _atom_site_occupancy
  Ni  Ni0  1  0.65119003  0.04254400  0.24999999  1
  Ni  Ni1  1  0.04254405  0.65119004  0.24999999  1
  Ni  Ni2  1  0.50000006  0.50000003  -0.00000000  1
  Ni  Ni3  1  0.50000006  0.50000003  0.49999999  1
  Ni  Ni4  1  0.95745607  0.34881002  0.74999998  1
  Ni  Ni5  1  0.34881008  0.95745606  0.74999998  1
  Ni  Ni6  1  0.81086209  0.81086205  0.74999998  1
  Ni  Ni7  1  0.18913802  0.18913801  0.24999999  1
