# generated using pymatgen
data_Al3Cu5
_symmetry_space_group_name_H-M   'P 1'
_cell_length_a   4.30773783
_cell_length_b   4.43013191
_cell_length_c   5.42695284
_cell_angle_alpha   90.00000000
_cell_angle_beta   90.00000000
_cell_angle_gamma   90.00000000
_symmetry_Int_Tables_number   1
_chemical_formula_structural   Al3Cu5
_chemical_formula_sum   'Al3 Cu5'
_cell_volume   103.56713667
_cell_formula_units_Z   1
loop_
 _symmetry_equiv_pos_site_id
 _symmetry_equiv_pos_as_xyz
  1  'x, y, z'
loop_
 _atom_site_type_symbol
 _atom_site_label
 _atom_site_symmetry_multiplicity
 _atom_site_fract_x
 _atom_site_fract_y
 _atom_site_fract_z
 _atom_site_occupancy
  Al  Al0  1  0.50000002  0.66068801  0.50000001  1
  Al  Al1  1  0.00000000  0.33931201  0.00000000  1
  Cu  Cu2  1  0.00000000  0.83247602  0.74690602  1
  Al  Al3  1  0.50000002  0.16752400  0.75309402  1
  Cu  Cu4  1  0.50000002  0.68067901  0.00000000  1
  Cu  Cu5  1  0.00000000  0.31932101  0.50000001  1
  Cu  Cu6  1  0.50000002  0.16752400  0.24690601  1
  Cu  Cu7  1  0.00000000  0.83247602  0.25309401  1
