# generated using pymatgen
data_Eu(BC)2
_symmetry_space_group_name_H-M   'P 1'
_cell_length_a   3.76713610
_cell_length_b   3.76713610
_cell_length_c   10.31581593
_cell_angle_alpha   100.52067566
_cell_angle_beta   100.52067566
_cell_angle_gamma   90.00000000
_symmetry_Int_Tables_number   1
_chemical_formula_structural   Eu(BC)2
_chemical_formula_sum   'Eu2 B4 C4'
_cell_volume   141.43010055
_cell_formula_units_Z   2
loop_
 _symmetry_equiv_pos_site_id
 _symmetry_equiv_pos_as_xyz
  1  'x, y, z'
loop_
 _atom_site_type_symbol
 _atom_site_label
 _atom_site_symmetry_multiplicity
 _atom_site_fract_x
 _atom_site_fract_y
 _atom_site_fract_z
 _atom_site_occupancy
  Eu  Eu0  1  0.63036699  0.63036699  0.26073401  1
  Eu  Eu1  1  0.36963299  0.36963299  0.73926600  1
  B  B2  1  0.00000000  0.00000000  0.00000000  1
  B  B3  1  0.74999999  0.24999999  0.50000000  1
  B  B4  1  0.25000000  0.74999998  0.50000000  1
  B  B5  1  0.80012299  0.80012298  0.60024600  1
  C  C6  1  0.19987700  0.19987700  0.39975400  1
  C  C7  1  0.87272599  0.87272598  0.74545200  1
  C  C8  1  0.49999999  0.49999999  0.00000001  1
  C  C9  1  0.12727400  0.12727400  0.25454800  1
