# generated using pymatgen
data_Eu(CuGe)2
_symmetry_space_group_name_H-M   'P 1'
_cell_length_a   4.07403612
_cell_length_b   4.07403612
_cell_length_c   7.19758224
_cell_angle_alpha   106.44018555
_cell_angle_beta   106.44018555
_cell_angle_gamma   90.00000000
_symmetry_Int_Tables_number   1
_chemical_formula_structural   Eu(CuGe)2
_chemical_formula_sum   'Eu1 Cu2 Ge2'
_cell_volume   109.47774607
_cell_formula_units_Z   1
loop_
 _symmetry_equiv_pos_site_id
 _symmetry_equiv_pos_as_xyz
  1  'x, y, z'
loop_
 _atom_site_type_symbol
 _atom_site_label
 _atom_site_symmetry_multiplicity
 _atom_site_fract_x
 _atom_site_fract_y
 _atom_site_fract_z
 _atom_site_occupancy
  Eu  Eu0  1  0.00000000  0.00000000  0.00000000  1
  Cu  Cu1  1  0.74999999  0.24999999  0.50000001  1
  Cu  Cu2  1  0.25000000  0.74999998  0.50000001  1
  Ge  Ge3  1  0.63713499  0.63713499  0.27427002  1
  Ge  Ge4  1  0.36286500  0.36286499  0.72573001  1
