# generated using pymatgen
data_LiTmCoO4
_symmetry_space_group_name_H-M   'P 1'
_cell_length_a   3.36425996
_cell_length_b   3.36426044
_cell_length_c   16.78558922
_cell_angle_alpha   90.00000000
_cell_angle_beta   90.00000000
_cell_angle_gamma   120.00000000
_symmetry_Int_Tables_number   1
_chemical_formula_structural   LiTmCoO4
_chemical_formula_sum   'Li2 Tm2 Co2 O8'
_cell_volume   164.53048472
_cell_formula_units_Z   2
loop_
 _symmetry_equiv_pos_site_id
 _symmetry_equiv_pos_as_xyz
  1  'x, y, z'
loop_
 _atom_site_type_symbol
 _atom_site_label
 _atom_site_symmetry_multiplicity
 _atom_site_fract_x
 _atom_site_fract_y
 _atom_site_fract_z
 _atom_site_occupancy
  Tm  Tm0  1  0.00000000  0.00000000  0.99886099  1
  Tm  Tm1  1  0.00000000  0.00000000  0.49886099  1
  Li  Li2  1  0.66666670  0.33333333  0.62821399  1
  Li  Li3  1  0.33333338  0.66666667  0.37002100  1
  Co  Co4  1  0.33333338  0.66666667  0.12821400  1
  Co  Co5  1  0.66666670  0.33333333  0.24331900  1
  O  O6  1  0.66666670  0.33333333  0.87002099  1
  O  O7  1  0.33333338  0.66666667  0.74331899  1
  O  O8  1  0.66666670  0.33333333  0.74989099  1
  O  O9  1  0.33333338  0.66666667  0.24989100  1
  O  O10  1  0.33333338  0.66666667  0.58955999  1
  O  O11  1  0.66666670  0.33333333  0.08956000  1
  O  O12  1  0.33333338  0.66666667  0.91613399  1
  O  O13  1  0.66666670  0.33333333  0.41613399  1
