# generated using pymatgen
data_CaH
_symmetry_space_group_name_H-M   'P 1'
_cell_length_a   3.73885202
_cell_length_b   5.79659510
_cell_length_c   6.73969078
_cell_angle_alpha   90.00000000
_cell_angle_beta   90.00000000
_cell_angle_gamma   90.00000000
_symmetry_Int_Tables_number   1
_chemical_formula_structural   CaH
_chemical_formula_sum   'Ca4 H4'
_cell_volume   146.06669864
_cell_formula_units_Z   4
loop_
 _symmetry_equiv_pos_site_id
 _symmetry_equiv_pos_as_xyz
  1  'x, y, z'
loop_
 _atom_site_type_symbol
 _atom_site_label
 _atom_site_symmetry_multiplicity
 _atom_site_fract_x
 _atom_site_fract_y
 _atom_site_fract_z
 _atom_site_occupancy
  Ca  Ca0  1  0.74292200  0.74999999  0.61526102  1
  Ca  Ca1  1  0.24292200  0.25000000  0.88473903  1
  Ca  Ca2  1  0.25707800  0.25000000  0.38473901  1
  Ca  Ca3  1  0.75707800  0.74999999  0.11526100  1
  H  H4  1  0.06904500  0.74999999  0.86223303  1
  H  H5  1  0.56904500  0.25000000  0.63776702  1
  H  H6  1  0.93095499  0.25000000  0.13776700  1
  H  H7  1  0.43095500  0.74999999  0.36223301  1
