# generated using pymatgen
data_LuCu2
_symmetry_space_group_name_H-M   'P 1'
_cell_length_a   3.96769905
_cell_length_b   4.10371590
_cell_length_c   4.10371637
_cell_angle_alpha   60.00000381
_cell_angle_beta   90.00000000
_cell_angle_gamma   90.00000000
_symmetry_Int_Tables_number   1
_chemical_formula_structural   LuCu2
_chemical_formula_sum   'Lu1 Cu2'
_cell_volume   57.86607101
_cell_formula_units_Z   1
loop_
 _symmetry_equiv_pos_site_id
 _symmetry_equiv_pos_as_xyz
  1  'x, y, z'
loop_
 _atom_site_type_symbol
 _atom_site_label
 _atom_site_symmetry_multiplicity
 _atom_site_fract_x
 _atom_site_fract_y
 _atom_site_fract_z
 _atom_site_occupancy
  Lu  Lu0  1  0.99999999  0.66666669  0.66666669  1
  Cu  Cu1  1  0.49999999  0.33333335  0.33333334  1
  Cu  Cu2  1  0.49999999  0.00000000  0.00000000  1
