# generated using pymatgen
data_Tm2HCO4
_symmetry_space_group_name_H-M   'P 1'
_cell_length_a   3.69371510
_cell_length_b   4.36646891
_cell_length_c   6.05222511
_cell_angle_alpha   109.25054932
_cell_angle_beta   90.00000000
_cell_angle_gamma   90.00000000
_symmetry_Int_Tables_number   1
_chemical_formula_structural   Tm2HCO4
_chemical_formula_sum   'Tm2 H1 C1 O4'
_cell_volume   92.15530319
_cell_formula_units_Z   1
loop_
 _symmetry_equiv_pos_site_id
 _symmetry_equiv_pos_as_xyz
  1  'x, y, z'
loop_
 _atom_site_type_symbol
 _atom_site_label
 _atom_site_symmetry_multiplicity
 _atom_site_fract_x
 _atom_site_fract_y
 _atom_site_fract_z
 _atom_site_occupancy
  Tm  Tm0  1  0.24999999  0.16568500  0.81153899  1
  Tm  Tm1  1  0.74999998  0.83431501  0.18846097  1
  C  C2  1  0.24999999  0.52253700  0.41746998  1
  H  H3  1  0.74999998  0.47746300  0.58252998  1
  O  O4  1  0.24999999  0.73395101  0.94951297  1
  O  O5  1  0.74999998  0.26604900  0.05048699  1
  O  O6  1  0.24999999  0.75265701  0.43630397  1
  O  O7  1  0.74999998  0.24734300  0.56369599  1
