# generated using pymatgen
data_Eu2CuO4
_symmetry_space_group_name_H-M   'P 1'
_cell_length_a   4.98752403
_cell_length_b   6.50726366
_cell_length_c   6.50726366
_cell_angle_alpha   70.73944855
_cell_angle_beta   67.46626282
_cell_angle_gamma   67.46626282
_symmetry_Int_Tables_number   1
_chemical_formula_structural   Eu2CuO4
_chemical_formula_sum   'Eu4 Cu2 O8'
_cell_volume   175.98349406
_cell_formula_units_Z   2
loop_
 _symmetry_equiv_pos_site_id
 _symmetry_equiv_pos_as_xyz
  1  'x, y, z'
loop_
 _atom_site_type_symbol
 _atom_site_label
 _atom_site_symmetry_multiplicity
 _atom_site_fract_x
 _atom_site_fract_y
 _atom_site_fract_z
 _atom_site_occupancy
  Eu  Eu0  1  0.35431504  0.79924101  0.49212905  1
  Eu  Eu1  1  0.64568499  0.20075900  0.50787106  1
  Eu  Eu2  1  0.85431400  0.49212900  0.79924208  1
  Eu  Eu3  1  0.14568603  0.50787100  0.20075803  1
  Cu  Cu4  1  0.75000004  1.00000001  0.00000006  1
  Cu  Cu5  1  0.25000005  1.00000001  1.00000007  1
  O  O6  1  0.07944800  0.09329500  0.74781003  1
  O  O7  1  0.92055203  0.90670501  0.25219008  1
  O  O8  1  0.57944703  0.74781100  0.09329505  1
  O  O9  1  0.42055300  0.25218900  0.90670506  1
  O  O10  1  0.12976401  0.21429800  0.52617303  1
  O  O11  1  0.87023602  0.78570201  0.47382708  1
  O  O12  1  0.62976501  0.52617200  0.21429805  1
  O  O13  1  0.37023502  0.47382800  0.78570206  1
