# generated using pymatgen
data_LiCrCoO4
_symmetry_space_group_name_H-M   'P 1'
_cell_length_a   5.95890665
_cell_length_b   5.96581268
_cell_length_c   5.97014761
_cell_angle_alpha   89.46153259
_cell_angle_beta   60.09997940
_cell_angle_gamma   60.04154587
_symmetry_Int_Tables_number   1
_chemical_formula_structural   LiCrCoO4
_chemical_formula_sum   'Li2 Cr2 Co2 O8'
_cell_volume   151.08058955
_cell_formula_units_Z   2
loop_
 _symmetry_equiv_pos_site_id
 _symmetry_equiv_pos_as_xyz
  1  'x, y, z'
loop_
 _atom_site_type_symbol
 _atom_site_label
 _atom_site_symmetry_multiplicity
 _atom_site_fract_x
 _atom_site_fract_y
 _atom_site_fract_z
 _atom_site_occupancy
  Li  Li0  1  0.49997999  0.00001200  0.50002700  1
  Li  Li1  1  0.00000200  0.00001600  0.50002000  1
  Cr  Cr2  1  0.74997499  0.62493201  0.87511001  1
  Cr  Cr3  1  0.25000200  0.37510800  0.12488700  1
  Co  Co4  1  0.50007899  0.49990601  0.49986301  1
  Co  Co5  1  0.00000500  0.99991901  0.99997201  1
  O  O6  1  0.49519499  0.25397600  0.24733001  1
  O  O7  1  0.99589799  0.74618601  0.75290501  1
  O  O8  1  0.00411400  0.25382700  0.24709600  1
  O  O9  1  0.50480600  0.74603401  0.75269101  1
  O  O10  1  0.48466299  0.25932100  0.77132100  1
  O  O11  1  0.01571500  0.72960501  0.23901401  1
  O  O12  1  0.98426399  0.27041700  0.76104301  1
  O  O13  1  0.51530500  0.74073701  0.22872201  1
