# generated using pymatgen
data_Eu2C2O7
_symmetry_space_group_name_H-M   'P 1'
_cell_length_a   4.02614212
_cell_length_b   5.35770464
_cell_length_c   7.79291344
_cell_angle_alpha   96.60323334
_cell_angle_beta   104.97044373
_cell_angle_gamma   90.00000000
_symmetry_Int_Tables_number   1
_chemical_formula_structural   Eu2C2O7
_chemical_formula_sum   'Eu2 C2 O7'
_cell_volume   161.23997377
_cell_formula_units_Z   1
loop_
 _symmetry_equiv_pos_site_id
 _symmetry_equiv_pos_as_xyz
  1  'x, y, z'
loop_
 _atom_site_type_symbol
 _atom_site_label
 _atom_site_symmetry_multiplicity
 _atom_site_fract_x
 _atom_site_fract_y
 _atom_site_fract_z
 _atom_site_occupancy
  Eu  Eu0  1  0.13479401  0.57241602  0.26958803  1
  Eu  Eu1  1  0.86520599  0.42758402  0.73041204  1
  C  C2  1  0.67253699  0.09373100  0.34507402  1
  C  C3  1  0.32746301  0.90626904  0.65492605  1
  O  O4  1  0.00000000  0.00000000  0.00000000  1
  O  O5  1  0.31070301  0.67218903  0.62140604  1
  O  O6  1  0.68929699  0.32781101  0.37859403  1
  O  O7  1  0.34183099  0.13569701  0.68366202  1
  O  O8  1  0.65816900  0.86430304  0.31633804  1
  O  O9  1  0.01109500  0.23214301  0.02219001  1
  O  O10  1  0.98890499  0.76785703  0.97781006  1
