# generated using pymatgen
data_BaAgBr3
_symmetry_space_group_name_H-M   'P 1'
_cell_length_a   4.22387600
_cell_length_b   9.76670456
_cell_length_c   15.61516762
_cell_angle_alpha   90.00000000
_cell_angle_beta   90.00000000
_cell_angle_gamma   90.00000000
_symmetry_Int_Tables_number   1
_chemical_formula_structural   BaAgBr3
_chemical_formula_sum   'Ba4 Ag4 Br12'
_cell_volume   644.17795915
_cell_formula_units_Z   4
loop_
 _symmetry_equiv_pos_site_id
 _symmetry_equiv_pos_as_xyz
  1  'x, y, z'
loop_
 _atom_site_type_symbol
 _atom_site_label
 _atom_site_symmetry_multiplicity
 _atom_site_fract_x
 _atom_site_fract_y
 _atom_site_fract_z
 _atom_site_occupancy
  Ba  Ba0  1  0.75000000  0.56790703  0.17056700  1
  Ba  Ba1  1  0.25000000  0.43209302  0.82943302  1
  Ba  Ba2  1  0.75000000  0.06790700  0.32943301  1
  Ba  Ba3  1  0.25000000  0.93209304  0.67056702  1
  Ag  Ag4  1  0.25000000  0.66596903  0.43916401  1
  Ag  Ag5  1  0.75000000  0.33403102  0.56083601  1
  Ag  Ag6  1  0.25000000  0.16596901  0.06083600  1
  Ag  Ag7  1  0.75000000  0.83403104  0.93916402  1
  Br  Br8  1  0.75000000  0.83441804  0.50697901  1
  Br  Br9  1  0.25000000  0.16558201  0.49302101  1
  Br  Br10  1  0.75000000  0.33441802  0.99302102  1
  Br  Br11  1  0.25000000  0.66558203  0.00697900  1
  Br  Br12  1  0.25000000  0.51189902  0.61386302  1
  Br  Br13  1  0.75000000  0.48810102  0.38613701  1
  Br  Br14  1  0.25000000  0.01189900  0.88613702  1
  Br  Br15  1  0.75000000  0.98810104  0.11386300  1
  Br  Br16  1  0.25000000  0.79440204  0.29072001  1
  Br  Br17  1  0.75000000  0.20559801  0.70928002  1
  Br  Br18  1  0.25000000  0.29440201  0.20928001  1
  Br  Br19  1  0.75000000  0.70559803  0.79072002  1
