# generated using pymatgen
data_Ho3Ir7
_symmetry_space_group_name_H-M   'P 1'
_cell_length_a   6.06908226
_cell_length_b   6.06908226
_cell_length_c   12.51443291
_cell_angle_alpha   75.96684265
_cell_angle_beta   75.96684265
_cell_angle_gamma   59.99999619
_symmetry_Int_Tables_number   1
_chemical_formula_structural   Ho3Ir7
_chemical_formula_sum   'Ho6 Ir14'
_cell_volume   383.23012535
_cell_formula_units_Z   2
loop_
 _symmetry_equiv_pos_site_id
 _symmetry_equiv_pos_as_xyz
  1  'x, y, z'
loop_
 _atom_site_type_symbol
 _atom_site_label
 _atom_site_symmetry_multiplicity
 _atom_site_fract_x
 _atom_site_fract_y
 _atom_site_fract_z
 _atom_site_occupancy
  Ho  Ho0  1  0.86915597  0.86915601  0.39253203  1
  Ho  Ho1  1  0.13084400  0.13084400  0.60746799  1
  Ho  Ho2  1  0.60015598  0.60015600  0.19953202  1
  Ho  Ho3  1  0.39984399  0.39984400  0.80046800  1
  Ho  Ho4  1  0.00000000  0.00000000  0.00000000  1
  Ho  Ho5  1  0.49999998  0.50000000  0.00000002  1
  Ir  Ir6  1  0.50000000  0.00000000  0.00000001  1
  Ir  Ir7  1  -0.00000001  0.50000000  0.00000001  1
  Ir  Ir8  1  0.87168799  0.36358800  0.40113602  1
  Ir  Ir9  1  0.36358799  0.36358800  0.40113600  1
  Ir  Ir10  1  0.36358798  0.87168801  0.40113602  1
  Ir  Ir11  1  0.12831198  0.63641200  0.59886400  1
  Ir  Ir12  1  0.63641198  0.63641200  0.59886401  1
  Ir  Ir13  1  0.63641199  0.12831200  0.59886400  1
  Ir  Ir14  1  0.57215799  0.11703500  0.19377201  1
  Ir  Ir15  1  0.11703500  0.11703500  0.19377200  1
  Ir  Ir16  1  0.11703498  0.57215800  0.19377201  1
  Ir  Ir17  1  0.42784198  0.88296501  0.80622801  1
  Ir  Ir18  1  0.88296497  0.88296501  0.80622802  1
  Ir  Ir19  1  0.88296498  0.42784200  0.80622801  1
