# generated using pymatgen
data_Cu2Te3
_symmetry_space_group_name_H-M   'P 1'
_cell_length_a   4.08947182
_cell_length_b   4.08947182
_cell_length_c   10.37431526
_cell_angle_alpha   78.63281250
_cell_angle_beta   78.63281250
_cell_angle_gamma   60.00000000
_symmetry_Int_Tables_number   1
_chemical_formula_structural   Cu2Te3
_chemical_formula_sum   'Cu2 Te3'
_cell_volume   146.31048986
_cell_formula_units_Z   1
loop_
 _symmetry_equiv_pos_site_id
 _symmetry_equiv_pos_as_xyz
  1  'x, y, z'
loop_
 _atom_site_type_symbol
 _atom_site_label
 _atom_site_symmetry_multiplicity
 _atom_site_fract_x
 _atom_site_fract_y
 _atom_site_fract_z
 _atom_site_occupancy
  Cu  Cu0  1  0.21856200  0.21856201  0.34431400  1
  Cu  Cu1  1  0.78143800  0.78143803  0.65568601  1
  Te  Te2  1  0.00000000  0.00000000  0.00000000  1
  Te  Te3  1  0.60489200  0.60489202  0.18532401  1
  Te  Te4  1  0.39510800  0.39510802  0.81467601  1
