# generated using pymatgen
data_TbFeN
_symmetry_space_group_name_H-M   'P 1'
_cell_length_a   3.59225607
_cell_length_b   3.59225607
_cell_length_c   7.56091976
_cell_angle_alpha   90.00000000
_cell_angle_beta   90.00000000
_cell_angle_gamma   90.00000000
_symmetry_Int_Tables_number   1
_chemical_formula_structural   TbFeN
_chemical_formula_sum   'Tb2 Fe2 N2'
_cell_volume   97.56840460
_cell_formula_units_Z   2
loop_
 _symmetry_equiv_pos_site_id
 _symmetry_equiv_pos_as_xyz
  1  'x, y, z'
loop_
 _atom_site_type_symbol
 _atom_site_label
 _atom_site_symmetry_multiplicity
 _atom_site_fract_x
 _atom_site_fract_y
 _atom_site_fract_z
 _atom_site_occupancy
  Tb  Tb0  1  0.00000000  0.49999999  0.64788102  1
  Tb  Tb1  1  0.49999999  0.00000000  0.35211901  1
  Fe  Fe2  1  0.00000000  0.49999999  0.08353500  1
  Fe  Fe3  1  0.49999999  0.00000000  0.91646503  1
  N  N4  1  0.00000000  0.49999999  0.32940901  1
  N  N5  1  0.49999999  0.00000000  0.67059102  1
