# generated using pymatgen
data_Ti2CrCo7
_symmetry_space_group_name_H-M   'P 1'
_cell_length_a   2.89891100
_cell_length_b   9.28687191
_cell_length_c   9.28687191
_cell_angle_alpha   90.00000000
_cell_angle_beta   90.00000000
_cell_angle_gamma   90.00000000
_symmetry_Int_Tables_number   1
_chemical_formula_structural   Ti2CrCo7
_chemical_formula_sum   'Ti4 Cr2 Co14'
_cell_volume   250.01944869
_cell_formula_units_Z   2
loop_
 _symmetry_equiv_pos_site_id
 _symmetry_equiv_pos_as_xyz
  1  'x, y, z'
loop_
 _atom_site_type_symbol
 _atom_site_label
 _atom_site_symmetry_multiplicity
 _atom_site_fract_x
 _atom_site_fract_y
 _atom_site_fract_z
 _atom_site_occupancy
  Ti  Ti0  1  1.00000000  0.82337201  0.32337200  1
  Ti  Ti1  1  0.00000000  0.17662800  0.67662801  1
  Ti  Ti2  1  0.00000000  0.32337200  0.17662800  1
  Ti  Ti3  1  0.00000000  0.67662801  0.82337201  1
  Cr  Cr4  1  0.00000000  0.50000000  0.50000000  1
  Cr  Cr5  1  0.00000000  0.00000000  0.00000000  1
  Co  Co6  1  0.00000000  0.63021801  0.13021800  1
  Co  Co7  1  0.00000000  0.36978200  0.86978201  1
  Co  Co8  1  0.00000000  0.13021800  0.36978200  1
  Co  Co9  1  0.00000000  0.86978201  0.63021801  1
  Co  Co10  1  0.50000000  0.50000000  0.00000000  1
  Co  Co11  1  0.50000000  0.00000000  0.50000000  1
  Co  Co12  1  0.50000000  0.70691401  0.56824001  1
  Co  Co13  1  0.50000000  0.29308600  0.43176000  1
  Co  Co14  1  0.50000000  0.20691400  0.93176001  1
  Co  Co15  1  0.50000000  0.79308601  0.06824000  1
  Co  Co16  1  0.50000000  0.43176000  0.70691401  1
  Co  Co17  1  0.50000000  0.56824001  0.29308600  1
  Co  Co18  1  0.50000000  0.06824000  0.20691400  1
  Co  Co19  1  0.50000000  0.93176001  0.79308601  1
