# generated using pymatgen
data_NbSi2
_symmetry_space_group_name_H-M   'P 1'
_cell_length_a   6.71580982
_cell_length_b   7.55859756
_cell_length_c   7.03530788
_cell_angle_alpha   117.73510742
_cell_angle_beta   90.00000000
_cell_angle_gamma   116.37535095
_symmetry_Int_Tables_number   1
_chemical_formula_structural   NbSi2
_chemical_formula_sum   'Nb6 Si12'
_cell_volume   273.39687242
_cell_formula_units_Z   6
loop_
 _symmetry_equiv_pos_site_id
 _symmetry_equiv_pos_as_xyz
  1  'x, y, z'
loop_
 _atom_site_type_symbol
 _atom_site_label
 _atom_site_symmetry_multiplicity
 _atom_site_fract_x
 _atom_site_fract_y
 _atom_site_fract_z
 _atom_site_occupancy
  Nb  Nb0  1  0.48619804  0.39065901  0.94533002  1
  Nb  Nb1  1  0.09554005  0.60934201  0.05467100  1
  Nb  Nb2  1  0.06824904  0.56866201  0.53433101  1
  Nb  Nb3  1  0.49958705  0.43133801  0.46566901  1
  Nb  Nb4  1  0.90401210  0.99302002  0.74651002  1
  Nb  Nb5  1  0.91099203  0.00698000  0.25349000  1
  Si  Si6  1  0.24591101  0.00000000  0.50000001  1
  Si  Si7  1  0.24591108  1.00000002  0.00000001  1
  Si  Si8  1  0.49550007  0.74586802  0.90745102  1
  Si  Si9  1  0.74963204  0.25413201  0.09254900  1
  Si  Si10  1  0.49550007  0.74586802  0.33841701  1
  Si  Si11  1  0.74963204  0.25413201  0.66158301  1
  Si  Si12  1  0.48159708  0.94396602  0.72198302  1
  Si  Si13  1  0.53763102  0.05603400  0.27801701  1
  Si  Si14  1  0.16144603  0.33473901  0.67208601  1
  Si  Si15  1  0.82670707  0.66526102  0.32791401  1
  Si  Si16  1  0.16144603  0.33473901  0.16265300  1
  Si  Si17  1  0.82670707  0.66526102  0.83734702  1
