# generated using pymatgen
data_Nb2P2C
_symmetry_space_group_name_H-M   'P 1'
_cell_length_a   3.36966205
_cell_length_b   3.36966205
_cell_length_c   9.56576633
_cell_angle_alpha   90.00000000
_cell_angle_beta   90.00000000
_cell_angle_gamma   120.00000000
_symmetry_Int_Tables_number   1
_chemical_formula_structural   Nb2P2C
_chemical_formula_sum   'Nb2 P2 C1'
_cell_volume   94.06392411
_cell_formula_units_Z   1
loop_
 _symmetry_equiv_pos_site_id
 _symmetry_equiv_pos_as_xyz
  1  'x, y, z'
loop_
 _atom_site_type_symbol
 _atom_site_label
 _atom_site_symmetry_multiplicity
 _atom_site_fract_x
 _atom_site_fract_y
 _atom_site_fract_z
 _atom_site_occupancy
  Nb  Nb0  1  0.33333334  0.66666668  0.37577799  1
  Nb  Nb1  1  0.66666666  0.33333334  0.62422198  1
  C  C2  1  0.00000000  0.00000000  0.49999998  1
  P  P3  1  0.33333334  0.66666668  0.80069797  1
  P  P4  1  0.66666666  0.33333334  0.19930199  1
