# generated using pymatgen
data_Li3Ti3(SbO6)2
_symmetry_space_group_name_H-M   'P 1'
_cell_length_a   5.24293804
_cell_length_b   5.60835218
_cell_length_c   7.67989683
_cell_angle_alpha   95.30268860
_cell_angle_beta   89.92544556
_cell_angle_gamma   89.92192078
_symmetry_Int_Tables_number   1
_chemical_formula_structural   Li3Ti3(SbO6)2
_chemical_formula_sum   'Li3 Ti3 Sb2 O12'
_cell_volume   224.85467868
_cell_formula_units_Z   1
loop_
 _symmetry_equiv_pos_site_id
 _symmetry_equiv_pos_as_xyz
  1  'x, y, z'
loop_
 _atom_site_type_symbol
 _atom_site_label
 _atom_site_symmetry_multiplicity
 _atom_site_fract_x
 _atom_site_fract_y
 _atom_site_fract_z
 _atom_site_occupancy
  Li  Li0  1  0.50009600  0.05681000  0.22016199  1
  Li  Li1  1  0.50118400  0.05601500  0.72239601  1
  Li  Li2  1  0.99960902  0.56028800  0.21963097  1
  Ti  Ti3  1  0.50252002  0.49332900  0.01113598  1
  Ti  Ti4  1  0.49887702  0.48014500  0.50176399  1
  Ti  Ti5  1  0.99872304  0.98066400  0.50419997  1
  Sb  Sb6  1  0.00491205  0.99837100  0.00948197  1
  Sb  Sb7  1  0.99833902  0.55488900  0.72511799  1
  O  O8  1  0.81676703  0.65663200  0.45646898  1
  O  O9  1  0.63183202  0.46250500  0.76392500  1
  O  O10  1  0.68154100  0.15735000  0.45717700  1
  O  O11  1  0.87796604  0.95803300  0.76372698  1
  O  O12  1  0.80479901  0.27955100  0.08089698  1
  O  O13  1  0.31980501  0.15311200  0.95696002  1
  O  O14  1  0.69345103  0.77769500  0.08145097  1
  O  O15  1  0.12573505  0.96161900  0.26205498  1
  O  O16  1  0.17643503  0.64722700  0.95338501  1
  O  O17  1  0.37446402  0.46212900  0.26197399  1
  O  O18  1  0.30423404  0.77890800  0.58134099  1
  O  O19  1  0.18871001  0.28582200  0.58620001  1
