# generated using pymatgen
data_NaCuO3
_symmetry_space_group_name_H-M   'P 1'
_cell_length_a   5.38829994
_cell_length_b   5.40935278
_cell_length_c   5.38829994
_cell_angle_alpha   60.12866211
_cell_angle_beta   90.00000000
_cell_angle_gamma   119.87133789
_symmetry_Int_Tables_number   1
_chemical_formula_structural   NaCuO3
_chemical_formula_sum   'Na2 Cu2 O6'
_cell_volume   111.48444785
_cell_formula_units_Z   2
loop_
 _symmetry_equiv_pos_site_id
 _symmetry_equiv_pos_as_xyz
  1  'x, y, z'
loop_
 _atom_site_type_symbol
 _atom_site_label
 _atom_site_symmetry_multiplicity
 _atom_site_fract_x
 _atom_site_fract_y
 _atom_site_fract_z
 _atom_site_occupancy
  Na  Na0  1  0.74999999  0.49999999  0.75000003  1
  Na  Na1  1  0.24999999  0.49999999  0.25000002  1
  Cu  Cu2  1  0.00000000  0.00000000  0.00000000  1
  Cu  Cu3  1  0.50000001  0.00000000  0.50000001  1
  O  O4  1  0.77901501  0.00000000  0.27901500  1
  O  O5  1  0.22098500  0.00000000  0.72098501  1
  O  O6  1  0.27901500  0.00000000  0.22098500  1
  O  O7  1  0.72098501  0.00000000  0.77901501  1
  O  O8  1  0.74999999  0.49999999  0.25000002  1
  O  O9  1  0.24999999  0.49999999  0.75000002  1
