# generated using pymatgen
data_CrFeCo2Si
_symmetry_space_group_name_H-M   'P 1'
_cell_length_a   3.55248189
_cell_length_b   4.42852783
_cell_length_c   4.42852783
_cell_angle_alpha   80.74238586
_cell_angle_beta   66.35362244
_cell_angle_gamma   66.35362244
_symmetry_Int_Tables_number   1
_chemical_formula_structural   CrFeCo2Si
_chemical_formula_sum   'Cr1 Fe1 Co2 Si1'
_cell_volume   58.46257775
_cell_formula_units_Z   1
loop_
 _symmetry_equiv_pos_site_id
 _symmetry_equiv_pos_as_xyz
  1  'x, y, z'
loop_
 _atom_site_type_symbol
 _atom_site_label
 _atom_site_symmetry_multiplicity
 _atom_site_fract_x
 _atom_site_fract_y
 _atom_site_fract_z
 _atom_site_occupancy
  Cr  Cr0  1  0.80080603  0.79878898  0.59959795  1
  Fe  Fe1  1  0.40040502  0.40040199  0.79878796  1
  Co  Co2  1  0.59959502  0.59959798  0.20121197  1
  Co  Co3  1  0.19919401  0.20121099  0.40040198  1
  Si  Si4  1  0.00000000  0.00000000  0.00000000  1
