# generated using pymatgen
data_YbSi2
_symmetry_space_group_name_H-M   'P 1'
_cell_length_a   4.52534819
_cell_length_b   7.37550688
_cell_length_c   7.94651794
_cell_angle_alpha   90.00000000
_cell_angle_beta   90.00000000
_cell_angle_gamma   90.00000000
_symmetry_Int_Tables_number   1
_chemical_formula_structural   YbSi2
_chemical_formula_sum   'Yb4 Si8'
_cell_volume   265.22883691
_cell_formula_units_Z   4
loop_
 _symmetry_equiv_pos_site_id
 _symmetry_equiv_pos_as_xyz
  1  'x, y, z'
loop_
 _atom_site_type_symbol
 _atom_site_label
 _atom_site_symmetry_multiplicity
 _atom_site_fract_x
 _atom_site_fract_y
 _atom_site_fract_z
 _atom_site_occupancy
  Yb  Yb0  1  0.74999997  0.50286001  0.79485101  1
  Yb  Yb1  1  0.24999999  0.99714002  0.29485100  1
  Yb  Yb2  1  0.74999997  0.00286000  0.70514900  1
  Yb  Yb3  1  0.24999999  0.49714001  0.20514900  1
  Si  Si4  1  0.24999999  0.71528201  0.59640400  1
  Si  Si5  1  0.24999999  0.21528200  0.90359601  1
  Si  Si6  1  0.74999997  0.28471800  0.40359600  1
  Si  Si7  1  0.74999997  0.78471801  0.09640400  1
  Si  Si8  1  0.24999999  0.81036201  0.92255801  1
  Si  Si9  1  0.24999999  0.31036201  0.57744200  1
  Si  Si10  1  0.74999997  0.68963801  0.42255800  1
  Si  Si11  1  0.74999997  0.18963800  0.07744200  1
