# generated using pymatgen
data_Fe2Si
_symmetry_space_group_name_H-M   'P 1'
_cell_length_a   4.79842186
_cell_length_b   4.79842186
_cell_length_c   7.50276518
_cell_angle_alpha   90.00000000
_cell_angle_beta   90.00000000
_cell_angle_gamma   120.00000000
_symmetry_Int_Tables_number   1
_chemical_formula_structural   Fe2Si
_chemical_formula_sum   'Fe8 Si4'
_cell_volume   149.60594082
_cell_formula_units_Z   4
loop_
 _symmetry_equiv_pos_site_id
 _symmetry_equiv_pos_as_xyz
  1  'x, y, z'
loop_
 _atom_site_type_symbol
 _atom_site_label
 _atom_site_symmetry_multiplicity
 _atom_site_fract_x
 _atom_site_fract_y
 _atom_site_fract_z
 _atom_site_occupancy
  Fe  Fe0  1  0.66666667  0.33333332  0.44148299  1
  Fe  Fe1  1  0.33333332  0.66666663  0.55851699  1
  Fe  Fe2  1  0.33333332  0.66666663  0.94148298  1
  Fe  Fe3  1  0.66666667  0.33333332  0.05851700  1
  Fe  Fe4  1  0.00000000  0.00000000  0.00000000  1
  Fe  Fe5  1  0.00000000  0.00000000  0.49999999  1
  Si  Si6  1  0.83012802  0.16987099  0.74999998  1
  Fe  Fe7  1  0.16987197  0.83012895  0.24999999  1
  Si  Si8  1  0.33974300  0.16987099  0.74999998  1
  Fe  Fe9  1  0.66025698  0.83012895  0.24999999  1
  Si  Si10  1  0.83012800  0.66025596  0.74999998  1
  Si  Si11  1  0.16987199  0.33974398  0.24999999  1
