# generated using pymatgen
data_In2Sb3
_symmetry_space_group_name_H-M   'P 1'
_cell_length_a   4.34645557
_cell_length_b   4.34645557
_cell_length_c   11.04515171
_cell_angle_alpha   78.65253448
_cell_angle_beta   78.65253448
_cell_angle_gamma   60.00000381
_symmetry_Int_Tables_number   1
_chemical_formula_structural   In2Sb3
_chemical_formula_sum   'In2 Sb3'
_cell_volume   175.98042277
_cell_formula_units_Z   1
loop_
 _symmetry_equiv_pos_site_id
 _symmetry_equiv_pos_as_xyz
  1  'x, y, z'
loop_
 _atom_site_type_symbol
 _atom_site_label
 _atom_site_symmetry_multiplicity
 _atom_site_fract_x
 _atom_site_fract_y
 _atom_site_fract_z
 _atom_site_occupancy
  In  In0  1  0.60904702  0.60904702  0.17285898  1
  In  In1  1  0.39095301  0.39095302  0.82714197  1
  Sb  Sb2  1  0.22085001  0.22085001  0.33744999  1
  Sb  Sb3  1  0.77915003  0.77915003  0.66254997  1
  Sb  Sb4  1  0.00000000  0.00000000  0.00000000  1
