# generated using pymatgen
data_Sr(EuPd4)2
_symmetry_space_group_name_H-M   'P 1'
_cell_length_a   6.45569134
_cell_length_b   6.45569134
_cell_length_c   6.45569134
_cell_angle_alpha   109.47122192
_cell_angle_beta   109.47122192
_cell_angle_gamma   109.47122192
_symmetry_Int_Tables_number   1
_chemical_formula_structural   Sr(EuPd4)2
_chemical_formula_sum   'Sr1 Eu2 Pd8'
_cell_volume   207.11252392
_cell_formula_units_Z   1
loop_
 _symmetry_equiv_pos_site_id
 _symmetry_equiv_pos_as_xyz
  1  'x, y, z'
loop_
 _atom_site_type_symbol
 _atom_site_label
 _atom_site_symmetry_multiplicity
 _atom_site_fract_x
 _atom_site_fract_y
 _atom_site_fract_z
 _atom_site_occupancy
  Sr  Sr0  1  0.50000002  0.50000000  0.00000004  1
  Eu  Eu1  1  0.49999999  0.00000000  0.49999999  1
  Eu  Eu2  1  0.00000003  0.50000000  0.50000001  1
  Pd  Pd3  1  0.39555101  0.39555100  0.39555102  1
  Pd  Pd4  1  0.60444898  0.00000000  0.00000001  1
  Pd  Pd5  1  1.00000001  0.60444900  1.00000002  1
  Pd  Pd6  1  0.00000000  0.00000000  0.60444898  1
  Pd  Pd7  1  0.75980903  0.75980900  0.75980903  1
  Pd  Pd8  1  0.24019099  0.00000000  0.00000001  1
  Pd  Pd9  1  0.00000000  0.00000000  0.24019099  1
  Pd  Pd10  1  0.00000002  0.24019100  0.00000001  1
