# generated using pymatgen
data_Tm4Cd6GeSb5
_symmetry_space_group_name_H-M   'P 1'
_cell_length_a   7.71259594
_cell_length_b   8.72545242
_cell_length_c   7.71259594
_cell_angle_alpha   116.22898102
_cell_angle_beta   90.00000000
_cell_angle_gamma   116.22898102
_symmetry_Int_Tables_number   1
_chemical_formula_structural   Tm4Cd6GeSb5
_chemical_formula_sum   'Tm4 Cd6 Ge1 Sb5'
_cell_volume   405.15401894
_cell_formula_units_Z   1
loop_
 _symmetry_equiv_pos_site_id
 _symmetry_equiv_pos_as_xyz
  1  'x, y, z'
loop_
 _atom_site_type_symbol
 _atom_site_label
 _atom_site_symmetry_multiplicity
 _atom_site_fract_x
 _atom_site_fract_y
 _atom_site_fract_z
 _atom_site_occupancy
  Tm  Tm0  1  0.00000000  0.00000000  0.00000000  1
  Tm  Tm1  1  0.50000000  0.00000000  0.50000000  1
  Tm  Tm2  1  0.21016297  0.73288198  0.02271897  1
  Tm  Tm3  1  0.78983700  0.26711799  0.97728100  1
  Cd  Cd4  1  0.52271898  0.73288198  0.71016298  1
  Cd  Cd5  1  0.71016298  0.73288198  0.21016297  1
  Cd  Cd6  1  0.97728100  0.26711799  0.47728099  1
  Cd  Cd7  1  0.47728099  0.26711799  0.28983699  1
  Cd  Cd8  1  0.28983699  0.26711799  0.78983700  1
  Cd  Cd9  1  0.02271897  0.73288198  0.52271898  1
  Ge  Ge10  1  0.86692801  0.00000000  0.63307201  1
  Sb  Sb11  1  0.13307200  0.00000000  0.36692800  1
  Sb  Sb12  1  0.36692800  0.00000000  0.86692801  1
  Sb  Sb13  1  0.63307201  0.00000000  0.13307200  1
  Sb  Sb14  1  0.74999999  0.49999998  0.74999999  1
  Sb  Sb15  1  0.24999998  0.49999998  0.24999998  1
