# generated using pymatgen
data_Tm4Al4CoGe5
_symmetry_space_group_name_H-M   'P 1'
_cell_length_a   4.15055990
_cell_length_b   5.59542561
_cell_length_c   13.27729511
_cell_angle_alpha   90.00000000
_cell_angle_beta   90.00000000
_cell_angle_gamma   111.77043152
_symmetry_Int_Tables_number   1
_chemical_formula_structural   Tm4Al4CoGe5
_chemical_formula_sum   'Tm4 Al4 Co1 Ge5'
_cell_volume   286.36126731
_cell_formula_units_Z   1
loop_
 _symmetry_equiv_pos_site_id
 _symmetry_equiv_pos_as_xyz
  1  'x, y, z'
loop_
 _atom_site_type_symbol
 _atom_site_label
 _atom_site_symmetry_multiplicity
 _atom_site_fract_x
 _atom_site_fract_y
 _atom_site_fract_z
 _atom_site_occupancy
  Tm  Tm0  1  0.20827197  0.41654400  0.39448200  1
  Tm  Tm1  1  0.79172798  0.58345599  0.60551799  1
  Tm  Tm2  1  0.20827197  0.41654400  0.10551800  1
  Tm  Tm3  1  0.79172798  0.58345599  0.89448199  1
  Al  Al4  1  0.49430494  0.98860899  0.25000000  1
  Al  Al5  1  0.50569501  0.01139100  0.74999999  1
  Al  Al6  1  0.50000001  0.00000000  0.50000000  1
  Al  Al7  1  0.50000001  0.00000000  0.00000000  1
  Co  Co8  1  0.91965596  0.83931299  0.40702000  1
  Ge  Ge9  1  0.08034399  0.16068700  0.59297999  1
  Ge  Ge10  1  0.91965596  0.83931299  0.09298000  1
  Ge  Ge11  1  0.08034399  0.16068700  0.90701999  1
  Ge  Ge12  1  0.80067397  0.60134699  0.25000000  1
  Ge  Ge13  1  0.19932597  0.39865300  0.74999999  1
