# generated using pymatgen
data_AlZn8Pd9
_symmetry_space_group_name_H-M   'P 1'
_cell_length_a   2.97430110
_cell_length_b   7.89883280
_cell_length_c   13.48197556
_cell_angle_alpha   89.94924164
_cell_angle_beta   89.93383026
_cell_angle_gamma   89.70055389
_symmetry_Int_Tables_number   1
_chemical_formula_structural   AlZn8Pd9
_chemical_formula_sum   'Al1 Zn8 Pd9'
_cell_volume   316.73422855
_cell_formula_units_Z   1
loop_
 _symmetry_equiv_pos_site_id
 _symmetry_equiv_pos_as_xyz
  1  'x, y, z'
loop_
 _atom_site_type_symbol
 _atom_site_label
 _atom_site_symmetry_multiplicity
 _atom_site_fract_x
 _atom_site_fract_y
 _atom_site_fract_z
 _atom_site_occupancy
  Al  Al0  1  0.74985697  0.00010800  0.33349399  1
  Zn  Zn1  1  0.25037011  0.99987901  0.66734301  1
  Zn  Zn2  1  0.24892905  0.50068501  0.16650401  1
  Zn  Zn3  1  0.99915497  0.00028900  0.99926497  1
  Zn  Zn4  1  0.99899803  0.49998501  0.50008000  1
  Zn  Zn5  1  0.25316107  0.66940701  0.98790899  1
  Zn  Zn6  1  0.25154901  0.16501800  0.48404199  1
  Zn  Zn7  1  0.25267307  0.64733601  0.67139300  1
  Pd  Pd8  1  0.25222501  0.14387200  0.17554400  1
  Zn  Zn9  1  0.25290901  0.18525400  0.84064498  1
  Pd  Pd10  1  0.25320907  0.68997901  0.34029501  1
  Pd  Pd11  1  0.74788207  0.83490001  0.51471501  1
  Pd  Pd12  1  0.74729201  0.33204700  0.01818301  1
  Pd  Pd13  1  0.74781008  0.85957901  0.82460300  1
  Pd  Pd14  1  0.74863802  0.35609700  0.32497500  1
  Pd  Pd15  1  0.74741701  0.30630400  0.65727999  1
  Pd  Pd16  1  0.74830507  0.80917901  0.16035801  1
  Pd  Pd17  1  0.74962103  0.50008001  0.83337299  1
