# generated using pymatgen
data_EuReO3
_symmetry_space_group_name_H-M   'P 1'
_cell_length_a   5.48913908
_cell_length_b   5.66920805
_cell_length_c   7.88250113
_cell_angle_alpha   90.00000000
_cell_angle_beta   90.00000000
_cell_angle_gamma   90.00000000
_symmetry_Int_Tables_number   1
_chemical_formula_structural   EuReO3
_chemical_formula_sum   'Eu4 Re4 O12'
_cell_volume   245.29611579
_cell_formula_units_Z   4
loop_
 _symmetry_equiv_pos_site_id
 _symmetry_equiv_pos_as_xyz
  1  'x, y, z'
loop_
 _atom_site_type_symbol
 _atom_site_label
 _atom_site_symmetry_multiplicity
 _atom_site_fract_x
 _atom_site_fract_y
 _atom_site_fract_z
 _atom_site_occupancy
  Eu  Eu0  1  0.01480000  0.94481599  0.74999999  1
  Eu  Eu1  1  0.51479999  0.55518400  0.25000000  1
  Eu  Eu2  1  0.48519999  0.44481600  0.74999999  1
  Eu  Eu3  1  0.98519999  0.05518400  0.25000000  1
  Re  Re4  1  0.49999999  0.00000000  0.49999999  1
  Re  Re5  1  -0.00000000  0.50000000  0.49999999  1
  Re  Re6  1  -0.00000000  0.50000000  0.00000000  1
  Re  Re7  1  0.49999999  0.00000000  0.00000000  1
  O  O8  1  0.69531999  0.30003000  0.44452699  1
  O  O9  1  0.19532000  0.19997000  0.55547299  1
  O  O10  1  0.80467999  0.80002999  0.05547300  1
  O  O11  1  0.30468000  0.69996999  0.94452698  1
  O  O12  1  0.30468000  0.69996999  0.55547299  1
  O  O13  1  0.80467999  0.80002999  0.44452699  1
  O  O14  1  0.19532000  0.19997000  0.94452698  1
  O  O15  1  0.69531999  0.30003000  0.05547300  1
  O  O16  1  0.10549000  0.46028200  0.25000000  1
  O  O17  1  0.60548999  0.03971800  0.74999999  1
  O  O18  1  0.39450999  0.96028199  0.25000000  1
  O  O19  1  0.89450999  0.53971800  0.74999999  1
