# generated using pymatgen
data_Na2Ca2CoO4
_symmetry_space_group_name_H-M   'P 1'
_cell_length_a   5.64561987
_cell_length_b   5.64561987
_cell_length_c   10.41326332
_cell_angle_alpha   90.00000000
_cell_angle_beta   90.00000000
_cell_angle_gamma   120.00000000
_symmetry_Int_Tables_number   1
_chemical_formula_structural   Na2Ca2CoO4
_chemical_formula_sum   'Na4 Ca4 Co2 O8'
_cell_volume   287.43572699
_cell_formula_units_Z   2
loop_
 _symmetry_equiv_pos_site_id
 _symmetry_equiv_pos_as_xyz
  1  'x, y, z'
loop_
 _atom_site_type_symbol
 _atom_site_label
 _atom_site_symmetry_multiplicity
 _atom_site_fract_x
 _atom_site_fract_y
 _atom_site_fract_z
 _atom_site_occupancy
  Na  Na0  1  0.00000000  0.00000000  0.00000000  1
  Na  Na1  1  0.33333332  0.66666664  0.49999998  1
  Na  Na2  1  0.00000000  0.00000000  0.34340999  1
  Na  Na3  1  0.00000000  0.00000000  0.65658998  1
  Ca  Ca4  1  0.66666667  0.33333332  0.49999998  1
  Ca  Ca5  1  0.33333332  0.66666664  0.85375397  1
  Ca  Ca6  1  0.66666667  0.33333332  0.14624600  1
  Ca  Ca7  1  0.33333332  0.66666664  0.14624600  1
  Co  Co8  1  0.66666667  0.33333332  0.85375397  1
  Co  Co9  1  1.00000001  0.48117198  0.72519698  1
  O  O10  1  0.51882799  0.51882798  0.27480299  1
  O  O11  1  0.51882799  0.51882798  0.72519698  1
  O  O12  1  -0.00000002  0.48146698  -0.00000000  1
  O  O13  1  0.48117201  0.00000000  0.27480299  1
  O  O14  1  1.00000001  0.48117198  0.27480299  1
  O  O15  1  0.48146701  0.00000000  0.00000000  1
  O  O16  1  0.51853299  0.51853298  -0.00000000  1
  O  O17  1  0.48117201  0.00000000  0.72519698  1
