# generated using pymatgen
data_Hf4Ga11
_symmetry_space_group_name_H-M   'P 1'
_cell_length_a   5.17034912
_cell_length_b   5.20053196
_cell_length_c   9.17735863
_cell_angle_alpha   73.54065704
_cell_angle_beta   86.83737946
_cell_angle_gamma   78.77182007
_symmetry_Int_Tables_number   1
_chemical_formula_structural   Hf4Ga11
_chemical_formula_sum   'Hf4 Ga11'
_cell_volume   232.12412433
_cell_formula_units_Z   1
loop_
 _symmetry_equiv_pos_site_id
 _symmetry_equiv_pos_as_xyz
  1  'x, y, z'
loop_
 _atom_site_type_symbol
 _atom_site_label
 _atom_site_symmetry_multiplicity
 _atom_site_fract_x
 _atom_site_fract_y
 _atom_site_fract_z
 _atom_site_occupancy
  Hf  Hf0  1  0.49375201  0.14782400  -0.00000001  1
  Hf  Hf1  1  0.85406102  0.49340600  -0.00000002  1
  Hf  Hf2  1  0.31923203  0.58423800  0.15304500  1
  Hf  Hf3  1  0.31923204  0.73728300  0.84695500  1
  Ga  Ga4  1  0.78663903  0.69841100  0.23975899  1
  Ga  Ga5  1  0.78663905  0.93817000  0.76024099  1
  Ga  Ga6  1  0.18964402  0.30781900  0.75026500  1
  Ga  Ga7  1  0.18964400  0.05808400  0.24973500  1
  Ga  Ga8  1  0.40757002  0.45138400  0.46632500  1
  Ga  Ga9  1  0.40757005  0.91770900  0.53367500  1
  Ga  Ga10  1  0.92830101  0.27102600  0.49751898  1
  Ga  Ga11  1  0.92830104  0.76854500  0.50248098  1
  Ga  Ga12  1  0.00732005  0.98697300  0.00000000  1
  Ga  Ga13  1  0.66804702  0.46752300  0.72708199  1
  Ga  Ga14  1  0.66804701  0.19460500  0.27291799  1
