# generated using pymatgen
data_Li4Ni3O8
_symmetry_space_group_name_H-M   'P 1'
_cell_length_a   5.69088745
_cell_length_b   5.69088745
_cell_length_c   5.84796429
_cell_angle_alpha   60.88462067
_cell_angle_beta   60.88462067
_cell_angle_gamma   60.00000763
_symmetry_Int_Tables_number   1
_chemical_formula_structural   Li4Ni3O8
_chemical_formula_sum   'Li4 Ni3 O8'
_cell_volume   135.68414308
_cell_formula_units_Z   1
loop_
 _symmetry_equiv_pos_site_id
 _symmetry_equiv_pos_as_xyz
  1  'x, y, z'
loop_
 _atom_site_type_symbol
 _atom_site_label
 _atom_site_symmetry_multiplicity
 _atom_site_fract_x
 _atom_site_fract_y
 _atom_site_fract_z
 _atom_site_occupancy
  Li  Li0  1  0.49999998  0.00000000  0.50000002  1
  Li  Li1  1  0.00000000  0.00000000  0.50000000  1
  Li  Li2  1  -0.00000002  0.49999998  0.50000002  1
  Li  Li3  1  0.00000000  0.00000000  0.00000000  1
  Ni  Ni4  1  0.49999998  0.00000000  0.00000001  1
  Ni  Ni5  1  -0.00000002  0.49999998  0.00000002  1
  Ni  Ni6  1  0.49999996  0.49999998  0.00000003  1
  O  O7  1  0.76343993  0.76343997  0.21360205  1
  O  O8  1  0.25951796  0.76343997  0.21360203  1
  O  O9  1  0.76343995  0.25951799  0.21360203  1
  O  O10  1  0.26212598  0.26212599  0.21362202  1
  O  O11  1  0.73787393  0.73787398  0.78637805  1
  O  O12  1  0.23655996  0.74048198  0.78639804  1
  O  O13  1  0.74048196  0.23655999  0.78639803  1
  O  O14  1  0.23655998  0.23655999  0.78639802  1
