# generated using pymatgen
data_Eu2CoSi3Ru4
_symmetry_space_group_name_H-M   'P 1'
_cell_length_a   3.83837295
_cell_length_b   3.83837295
_cell_length_c   13.68851566
_cell_angle_alpha   90.00000000
_cell_angle_beta   90.00000000
_cell_angle_gamma   90.00000000
_symmetry_Int_Tables_number   1
_chemical_formula_structural   Eu2CoSi3Ru4
_chemical_formula_sum   'Eu2 Co1 Si3 Ru4'
_cell_volume   201.67436417
_cell_formula_units_Z   1
loop_
 _symmetry_equiv_pos_site_id
 _symmetry_equiv_pos_as_xyz
  1  'x, y, z'
loop_
 _atom_site_type_symbol
 _atom_site_label
 _atom_site_symmetry_multiplicity
 _atom_site_fract_x
 _atom_site_fract_y
 _atom_site_fract_z
 _atom_site_occupancy
  Eu  Eu0  1  0.50000001  0.00000000  0.73639002  1
  Eu  Eu1  1  0.00000000  0.50000001  0.26361001  1
  Co  Co2  1  0.50000001  0.50000001  0.00000000  1
  Si  Si3  1  0.00000000  0.00000000  0.50000001  1
  Si  Si4  1  0.00000000  0.00000000  0.00000000  1
  Si  Si5  1  0.50000001  0.50000001  0.50000001  1
  Ru  Ru6  1  0.00000000  0.50000001  0.90146202  1
  Ru  Ru7  1  0.50000001  0.00000000  0.39786501  1
  Ru  Ru8  1  0.50000001  0.00000000  0.09853800  1
  Ru  Ru9  1  0.00000000  0.50000001  0.60213501  1
