# generated using pymatgen
data_K2MgInF6
_symmetry_space_group_name_H-M   'P 1'
_cell_length_a   6.19053698
_cell_length_b   6.19053650
_cell_length_c   6.19053650
_cell_angle_alpha   60.00000000
_cell_angle_beta   60.00000381
_cell_angle_gamma   60.00000000
_symmetry_Int_Tables_number   1
_chemical_formula_structural   K2MgInF6
_chemical_formula_sum   'K2 Mg1 In1 F6'
_cell_volume   167.75285248
_cell_formula_units_Z   1
loop_
 _symmetry_equiv_pos_site_id
 _symmetry_equiv_pos_as_xyz
  1  'x, y, z'
loop_
 _atom_site_type_symbol
 _atom_site_label
 _atom_site_symmetry_multiplicity
 _atom_site_fract_x
 _atom_site_fract_y
 _atom_site_fract_z
 _atom_site_occupancy
  K  K0  1  0.74999995  0.75000002  0.75000004  1
  K  K1  1  0.24999998  0.25000001  0.25000001  1
  Mg  Mg2  1  0.49999997  0.50000002  0.50000003  1
  In  In3  1  0.00000000  0.00000000  0.00000000  1
  F  F4  1  0.21662996  0.78337003  0.78337003  1
  F  F5  1  0.78336995  0.78337003  0.21663004  1
  F  F6  1  0.78336998  0.21663001  0.21663002  1
  F  F7  1  0.21662996  0.78337003  0.21663003  1
  F  F8  1  0.78336998  0.21663001  0.78337002  1
  F  F9  1  0.21662999  0.21663001  0.78337001  1
