# generated using pymatgen
data_La2InRh2
_symmetry_space_group_name_H-M   'P 1'
_cell_length_a   3.78590798
_cell_length_b   8.12051964
_cell_length_c   8.12051964
_cell_angle_alpha   90.00000000
_cell_angle_beta   90.00000000
_cell_angle_gamma   90.00000000
_symmetry_Int_Tables_number   1
_chemical_formula_structural   La2InRh2
_chemical_formula_sum   'La4 In2 Rh4'
_cell_volume   249.65352137
_cell_formula_units_Z   2
loop_
 _symmetry_equiv_pos_site_id
 _symmetry_equiv_pos_as_xyz
  1  'x, y, z'
loop_
 _atom_site_type_symbol
 _atom_site_label
 _atom_site_symmetry_multiplicity
 _atom_site_fract_x
 _atom_site_fract_y
 _atom_site_fract_z
 _atom_site_occupancy
  La  La0  1  0.50000000  0.67438903  0.17438901  1
  La  La1  1  0.50000000  0.32561101  0.82561104  1
  La  La2  1  0.50000000  0.17438901  0.32561101  1
  La  La3  1  0.50000000  0.82561104  0.67438903  1
  In  In4  1  0.00000000  0.00000000  0.00000000  1
  In  In5  1  -0.00000000  0.50000002  0.50000002  1
  Rh  Rh6  1  -0.00000000  0.12613701  0.62613703  1
  Rh  Rh7  1  1.00000000  0.87386304  0.37386302  1
  Rh  Rh8  1  0.00000000  0.62613703  0.87386304  1
  Rh  Rh9  1  0.00000000  0.37386302  0.12613701  1
