# generated using pymatgen
data_CeGa2
_symmetry_space_group_name_H-M   'P 1'
_cell_length_a   4.40278387
_cell_length_b   5.63140249
_cell_length_c   5.63140249
_cell_angle_alpha   79.38562012
_cell_angle_beta   66.98863983
_cell_angle_gamma   66.98863983
_symmetry_Int_Tables_number   1
_chemical_formula_structural   CeGa2
_chemical_formula_sum   'Ce2 Ga4'
_cell_volume   118.20649349
_cell_formula_units_Z   2
loop_
 _symmetry_equiv_pos_site_id
 _symmetry_equiv_pos_as_xyz
  1  'x, y, z'
loop_
 _atom_site_type_symbol
 _atom_site_label
 _atom_site_symmetry_multiplicity
 _atom_site_fract_x
 _atom_site_fract_y
 _atom_site_fract_z
 _atom_site_occupancy
  Ce  Ce0  1  0.46021600  0.78978402  0.28978401  1
  Ce  Ce1  1  0.53978401  0.21021601  0.71021601  1
  Ga  Ga2  1  0.83561302  0.21602501  0.11275000  1
  Ga  Ga3  1  0.16438699  0.78397502  0.88725003  1
  Ga  Ga4  1  0.16438800  0.38724901  0.28397501  1
  Ga  Ga5  1  0.83561202  0.61275101  0.71602502  1
