# generated using pymatgen
data_H2
_symmetry_space_group_name_H-M   'P 1'
_cell_length_a   4.42664480
_cell_length_b   4.43624783
_cell_length_c   4.63087511
_cell_angle_alpha   61.38080978
_cell_angle_beta   90.00000000
_cell_angle_gamma   90.00000000
_symmetry_Int_Tables_number   1
_chemical_formula_structural   H2
_chemical_formula_sum   H6
_cell_volume   79.82892842
_cell_formula_units_Z   3
loop_
 _symmetry_equiv_pos_site_id
 _symmetry_equiv_pos_as_xyz
  1  'x, y, z'
loop_
 _atom_site_type_symbol
 _atom_site_label
 _atom_site_symmetry_multiplicity
 _atom_site_fract_x
 _atom_site_fract_y
 _atom_site_fract_z
 _atom_site_occupancy
  H  H0  1  0.00000000  0.00405600  0.99188805  1
  H  H1  1  0.50000002  0.44499602  0.11000801  1
  H  H2  1  0.50000002  0.93203103  0.52064803  1
  H  H3  1  0.50000002  0.54732102  0.52064803  1
  H  H4  1  0.50000002  0.32352701  0.35294602  1
  H  H5  1  0.50000002  0.66704102  0.66591804  1
