# generated using pymatgen
data_EuSnAsAu
_symmetry_space_group_name_H-M   'P 1'
_cell_length_a   4.17103767
_cell_length_b   4.17103767
_cell_length_c   10.89947128
_cell_angle_alpha   100.94768524
_cell_angle_beta   100.94768524
_cell_angle_gamma   90.42778778
_symmetry_Int_Tables_number   1
_chemical_formula_structural   EuSnAsAu
_chemical_formula_sum   'Eu2 Sn2 As2 Au2'
_cell_volume   182.59851766
_cell_formula_units_Z   2
loop_
 _symmetry_equiv_pos_site_id
 _symmetry_equiv_pos_as_xyz
  1  'x, y, z'
loop_
 _atom_site_type_symbol
 _atom_site_label
 _atom_site_symmetry_multiplicity
 _atom_site_fract_x
 _atom_site_fract_y
 _atom_site_fract_z
 _atom_site_occupancy
  Eu  Eu0  1  0.11122199  0.11122200  0.23693400  1
  Eu  Eu1  1  0.87428793  0.87428800  0.76306599  1
  Sn  Sn2  1  0.33121898  0.33121900  0.67656201  1
  Sn  Sn3  1  0.65465695  0.65465700  0.32343798  1
  As  As4  1  0.50677393  0.93828500  1.00000000  1
  As  As5  1  0.93828496  0.50677400  -0.00000003  1
  Au  Au6  1  0.75012698  0.25012700  0.50000000  1
  Au  Au7  1  0.25012694  0.75012700  0.49999999  1
