# generated using pymatgen
data_Ce(GeAu)2
_symmetry_space_group_name_H-M   'P 1'
_cell_length_a   4.26041222
_cell_length_b   4.26041222
_cell_length_c   5.83764648
_cell_angle_alpha   111.40194702
_cell_angle_beta   111.40194702
_cell_angle_gamma   90.00000000
_symmetry_Int_Tables_number   1
_chemical_formula_structural   Ce(GeAu)2
_chemical_formula_sum   'Ce1 Ge2 Au2'
_cell_volume   90.76020435
_cell_formula_units_Z   1
loop_
 _symmetry_equiv_pos_site_id
 _symmetry_equiv_pos_as_xyz
  1  'x, y, z'
loop_
 _atom_site_type_symbol
 _atom_site_label
 _atom_site_symmetry_multiplicity
 _atom_site_fract_x
 _atom_site_fract_y
 _atom_site_fract_z
 _atom_site_occupancy
  Ce  Ce0  1  0.00000000  0.00000000  0.00000000  1
  Ge  Ge1  1  0.61960902  0.61960899  0.23921807  1
  Ge  Ge2  1  0.38039101  0.38039099  0.76078203  1
  Au  Au3  1  0.25000004  0.74999999  0.50000005  1
  Au  Au4  1  0.74999999  0.25000000  0.50000004  1
