# generated using pymatgen
data_Ca3Eu2Ru2WO11
_symmetry_space_group_name_H-M   'P 1'
_cell_length_a   5.62484789
_cell_length_b   6.75568342
_cell_length_c   7.44928646
_cell_angle_alpha   106.23371887
_cell_angle_beta   90.00000000
_cell_angle_gamma   114.60151672
_symmetry_Int_Tables_number   1
_chemical_formula_structural   Ca3Eu2Ru2WO11
_chemical_formula_sum   'Ca3 Eu2 Ru2 W1 O11'
_cell_volume   244.90736562
_cell_formula_units_Z   1
loop_
 _symmetry_equiv_pos_site_id
 _symmetry_equiv_pos_as_xyz
  1  'x, y, z'
loop_
 _atom_site_type_symbol
 _atom_site_label
 _atom_site_symmetry_multiplicity
 _atom_site_fract_x
 _atom_site_fract_y
 _atom_site_fract_z
 _atom_site_occupancy
  Ca  Ca0  1  0.19773499  0.39547000  0.35949198  1
  Ca  Ca1  1  0.80226500  0.60453000  0.64050798  1
  Eu  Eu2  1  0.81435300  0.62870600  0.17753797  1
  Ca  Ca3  1  0.18564699  0.37129400  0.82246199  1
  Eu  Eu4  1  0.49999998  1.00000000  0.49999996  1
  W  W5  1  0.71501599  1.00000000  -0.00000005  1
  Ru  Ru6  1  0.28498398  1.00000000  -0.00000005  1
  Ru  Ru7  1  0.58717899  0.66537800  0.91283798  1
  O  O8  1  0.92180101  0.33462200  0.08716198  1
  O  O9  1  0.41282100  0.33462200  0.08716198  1
  O  O10  1  0.07819898  0.66537800  0.91283798  1
  O  O11  1  0.40143800  0.30722300  0.57255699  1
  O  O12  1  0.09421498  0.69277700  0.42744297  1
  O  O13  1  0.59856199  0.69277700  0.42744297  1
  O  O14  1  0.99928699  0.99857400  0.81907696  1
  O  O15  1  0.00071300  0.00142600  0.18092300  1
  O  O16  1  0.50206301  0.00412600  0.79161901  1
  O  O17  1  0.49793698  0.99587400  0.20838095  1
  O  O18  1  0.90578501  0.30722300  0.57255699  1
