# generated using pymatgen
data_Li6CuO8
_symmetry_space_group_name_H-M   'P 1'
_cell_length_a   5.20733118
_cell_length_b   5.50715208
_cell_length_c   7.77722216
_cell_angle_alpha   108.47334290
_cell_angle_beta   97.50461578
_cell_angle_gamma   105.17909241
_symmetry_Int_Tables_number   1
_chemical_formula_structural   Li6CuO8
_chemical_formula_sum   'Li6 Cu1 O8'
_cell_volume   198.52449751
_cell_formula_units_Z   1
loop_
 _symmetry_equiv_pos_site_id
 _symmetry_equiv_pos_as_xyz
  1  'x, y, z'
loop_
 _atom_site_type_symbol
 _atom_site_label
 _atom_site_symmetry_multiplicity
 _atom_site_fract_x
 _atom_site_fract_y
 _atom_site_fract_z
 _atom_site_occupancy
  Li  Li0  1  -0.00000001  0.49999999  -0.00000000  1
  Li  Li1  1  0.69912797  0.88387598  0.90392801  1
  Li  Li2  1  0.30087199  0.11612400  0.09607200  1
  Li  Li3  1  0.11428599  0.70775398  0.69480201  1
  Li  Li4  1  0.88571398  0.29224599  0.30519800  1
  Cu  Cu5  1  0.06404600  0.04795700  0.84481702  1
  O  O6  1  0.31369098  0.71880398  0.94394102  1
  Li  Li7  1  0.09621499  0.32856199  0.54344701  1
  O  O8  1  0.19772799  0.45440799  0.20574800  1
  O  O9  1  0.47302698  0.86909598  0.68032001  1
  O  O10  1  0.52697299  0.13090400  0.31968000  1
  O  O11  1  0.80227198  0.54559199  0.79425101  1
  O  O12  1  0.90378497  0.67143799  0.45655300  1
  O  O13  1  0.68630898  0.28119599  0.05605899  1
  O  O14  1  0.93595397  0.95204298  0.15518299  1
