# generated using pymatgen
data_K3Na(AgO4)2
_symmetry_space_group_name_H-M   'P 1'
_cell_length_a   6.13734198
_cell_length_b   6.13734102
_cell_length_c   7.90922308
_cell_angle_alpha   90.00000000
_cell_angle_beta   90.00000000
_cell_angle_gamma   120.00000763
_symmetry_Int_Tables_number   1
_chemical_formula_structural   K3Na(AgO4)2
_chemical_formula_sum   'K3 Na1 Ag2 O8'
_cell_volume   258.00314622
_cell_formula_units_Z   1
loop_
 _symmetry_equiv_pos_site_id
 _symmetry_equiv_pos_as_xyz
  1  'x, y, z'
loop_
 _atom_site_type_symbol
 _atom_site_label
 _atom_site_symmetry_multiplicity
 _atom_site_fract_x
 _atom_site_fract_y
 _atom_site_fract_z
 _atom_site_occupancy
  K  K0  1  0.33333337  0.66666669  0.69045299  1
  K  K1  1  0.66666669  0.33333334  0.30954700  1
  K  K2  1  0.00000000  0.00000000  0.00000000  1
  Na  Na3  1  0.00000000  0.00000000  0.49999999  1
  Ag  Ag4  1  0.33333337  0.66666669  0.25181400  1
  Ag  Ag5  1  0.66666669  0.33333334  0.74818599  1
  O  O6  1  0.33333337  0.66666669  0.03908800  1
  O  O7  1  0.66666669  0.33333334  0.96091199  1
  O  O8  1  0.17683504  0.82316403  0.32849200  1
  O  O9  1  0.82316501  0.17683601  0.67150799  1
  O  O10  1  0.17683502  0.35367001  0.32849200  1
  O  O11  1  0.82316504  0.64633002  0.67150799  1
  O  O12  1  0.64632905  0.82316403  0.32849200  1
  O  O13  1  0.35367101  0.17683601  0.67150799  1
