# generated using pymatgen
data_Ba4TlOs6
_symmetry_space_group_name_H-M   'P 1'
_cell_length_a   6.07573986
_cell_length_b   6.07573891
_cell_length_c   11.00960064
_cell_angle_alpha   90.00000000
_cell_angle_beta   90.00000000
_cell_angle_gamma   120.00000763
_symmetry_Int_Tables_number   1
_chemical_formula_structural   Ba4TlOs6
_chemical_formula_sum   'Ba4 Tl1 Os6'
_cell_volume   351.96577705
_cell_formula_units_Z   1
loop_
 _symmetry_equiv_pos_site_id
 _symmetry_equiv_pos_as_xyz
  1  'x, y, z'
loop_
 _atom_site_type_symbol
 _atom_site_label
 _atom_site_symmetry_multiplicity
 _atom_site_fract_x
 _atom_site_fract_y
 _atom_site_fract_z
 _atom_site_occupancy
  Ba  Ba0  1  0.00000000  0.00000000  0.33096201  1
  Ba  Ba1  1  0.33333337  0.66666669  0.20212201  1
  Ba  Ba2  1  0.33333337  0.66666669  0.79787803  1
  Ba  Ba3  1  0.66666670  0.33333334  -0.00000000  1
  Tl  Tl4  1  0.00000000  0.00000000  0.66903802  1
  Os  Os5  1  0.48539805  0.97079603  0.50000002  1
  Os  Os6  1  0.02920402  0.51460202  0.50000002  1
  Os  Os7  1  0.48539803  0.51460202  0.50000002  1
  Os  Os8  1  0.66666670  0.33333334  0.32568601  1
  Os  Os9  1  0.66666670  0.33333334  0.67431402  1
  Os  Os10  1  0.00000000  0.00000000  0.00000000  1
