# generated using pymatgen
data_Sc3Si5Os
_symmetry_space_group_name_H-M   'P 1'
_cell_length_a   3.82517099
_cell_length_b   6.59438801
_cell_length_c   6.59438848
_cell_angle_alpha   120.00000000
_cell_angle_beta   90.00000000
_cell_angle_gamma   90.00000000
_symmetry_Int_Tables_number   1
_chemical_formula_structural   Sc3Si5Os
_chemical_formula_sum   'Sc3 Si5 Os1'
_cell_volume   144.05572122
_cell_formula_units_Z   1
loop_
 _symmetry_equiv_pos_site_id
 _symmetry_equiv_pos_as_xyz
  1  'x, y, z'
loop_
 _atom_site_type_symbol
 _atom_site_label
 _atom_site_symmetry_multiplicity
 _atom_site_fract_x
 _atom_site_fract_y
 _atom_site_fract_z
 _atom_site_occupancy
  Sc  Sc0  1  -0.00000000  0.40590701  0.40590701  1
  Sc  Sc1  1  -0.00000000  1.00000002  0.59409303  1
  Sc  Sc2  1  -0.00000000  0.59409301  0.00000002  1
  Si  Si3  1  0.50000000  0.66666668  0.33333336  1
  Si  Si4  1  0.50000000  0.33333334  0.66666667  1
  Si  Si5  1  0.00000000  0.00000000  0.00000000  1
  Si  Si6  1  0.50000000  0.73783001  0.73783002  1
  Si  Si7  1  0.50000000  1.00000002  0.26217004  1
  Os  Os8  1  0.50000000  0.26217001  0.00000001  1
