# generated using pymatgen
data_Yb3Mg4In
_symmetry_space_group_name_H-M   'P 1'
_cell_length_a   5.46261883
_cell_length_b   7.26542997
_cell_length_c   7.26542997
_cell_angle_alpha   60.00000000
_cell_angle_beta   90.00000000
_cell_angle_gamma   90.00000000
_symmetry_Int_Tables_number   1
_chemical_formula_structural   Yb3Mg4In
_chemical_formula_sum   'Yb3 Mg4 In1'
_cell_volume   249.72048600
_cell_formula_units_Z   1
loop_
 _symmetry_equiv_pos_site_id
 _symmetry_equiv_pos_as_xyz
  1  'x, y, z'
loop_
 _atom_site_type_symbol
 _atom_site_label
 _atom_site_symmetry_multiplicity
 _atom_site_fract_x
 _atom_site_fract_y
 _atom_site_fract_z
 _atom_site_occupancy
  Yb  Yb0  1  0.75000002  0.81896300  0.36207400  1
  Yb  Yb1  1  0.75000002  0.36207400  0.81896301  1
  Mg  Mg2  1  0.75000002  0.81896300  0.81896300  1
  Yb  Yb3  1  0.25000001  0.18103700  0.63792601  1
  Mg  Mg4  1  0.25000001  0.63792600  0.18103700  1
  Mg  Mg5  1  0.25000001  0.18103700  0.18103700  1
  Mg  Mg6  1  0.75000002  0.33333334  0.33333334  1
  In  In7  1  0.25000001  0.66666667  0.66666667  1
