# generated using pymatgen
data_Yb(CdPd)2
_symmetry_space_group_name_H-M   'P 1'
_cell_length_a   3.67317510
_cell_length_b   7.67991495
_cell_length_c   7.67991495
_cell_angle_alpha   90.00000000
_cell_angle_beta   90.00000000
_cell_angle_gamma   90.00000000
_symmetry_Int_Tables_number   1
_chemical_formula_structural   Yb(CdPd)2
_chemical_formula_sum   'Yb2 Cd4 Pd4'
_cell_volume   216.64788440
_cell_formula_units_Z   2
loop_
 _symmetry_equiv_pos_site_id
 _symmetry_equiv_pos_as_xyz
  1  'x, y, z'
loop_
 _atom_site_type_symbol
 _atom_site_label
 _atom_site_symmetry_multiplicity
 _atom_site_fract_x
 _atom_site_fract_y
 _atom_site_fract_z
 _atom_site_occupancy
  Yb  Yb0  1  0.49999999  0.67160400  0.17160400  1
  Yb  Yb1  1  0.49999999  0.32839600  0.82839601  1
  Cd  Cd2  1  0.49999999  0.17160400  0.32839600  1
  Cd  Cd3  1  0.49999999  0.82839601  0.67160400  1
  Cd  Cd4  1  0.00000000  0.50000000  0.50000000  1
  Cd  Cd5  1  0.00000000  0.00000000  0.00000000  1
  Pd  Pd6  1  0.00000000  0.12133200  0.62133200  1
  Pd  Pd7  1  0.00000000  0.87866801  0.37866800  1
  Pd  Pd8  1  0.00000000  0.62133200  0.87866801  1
  Pd  Pd9  1  -0.00000000  0.37866800  0.12133200  1
