# generated using pymatgen
data_KNaYTiO6
_symmetry_space_group_name_H-M   'P 1'
_cell_length_a   6.07458210
_cell_length_b   6.13890314
_cell_length_c   6.07458210
_cell_angle_alpha   119.65400696
_cell_angle_beta   90.00000000
_cell_angle_gamma   119.65400696
_symmetry_Int_Tables_number   1
_chemical_formula_structural   KNaYTiO6
_chemical_formula_sum   'K1 Na1 Y1 Ti1 O6'
_cell_volume   161.84100275
_cell_formula_units_Z   1
loop_
 _symmetry_equiv_pos_site_id
 _symmetry_equiv_pos_as_xyz
  1  'x, y, z'
loop_
 _atom_site_type_symbol
 _atom_site_label
 _atom_site_symmetry_multiplicity
 _atom_site_fract_x
 _atom_site_fract_y
 _atom_site_fract_z
 _atom_site_occupancy
  Na  Na0  1  0.75000001  0.50000001  0.25000002  1
  K  K1  1  0.25000002  0.50000001  0.75000002  1
  Y  Y2  1  0.00000000  0.00000000  0.00000000  1
  Ti  Ti3  1  0.49999999  0.00000000  0.49999999  1
  O  O4  1  0.73367901  0.46735801  0.73367901  1
  O  O5  1  0.26632102  0.53264201  0.26632102  1
  O  O6  1  0.76452604  1.00000002  0.31334605  1
  O  O7  1  0.23547400  0.00000000  0.68665399  1
  O  O8  1  0.31334600  0.00000100  0.23547500  1
  O  O9  1  0.68665404  0.99999902  0.76452504  1
