# generated using pymatgen
data_LaW2O5
_symmetry_space_group_name_H-M   'P 1'
_cell_length_a   4.98343897
_cell_length_b   4.98343897
_cell_length_c   4.98343849
_cell_angle_alpha   97.92275238
_cell_angle_beta   97.92275238
_cell_angle_gamma   97.92274475
_symmetry_Int_Tables_number   1
_chemical_formula_structural   LaW2O5
_chemical_formula_sum   'La1 W2 O5'
_cell_volume   119.84896817
_cell_formula_units_Z   1
loop_
 _symmetry_equiv_pos_site_id
 _symmetry_equiv_pos_as_xyz
  1  'x, y, z'
loop_
 _atom_site_type_symbol
 _atom_site_label
 _atom_site_symmetry_multiplicity
 _atom_site_fract_x
 _atom_site_fract_y
 _atom_site_fract_z
 _atom_site_occupancy
  La  La0  1  0.50000001  0.50000000  0.50000002  1
  W  W1  1  0.00000000  0.00000000  0.00000000  1
  W  W2  1  0.92474700  0.31712400  0.21978303  1
  O  O3  1  0.31712400  0.21978300  0.92474699  1
  O  O4  1  0.21978303  0.92474699  0.31712403  1
  O  O5  1  0.07525302  0.68287600  0.78021700  1
  O  O6  1  0.68287602  0.78021700  0.07525305  1
  O  O7  1  0.78021699  0.07525300  0.68287600  1
