# generated using pymatgen
data_TlFeSe3
_symmetry_space_group_name_H-M   'P 1'
_cell_length_a   6.86085081
_cell_length_b   7.56113338
_cell_length_c   7.76603508
_cell_angle_alpha   98.82043457
_cell_angle_beta   114.44948578
_cell_angle_gamma   107.95584106
_symmetry_Int_Tables_number   1
_chemical_formula_structural   TlFeSe3
_chemical_formula_sum   'Tl2 Fe2 Se6'
_cell_volume   330.01175340
_cell_formula_units_Z   2
loop_
 _symmetry_equiv_pos_site_id
 _symmetry_equiv_pos_as_xyz
  1  'x, y, z'
loop_
 _atom_site_type_symbol
 _atom_site_label
 _atom_site_symmetry_multiplicity
 _atom_site_fract_x
 _atom_site_fract_y
 _atom_site_fract_z
 _atom_site_occupancy
  Tl  Tl0  1  0.76808492  0.81579799  0.13893389  1
  Tl  Tl1  1  0.23191498  0.18420200  0.86106598  1
  Fe  Fe2  1  0.22247395  0.51291699  0.42574694  1
  Fe  Fe3  1  0.77752595  0.48708299  0.57425292  1
  Se  Se4  1  0.16843894  0.60212899  0.11324293  1
  Se  Se5  1  0.78154397  0.30136100  0.28821594  1
  Se  Se6  1  0.34020798  0.23984200  0.43775397  1
  Se  Se7  1  0.65979192  0.76015799  0.56224590  1
  Se  Se8  1  0.83156096  0.39787099  0.88675693  1
  Se  Se9  1  0.21845593  0.69863899  0.71178393  1
