# generated using pymatgen
data_EuCd5
_symmetry_space_group_name_H-M   'P 1'
_cell_length_a   6.13198614
_cell_length_b   6.13198614
_cell_length_c   6.59788895
_cell_angle_alpha   62.30964279
_cell_angle_beta   62.30964279
_cell_angle_gamma   60.00000000
_symmetry_Int_Tables_number   1
_chemical_formula_structural   EuCd5
_chemical_formula_sum   'Eu1 Cd5'
_cell_volume   181.30196643
_cell_formula_units_Z   1
loop_
 _symmetry_equiv_pos_site_id
 _symmetry_equiv_pos_as_xyz
  1  'x, y, z'
loop_
 _atom_site_type_symbol
 _atom_site_label
 _atom_site_symmetry_multiplicity
 _atom_site_fract_x
 _atom_site_fract_y
 _atom_site_fract_z
 _atom_site_occupancy
  Eu  Eu0  1  0.16036599  0.49999999  0.50000000  1
  Cd  Cd1  1  0.83963397  0.16036600  0.50000000  1
  Cd  Cd2  1  0.49999998  0.83963398  0.50000000  1
  Cd  Cd3  1  0.33199199  0.33199199  0.00402399  1
  Cd  Cd4  1  0.66800797  0.66800798  0.99597600  1
  Cd  Cd5  1  0.00000000  0.00000000  0.00000000  1
