# generated using pymatgen
data_Li2Lu2Si3POs
_symmetry_space_group_name_H-M   'P 1'
_cell_length_a   3.98273802
_cell_length_b   4.00239420
_cell_length_c   10.76081944
_cell_angle_alpha   90.00000000
_cell_angle_beta   79.33552551
_cell_angle_gamma   90.00000000
_symmetry_Int_Tables_number   1
_chemical_formula_structural   Li2Lu2Si3POs
_chemical_formula_sum   'Li2 Lu2 Si3 P1 Os1'
_cell_volume   168.56994852
_cell_formula_units_Z   1
loop_
 _symmetry_equiv_pos_site_id
 _symmetry_equiv_pos_as_xyz
  1  'x, y, z'
loop_
 _atom_site_type_symbol
 _atom_site_label
 _atom_site_symmetry_multiplicity
 _atom_site_fract_x
 _atom_site_fract_y
 _atom_site_fract_z
 _atom_site_occupancy
  Li  Li0  1  0.22333500  0.49999998  0.55333103  1
  Li  Li1  1  0.88615199  0.49999998  0.22769502  1
  Lu  Lu2  1  0.44320699  0.00000000  0.11358701  1
  Lu  Lu3  1  0.50182699  0.49999998  0.99634605  1
  Si  Si4  1  0.61991099  0.49999998  0.76017904  1
  Si  Si5  1  0.00186200  0.99999995  0.99627604  1
  Os  Os6  1  0.12084000  0.99999995  0.75832003  1
  Si  Si7  1  0.33583500  0.99999995  0.32833002  1
  P  P8  1  0.76003199  0.00000000  0.47993603  1
