# generated using pymatgen
data_Ti(CuS2)2
_symmetry_space_group_name_H-M   'P 1'
_cell_length_a   3.35968399
_cell_length_b   3.35968423
_cell_length_c   12.89346313
_cell_angle_alpha   90.00000000
_cell_angle_beta   90.00000000
_cell_angle_gamma   120.00000000
_symmetry_Int_Tables_number   1
_chemical_formula_structural   Ti(CuS2)2
_chemical_formula_sum   'Ti1 Cu2 S4'
_cell_volume   126.03672366
_cell_formula_units_Z   1
loop_
 _symmetry_equiv_pos_site_id
 _symmetry_equiv_pos_as_xyz
  1  'x, y, z'
loop_
 _atom_site_type_symbol
 _atom_site_label
 _atom_site_symmetry_multiplicity
 _atom_site_fract_x
 _atom_site_fract_y
 _atom_site_fract_z
 _atom_site_occupancy
  Cu  Cu0  1  0.00000000  0.00000000  0.49999999  1
  Ti  Ti1  1  0.00000000  0.00000000  0.75303099  1
  Cu  Cu2  1  0.00000000  0.00000000  0.24696900  1
  S  S3  1  0.66666669  0.33333335  0.62950599  1
  S  S4  1  0.33333337  0.66666669  0.37049400  1
  S  S5  1  0.33333337  0.66666669  0.12855400  1
  S  S6  1  0.66666669  0.33333335  0.87144599  1
