# generated using pymatgen
data_Ba2Mo3WO12
_symmetry_space_group_name_H-M   'P 1'
_cell_length_a   7.51708984
_cell_length_b   7.65087414
_cell_length_c   7.65087414
_cell_angle_alpha   61.63083649
_cell_angle_beta   60.57677078
_cell_angle_gamma   60.57677078
_symmetry_Int_Tables_number   1
_chemical_formula_structural   Ba2Mo3WO12
_chemical_formula_sum   'Ba2 Mo3 W1 O12'
_cell_volume   317.57836883
_cell_formula_units_Z   1
loop_
 _symmetry_equiv_pos_site_id
 _symmetry_equiv_pos_as_xyz
  1  'x, y, z'
loop_
 _atom_site_type_symbol
 _atom_site_label
 _atom_site_symmetry_multiplicity
 _atom_site_fract_x
 _atom_site_fract_y
 _atom_site_fract_z
 _atom_site_occupancy
  Ba  Ba0  1  0.60671802  0.64328202  0.14328199  1
  Ba  Ba1  1  0.39328201  0.35671801  0.85671802  1
  W  W2  1  0.50000001  0.00000000  0.50000001  1
  Mo  Mo3  1  0.00000000  1.00000004  0.50000000  1
  Mo  Mo4  1  1.00000002  0.50000002  0.50000000  1
  Mo  Mo5  1  0.00000000  0.00000000  0.00000000  1
  O  O6  1  0.91775702  0.31377701  0.44248300  1
  O  O7  1  0.08224200  0.05751800  0.18622300  1
  O  O8  1  0.67401802  0.68622302  0.55751700  1
  O  O9  1  0.32598301  0.94248203  0.81377700  1
  O  O10  1  0.08224300  0.68622302  0.55751700  1
  O  O11  1  0.91775802  0.94248203  0.81377700  1
  O  O12  1  0.32598201  0.31377701  0.44248301  1
  O  O13  1  0.67401702  0.05751800  0.18622300  1
  O  O14  1  0.08266100  0.66733902  0.16733899  1
  O  O15  1  0.91733902  0.33266101  0.83266101  1
  O  O16  1  0.30118701  0.94881303  0.44881299  1
  O  O17  1  0.69881302  0.05118700  0.55118701  1
