# generated using pymatgen
data_Sm5Pb3
_symmetry_space_group_name_H-M   'P 1'
_cell_length_a   6.71854115
_cell_length_b   8.96138573
_cell_length_c   8.96138573
_cell_angle_alpha   120.00000000
_cell_angle_beta   90.00000000
_cell_angle_gamma   90.00000000
_symmetry_Int_Tables_number   1
_chemical_formula_structural   Sm5Pb3
_chemical_formula_sum   'Sm10 Pb6'
_cell_volume   467.25714947
_cell_formula_units_Z   2
loop_
 _symmetry_equiv_pos_site_id
 _symmetry_equiv_pos_as_xyz
  1  'x, y, z'
loop_
 _atom_site_type_symbol
 _atom_site_label
 _atom_site_symmetry_multiplicity
 _atom_site_fract_x
 _atom_site_fract_y
 _atom_site_fract_z
 _atom_site_occupancy
  Sm  Sm0  1  0.49999999  0.33333334  0.66666669  1
  Sm  Sm1  1  0.49999999  0.66666669  0.33333335  1
  Sm  Sm2  1  -0.00000000  0.66666669  0.33333335  1
  Sm  Sm3  1  -0.00000000  0.33333334  0.66666669  1
  Sm  Sm4  1  0.74999998  0.23546101  0.00000000  1
  Sm  Sm5  1  0.74999998  0.76453902  0.76453903  1
  Sm  Sm6  1  0.74999998  1.00000003  0.23546101  1
  Sm  Sm7  1  0.24999999  0.76453902  0.00000000  1
  Sm  Sm8  1  0.24999999  0.23546101  0.23546101  1
  Sm  Sm9  1  0.24999999  1.00000003  0.76453903  1
  Pb  Pb10  1  0.74999998  0.59744102  1.00000004  1
  Pb  Pb11  1  0.74999998  0.40255901  0.40255902  1
  Pb  Pb12  1  0.74999998  1.00000003  0.59744103  1
  Pb  Pb13  1  0.24999999  0.40255901  0.00000000  1
  Pb  Pb14  1  0.24999999  0.59744102  0.59744102  1
  Pb  Pb15  1  0.24999999  1.00000003  0.40255902  1
