# generated using pymatgen
data_TaSi2
_symmetry_space_group_name_H-M   'P 1'
_cell_length_a   4.87179804
_cell_length_b   4.87179804
_cell_length_c   7.70530081
_cell_angle_alpha   90.00000000
_cell_angle_beta   90.00000000
_cell_angle_gamma   120.00000000
_symmetry_Int_Tables_number   1
_chemical_formula_structural   TaSi2
_chemical_formula_sum   'Ta4 Si8'
_cell_volume   158.37943232
_cell_formula_units_Z   4
loop_
 _symmetry_equiv_pos_site_id
 _symmetry_equiv_pos_as_xyz
  1  'x, y, z'
loop_
 _atom_site_type_symbol
 _atom_site_label
 _atom_site_symmetry_multiplicity
 _atom_site_fract_x
 _atom_site_fract_y
 _atom_site_fract_z
 _atom_site_occupancy
  Ta  Ta0  1  0.66666667  0.33333334  0.56007301  1
  Ta  Ta1  1  0.33333334  0.66666669  0.43992701  1
  Ta  Ta2  1  0.33333334  0.66666669  0.06007300  1
  Ta  Ta3  1  0.66666667  0.33333334  0.93992702  1
  Si  Si4  1  0.00000000  0.00000000  0.50000001  1
  Si  Si5  1  0.00000000  0.00000000  0.00000000  1
  Si  Si6  1  0.16887601  0.33775201  0.75000002  1
  Si  Si7  1  0.16887602  0.83112303  0.75000002  1
  Si  Si8  1  0.66224701  0.83112303  0.75000002  1
  Si  Si9  1  0.83112401  0.66224802  0.25000001  1
  Si  Si10  1  0.83112400  0.16887701  0.25000001  1
  Si  Si11  1  0.33775300  0.16887701  0.25000001  1
