# generated using pymatgen
data_NbCuP3
_symmetry_space_group_name_H-M   'P 1'
_cell_length_a   3.87894607
_cell_length_b   3.87894630
_cell_length_c   6.02267408
_cell_angle_alpha   90.00000000
_cell_angle_beta   90.00000000
_cell_angle_gamma   120.00000000
_symmetry_Int_Tables_number   1
_chemical_formula_structural   NbCuP3
_chemical_formula_sum   'Nb1 Cu1 P3'
_cell_volume   78.47792338
_cell_formula_units_Z   1
loop_
 _symmetry_equiv_pos_site_id
 _symmetry_equiv_pos_as_xyz
  1  'x, y, z'
loop_
 _atom_site_type_symbol
 _atom_site_label
 _atom_site_symmetry_multiplicity
 _atom_site_fract_x
 _atom_site_fract_y
 _atom_site_fract_z
 _atom_site_occupancy
  Nb  Nb0  1  0.33333335  0.66666666  0.24395200  1
  Cu  Cu1  1  0.66666667  0.33333333  0.75604799  1
  P  P2  1  0.33333335  0.66666666  0.63205199  1
  P  P3  1  0.66666667  0.33333333  0.36794799  1
  P  P4  1  0.00000000  0.00000000  0.00000000  1
