# generated using pymatgen
data_Eu2ZnSn3
_symmetry_space_group_name_H-M   'P 1'
_cell_length_a   4.80159187
_cell_length_b   4.80159235
_cell_length_c   8.28682899
_cell_angle_alpha   90.00000000
_cell_angle_beta   90.00000000
_cell_angle_gamma   120.00000000
_symmetry_Int_Tables_number   1
_chemical_formula_structural   Eu2ZnSn3
_chemical_formula_sum   'Eu2 Zn1 Sn3'
_cell_volume   165.45867334
_cell_formula_units_Z   1
loop_
 _symmetry_equiv_pos_site_id
 _symmetry_equiv_pos_as_xyz
  1  'x, y, z'
loop_
 _atom_site_type_symbol
 _atom_site_label
 _atom_site_symmetry_multiplicity
 _atom_site_fract_x
 _atom_site_fract_y
 _atom_site_fract_z
 _atom_site_occupancy
  Eu  Eu0  1  0.00000000  0.00000000  0.00000000  1
  Eu  Eu1  1  0.00000000  0.00000000  0.50000000  1
  Zn  Zn2  1  0.66666670  0.33333334  0.25000000  1
  Sn  Sn3  1  0.33333337  0.66666667  0.75000000  1
  Sn  Sn4  1  0.66666670  0.33333334  0.75000000  1
  Sn  Sn5  1  0.33333337  0.66666667  0.25000000  1
