# generated using pymatgen
data_K3NaV2O8
_symmetry_space_group_name_H-M   'P 1'
_cell_length_a   6.11857224
_cell_length_b   6.11857319
_cell_length_c   7.91232681
_cell_angle_alpha   90.00000000
_cell_angle_beta   90.00000000
_cell_angle_gamma   119.99999237
_symmetry_Int_Tables_number   1
_chemical_formula_structural   K3NaV2O8
_chemical_formula_sum   'K3 Na1 V2 O8'
_cell_volume   256.52821145
_cell_formula_units_Z   1
loop_
 _symmetry_equiv_pos_site_id
 _symmetry_equiv_pos_as_xyz
  1  'x, y, z'
loop_
 _atom_site_type_symbol
 _atom_site_label
 _atom_site_symmetry_multiplicity
 _atom_site_fract_x
 _atom_site_fract_y
 _atom_site_fract_z
 _atom_site_occupancy
  K  K0  1  0.66666663  0.33333332  0.29730201  1
  K  K1  1  0.33333329  0.66666664  0.70269802  1
  K  K2  1  0.00000000  0.00000000  0.00000000  1
  Na  Na3  1  0.00000000  0.00000000  0.50000001  1
  V  V4  1  0.66666663  0.33333332  0.75031402  1
  V  V5  1  0.33333329  0.66666664  0.24968601  1
  O  O6  1  0.66666663  0.33333332  0.96405902  1
  O  O7  1  0.33333329  0.66666664  0.03594100  1
  O  O8  1  0.82336994  0.64673997  0.67493702  1
  O  O9  1  0.17662998  0.35325999  0.32506301  1
  O  O10  1  0.82336996  0.17662999  0.67493702  1
  O  O11  1  0.17662996  0.82336997  0.32506301  1
  O  O12  1  0.35325998  0.17662999  0.67493702  1
  O  O13  1  0.64673994  0.82336997  0.32506301  1
