# generated using pymatgen
data_LiNiO2
_symmetry_space_group_name_H-M   'P 1'
_cell_length_a   4.99821520
_cell_length_b   5.09100103
_cell_length_c   5.92637110
_cell_angle_alpha   90.00000000
_cell_angle_beta   90.00000000
_cell_angle_gamma   108.69156647
_symmetry_Int_Tables_number   1
_chemical_formula_structural   LiNiO2
_chemical_formula_sum   'Li4 Ni4 O8'
_cell_volume   142.84827903
_cell_formula_units_Z   4
loop_
 _symmetry_equiv_pos_site_id
 _symmetry_equiv_pos_as_xyz
  1  'x, y, z'
loop_
 _atom_site_type_symbol
 _atom_site_label
 _atom_site_symmetry_multiplicity
 _atom_site_fract_x
 _atom_site_fract_y
 _atom_site_fract_z
 _atom_site_occupancy
  Li  Li0  1  0.00000003  0.50000003  0.49999999  1
  Li  Li1  1  0.50000001  0.50000003  0.26253300  1
  Li  Li2  1  0.00000003  0.50000003  -0.00000000  1
  Li  Li3  1  0.50000001  0.50000003  0.73746699  1
  Ni  Ni4  1  0.50000005  1.00000006  0.49999999  1
  Ni  Ni5  1  0.00000000  0.00000000  0.74261199  1
  Ni  Ni6  1  0.00000000  0.00000000  0.25738800  1
  Ni  Ni7  1  0.50000005  1.00000006  -0.00000000  1
  O  O8  1  0.25495904  0.78408505  0.76988299  1
  O  O9  1  0.77430502  0.76089505  0.49999999  1
  O  O10  1  0.25495904  0.78408505  0.23011700  1
  O  O11  1  0.74877302  0.77561305  -0.00000000  1
  O  O12  1  0.74504099  0.21591501  0.23011700  1
  O  O13  1  0.25122701  0.22438701  -0.00000000  1
  O  O14  1  0.74504099  0.21591501  0.76988299  1
  O  O15  1  0.22569501  0.23910501  0.49999999  1
