# generated using pymatgen
data_Ca2RuO4
_symmetry_space_group_name_H-M   'P 1'
_cell_length_a   5.38033390
_cell_length_b   5.40384388
_cell_length_c   6.76451111
_cell_angle_alpha   66.45769501
_cell_angle_beta   90.00000000
_cell_angle_gamma   90.00000000
_symmetry_Int_Tables_number   1
_chemical_formula_structural   Ca2RuO4
_chemical_formula_sum   'Ca4 Ru2 O8'
_cell_volume   180.30453579
_cell_formula_units_Z   2
loop_
 _symmetry_equiv_pos_site_id
 _symmetry_equiv_pos_as_xyz
  1  'x, y, z'
loop_
 _atom_site_type_symbol
 _atom_site_label
 _atom_site_symmetry_multiplicity
 _atom_site_fract_x
 _atom_site_fract_y
 _atom_site_fract_z
 _atom_site_occupancy
  Ca  Ca0  1  1.00000002  0.35816201  0.28367600  1
  Ca  Ca1  1  0.50000001  0.86077003  0.27845998  1
  Ca  Ca2  1  0.50000001  0.14054101  0.71891801  1
  Ca  Ca3  1  -0.00000000  0.63982003  0.72036000  1
  Ru  Ru4  1  0.50000001  0.49713302  0.00573398  1
  Ru  Ru5  1  -0.00000000  0.99932304  0.00135397  1
  O  O6  1  0.50000001  0.67320403  0.65359199  1
  O  O7  1  -0.00000000  0.16177101  0.67645801  1
  O  O8  1  -0.00000000  0.82837503  0.34324998  1
  O  O9  1  0.50000001  0.32720801  0.34558400  1
  O  O10  1  0.74654801  0.75698403  0.99315300  1
  O  O11  1  0.25345200  0.24986301  0.99315302  1
  O  O12  1  0.25345200  0.75698403  0.99315300  1
  O  O13  1  0.74654801  0.24986301  0.99315302  1
