# generated using pymatgen
data_Yb(CuGe)2
_symmetry_space_group_name_H-M   'P 1'
_cell_length_a   4.11380196
_cell_length_b   4.11380291
_cell_length_c   6.86241913
_cell_angle_alpha   90.00000000
_cell_angle_beta   90.00000000
_cell_angle_gamma   119.99999237
_symmetry_Int_Tables_number   1
_chemical_formula_structural   Yb(CuGe)2
_chemical_formula_sum   'Yb1 Cu2 Ge2'
_cell_volume   100.57609416
_cell_formula_units_Z   1
loop_
 _symmetry_equiv_pos_site_id
 _symmetry_equiv_pos_as_xyz
  1  'x, y, z'
loop_
 _atom_site_type_symbol
 _atom_site_label
 _atom_site_symmetry_multiplicity
 _atom_site_fract_x
 _atom_site_fract_y
 _atom_site_fract_z
 _atom_site_occupancy
  Yb  Yb0  1  0.00000000  0.00000000  0.00000000  1
  Cu  Cu1  1  0.33333332  0.66666665  0.63726299  1
  Cu  Cu2  1  0.66666667  0.33333332  0.36273699  1
  Ge  Ge3  1  0.33333332  0.66666665  0.26669800  1
  Ge  Ge4  1  0.66666667  0.33333332  0.73330199  1
