# generated using pymatgen
data_DyGa3
_symmetry_space_group_name_H-M   'P 1'
_cell_length_a   4.53656912
_cell_length_b   6.72616005
_cell_length_c   10.12228680
_cell_angle_alpha   90.00000000
_cell_angle_beta   90.00000000
_cell_angle_gamma   90.00000000
_symmetry_Int_Tables_number   1
_chemical_formula_structural   DyGa3
_chemical_formula_sum   'Dy4 Ga12'
_cell_volume   308.86832106
_cell_formula_units_Z   4
loop_
 _symmetry_equiv_pos_site_id
 _symmetry_equiv_pos_as_xyz
  1  'x, y, z'
loop_
 _atom_site_type_symbol
 _atom_site_label
 _atom_site_symmetry_multiplicity
 _atom_site_fract_x
 _atom_site_fract_y
 _atom_site_fract_z
 _atom_site_occupancy
  Dy  Dy0  1  0.24999999  0.27968600  0.65544701  1
  Dy  Dy1  1  0.24999999  0.77968599  0.84455302  1
  Dy  Dy2  1  0.74999998  0.72031399  0.34455301  1
  Dy  Dy3  1  0.74999998  0.22031400  0.15544700  1
  Ga  Ga4  1  0.24999999  0.53725800  0.11045700  1
  Ga  Ga5  1  0.24999999  0.03725800  0.38954301  1
  Ga  Ga6  1  0.74999998  0.46274200  0.88954302  1
  Ga  Ga7  1  0.74999998  0.96274199  0.61045701  1
  Ga  Ga8  1  0.24999999  0.91848299  0.14557900  1
  Ga  Ga9  1  0.24999999  0.41848300  0.35442101  1
  Ga  Ga10  1  0.74999998  0.08151700  0.85442102  1
  Ga  Ga11  1  0.74999998  0.58151700  0.64557901  1
  Ga  Ga12  1  0.24999999  0.21970400  0.95588502  1
  Ga  Ga13  1  0.24999999  0.71970399  0.54411501  1
  Ga  Ga14  1  0.74999998  0.78029599  0.04411500  1
  Ga  Ga15  1  0.74999998  0.28029600  0.45588501  1
