# generated using pymatgen
data_LiMnO2
_symmetry_space_group_name_H-M   'P 1'
_cell_length_a   5.98152685
_cell_length_b   5.98152685
_cell_length_c   6.00236893
_cell_angle_alpha   91.59007263
_cell_angle_beta   119.06046295
_cell_angle_gamma   118.99478149
_symmetry_Int_Tables_number   1
_chemical_formula_structural   LiMnO2
_chemical_formula_sum   'Li4 Mn4 O8'
_cell_volume   154.15649771
_cell_formula_units_Z   4
loop_
 _symmetry_equiv_pos_site_id
 _symmetry_equiv_pos_as_xyz
  1  'x, y, z'
loop_
 _atom_site_type_symbol
 _atom_site_label
 _atom_site_symmetry_multiplicity
 _atom_site_fract_x
 _atom_site_fract_y
 _atom_site_fract_z
 _atom_site_occupancy
  Li  Li0  1  0.49999993  0.49999998  0.49999995  1
  Li  Li1  1  0.50000000  0.00000000  0.49999998  1
  Li  Li2  1  0.00000000  0.00000000  0.50000002  1
  Li  Li3  1  -0.00000007  0.49999998  0.49999998  1
  Mn  Mn4  1  0.00000000  0.00000000  0.00000000  1
  Mn  Mn5  1  0.99999993  0.49999998  0.99999993  1
  Mn  Mn6  1  0.50000000  0.00000000  -0.00000003  1
  Mn  Mn7  1  0.49999993  0.49999998  -0.00000007  1
  O  O8  1  0.45935489  0.74942897  0.20878392  1
  O  O9  1  0.49746297  0.23905799  0.23300396  1
  O  O10  1  0.99394590  0.73554097  0.23300389  1
  O  O11  1  0.02155396  0.25396099  0.27551499  1
  O  O12  1  0.97844589  0.74603897  0.72448490  1
  O  O13  1  0.00605396  0.26445899  0.76699601  1
  O  O14  1  0.50253689  0.76094197  0.76699594  1
  O  O15  1  0.54064497  0.25057099  0.79121597  1
