# generated using pymatgen
data_HfRe3SbP
_symmetry_space_group_name_H-M   'P 1'
_cell_length_a   3.57207298
_cell_length_b   7.10163784
_cell_length_c   7.10163784
_cell_angle_alpha   90.00000000
_cell_angle_beta   90.00000000
_cell_angle_gamma   90.00000000
_symmetry_Int_Tables_number   1
_chemical_formula_structural   HfRe3SbP
_chemical_formula_sum   'Hf1 Re3 Sb1 P1'
_cell_volume   180.15128553
_cell_formula_units_Z   1
loop_
 _symmetry_equiv_pos_site_id
 _symmetry_equiv_pos_as_xyz
  1  'x, y, z'
loop_
 _atom_site_type_symbol
 _atom_site_label
 _atom_site_symmetry_multiplicity
 _atom_site_fract_x
 _atom_site_fract_y
 _atom_site_fract_z
 _atom_site_occupancy
  P  P0  1  0.00000000  0.00000000  0.00000000  1
  Hf  Hf1  1  0.50000000  0.50000001  0.50000001  1
  Re  Re2  1  0.00000000  0.28051401  0.28051401  1
  Sb  Sb3  1  1.00000000  0.71948602  0.71948602  1
  Re  Re4  1  0.50000000  0.21948600  0.78051402  1
  Re  Re5  1  0.50000000  0.78051402  0.21948600  1
