# generated using pymatgen
data_BaNbO3
_symmetry_space_group_name_H-M   'P 1'
_cell_length_a   6.12945986
_cell_length_b   6.12945986
_cell_length_c   6.12945938
_cell_angle_alpha   60.95509720
_cell_angle_beta   60.95509720
_cell_angle_gamma   60.95509338
_symmetry_Int_Tables_number   1
_chemical_formula_structural   BaNbO3
_chemical_formula_sum   'Ba2 Nb2 O6'
_cell_volume   166.34066540
_cell_formula_units_Z   2
loop_
 _symmetry_equiv_pos_site_id
 _symmetry_equiv_pos_as_xyz
  1  'x, y, z'
loop_
 _atom_site_type_symbol
 _atom_site_label
 _atom_site_symmetry_multiplicity
 _atom_site_fract_x
 _atom_site_fract_y
 _atom_site_fract_z
 _atom_site_occupancy
  Ba  Ba0  1  0.25317200  0.25317199  0.25317200  1
  Ba  Ba1  1  0.74682800  0.74682798  0.74682801  1
  Nb  Nb2  1  0.00000000  0.00000000  0.00000000  1
  Nb  Nb3  1  0.50000000  0.49999999  0.50000001  1
  O  O4  1  0.21774400  0.33927899  0.71410201  1
  O  O5  1  0.28589801  0.78225598  0.66072101  1
  O  O6  1  0.71410199  0.21774399  0.33927901  1
  O  O7  1  0.33927901  0.71410198  0.21774400  1
  O  O8  1  0.66072099  0.28589799  0.78225601  1
  O  O9  1  0.78225600  0.66072098  0.28589800  1
