# generated using pymatgen
data_ErC2
_symmetry_space_group_name_H-M   'P 1'
_cell_length_a   3.16299295
_cell_length_b   3.52022910
_cell_length_c   5.47955322
_cell_angle_alpha   90.00000000
_cell_angle_beta   90.00000000
_cell_angle_gamma   90.00000000
_symmetry_Int_Tables_number   1
_chemical_formula_structural   ErC2
_chemical_formula_sum   'Er2 C4'
_cell_volume   61.01186532
_cell_formula_units_Z   2
loop_
 _symmetry_equiv_pos_site_id
 _symmetry_equiv_pos_as_xyz
  1  'x, y, z'
loop_
 _atom_site_type_symbol
 _atom_site_label
 _atom_site_symmetry_multiplicity
 _atom_site_fract_x
 _atom_site_fract_y
 _atom_site_fract_z
 _atom_site_occupancy
  Er  Er0  1  0.00000000  0.00000000  0.00000000  1
  Er  Er1  1  0.50000001  0.00000000  0.49999998  1
  C  C2  1  0.00000000  0.49999999  0.66834197  1
  C  C3  1  0.50000001  0.49999999  0.16525699  1
  C  C4  1  0.50000001  0.49999999  0.83474297  1
  C  C5  1  0.00000000  0.49999999  0.33165799  1
