# generated using pymatgen
data_Na2AgPO6
_symmetry_space_group_name_H-M   'P 1'
_cell_length_a   6.53573513
_cell_length_b   6.53735113
_cell_length_c   7.20619345
_cell_angle_alpha   91.66009521
_cell_angle_beta   116.08705902
_cell_angle_gamma   90.03554535
_symmetry_Int_Tables_number   1
_chemical_formula_structural   Na2AgPO6
_chemical_formula_sum   'Na4 Ag2 P2 O12'
_cell_volume   276.38181995
_cell_formula_units_Z   2
loop_
 _symmetry_equiv_pos_site_id
 _symmetry_equiv_pos_as_xyz
  1  'x, y, z'
loop_
 _atom_site_type_symbol
 _atom_site_label
 _atom_site_symmetry_multiplicity
 _atom_site_fract_x
 _atom_site_fract_y
 _atom_site_fract_z
 _atom_site_occupancy
  Na  Na0  1  0.11711699  0.08067300  0.72444302  1
  Na  Na1  1  0.88288294  0.91932702  0.27555701  1
  Na  Na2  1  0.11330498  0.38406201  0.24174900  1
  Na  Na3  1  0.88669496  0.61593801  0.75825103  1
  Ag  Ag4  1  0.62221497  0.37275001  0.28428102  1
  Ag  Ag5  1  0.37778496  0.62725001  0.71571902  1
  P  P6  1  0.65805698  0.15261200  0.80878604  1
  P  P7  1  0.34194295  0.84738802  0.19121400  1
  O  O8  1  0.60893897  0.38162501  0.68735803  1
  O  O9  1  0.39106096  0.61837501  0.31264201  1
  O  O10  1  0.77605698  0.18800300  0.07540002  1
  O  O11  1  0.22394295  0.81199702  0.92460002  1
  O  O12  1  0.40869900  0.01044700  0.72159103  1
  O  O13  1  0.59130094  0.98955302  0.27840900  1
  O  O14  1  0.83633699  0.00449400  0.74351004  1
  O  O15  1  0.16366294  0.99550602  0.25648999  1
  O  O16  1  0.00885895  0.79718002  0.50954500  1
  O  O17  1  0.99114098  0.20282000  0.49045503  1
  O  O18  1  0.21047098  0.27050601  0.90247203  1
  O  O19  1  0.78952895  0.72949401  0.09752801  1
