# generated using pymatgen
data_Li2TiS4
_symmetry_space_group_name_H-M   'P 1'
_cell_length_a   7.08970022
_cell_length_b   7.08970022
_cell_length_c   7.08970022
_cell_angle_alpha   89.31908417
_cell_angle_beta   60.37341690
_cell_angle_gamma   119.58872986
_symmetry_Int_Tables_number   1
_chemical_formula_structural   Li2TiS4
_chemical_formula_sum   'Li4 Ti2 S8'
_cell_volume   253.45638288
_cell_formula_units_Z   2
loop_
 _symmetry_equiv_pos_site_id
 _symmetry_equiv_pos_as_xyz
  1  'x, y, z'
loop_
 _atom_site_type_symbol
 _atom_site_label
 _atom_site_symmetry_multiplicity
 _atom_site_fract_x
 _atom_site_fract_y
 _atom_site_fract_z
 _atom_site_occupancy
  Li  Li0  1  -0.00000003  0.49999998  0.49999998  1
  Li  Li1  1  0.49999993  0.99999996  0.49999997  1
  Li  Li2  1  -0.00000003  0.49999998  0.99999997  1
  Li  Li3  1  0.49999996  0.49999998  -0.00000001  1
  Ti  Ti4  1  0.49999996  0.49999998  0.49999998  1
  Ti  Ti5  1  0.00000000  0.00000000  0.00000000  1
  S  S6  1  0.00784399  0.25471699  0.75312698  1
  S  S7  1  0.00569999  0.24948499  0.24481399  1
  S  S8  1  0.49215595  0.73902897  0.75312597  1
  S  S9  1  0.50569995  0.75051397  0.24378598  1
  S  S10  1  0.50784398  0.26097099  0.24687399  1
  S  S11  1  0.99429994  0.75051497  0.75518597  1
  S  S12  1  0.49429998  0.24948599  0.75621398  1
  S  S13  1  0.99215594  0.74528297  0.24687298  1
