# generated using pymatgen
data_Li3CoO4
_symmetry_space_group_name_H-M   'P 1'
_cell_length_a   4.98010588
_cell_length_b   5.12676811
_cell_length_c   5.85154247
_cell_angle_alpha   72.20235443
_cell_angle_beta   89.25598907
_cell_angle_gamma   80.03811646
_symmetry_Int_Tables_number   1
_chemical_formula_structural   Li3CoO4
_chemical_formula_sum   'Li6 Co2 O8'
_cell_volume   139.97914708
_cell_formula_units_Z   2
loop_
 _symmetry_equiv_pos_site_id
 _symmetry_equiv_pos_as_xyz
  1  'x, y, z'
loop_
 _atom_site_type_symbol
 _atom_site_label
 _atom_site_symmetry_multiplicity
 _atom_site_fract_x
 _atom_site_fract_y
 _atom_site_fract_z
 _atom_site_occupancy
  Li  Li0  1  0.75846802  0.50563399  0.61269400  1
  Li  Li1  1  0.24262801  0.49557299  0.37874999  1
  Li  Li2  1  0.75510202  0.49349199  0.13632202  1
  Li  Li3  1  0.24133301  0.50059799  0.87263497  1
  Li  Li4  1  0.00033200  0.00243100  0.49768999  1
  Li  Li5  1  0.00095700  0.99661899  0.00010698  1
  Co  Co6  1  0.50008201  0.00253600  0.74227000  1
  Co  Co7  1  0.50744201  0.00285500  0.25704301  1
  O  O8  1  0.60870601  0.24340300  0.45530601  1
  O  O9  1  0.13717900  0.21285600  0.17678300  1
  O  O10  1  0.63250102  0.21554600  0.94610099  1
  O  O11  1  0.13719800  0.22823200  0.70678398  1
  O  O12  1  0.85950402  0.77916599  0.82205599  1
  O  O13  1  0.39976501  0.78142899  0.56205298  1
  O  O14  1  0.86263702  0.77129499  0.29286101  1
  O  O15  1  0.35616501  0.76833599  0.04054500  1
