# generated using pymatgen
data_Cs2CuO2
_symmetry_space_group_name_H-M   'P 1'
_cell_length_a   4.10269022
_cell_length_b   6.96182489
_cell_length_c   8.81559658
_cell_angle_alpha   108.57287598
_cell_angle_beta   90.00000000
_cell_angle_gamma   90.00000000
_symmetry_Int_Tables_number   1
_chemical_formula_structural   Cs2CuO2
_chemical_formula_sum   'Cs4 Cu2 O4'
_cell_volume   238.67937686
_cell_formula_units_Z   2
loop_
 _symmetry_equiv_pos_site_id
 _symmetry_equiv_pos_as_xyz
  1  'x, y, z'
loop_
 _atom_site_type_symbol
 _atom_site_label
 _atom_site_symmetry_multiplicity
 _atom_site_fract_x
 _atom_site_fract_y
 _atom_site_fract_z
 _atom_site_occupancy
  Cs  Cs0  1  0.24999999  0.29813500  0.03403600  1
  Cs  Cs1  1  0.74999996  0.68542201  0.37822299  1
  Cs  Cs2  1  0.24999999  0.31457800  0.62177699  1
  Cs  Cs3  1  0.74999996  0.70186501  0.96596398  1
  Cu  Cu4  1  0.24999999  0.96329801  0.24769799  1
  Cu  Cu5  1  0.74999996  0.03670200  0.75230199  1
  O  O6  1  0.74999996  0.17695800  0.29966199  1
  O  O7  1  0.24999999  0.82304201  0.70033798  1
  O  O8  1  0.24999999  0.67640901  0.17088999  1
  O  O9  1  0.74999996  0.32359100  0.82910999  1
