# generated using pymatgen
data_CsBa3TlWO12
_symmetry_space_group_name_H-M   'P 1'
_cell_length_a   7.23891020
_cell_length_b   7.30577326
_cell_length_c   7.30577326
_cell_angle_alpha   60.49022675
_cell_angle_beta   60.30228806
_cell_angle_gamma   60.30228806
_symmetry_Int_Tables_number   1
_chemical_formula_structural   CsBa3TlWO12
_chemical_formula_sum   'Cs1 Ba3 Tl1 W1 O12'
_cell_volume   275.45949582
_cell_formula_units_Z   1
loop_
 _symmetry_equiv_pos_site_id
 _symmetry_equiv_pos_as_xyz
  1  'x, y, z'
loop_
 _atom_site_type_symbol
 _atom_site_label
 _atom_site_symmetry_multiplicity
 _atom_site_fract_x
 _atom_site_fract_y
 _atom_site_fract_z
 _atom_site_occupancy
  Ba  Ba0  1  0.62278197  0.62721798  0.12721800  1
  Ba  Ba1  1  0.37721798  0.37278199  0.87278198  1
  Ba  Ba2  1  0.99999997  0.49999998  0.49999998  1
  Cs  Cs3  1  0.00000000  0.00000000  0.00000000  1
  W  W4  1  0.49999999  0.00000000  0.49999997  1
  Tl  Tl5  1  0.99999999  0.00000000  0.49999996  1
  O  O6  1  0.07106598  0.67893398  0.17893402  1
  O  O7  1  0.67691999  0.07308000  0.57307997  1
  O  O8  1  0.07372800  0.07550900  0.16957700  1
  O  O9  1  0.68118497  0.66957798  0.57550999  1
  O  O10  1  0.68118599  0.07551000  0.16957698  1
  O  O11  1  0.07372698  0.66957698  0.57551000  1
  O  O12  1  0.92893398  0.32106599  0.82106596  1
  O  O13  1  0.32307997  0.92691997  0.42692001  1
  O  O14  1  0.92627196  0.92449097  0.83042298  1
  O  O15  1  0.31881499  0.33042199  0.42448999  1
  O  O16  1  0.31881397  0.92448997  0.83042300  1
  O  O17  1  0.92627298  0.33042299  0.42448997  1
