# generated using pymatgen
data_Ti5(NiSn)2
_symmetry_space_group_name_H-M   'P 1'
_cell_length_a   5.48639107
_cell_length_b   8.25239182
_cell_length_c   8.25239182
_cell_angle_alpha   120.00000000
_cell_angle_beta   90.00000000
_cell_angle_gamma   90.00000000
_symmetry_Int_Tables_number   1
_chemical_formula_structural   Ti5(NiSn)2
_chemical_formula_sum   'Ti10 Ni4 Sn4'
_cell_volume   323.57657345
_cell_formula_units_Z   2
loop_
 _symmetry_equiv_pos_site_id
 _symmetry_equiv_pos_as_xyz
  1  'x, y, z'
loop_
 _atom_site_type_symbol
 _atom_site_label
 _atom_site_symmetry_multiplicity
 _atom_site_fract_x
 _atom_site_fract_y
 _atom_site_fract_z
 _atom_site_occupancy
  Ti  Ti0  1  0.25000000  0.75441401  0.75441400  1
  Ti  Ti1  1  0.74999999  0.24558600  0.24558600  1
  Ti  Ti2  1  0.25000000  1.00000002  0.24558599  1
  Ti  Ti3  1  0.74999999  1.00000002  0.75441400  1
  Ti  Ti4  1  0.25000000  0.24558600  -0.00000000  1
  Ti  Ti5  1  0.74999999  0.75441401  -0.00000001  1
  Ti  Ti6  1  0.49999999  0.66666668  0.33333333  1
  Ti  Ti7  1  0.49999999  0.33333334  0.66666667  1
  Ti  Ti8  1  0.99999999  0.33333334  0.66666667  1
  Ti  Ti9  1  -0.00000000  0.66666668  0.33333333  1
  Ni  Ni10  1  0.49999999  0.00000000  -0.00000000  1
  Ni  Ni11  1  0.00000000  0.00000000  0.00000000  1
  Sn  Sn12  1  0.25000000  0.39480601  0.39480600  1
  Sn  Sn13  1  0.74999999  0.60519401  0.60519400  1
  Ni  Ni14  1  0.25000000  1.00000002  0.60519400  1
  Sn  Sn15  1  0.74999999  1.00000002  0.39480600  1
  Ni  Ni16  1  0.25000000  0.60519401  1.00000001  1
  Sn  Sn17  1  0.74999999  0.39480601  -0.00000000  1
