# generated using pymatgen
data_FeN
_symmetry_space_group_name_H-M   'P 1'
_cell_length_a   2.94101667
_cell_length_b   2.94092202
_cell_length_c   5.00239611
_cell_angle_alpha   90.01084137
_cell_angle_beta   90.01185608
_cell_angle_gamma   60.01653671
_symmetry_Int_Tables_number   1
_chemical_formula_structural   FeN
_chemical_formula_sum   'Fe2 N2'
_cell_volume   37.47676009
_cell_formula_units_Z   2
loop_
 _symmetry_equiv_pos_site_id
 _symmetry_equiv_pos_as_xyz
  1  'x, y, z'
loop_
 _atom_site_type_symbol
 _atom_site_label
 _atom_site_symmetry_multiplicity
 _atom_site_fract_x
 _atom_site_fract_y
 _atom_site_fract_z
 _atom_site_occupancy
  Fe  Fe0  1  0.66670100  0.66666667  0.40425800  1
  Fe  Fe1  1  0.00002900  0.99997000  0.97084900  1
  N  N2  1  0.33326500  0.33323700  0.19099300  1
  N  N3  1  0.66670500  0.66666667  0.78469900  1
