# generated using pymatgen
data_Hf5Sn4
_symmetry_space_group_name_H-M   'P 1'
_cell_length_a   5.96203995
_cell_length_b   8.70251846
_cell_length_c   8.70251846
_cell_angle_alpha   120.00000000
_cell_angle_beta   90.00000000
_cell_angle_gamma   90.00000000
_symmetry_Int_Tables_number   1
_chemical_formula_structural   Hf5Sn4
_chemical_formula_sum   'Hf10 Sn8'
_cell_volume   391.03480992
_cell_formula_units_Z   2
loop_
 _symmetry_equiv_pos_site_id
 _symmetry_equiv_pos_as_xyz
  1  'x, y, z'
loop_
 _atom_site_type_symbol
 _atom_site_label
 _atom_site_symmetry_multiplicity
 _atom_site_fract_x
 _atom_site_fract_y
 _atom_site_fract_z
 _atom_site_occupancy
  Hf  Hf0  1  1.00000001  0.33333332  0.66666666  1
  Hf  Hf1  1  -0.00000000  0.66666664  0.33333334  1
  Hf  Hf2  1  0.50000000  0.66666664  0.33333334  1
  Hf  Hf3  1  0.50000000  0.33333332  0.66666666  1
  Hf  Hf4  1  0.25000000  0.26200699  0.00000001  1
  Hf  Hf5  1  0.25000000  0.73799297  0.73799300  1
  Hf  Hf6  1  0.25000000  0.99999996  0.26200702  1
  Hf  Hf7  1  0.75000001  0.73799297  0.00000002  1
  Hf  Hf8  1  0.75000001  0.26200699  0.26200700  1
  Hf  Hf9  1  0.75000001  0.99999996  0.73799301  1
  Sn  Sn10  1  0.25000000  0.60494697  0.00000001  1
  Sn  Sn11  1  0.25000000  0.39505298  0.39505300  1
  Sn  Sn12  1  0.25000000  0.99999996  0.60494701  1
  Sn  Sn13  1  0.75000001  0.39505298  0.00000001  1
  Sn  Sn14  1  0.75000001  0.60494697  0.60494700  1
  Sn  Sn15  1  0.75000001  0.99999996  0.39505301  1
  Sn  Sn16  1  0.00000000  0.00000000  0.00000000  1
  Sn  Sn17  1  0.50000000  0.00000000  -0.00000000  1
