# generated using pymatgen
data_EuSn2
_symmetry_space_group_name_H-M   'P 1'
_cell_length_a   4.94829512
_cell_length_b   7.08392811
_cell_length_c   8.91671276
_cell_angle_alpha   90.00000000
_cell_angle_beta   90.00000000
_cell_angle_gamma   90.00000000
_symmetry_Int_Tables_number   1
_chemical_formula_structural   EuSn2
_chemical_formula_sum   'Eu4 Sn8'
_cell_volume   312.56080362
_cell_formula_units_Z   4
loop_
 _symmetry_equiv_pos_site_id
 _symmetry_equiv_pos_as_xyz
  1  'x, y, z'
loop_
 _atom_site_type_symbol
 _atom_site_label
 _atom_site_symmetry_multiplicity
 _atom_site_fract_x
 _atom_site_fract_y
 _atom_site_fract_z
 _atom_site_occupancy
  Eu  Eu0  1  0.24999999  0.48660499  0.17644100  1
  Eu  Eu1  1  0.74999998  0.51339499  0.82355902  1
  Eu  Eu2  1  0.24999999  0.98660498  0.32355901  1
  Eu  Eu3  1  0.74999998  0.01339500  0.67644102  1
  Sn  Sn4  1  0.74999998  0.64914099  0.41937601  1
  Sn  Sn5  1  0.24999999  0.35085899  0.58062402  1
  Sn  Sn6  1  0.74999998  0.14914100  0.08062400  1
  Sn  Sn7  1  0.24999999  0.85085899  0.91937602  1
  Sn  Sn8  1  0.24999999  0.25852800  0.90097602  1
  Sn  Sn9  1  0.74999998  0.74147199  0.09902400  1
  Sn  Sn10  1  0.24999999  0.75852799  0.59902402  1
  Sn  Sn11  1  0.74999998  0.24147200  0.40097601  1
