# generated using pymatgen
data_SrCaTiRuO6
_symmetry_space_group_name_H-M   'P 1'
_cell_length_a   5.60188293
_cell_length_b   5.67837381
_cell_length_c   7.92493439
_cell_angle_alpha   90.00000000
_cell_angle_beta   89.83127594
_cell_angle_gamma   90.00000000
_symmetry_Int_Tables_number   1
_chemical_formula_structural   SrCaTiRuO6
_chemical_formula_sum   'Sr2 Ca2 Ti2 Ru2 O12'
_cell_volume   252.08778385
_cell_formula_units_Z   2
loop_
 _symmetry_equiv_pos_site_id
 _symmetry_equiv_pos_as_xyz
  1  'x, y, z'
loop_
 _atom_site_type_symbol
 _atom_site_label
 _atom_site_symmetry_multiplicity
 _atom_site_fract_x
 _atom_site_fract_y
 _atom_site_fract_z
 _atom_site_occupancy
  Sr  Sr0  1  0.49554701  0.22021501  0.74924999  1
  Sr  Sr1  1  0.99554701  0.77978503  0.24924998  1
  Ca  Ca2  1  0.51253401  0.29906601  0.24892899  1
  Ca  Ca3  1  0.01253400  0.70093402  0.74892900  1
  Ti  Ti4  1  0.50075801  0.75639102  0.99895699  1
  Ti  Ti5  1  0.00075800  0.24360901  0.49895700  1
  Ru  Ru6  1  0.49980101  0.75239802  0.50025699  1
  Ru  Ru7  1  0.99980101  0.24760201  0.00025698  1
  O  O8  1  0.58747801  0.76324903  0.74368799  1
  O  O9  1  0.08747800  0.23675101  0.24368800  1
  O  O10  1  0.43700801  0.72732202  0.25626199  1
  O  O11  1  0.93700801  0.27267801  0.75626198  1
  O  O12  1  0.21459100  0.95107303  0.54355799  1
  O  O13  1  0.71459101  0.04892700  0.04355798  1
  O  O14  1  0.77106301  0.53296802  0.46362498  1
  O  O15  1  0.27106300  0.46703202  0.96362499  1
  O  O16  1  0.69716801  0.03652400  0.45652398  1
  O  O17  1  0.19716800  0.96347603  0.95652399  1
  O  O18  1  0.28405200  0.47827602  0.53895099  1
  O  O19  1  0.78405201  0.52172402  0.03895098  1
