# generated using pymatgen
data_Sm5Sn9
_symmetry_space_group_name_H-M   'P 1'
_cell_length_a   4.41733217
_cell_length_b   4.41749287
_cell_length_c   21.81827736
_cell_angle_alpha   90.00000000
_cell_angle_beta   95.81000519
_cell_angle_gamma   90.00000000
_symmetry_Int_Tables_number   1
_chemical_formula_structural   Sm5Sn9
_chemical_formula_sum   'Sm5 Sn9'
_cell_volume   423.56461667
_cell_formula_units_Z   1
loop_
 _symmetry_equiv_pos_site_id
 _symmetry_equiv_pos_as_xyz
  1  'x, y, z'
loop_
 _atom_site_type_symbol
 _atom_site_label
 _atom_site_symmetry_multiplicity
 _atom_site_fract_x
 _atom_site_fract_y
 _atom_site_fract_z
 _atom_site_occupancy
  Sm  Sm0  1  0.90330396  0.75000002  0.80660800  1
  Sm  Sm1  1  0.09669600  0.25000001  0.19339200  1
  Sm  Sm2  1  0.69282397  0.75000002  0.38564800  1
  Sm  Sm3  1  0.30717599  0.25000001  0.61435200  1
  Sm  Sm4  1  0.04189300  0.75000002  0.08378600  1
  Sn  Sn5  1  0.95810696  0.25000001  0.91621400  1
  Sn  Sn6  1  0.45781598  0.75000002  0.91563200  1
  Sn  Sn7  1  0.54218398  0.25000001  0.08436799  1
  Sn  Sn8  1  0.24998999  0.75000002  0.49998000  1
  Sn  Sn9  1  0.75000997  0.25000001  0.50002000  1
  Sn  Sn10  1  0.82660796  0.75000002  0.65321600  1
  Sn  Sn11  1  0.17339199  0.25000001  0.34678400  1
  Sn  Sn12  1  0.61827397  0.75000002  0.23654800  1
  Sn  Sn13  1  0.38172598  0.25000001  0.76345200  1
