# generated using pymatgen
data_K6SeCl10
_symmetry_space_group_name_H-M   'P 1'
_cell_length_a   6.94094563
_cell_length_b   9.71804905
_cell_length_c   9.71804905
_cell_angle_alpha   99.97979736
_cell_angle_beta   108.90415192
_cell_angle_gamma   108.90415192
_symmetry_Int_Tables_number   1
_chemical_formula_structural   K6SeCl10
_chemical_formula_sum   'K6 Se1 Cl10'
_cell_volume   557.62401797
_cell_formula_units_Z   1
loop_
 _symmetry_equiv_pos_site_id
 _symmetry_equiv_pos_as_xyz
  1  'x, y, z'
loop_
 _atom_site_type_symbol
 _atom_site_label
 _atom_site_symmetry_multiplicity
 _atom_site_fract_x
 _atom_site_fract_y
 _atom_site_fract_z
 _atom_site_occupancy
  K  K0  1  0.00000000  0.00000000  0.00000000  1
  K  K1  1  0.68214494  0.34972499  0.01593698  1
  K  K2  1  0.99999991  0.49999999  0.49999997  1
  K  K3  1  0.31785493  0.65027499  0.98406299  1
  K  K4  1  0.31785490  0.98406298  0.65027499  1
  K  K5  1  0.68214497  0.01593700  0.34972498  1
  Cl  Cl6  1  0.94186791  0.58136399  0.83186897  1
  Cl  Cl7  1  0.68675591  0.70061499  0.13986398  1
  Cl  Cl8  1  0.68675596  0.13986400  0.70061498  1
  Se  Se9  1  0.49999998  0.00000000  -0.00000002  1
  Cl  Cl10  1  0.31324396  0.29938500  0.86013599  1
  Cl  Cl11  1  0.94186789  0.83186899  0.58136397  1
  Cl  Cl12  1  0.37876293  0.64656699  0.64656699  1
  Cl  Cl13  1  0.62123694  0.35343299  0.35343298  1
  Cl  Cl14  1  0.05813198  0.16813100  0.41863600  1
  Cl  Cl15  1  0.31324391  0.86013599  0.29938499  1
  Cl  Cl16  1  0.05813196  0.41863599  0.16813100  1
