# generated using pymatgen
data_LiTiO2
_symmetry_space_group_name_H-M   'P 1'
_cell_length_a   4.19110584
_cell_length_b   4.19110584
_cell_length_c   5.21076632
_cell_angle_alpha   113.71317291
_cell_angle_beta   113.71317291
_cell_angle_gamma   90.00000000
_symmetry_Int_Tables_number   1
_chemical_formula_structural   LiTiO2
_chemical_formula_sum   'Li2 Ti2 O4'
_cell_volume   75.28436081
_cell_formula_units_Z   2
loop_
 _symmetry_equiv_pos_site_id
 _symmetry_equiv_pos_as_xyz
  1  'x, y, z'
loop_
 _atom_site_type_symbol
 _atom_site_label
 _atom_site_symmetry_multiplicity
 _atom_site_fract_x
 _atom_site_fract_y
 _atom_site_fract_z
 _atom_site_occupancy
  Li  Li0  1  0.00000000  0.00000000  0.00000000  1
  Li  Li1  1  0.75000001  0.25000001  0.49999998  1
  Ti  Ti2  1  0.50000000  0.50000001  0.99999999  1
  Ti  Ti3  1  0.24999999  0.75000002  0.49999998  1
  O  O4  1  0.48253199  0.98253202  0.96506398  1
  O  O5  1  0.26746800  0.26746801  0.53493599  1
  O  O6  1  0.73253200  0.73253202  0.46506397  1
  O  O7  1  0.01746799  0.51746801  0.03493598  1
