# generated using pymatgen
data_Fe4Co
_symmetry_space_group_name_H-M   'P 1'
_cell_length_a   2.45364141
_cell_length_b   2.45364141
_cell_length_c   10.15616131
_cell_angle_alpha   94.67684937
_cell_angle_beta   94.67684937
_cell_angle_gamma   108.96625519
_symmetry_Int_Tables_number   1
_chemical_formula_structural   Fe4Co
_chemical_formula_sum   'Fe4 Co1'
_cell_volume   57.25187232
_cell_formula_units_Z   1
loop_
 _symmetry_equiv_pos_site_id
 _symmetry_equiv_pos_as_xyz
  1  'x, y, z'
loop_
 _atom_site_type_symbol
 _atom_site_label
 _atom_site_symmetry_multiplicity
 _atom_site_fract_x
 _atom_site_fract_y
 _atom_site_fract_z
 _atom_site_occupancy
  Fe  Fe0  1  0.00000000  0.00000000  0.00000000  1
  Fe  Fe1  1  0.40036400  0.40036401  0.80072801  1
  Fe  Fe2  1  0.80023600  0.80023602  0.60047202  1
  Fe  Fe3  1  0.19976400  0.19976401  0.39952800  1
  Co  Co4  1  0.59963600  0.59963602  0.19927202  1
