# generated using pymatgen
data_Li2Cu4Ge
_symmetry_space_group_name_H-M   'P 1'
_cell_length_a   4.15601683
_cell_length_b   4.15601683
_cell_length_c   6.62403393
_cell_angle_alpha   90.00000000
_cell_angle_beta   90.00000000
_cell_angle_gamma   90.00000000
_symmetry_Int_Tables_number   1
_chemical_formula_structural   Li2Cu4Ge
_chemical_formula_sum   'Li2 Cu4 Ge1'
_cell_volume   114.41346614
_cell_formula_units_Z   1
loop_
 _symmetry_equiv_pos_site_id
 _symmetry_equiv_pos_as_xyz
  1  'x, y, z'
loop_
 _atom_site_type_symbol
 _atom_site_label
 _atom_site_symmetry_multiplicity
 _atom_site_fract_x
 _atom_site_fract_y
 _atom_site_fract_z
 _atom_site_occupancy
  Li  Li0  1  0.00000000  0.00000000  0.00000000  1
  Li  Li1  1  0.00000000  0.50000002  0.30267800  1
  Cu  Cu2  1  0.00000000  0.50000002  0.69732201  1
  Cu  Cu3  1  0.50000002  0.00000000  0.30267800  1
  Cu  Cu4  1  0.50000002  0.00000000  0.69732201  1
  Cu  Cu5  1  0.50000002  0.50000002  0.00000000  1
  Ge  Ge6  1  0.00000000  0.00000000  0.50000001  1
