# generated using pymatgen
data_HfAlGe
_symmetry_space_group_name_H-M   'P 1'
_cell_length_a   4.20148611
_cell_length_b   4.20148611
_cell_length_c   7.84620762
_cell_angle_alpha   105.52982330
_cell_angle_beta   105.52982330
_cell_angle_gamma   90.00000000
_symmetry_Int_Tables_number   1
_chemical_formula_structural   HfAlGe
_chemical_formula_sum   'Hf2 Al2 Ge2'
_cell_volume   128.19245625
_cell_formula_units_Z   2
loop_
 _symmetry_equiv_pos_site_id
 _symmetry_equiv_pos_as_xyz
  1  'x, y, z'
loop_
 _atom_site_type_symbol
 _atom_site_label
 _atom_site_symmetry_multiplicity
 _atom_site_fract_x
 _atom_site_fract_y
 _atom_site_fract_z
 _atom_site_occupancy
  Hf  Hf0  1  0.65595798  0.65595798  0.31191600  1
  Hf  Hf1  1  0.34404199  0.34404199  0.68808400  1
  Al  Al2  1  0.00000000  0.49999999  0.00000000  1
  Al  Al3  1  0.49999999  0.00000000  0.00000000  1
  Ge  Ge4  1  0.86335498  0.86335498  0.72671000  1
  Ge  Ge5  1  0.13664500  0.13664500  0.27329000  1
