# generated using pymatgen
data_Mg5Sn11
_symmetry_space_group_name_H-M   'P 1'
_cell_length_a   4.74834919
_cell_length_b   5.82888317
_cell_length_c   10.16479397
_cell_angle_alpha   90.00000000
_cell_angle_beta   90.00000000
_cell_angle_gamma   90.00000000
_symmetry_Int_Tables_number   1
_chemical_formula_structural   Mg5Sn11
_chemical_formula_sum   'Mg5 Sn11'
_cell_volume   281.33682386
_cell_formula_units_Z   1
loop_
 _symmetry_equiv_pos_site_id
 _symmetry_equiv_pos_as_xyz
  1  'x, y, z'
loop_
 _atom_site_type_symbol
 _atom_site_label
 _atom_site_symmetry_multiplicity
 _atom_site_fract_x
 _atom_site_fract_y
 _atom_site_fract_z
 _atom_site_occupancy
  Mg  Mg0  1  0.49999998  0.00000000  0.16523100  1
  Mg  Mg1  1  0.49999998  0.49999999  0.66477300  1
  Mg  Mg2  1  0.49999998  0.74049198  0.41166800  1
  Mg  Mg3  1  0.49999998  0.24992599  0.92714600  1
  Mg  Mg4  1  0.49999998  0.25950799  0.41166800  1
  Sn  Sn5  1  0.49999998  0.75007398  0.92714600  1
  Sn  Sn6  1  0.00000000  0.49999999  0.33232500  1
  Sn  Sn7  1  0.00000000  0.00000000  0.83414400  1
  Sn  Sn8  1  0.00000000  0.74970398  0.08153200  1
  Sn  Sn9  1  0.00000000  0.25618099  0.58112600  1
  Sn  Sn10  1  0.00000000  0.25029599  0.08153200  1
  Sn  Sn11  1  0.00000000  0.74381898  0.58112600  1
  Sn  Sn12  1  0.49999998  0.49999999  0.16776600  1
  Sn  Sn13  1  0.49999998  0.00000000  0.66646800  1
  Sn  Sn14  1  0.00000000  0.00000000  0.33453000  1
  Sn  Sn15  1  0.00000000  0.49999999  0.83177300  1
