# generated using pymatgen
data_La5Pb3
_symmetry_space_group_name_H-M   'P 1'
_cell_length_a   7.00448990
_cell_length_b   9.66937160
_cell_length_c   9.66937160
_cell_angle_alpha   120.00000000
_cell_angle_beta   90.00000000
_cell_angle_gamma   90.00000000
_symmetry_Int_Tables_number   1
_chemical_formula_structural   La5Pb3
_chemical_formula_sum   'La10 Pb6'
_cell_volume   567.15745753
_cell_formula_units_Z   2
loop_
 _symmetry_equiv_pos_site_id
 _symmetry_equiv_pos_as_xyz
  1  'x, y, z'
loop_
 _atom_site_type_symbol
 _atom_site_label
 _atom_site_symmetry_multiplicity
 _atom_site_fract_x
 _atom_site_fract_y
 _atom_site_fract_z
 _atom_site_occupancy
  La  La0  1  0.50000001  0.33333334  0.66666663  1
  La  La1  1  0.50000001  0.66666668  0.33333329  1
  La  La2  1  1.00000001  0.66666668  0.33333329  1
  La  La3  1  -0.00000000  0.33333334  0.66666663  1
  La  La4  1  0.75000001  0.24662500  0.99999996  1
  La  La5  1  0.75000001  0.75337501  0.75337494  1
  La  La6  1  0.75000001  0.00000000  0.24662499  1
  La  La7  1  0.25000000  0.75337501  0.99999994  1
  La  La8  1  0.25000000  0.24662500  0.24662498  1
  La  La9  1  0.25000000  0.00000000  0.75337498  1
  Pb  Pb10  1  0.75000001  0.61058001  0.99999994  1
  Pb  Pb11  1  0.75000001  0.38942001  0.38941997  1
  Pb  Pb12  1  0.75000001  0.00000000  0.61057998  1
  Pb  Pb13  1  0.25000000  0.38942001  0.99999995  1
  Pb  Pb14  1  0.25000000  0.61058001  0.61057995  1
  Pb  Pb15  1  0.25000000  0.00000000  0.38941999  1
