# generated using pymatgen
data_SrTiO3
_symmetry_space_group_name_H-M   'P 1'
_cell_length_a   5.83032179
_cell_length_b   5.83032227
_cell_length_c   9.81147575
_cell_angle_alpha   90.00000000
_cell_angle_beta   90.00000000
_cell_angle_gamma   120.00000000
_symmetry_Int_Tables_number   1
_chemical_formula_structural   SrTiO3
_chemical_formula_sum   'Sr4 Ti4 O12'
_cell_volume   288.83515567
_cell_formula_units_Z   4
loop_
 _symmetry_equiv_pos_site_id
 _symmetry_equiv_pos_as_xyz
  1  'x, y, z'
loop_
 _atom_site_type_symbol
 _atom_site_label
 _atom_site_symmetry_multiplicity
 _atom_site_fract_x
 _atom_site_fract_y
 _atom_site_fract_z
 _atom_site_occupancy
  Sr  Sr0  1  0.33333335  0.66666664  0.25000001  1
  Sr  Sr1  1  0.66666669  0.33333332  0.75000002  1
  Sr  Sr2  1  0.00000000  0.00000000  0.50000001  1
  Sr  Sr3  1  0.00000000  0.00000000  0.00000000  1
  Ti  Ti4  1  0.66666669  0.33333332  0.11367700  1
  Ti  Ti5  1  0.33333335  0.66666664  0.61367702  1
  Ti  Ti6  1  0.33333335  0.66666664  0.88632302  1
  Ti  Ti7  1  0.66666669  0.33333332  0.38632301  1
  O  O8  1  0.81743803  0.18256299  0.25000001  1
  O  O9  1  0.18256201  0.36512399  0.75000002  1
  O  O10  1  0.63487503  0.81743697  0.75000002  1
  O  O11  1  0.36512501  0.18256299  0.25000001  1
  O  O12  1  0.81743803  0.63487598  0.25000001  1
  O  O13  1  0.18256201  0.81743697  0.75000002  1
  O  O14  1  0.50000002  0.49999998  0.50000001  1
  O  O15  1  0.50000002  0.00000000  1.00000003  1
  O  O16  1  0.50000002  0.49999998  1.00000003  1
  O  O17  1  0.50000002  0.00000000  0.50000001  1
  O  O18  1  0.00000000  0.49999998  0.50000001  1
  O  O19  1  0.00000000  0.49999998  -0.00000000  1
