# generated using pymatgen
data_Na2Be3Zn2H7
_symmetry_space_group_name_H-M   'P 1'
_cell_length_a   4.94313908
_cell_length_b   5.31240797
_cell_length_c   5.36061382
_cell_angle_alpha   90.00000000
_cell_angle_beta   66.92409515
_cell_angle_gamma   90.00000000
_symmetry_Int_Tables_number   1
_chemical_formula_structural   Na2Be3Zn2H7
_chemical_formula_sum   'Na2 Be3 Zn2 H7'
_cell_volume   129.50608741
_cell_formula_units_Z   1
loop_
 _symmetry_equiv_pos_site_id
 _symmetry_equiv_pos_as_xyz
  1  'x, y, z'
loop_
 _atom_site_type_symbol
 _atom_site_label
 _atom_site_symmetry_multiplicity
 _atom_site_fract_x
 _atom_site_fract_y
 _atom_site_fract_z
 _atom_site_occupancy
  Na  Na0  1  0.18970800  0.62846400  0.07199200  1
  Na  Na1  1  0.18970800  0.87153600  0.57199201  1
  Zn  Zn2  1  0.81029199  0.12846400  0.42800801  1
  Zn  Zn3  1  0.81029199  0.37153600  0.92800802  1
  H  H4  1  0.32896700  0.39665600  0.43108301  1
  Be  Be5  1  0.67103299  0.89665600  0.06891700  1
  Be  Be6  1  0.32896700  0.10334400  0.93108302  1
  Be  Be7  1  0.67103299  0.60334400  0.56891701  1
  H  H8  1  0.00000000  0.50000000  0.50000001  1
  H  H9  1  0.00000000  0.00000000  0.00000000  1
  H  H10  1  0.41007599  0.14563200  0.20853200  1
  H  H11  1  0.58992399  0.64563200  0.29146800  1
  H  H12  1  0.41007599  0.35436800  0.70853202  1
  H  H13  1  0.58992399  0.85436800  0.79146802  1
