# generated using pymatgen
data_Li3CrIn3O7
_symmetry_space_group_name_H-M   'P 1'
_cell_length_a   6.87604761
_cell_length_b   6.87604761
_cell_length_c   6.87604761
_cell_angle_alpha   60.00000000
_cell_angle_beta   60.00000000
_cell_angle_gamma   60.00000000
_symmetry_Int_Tables_number   1
_chemical_formula_structural   Li3CrIn3O7
_chemical_formula_sum   'Li3 Cr1 In3 O7'
_cell_volume   229.88023249
_cell_formula_units_Z   1
loop_
 _symmetry_equiv_pos_site_id
 _symmetry_equiv_pos_as_xyz
  1  'x, y, z'
loop_
 _atom_site_type_symbol
 _atom_site_label
 _atom_site_symmetry_multiplicity
 _atom_site_fract_x
 _atom_site_fract_y
 _atom_site_fract_z
 _atom_site_occupancy
  Li  Li0  1  0.75000002  0.75000002  0.75000002  1
  Li  Li1  1  0.00000000  0.00000000  0.00000000  1
  Li  Li2  1  0.37500001  0.37500001  0.37500001  1
  In  In3  1  0.37500001  0.37500001  0.87500002  1
  In  In4  1  0.87500002  0.37500001  0.37500001  1
  In  In5  1  0.37500001  0.87500002  0.37500001  1
  O  O6  1  0.16297100  0.61234301  0.61234301  1
  Cr  Cr7  1  0.13765600  0.58703001  0.13765700  1
  O  O8  1  0.61234401  0.61234301  0.16297000  1
  O  O9  1  0.61234401  0.61234301  0.61234301  1
  O  O10  1  0.58702901  0.13765700  0.13765700  1
  O  O11  1  0.61234401  0.16297000  0.61234301  1
  O  O12  1  0.13765600  0.13765700  0.58703001  1
  O  O13  1  0.13765600  0.13765700  0.13765700  1
