# generated using pymatgen
data_Mg8SnRu9
_symmetry_space_group_name_H-M   'P 1'
_cell_length_a   7.86042929
_cell_length_b   7.86042929
_cell_length_c   7.86042929
_cell_angle_alpha   66.13222504
_cell_angle_beta   66.13222504
_cell_angle_gamma   66.13221741
_symmetry_Int_Tables_number   1
_chemical_formula_structural   Mg8SnRu9
_chemical_formula_sum   'Mg8 Sn1 Ru9'
_cell_volume   388.93544806
_cell_formula_units_Z   1
loop_
 _symmetry_equiv_pos_site_id
 _symmetry_equiv_pos_as_xyz
  1  'x, y, z'
loop_
 _atom_site_type_symbol
 _atom_site_label
 _atom_site_symmetry_multiplicity
 _atom_site_fract_x
 _atom_site_fract_y
 _atom_site_fract_z
 _atom_site_occupancy
  Mg  Mg0  1  0.80828301  0.10927700  0.37906605  1
  Mg  Mg1  1  0.10927701  0.37906600  0.80828303  1
  Mg  Mg2  1  0.37906603  0.80828300  0.10927705  1
  Mg  Mg3  1  0.19171703  0.89072300  0.62093405  1
  Mg  Mg4  1  0.89072303  0.62093400  0.19171706  1
  Mg  Mg5  1  0.62093401  0.19171700  0.89072305  1
  Mg  Mg6  1  0.34524502  0.34524500  0.34524503  1
  Mg  Mg7  1  0.65475503  0.65475500  0.65475506  1
  Ru  Ru8  1  0.00000000  0.00000000  0.00000000  1
  Ru  Ru9  1  0.50000002  0.50000000  0.50000005  1
  Ru  Ru10  1  0.19789501  0.19789500  0.19789502  1
  Ru  Ru11  1  0.80210503  0.80210500  0.80210507  1
  Ru  Ru12  1  0.44798500  0.05857800  0.68282103  1
  Ru  Ru13  1  0.05857803  0.68282100  0.44798503  1
  Sn  Sn14  1  0.68282102  0.44798500  0.05857805  1
  Ru  Ru15  1  0.55201504  0.94142200  0.31717906  1
  Ru  Ru16  1  0.94142202  0.31717900  0.55201506  1
  Ru  Ru17  1  0.31717902  0.55201500  0.94142205  1
