# generated using pymatgen
data_Eu5Ir2
_symmetry_space_group_name_H-M   'P 1'
_cell_length_a   6.77957392
_cell_length_b   7.41594172
_cell_length_c   9.18235779
_cell_angle_alpha   95.99296570
_cell_angle_beta   111.66400909
_cell_angle_gamma   90.00000000
_symmetry_Int_Tables_number   1
_chemical_formula_structural   Eu5Ir2
_chemical_formula_sum   'Eu10 Ir4'
_cell_volume   426.33509870
_cell_formula_units_Z   2
loop_
 _symmetry_equiv_pos_site_id
 _symmetry_equiv_pos_as_xyz
  1  'x, y, z'
loop_
 _atom_site_type_symbol
 _atom_site_label
 _atom_site_symmetry_multiplicity
 _atom_site_fract_x
 _atom_site_fract_y
 _atom_site_fract_z
 _atom_site_occupancy
  Eu  Eu0  1  0.20066002  0.91158398  0.18638002  1
  Eu  Eu1  1  0.01428001  0.58841599  0.81362003  1
  Eu  Eu2  1  0.79934002  0.08841600  0.81362004  1
  Eu  Eu3  1  0.98572003  0.41158399  0.18638003  1
  Eu  Eu4  1  0.78716903  0.81674599  0.43083604  1
  Eu  Eu5  1  0.35633302  0.68325399  0.56916403  1
  Eu  Eu6  1  0.21283101  0.18325400  0.56916402  1
  Eu  Eu7  1  0.64366702  0.31674599  0.43083603  1
  Eu  Eu8  1  0.57785202  0.74999999  0.00000002  1
  Eu  Eu9  1  0.42214801  0.25000000  0.00000001  1
  Ir  Ir10  1  0.40713502  0.58004299  0.22322402  1
  Ir  Ir11  1  0.18391102  0.91995698  0.77677604  1
  Ir  Ir12  1  0.59286502  0.41995699  0.77677604  1
  Ir  Ir13  1  0.81608902  0.08004300  0.22322402  1
