# generated using pymatgen
data_TmSnRh
_symmetry_space_group_name_H-M   'P 1'
_cell_length_a   3.95847702
_cell_length_b   7.42605019
_cell_length_c   7.42605114
_cell_angle_alpha   119.99999237
_cell_angle_beta   90.00000000
_cell_angle_gamma   90.00000000
_symmetry_Int_Tables_number   1
_chemical_formula_structural   TmSnRh
_chemical_formula_sum   'Tm3 Sn3 Rh3'
_cell_volume   189.04909766
_cell_formula_units_Z   3
loop_
 _symmetry_equiv_pos_site_id
 _symmetry_equiv_pos_as_xyz
  1  'x, y, z'
loop_
 _atom_site_type_symbol
 _atom_site_label
 _atom_site_symmetry_multiplicity
 _atom_site_fract_x
 _atom_site_fract_y
 _atom_site_fract_z
 _atom_site_occupancy
  Tm  Tm0  1  0.50000000  0.99999994  0.58945191  1
  Tm  Tm1  1  0.50000000  0.58945196  0.99999993  1
  Tm  Tm2  1  0.50000000  0.41054797  0.41054796  1
  Sn  Sn3  1  -0.00000000  0.25445498  -0.00000002  1
  Sn  Sn4  1  0.99999999  0.00000000  0.25445499  1
  Sn  Sn5  1  -0.00000000  0.74554495  0.74554492  1
  Rh  Rh6  1  -0.00000000  0.66666663  0.33333327  1
  Rh  Rh7  1  0.50000000  0.00000000  -0.00000000  1
  Rh  Rh8  1  -0.00000000  0.33333331  0.66666662  1
