# generated using pymatgen
data_LiZnF2
_symmetry_space_group_name_H-M   'P 1'
_cell_length_a   3.20763993
_cell_length_b   3.20763946
_cell_length_c   5.52038717
_cell_angle_alpha   90.00000000
_cell_angle_beta   90.00000000
_cell_angle_gamma   120.00000763
_symmetry_Int_Tables_number   1
_chemical_formula_structural   LiZnF2
_chemical_formula_sum   'Li1 Zn1 F2'
_cell_volume   49.18937390
_cell_formula_units_Z   1
loop_
 _symmetry_equiv_pos_site_id
 _symmetry_equiv_pos_as_xyz
  1  'x, y, z'
loop_
 _atom_site_type_symbol
 _atom_site_label
 _atom_site_symmetry_multiplicity
 _atom_site_fract_x
 _atom_site_fract_y
 _atom_site_fract_z
 _atom_site_occupancy
  Li  Li0  1  0.33333336  0.66666666  0.24999999  1
  Zn  Zn1  1  0.66666669  0.33333333  0.74999998  1
  F  F2  1  0.00000000  0.00000000  0.49999998  1
  F  F3  1  0.00000000  0.00000000  0.00000000  1
