# generated using pymatgen
data_Ti4MnCr4S5
_symmetry_space_group_name_H-M   'P 1'
_cell_length_a   7.17812300
_cell_length_b   7.17812300
_cell_length_c   7.57043409
_cell_angle_alpha   62.33009338
_cell_angle_beta   62.33009338
_cell_angle_gamma   89.04726410
_symmetry_Int_Tables_number   1
_chemical_formula_structural   Ti4MnCr4S5
_chemical_formula_sum   'Ti4 Mn1 Cr4 S5'
_cell_volume   295.94028688
_cell_formula_units_Z   1
loop_
 _symmetry_equiv_pos_site_id
 _symmetry_equiv_pos_as_xyz
  1  'x, y, z'
loop_
 _atom_site_type_symbol
 _atom_site_label
 _atom_site_symmetry_multiplicity
 _atom_site_fract_x
 _atom_site_fract_y
 _atom_site_fract_z
 _atom_site_occupancy
  Ti  Ti0  1  0.10545204  0.89454799  0.75000000  1
  Ti  Ti1  1  0.89454799  0.10545200  0.25000003  1
  Ti  Ti2  1  0.50000001  0.50000000  0.00000002  1
  Ti  Ti3  1  0.50000001  0.50000000  0.50000002  1
  Cr  Cr4  1  0.00000002  0.50000000  0.50000000  1
  Mn  Mn5  1  0.49999999  0.00000000  0.00000002  1
  Cr  Cr6  1  0.74484002  0.71880099  0.52698103  1
  Cr  Cr7  1  0.77093600  0.26801100  0.49183902  1
  Cr  Cr8  1  0.73198899  0.22906400  0.00816103  1
  S  S9  1  0.22906403  0.73198899  0.50816101  1
  S  S10  1  0.26801103  0.77093599  0.99183901  1
  S  S11  1  0.25516001  0.28119900  0.47301901  1
  S  S12  1  0.71880102  0.74483999  0.02698103  1
  S  S13  1  0.28119901  0.25516000  0.97301900  1
