# generated using pymatgen
data_Ti5AgSe8
_symmetry_space_group_name_H-M   'P 1'
_cell_length_a   7.62490559
_cell_length_b   7.62482309
_cell_length_c   7.62587309
_cell_angle_alpha   60.77277374
_cell_angle_beta   60.77325821
_cell_angle_gamma   60.77300644
_symmetry_Int_Tables_number   1
_chemical_formula_structural   Ti5AgSe8
_chemical_formula_sum   'Ti5 Ag1 Se8'
_cell_volume   318.96792756
_cell_formula_units_Z   1
loop_
 _symmetry_equiv_pos_site_id
 _symmetry_equiv_pos_as_xyz
  1  'x, y, z'
loop_
 _atom_site_type_symbol
 _atom_site_label
 _atom_site_symmetry_multiplicity
 _atom_site_fract_x
 _atom_site_fract_y
 _atom_site_fract_z
 _atom_site_occupancy
  Ti  Ti0  1  0.49999398  0.50002501  0.49999200  1
  Ti  Ti1  1  0.99999097  0.99999702  0.50000101  1
  Ti  Ti2  1  0.00000300  0.49998701  0.00000499  1
  Ti  Ti3  1  0.62484498  0.12476400  0.12483301  1
  Ti  Ti4  1  0.37516999  0.87522402  0.87517799  1
  Ag  Ag5  1  0.00000300  0.50001001  0.49999199  1
  Se  Se6  1  0.22897899  0.26456901  0.26473200  1
  Se  Se7  1  0.23543099  0.27103601  0.73526900  1
  Se  Se8  1  0.24409999  0.74411502  0.74429099  1
  Se  Se9  1  0.23533199  0.73533802  0.27096699  1
  Se  Se10  1  0.75587498  0.25589501  0.25572501  1
  Se  Se11  1  0.76466798  0.26466101  0.72902501  1
  Se  Se12  1  0.77102298  0.73541502  0.73526100  1
  Se  Se13  1  0.76458998  0.72896202  0.26472301  1
