# generated using pymatgen
data_Li4VO7
_symmetry_space_group_name_H-M   'P 1'
_cell_length_a   3.72463489
_cell_length_b   5.45922184
_cell_length_c   8.93638611
_cell_angle_alpha   90.00328064
_cell_angle_beta   89.99846649
_cell_angle_gamma   89.99974823
_symmetry_Int_Tables_number   1
_chemical_formula_structural   Li4VO7
_chemical_formula_sum   'Li4 V1 O7'
_cell_volume   181.70897272
_cell_formula_units_Z   1
loop_
 _symmetry_equiv_pos_site_id
 _symmetry_equiv_pos_as_xyz
  1  'x, y, z'
loop_
 _atom_site_type_symbol
 _atom_site_label
 _atom_site_symmetry_multiplicity
 _atom_site_fract_x
 _atom_site_fract_y
 _atom_site_fract_z
 _atom_site_occupancy
  Li  Li0  1  0.25001696  0.63298902  0.59530498  1
  Li  Li1  1  0.25003100  0.13307300  0.90468998  1
  Li  Li2  1  0.74999896  0.86703303  0.09534697  1
  Li  Li3  1  0.74997700  0.36707201  0.40467098  1
  V  V4  1  0.25001395  0.86101603  0.04105998  1
  O  O5  1  0.75000798  0.63895802  0.54106897  1
  O  O6  1  0.24998798  0.36103901  0.45892898  1
  O  O7  1  0.75002401  0.13891200  0.95893498  1
  O  O8  1  0.24999294  0.93340903  0.70352497  1
  O  O9  1  0.74999198  0.56654002  0.20352998  1
  O  O10  1  0.24999498  0.43339701  0.79646198  1
  O  O11  1  0.74996002  0.06656100  0.29647699  1
