# generated using pymatgen
data_Dy3Al11
_symmetry_space_group_name_H-M   'P 1'
_cell_length_a   4.43687582
_cell_length_b   8.15608597
_cell_length_c   8.15608597
_cell_angle_alpha   65.26183319
_cell_angle_beta   74.21681213
_cell_angle_gamma   74.21681213
_symmetry_Int_Tables_number   1
_chemical_formula_structural   Dy3Al11
_chemical_formula_sum   'Dy3 Al11'
_cell_volume   253.69654552
_cell_formula_units_Z   1
loop_
 _symmetry_equiv_pos_site_id
 _symmetry_equiv_pos_as_xyz
  1  'x, y, z'
loop_
 _atom_site_type_symbol
 _atom_site_label
 _atom_site_symmetry_multiplicity
 _atom_site_fract_x
 _atom_site_fract_y
 _atom_site_fract_z
 _atom_site_occupancy
  Dy  Dy0  1  0.00000000  0.00000000  0.00000000  1
  Dy  Dy1  1  0.29426099  0.70573902  0.70573899  1
  Dy  Dy2  1  0.70573903  0.29426101  0.29426099  1
  Al  Al3  1  -0.00000002  0.50000002  0.50000000  1
  Al  Al4  1  0.50000000  0.68192202  0.31807798  1
  Al  Al5  1  0.50000001  0.31807801  0.68192200  1
  Al  Al6  1  0.34036102  0.01865100  0.30062700  1
  Al  Al7  1  0.65963900  0.98134903  0.69937298  1
  Al  Al8  1  0.34036101  0.30062701  0.01865099  1
  Al  Al9  1  0.65963901  0.69937302  0.98134899  1
  Al  Al10  1  0.13744700  0.14306301  0.58204301  1
  Al  Al11  1  0.86255302  0.85693703  0.41795697  1
  Al  Al12  1  0.13744699  0.58204302  0.14306299  1
  Al  Al13  1  0.86255303  0.41795701  0.85693699  1
