# generated using pymatgen
data_LaSn2
_symmetry_space_group_name_H-M   'P 1'
_cell_length_a   4.68555403
_cell_length_b   7.51998377
_cell_length_c   7.51998377
_cell_angle_alpha   120.00000000
_cell_angle_beta   90.00000000
_cell_angle_gamma   90.00000000
_symmetry_Int_Tables_number   1
_chemical_formula_structural   LaSn2
_chemical_formula_sum   'La3 Sn6'
_cell_volume   229.46972122
_cell_formula_units_Z   3
loop_
 _symmetry_equiv_pos_site_id
 _symmetry_equiv_pos_as_xyz
  1  'x, y, z'
loop_
 _atom_site_type_symbol
 _atom_site_label
 _atom_site_symmetry_multiplicity
 _atom_site_fract_x
 _atom_site_fract_y
 _atom_site_fract_z
 _atom_site_occupancy
  La  La0  1  -0.00000000  0.42821801  0.42821800  1
  La  La1  1  0.99999999  0.00000000  0.57178201  1
  La  La2  1  -0.00000000  0.57178201  -0.00000001  1
  Sn  Sn3  1  0.50000000  0.75582702  0.75582700  1
  Sn  Sn4  1  0.50000000  1.00000002  0.24417299  1
  Sn  Sn5  1  0.50000000  0.24417301  1.00000001  1
  Sn  Sn6  1  0.50000000  0.66666668  0.33333333  1
  Sn  Sn7  1  0.50000000  0.33333334  0.66666667  1
  Sn  Sn8  1  0.00000000  0.00000000  0.00000000  1
