# generated using pymatgen
data_Yb2Sn3Au
_symmetry_space_group_name_H-M   'P 1'
_cell_length_a   4.71505594
_cell_length_b   4.71505642
_cell_length_c   7.33525610
_cell_angle_alpha   90.00000000
_cell_angle_beta   90.00000000
_cell_angle_gamma   119.99999237
_symmetry_Int_Tables_number   1
_chemical_formula_structural   Yb2Sn3Au
_chemical_formula_sum   'Yb2 Sn3 Au1'
_cell_volume   141.22763612
_cell_formula_units_Z   1
loop_
 _symmetry_equiv_pos_site_id
 _symmetry_equiv_pos_as_xyz
  1  'x, y, z'
loop_
 _atom_site_type_symbol
 _atom_site_label
 _atom_site_symmetry_multiplicity
 _atom_site_fract_x
 _atom_site_fract_y
 _atom_site_fract_z
 _atom_site_occupancy
  Yb  Yb0  1  0.00000000  0.00000000  0.50725199  1
  Yb  Yb1  1  0.00000000  0.00000000  0.00725200  1
  Sn  Sn2  1  0.66666665  0.33333334  0.19034400  1
  Sn  Sn3  1  0.33333329  0.66666667  0.69034399  1
  Sn  Sn4  1  0.33333329  0.66666667  0.28586400  1
  Au  Au5  1  0.66666665  0.33333334  0.78586399  1
