# generated using pymatgen
data_Li2Mn5O11
_symmetry_space_group_name_H-M   'P 1'
_cell_length_a   4.86510992
_cell_length_b   5.87261248
_cell_length_c   8.13857365
_cell_angle_alpha   92.35547638
_cell_angle_beta   90.14100647
_cell_angle_gamma   90.50778198
_symmetry_Int_Tables_number   1
_chemical_formula_structural   Li2Mn5O11
_chemical_formula_sum   'Li2 Mn5 O11'
_cell_volume   232.31989479
_cell_formula_units_Z   1
loop_
 _symmetry_equiv_pos_site_id
 _symmetry_equiv_pos_as_xyz
  1  'x, y, z'
loop_
 _atom_site_type_symbol
 _atom_site_label
 _atom_site_symmetry_multiplicity
 _atom_site_fract_x
 _atom_site_fract_y
 _atom_site_fract_z
 _atom_site_occupancy
  Li  Li0  1  0.49454703  0.51276301  0.00344100  1
  Li  Li1  1  0.50749201  0.16734700  0.67242004  1
  Mn  Mn2  1  0.46513404  0.82626402  0.32707801  1
  Mn  Mn3  1  0.01611502  0.67554702  0.64958502  1
  Mn  Mn4  1  0.01474601  0.35016301  0.33422101  1
  Mn  Mn5  1  0.00825403  0.98012502  0.01354799  1
  Mn  Mn6  1  0.20039502  0.63635602  0.42680102  1
  O  O7  1  0.31208503  0.78337402  0.10755500  1
  O  O8  1  0.19073204  0.96998802  0.77053703  1
  O  O9  1  0.20004101  0.28394801  0.09945400  1
  O  O10  1  0.30533802  0.46919301  0.77239304  1
  O  O11  1  0.29823601  0.13627100  0.43732402  1
  O  O12  1  0.67593804  0.86274002  0.55083803  1
  O  O13  1  0.70896203  0.52773001  0.22306802  1
  O  O14  1  0.69855602  0.21069801  0.91348005  1
  O  O15  1  0.81007303  0.36894901  0.56873404  1
  O  O16  1  0.78838601  0.03423100  0.24469403  1
  O  O17  1  0.80497004  0.70431302  0.88483105  1
