# generated using pymatgen
data_Ho2Ga3Cu
_symmetry_space_group_name_H-M   'P 1'
_cell_length_a   5.37197113
_cell_length_b   5.37197113
_cell_length_c   5.37197065
_cell_angle_alpha   61.51573563
_cell_angle_beta   61.51573563
_cell_angle_gamma   61.51574326
_symmetry_Int_Tables_number   1
_chemical_formula_structural   Ho2Ga3Cu
_chemical_formula_sum   'Ho2 Ga3 Cu1'
_cell_volume   113.34834890
_cell_formula_units_Z   1
loop_
 _symmetry_equiv_pos_site_id
 _symmetry_equiv_pos_as_xyz
  1  'x, y, z'
loop_
 _atom_site_type_symbol
 _atom_site_label
 _atom_site_symmetry_multiplicity
 _atom_site_fract_x
 _atom_site_fract_y
 _atom_site_fract_z
 _atom_site_occupancy
  Ho  Ho0  1  0.37361400  0.37361401  0.37361399  1
  Ho  Ho1  1  0.62638600  0.62638601  0.62638598  1
  Ga  Ga2  1  0.50000001  0.00000000  -0.00000002  1
  Ga  Ga3  1  -0.00000001  0.50000001  1.00000001  1
  Ga  Ga4  1  0.00000000  0.00000000  0.50000001  1
  Cu  Cu5  1  0.00000000  0.00000000  0.00000000  1
