# generated using pymatgen
data_Hf4Al6Ge7
_symmetry_space_group_name_H-M   'P 1'
_cell_length_a   7.43831825
_cell_length_b   7.43831825
_cell_length_c   7.43831825
_cell_angle_alpha   109.47122192
_cell_angle_beta   109.47122192
_cell_angle_gamma   109.47122192
_symmetry_Int_Tables_number   1
_chemical_formula_structural   Hf4Al6Ge7
_chemical_formula_sum   'Hf4 Al6 Ge7'
_cell_volume   316.81253487
_cell_formula_units_Z   1
loop_
 _symmetry_equiv_pos_site_id
 _symmetry_equiv_pos_as_xyz
  1  'x, y, z'
loop_
 _atom_site_type_symbol
 _atom_site_label
 _atom_site_symmetry_multiplicity
 _atom_site_fract_x
 _atom_site_fract_y
 _atom_site_fract_z
 _atom_site_occupancy
  Hf  Hf0  1  0.50000003  0.50000001  0.50000003  1
  Hf  Hf1  1  0.00000003  0.50000001  0.00000003  1
  Hf  Hf2  1  0.00000000  0.00000000  0.49999999  1
  Hf  Hf3  1  0.50000000  0.00000000  0.00000001  1
  Al  Al4  1  0.50000005  0.75000002  0.25000005  1
  Al  Al5  1  0.75000001  0.25000001  0.50000003  1
  Al  Al6  1  0.25000003  0.50000001  0.75000003  1
  Al  Al7  1  0.25000005  0.75000002  0.50000004  1
  Al  Al8  1  0.50000001  0.25000001  0.75000002  1
  Al  Al9  1  0.75000003  0.50000001  0.25000004  1
  Ge  Ge10  1  0.00000005  0.71718402  0.71718403  1
  Ge  Ge11  1  0.71718404  0.71718402  0.00000006  1
  Ge  Ge12  1  0.71718400  0.00000000  0.71718401  1
  Ge  Ge13  1  0.00000002  0.28281601  0.28281601  1
  Ge  Ge14  1  0.28281602  0.28281601  1.00000001  1
  Ge  Ge15  1  0.28281600  0.00000000  0.28281600  1
  Ge  Ge16  1  0.00000000  0.00000000  0.00000000  1
