# generated using pymatgen
data_ZrFe12
_symmetry_space_group_name_H-M   'P 1'
_cell_length_a   5.04565001
_cell_length_b   6.45483828
_cell_length_c   6.45483828
_cell_angle_alpha   78.62943268
_cell_angle_beta   66.99307251
_cell_angle_gamma   66.99307251
_symmetry_Int_Tables_number   1
_chemical_formula_structural   ZrFe12
_chemical_formula_sum   'Zr1 Fe12'
_cell_volume   177.86822317
_cell_formula_units_Z   1
loop_
 _symmetry_equiv_pos_site_id
 _symmetry_equiv_pos_as_xyz
  1  'x, y, z'
loop_
 _atom_site_type_symbol
 _atom_site_label
 _atom_site_symmetry_multiplicity
 _atom_site_fract_x
 _atom_site_fract_y
 _atom_site_fract_z
 _atom_site_occupancy
  Zr  Zr0  1  0.00000000  0.00000000  0.00000000  1
  Fe  Fe1  1  0.34491605  0.65508400  0.65508401  1
  Fe  Fe2  1  0.65508401  0.34491600  0.34491603  1
  Fe  Fe3  1  0.00000003  0.34072500  0.65927500  1
  Fe  Fe4  1  0.00000006  0.65927500  0.34072499  1
  Fe  Fe5  1  0.68721906  0.81278099  0.81278102  1
  Fe  Fe6  1  0.31278101  0.18721900  0.18721901  1
  Fe  Fe7  1  0.50000006  0.76134399  0.23865601  1
  Fe  Fe8  1  0.50000001  0.23865600  0.76134403  1
  Fe  Fe9  1  0.99999998  0.00000000  0.50000006  1
  Fe  Fe10  1  0.50000003  0.50000000  0.00000001  1
  Fe  Fe11  1  1.00000002  0.50000000  1.00000005  1
  Fe  Fe12  1  0.49999999  0.00000000  0.50000003  1
