# generated using pymatgen
data_EuSnPt
_symmetry_space_group_name_H-M   'P 1'
_cell_length_a   4.61687613
_cell_length_b   7.38493681
_cell_length_c   8.10256386
_cell_angle_alpha   90.00000000
_cell_angle_beta   90.00000000
_cell_angle_gamma   90.00000000
_symmetry_Int_Tables_number   1
_chemical_formula_structural   EuSnPt
_chemical_formula_sum   'Eu4 Sn4 Pt4'
_cell_volume   276.25965700
_cell_formula_units_Z   4
loop_
 _symmetry_equiv_pos_site_id
 _symmetry_equiv_pos_as_xyz
  1  'x, y, z'
loop_
 _atom_site_type_symbol
 _atom_site_label
 _atom_site_symmetry_multiplicity
 _atom_site_fract_x
 _atom_site_fract_y
 _atom_site_fract_z
 _atom_site_occupancy
  Eu  Eu0  1  0.74999998  0.48878501  0.80349101  1
  Eu  Eu1  1  0.24999999  0.01121500  0.30349101  1
  Eu  Eu2  1  0.74999998  0.98878503  0.69650901  1
  Eu  Eu3  1  0.24999999  0.51121501  0.19650900  1
  Sn  Sn4  1  0.24999999  0.67849902  0.58400401  1
  Sn  Sn5  1  0.24999999  0.17849900  0.91599602  1
  Sn  Sn6  1  0.74999998  0.32150101  0.41599601  1
  Sn  Sn7  1  0.74999998  0.82150102  0.08400400  1
  Pt  Pt8  1  0.24999999  0.78707702  0.90930402  1
  Pt  Pt9  1  0.24999999  0.28707701  0.59069601  1
  Pt  Pt10  1  0.74999998  0.71292302  0.40930401  1
  Pt  Pt11  1  0.74999998  0.21292301  0.09069600  1
