# generated using pymatgen
data_Ac2Zn3In
_symmetry_space_group_name_H-M   'P 1'
_cell_length_a   5.59748697
_cell_length_b   6.20635605
_cell_length_c   6.20635509
_cell_angle_alpha   120.00000763
_cell_angle_beta   90.00000000
_cell_angle_gamma   90.00000000
_symmetry_Int_Tables_number   1
_chemical_formula_structural   Ac2Zn3In
_chemical_formula_sum   'Ac2 Zn3 In1'
_cell_volume   186.72264751
_cell_formula_units_Z   1
loop_
 _symmetry_equiv_pos_site_id
 _symmetry_equiv_pos_as_xyz
  1  'x, y, z'
loop_
 _atom_site_type_symbol
 _atom_site_label
 _atom_site_symmetry_multiplicity
 _atom_site_fract_x
 _atom_site_fract_y
 _atom_site_fract_z
 _atom_site_occupancy
  Ac  Ac0  1  0.50000000  0.32356401  0.32356402  1
  Ac  Ac1  1  0.50000000  0.67643602  0.00000004  1
  In  In2  1  0.50000000  0.00000000  0.67643601  1
  Zn  Zn3  1  -0.00000000  0.33333334  0.66666670  1
  Zn  Zn4  1  -0.00000000  0.66666668  0.33333338  1
  Zn  Zn5  1  0.00000000  0.00000000  0.00000000  1
