# generated using pymatgen
data_Al4Si3Pt
_symmetry_space_group_name_H-M   'P 1'
_cell_length_a   4.50281096
_cell_length_b   4.69727087
_cell_length_c   5.56108713
_cell_angle_alpha   90.00000000
_cell_angle_beta   90.00000000
_cell_angle_gamma   90.00000000
_symmetry_Int_Tables_number   1
_chemical_formula_structural   Al4Si3Pt
_chemical_formula_sum   'Al4 Si3 Pt1'
_cell_volume   117.62212423
_cell_formula_units_Z   1
loop_
 _symmetry_equiv_pos_site_id
 _symmetry_equiv_pos_as_xyz
  1  'x, y, z'
loop_
 _atom_site_type_symbol
 _atom_site_label
 _atom_site_symmetry_multiplicity
 _atom_site_fract_x
 _atom_site_fract_y
 _atom_site_fract_z
 _atom_site_occupancy
  Al  Al0  1  0.50000000  0.81882002  0.74961798  1
  Al  Al1  1  0.50000000  0.81882002  0.25038199  1
  Al  Al2  1  0.00000000  0.18118001  0.24961799  1
  Al  Al3  1  0.00000000  0.18118001  0.75038198  1
  Si  Si4  1  0.00000000  0.68602502  0.49999999  1
  Si  Si5  1  0.50000000  0.31397501  0.00000000  1
  Si  Si6  1  0.50000000  0.32207501  0.49999999  1
  Pt  Pt7  1  0.00000000  0.67792502  0.00000000  1
