# generated using pymatgen
data_BaSrCoAgO7
_symmetry_space_group_name_H-M   'P 1'
_cell_length_a   3.41419506
_cell_length_b   3.49909639
_cell_length_c   11.76727486
_cell_angle_alpha   92.63859558
_cell_angle_beta   96.05966187
_cell_angle_gamma   90.14601135
_symmetry_Int_Tables_number   1
_chemical_formula_structural   BaSrCoAgO7
_chemical_formula_sum   'Ba1 Sr1 Co1 Ag1 O7'
_cell_volume   139.64132051
_cell_formula_units_Z   1
loop_
 _symmetry_equiv_pos_site_id
 _symmetry_equiv_pos_as_xyz
  1  'x, y, z'
loop_
 _atom_site_type_symbol
 _atom_site_label
 _atom_site_symmetry_multiplicity
 _atom_site_fract_x
 _atom_site_fract_y
 _atom_site_fract_z
 _atom_site_occupancy
  Ba  Ba0  1  0.80456599  0.02493600  0.65042700  1
  Sr  Sr1  1  0.38463600  0.55385499  0.85885999  1
  Ag  Ag2  1  0.61536399  0.44614499  0.14114000  1
  Co  Co3  1  0.19543400  0.97506399  0.34957299  1
  O  O4  1  0.26680100  0.50728999  0.54026999  1
  O  O5  1  0.73319899  0.49270999  0.45973000  1
  O  O6  1  0.00000000  0.00000000  0.00000000  1
  O  O7  1  0.88580599  0.06371100  0.87861800  1
  O  O8  1  0.68802999  0.47183799  0.33104300  1
  O  O9  1  0.31197000  0.52816199  0.66895699  1
  O  O10  1  0.11419400  0.93628899  0.12138199  1
