# generated using pymatgen
data_YbGa5
_symmetry_space_group_name_H-M   'P 1'
_cell_length_a   4.12003183
_cell_length_b   6.59365892
_cell_length_c   7.85145140
_cell_angle_alpha   90.00000000
_cell_angle_beta   105.21096802
_cell_angle_gamma   90.00000000
_symmetry_Int_Tables_number   1
_chemical_formula_structural   YbGa5
_chemical_formula_sum   'Yb2 Ga10'
_cell_volume   205.82074077
_cell_formula_units_Z   2
loop_
 _symmetry_equiv_pos_site_id
 _symmetry_equiv_pos_as_xyz
  1  'x, y, z'
loop_
 _atom_site_type_symbol
 _atom_site_label
 _atom_site_symmetry_multiplicity
 _atom_site_fract_x
 _atom_site_fract_y
 _atom_site_fract_z
 _atom_site_occupancy
  Yb  Yb0  1  0.88054204  0.75000001  0.76108401  1
  Yb  Yb1  1  0.11945800  0.25000000  0.23891600  1
  Ga  Ga2  1  0.50000002  0.00000000  -0.00000000  1
  Ga  Ga3  1  0.50000002  0.50000001  -0.00000000  1
  Ga  Ga4  1  0.07102400  0.75000001  0.14204800  1
  Ga  Ga5  1  0.92897604  0.25000000  0.85795201  1
  Ga  Ga6  1  0.68495703  0.94868701  0.36991400  1
  Ga  Ga7  1  0.31504301  0.05131300  0.63008601  1
  Ga  Ga8  1  0.68495703  0.55131301  0.36991400  1
  Ga  Ga9  1  0.31504301  0.44868701  0.63008601  1
  Ga  Ga10  1  0.22548401  0.75000001  0.45096801  1
  Ga  Ga11  1  0.77451603  0.25000000  0.54903201  1
