# generated using pymatgen
data_LaSb
_symmetry_space_group_name_H-M   'P 1'
_cell_length_a   8.18318653
_cell_length_b   8.18318653
_cell_length_c   8.18318653
_cell_angle_alpha   109.47122192
_cell_angle_beta   109.47122192
_cell_angle_gamma   109.47122192
_symmetry_Int_Tables_number   1
_chemical_formula_structural   LaSb
_chemical_formula_sum   'La7 Sb7'
_cell_volume   421.83774901
_cell_formula_units_Z   7
loop_
 _symmetry_equiv_pos_site_id
 _symmetry_equiv_pos_as_xyz
  1  'x, y, z'
loop_
 _atom_site_type_symbol
 _atom_site_label
 _atom_site_symmetry_multiplicity
 _atom_site_fract_x
 _atom_site_fract_y
 _atom_site_fract_z
 _atom_site_occupancy
  La  La0  1  0.64996005  0.64996003  0.14996005  1
  La  La1  1  0.35004007  1.00000005  1.00000007  1
  La  La2  1  0.50000006  0.85004004  0.50000006  1
  La  La3  1  0.00000003  0.50000003  0.35004003  1
  La  La4  1  0.50000003  0.35004002  0.50000004  1
  La  La5  1  0.00000003  0.50000003  0.85004004  1
  La  La6  1  0.14996001  0.14996001  0.64996002  1
  Sb  Sb7  1  0.85004002  0.00000000  0.00000002  1
  Sb  Sb8  1  0.25000003  0.37500002  0.12500003  1
  Sb  Sb9  1  0.37500005  0.62500003  0.75000005  1
  Sb  Sb10  1  0.12500006  0.87500004  0.25000005  1
  Sb  Sb11  1  0.87500006  0.75000004  0.62500007  1
  Sb  Sb12  1  0.62500003  0.25000001  0.87500004  1
  Sb  Sb13  1  0.75000002  0.12500001  0.37500003  1
