# generated using pymatgen
data_Eu3Cd5
_symmetry_space_group_name_H-M   'P 1'
_cell_length_a   6.64477921
_cell_length_b   6.64477921
_cell_length_c   10.64652348
_cell_angle_alpha   90.00000000
_cell_angle_beta   90.00000000
_cell_angle_gamma   101.69588470
_symmetry_Int_Tables_number   1
_chemical_formula_structural   Eu3Cd5
_chemical_formula_sum   'Eu6 Cd10'
_cell_volume   460.31688503
_cell_formula_units_Z   2
loop_
 _symmetry_equiv_pos_site_id
 _symmetry_equiv_pos_as_xyz
  1  'x, y, z'
loop_
 _atom_site_type_symbol
 _atom_site_label
 _atom_site_symmetry_multiplicity
 _atom_site_fract_x
 _atom_site_fract_y
 _atom_site_fract_z
 _atom_site_occupancy
  Eu  Eu0  1  0.63199602  0.63199599  0.74999997  1
  Eu  Eu1  1  0.36800401  0.36800399  0.24999999  1
  Eu  Eu2  1  0.79807799  0.20192200  0.49999998  1
  Eu  Eu3  1  0.79807799  0.20192200  -0.00000000  1
  Eu  Eu4  1  0.20192205  0.79807798  0.49999998  1
  Eu  Eu5  1  0.20192205  0.79807798  -0.00000000  1
  Cd  Cd6  1  0.01385400  0.01385400  0.74999997  1
  Cd  Cd7  1  0.98614603  0.98614598  0.24999999  1
  Cd  Cd8  1  0.30723601  0.30723599  0.94974896  1
  Cd  Cd9  1  0.69276402  0.69276398  0.05025100  1
  Cd  Cd10  1  0.30723601  0.30723599  0.55025098  1
  Cd  Cd11  1  0.69276402  0.69276398  0.44974898  1
  Cd  Cd12  1  0.07654503  0.50263599  0.74999997  1
  Cd  Cd13  1  0.49736404  0.92345498  0.24999999  1
  Cd  Cd14  1  0.92345500  0.49736399  0.24999999  1
  Cd  Cd15  1  0.50263599  0.07654500  0.74999997  1
