# generated using pymatgen
data_Hf2AlCo3
_symmetry_space_group_name_H-M   'P 1'
_cell_length_a   4.92364645
_cell_length_b   4.92407227
_cell_length_c   7.97351122
_cell_angle_alpha   90.00000000
_cell_angle_beta   90.00000000
_cell_angle_gamma   118.68421173
_symmetry_Int_Tables_number   1
_chemical_formula_structural   Hf2AlCo3
_chemical_formula_sum   'Hf4 Al2 Co6'
_cell_volume   169.58926336
_cell_formula_units_Z   2
loop_
 _symmetry_equiv_pos_site_id
 _symmetry_equiv_pos_as_xyz
  1  'x, y, z'
loop_
 _atom_site_type_symbol
 _atom_site_label
 _atom_site_symmetry_multiplicity
 _atom_site_fract_x
 _atom_site_fract_y
 _atom_site_fract_z
 _atom_site_occupancy
  Hf  Hf0  1  0.33339104  0.66661700  0.54477699  1
  Hf  Hf1  1  0.66399100  0.33600200  0.42500999  1
  Hf  Hf2  1  0.66399100  0.33600200  0.07499000  1
  Hf  Hf3  1  0.33339104  0.66661700  0.95522297  1
  Al  Al4  1  0.99163496  0.00812700  0.48829499  1
  Al  Al5  1  0.99163496  0.00812700  0.01170500  1
  Co  Co6  1  0.34777100  0.16522000  0.74999998  1
  Co  Co7  1  0.83476402  0.65220300  0.74999998  1
  Co  Co8  1  0.83689898  0.16315000  0.74999998  1
  Co  Co9  1  0.65501704  0.82395300  0.24999999  1
  Co  Co10  1  0.17620102  0.34517500  0.24999999  1
  Co  Co11  1  0.17131406  0.82880700  0.24999999  1
