# generated using pymatgen
data_Cu2Se3
_symmetry_space_group_name_H-M   'P 1'
_cell_length_a   6.89699793
_cell_length_b   7.40952587
_cell_length_c   7.55995417
_cell_angle_alpha   71.42471313
_cell_angle_beta   62.86082840
_cell_angle_gamma   62.26296234
_symmetry_Int_Tables_number   1
_chemical_formula_structural   Cu2Se3
_chemical_formula_sum   'Cu4 Se6'
_cell_volume   301.51750041
_cell_formula_units_Z   2
loop_
 _symmetry_equiv_pos_site_id
 _symmetry_equiv_pos_as_xyz
  1  'x, y, z'
loop_
 _atom_site_type_symbol
 _atom_site_label
 _atom_site_symmetry_multiplicity
 _atom_site_fract_x
 _atom_site_fract_y
 _atom_site_fract_z
 _atom_site_occupancy
  Cu  Cu0  1  0.77999601  0.00000000  0.00000001  1
  Cu  Cu1  1  0.22000400  0.00000000  1.00000001  1
  Cu  Cu2  1  0.66679997  0.81080098  0.85559905  1
  Cu  Cu3  1  0.33319999  0.18919899  0.14440101  1
  Se  Se4  1  0.80823000  0.21753299  0.16600702  1
  Se  Se5  1  0.19176996  0.78246698  0.83399305  1
  Se  Se6  1  0.22326197  0.75768698  0.28464804  1
  Se  Se7  1  0.26559699  0.24231299  0.71535202  1
  Se  Se8  1  0.77673799  0.24231299  0.71535203  1
  Se  Se9  1  0.73440297  0.75768698  0.28464805  1
