# generated using pymatgen
data_Li2MgGe3
_symmetry_space_group_name_H-M   'P 1'
_cell_length_a   5.71559191
_cell_length_b   5.71559191
_cell_length_c   5.71559191
_cell_angle_alpha   105.23430634
_cell_angle_beta   105.23430634
_cell_angle_gamma   118.32459259
_symmetry_Int_Tables_number   1
_chemical_formula_structural   Li2MgGe3
_chemical_formula_sum   'Li2 Mg1 Ge3'
_cell_volume   141.12495288
_cell_formula_units_Z   1
loop_
 _symmetry_equiv_pos_site_id
 _symmetry_equiv_pos_as_xyz
  1  'x, y, z'
loop_
 _atom_site_type_symbol
 _atom_site_label
 _atom_site_symmetry_multiplicity
 _atom_site_fract_x
 _atom_site_fract_y
 _atom_site_fract_z
 _atom_site_occupancy
  Li  Li0  1  0.84450597  0.65549298  0.50000001  1
  Li  Li1  1  0.65549400  0.15549400  0.81098802  1
  Mg  Mg2  1  0.34450595  0.84450598  0.18901199  1
  Ge  Ge3  1  0.15549398  0.34450699  0.50000000  1
  Ge  Ge4  1  0.74999996  0.74999998  -0.00000000  1
  Ge  Ge5  1  0.24999999  0.24999999  -0.00000000  1
