# generated using pymatgen
data_Li2CeP2
_symmetry_space_group_name_H-M   'P 1'
_cell_length_a   4.08340216
_cell_length_b   7.12865925
_cell_length_c   8.52800465
_cell_angle_alpha   114.61481476
_cell_angle_beta   103.85179901
_cell_angle_gamma   90.00000000
_symmetry_Int_Tables_number   1
_chemical_formula_structural   Li2CeP2
_chemical_formula_sum   'Li4 Ce2 P4'
_cell_volume   217.71891225
_cell_formula_units_Z   2
loop_
 _symmetry_equiv_pos_site_id
 _symmetry_equiv_pos_as_xyz
  1  'x, y, z'
loop_
 _atom_site_type_symbol
 _atom_site_label
 _atom_site_symmetry_multiplicity
 _atom_site_fract_x
 _atom_site_fract_y
 _atom_site_fract_z
 _atom_site_occupancy
  Ce  Ce0  1  0.50650097  0.50506000  0.01300198  1
  Ce  Ce1  1  0.00517200  0.00564600  0.01034400  1
  Li  Li2  1  0.80464795  0.48181800  0.60929597  1
  Li  Li3  1  0.67807097  0.02771700  0.35614199  1
  Li  Li4  1  0.18443698  0.50281300  0.36887398  1
  Li  Li5  1  0.31102396  0.96430301  0.62204796  1
  P  P6  1  0.62868997  0.30028400  0.25737998  1
  P  P7  1  0.15007397  0.81229601  0.30014797  1
  P  P8  1  0.37071197  0.70955400  0.74142396  1
  P  P9  1  0.86553196  0.19051000  0.73106397  1
