# generated using pymatgen
data_Ta(Mo3Se4)2
_symmetry_space_group_name_H-M   'P 1'
_cell_length_a   6.90812874
_cell_length_b   6.90812874
_cell_length_c   6.90812874
_cell_angle_alpha   89.05162811
_cell_angle_beta   89.05162811
_cell_angle_gamma   89.05162811
_symmetry_Int_Tables_number   1
_chemical_formula_structural   Ta(Mo3Se4)2
_chemical_formula_sum   'Ta1 Mo6 Se8'
_cell_volume   329.53739305
_cell_formula_units_Z   1
loop_
 _symmetry_equiv_pos_site_id
 _symmetry_equiv_pos_as_xyz
  1  'x, y, z'
loop_
 _atom_site_type_symbol
 _atom_site_label
 _atom_site_symmetry_multiplicity
 _atom_site_fract_x
 _atom_site_fract_y
 _atom_site_fract_z
 _atom_site_occupancy
  Ta  Ta0  1  0.00000000  0.00000000  0.00000000  1
  Mo  Mo1  1  0.75982401  0.43905301  0.57891604  1
  Mo  Mo2  1  0.57891600  0.75982402  0.43905304  1
  Mo  Mo3  1  0.43905300  0.57891601  0.75982404  1
  Mo  Mo4  1  0.24017600  0.56094701  0.42108403  1
  Mo  Mo5  1  0.42108401  0.24017601  0.56094703  1
  Mo  Mo6  1  0.56094701  0.42108401  0.24017603  1
  Se  Se7  1  0.87904501  0.61481801  0.25705104  1
  Se  Se8  1  0.25705099  0.87904502  0.61481804  1
  Se  Se9  1  0.61481801  0.25705101  0.87904504  1
  Se  Se10  1  0.12095500  0.38518201  0.74294903  1
  Se  Se11  1  0.74294902  0.12095500  0.38518203  1
  Se  Se12  1  0.38518200  0.74294902  0.12095503  1
  Se  Se13  1  0.75631101  0.75631102  0.75631105  1
  Se  Se14  1  0.24368900  0.24368901  0.24368902  1
