# generated using pymatgen
data_LaY(Co2Si)4
_symmetry_space_group_name_H-M   'P 1'
_cell_length_a   4.15267992
_cell_length_b   7.45619678
_cell_length_c   7.45619678
_cell_angle_alpha   90.00000000
_cell_angle_beta   90.00000000
_cell_angle_gamma   90.00000000
_symmetry_Int_Tables_number   1
_chemical_formula_structural   LaY(Co2Si)4
_chemical_formula_sum   'La1 Y1 Co8 Si4'
_cell_volume   230.86770238
_cell_formula_units_Z   1
loop_
 _symmetry_equiv_pos_site_id
 _symmetry_equiv_pos_as_xyz
  1  'x, y, z'
loop_
 _atom_site_type_symbol
 _atom_site_label
 _atom_site_symmetry_multiplicity
 _atom_site_fract_x
 _atom_site_fract_y
 _atom_site_fract_z
 _atom_site_occupancy
  Y  Y0  1  0.00000000  0.50000001  0.50000001  1
  La  La1  1  0.50000001  0.00000000  0.00000000  1
  Co  Co2  1  0.50000001  0.59319902  0.15728500  1
  Co  Co3  1  0.50000001  0.40680101  0.84271502  1
  Co  Co4  1  0.00000000  0.09319900  0.34271501  1
  Co  Co5  1  0.00000000  0.90680103  0.65728502  1
  Co  Co6  1  0.50000001  0.15728500  0.59319902  1
  Co  Co7  1  0.50000001  0.84271502  0.40680101  1
  Co  Co8  1  0.00000000  0.34271501  0.09319900  1
  Co  Co9  1  0.00000000  0.65728502  0.90680103  1
  Si  Si10  1  0.50000001  0.70923102  0.70923102  1
  Si  Si11  1  0.50000001  0.29076901  0.29076901  1
  Si  Si12  1  0.00000000  0.20923101  0.79076902  1
  Si  Si13  1  0.00000000  0.79076902  0.20923101  1
