# generated using pymatgen
data_CeMgSn2
_symmetry_space_group_name_H-M   'P 1'
_cell_length_a   4.14114094
_cell_length_b   6.12078619
_cell_length_c   8.53301811
_cell_angle_alpha   90.00000000
_cell_angle_beta   90.00000000
_cell_angle_gamma   90.00000000
_symmetry_Int_Tables_number   1
_chemical_formula_structural   CeMgSn2
_chemical_formula_sum   'Ce2 Mg2 Sn4'
_cell_volume   216.28673659
_cell_formula_units_Z   2
loop_
 _symmetry_equiv_pos_site_id
 _symmetry_equiv_pos_as_xyz
  1  'x, y, z'
loop_
 _atom_site_type_symbol
 _atom_site_label
 _atom_site_symmetry_multiplicity
 _atom_site_fract_x
 _atom_site_fract_y
 _atom_site_fract_z
 _atom_site_occupancy
  Ce  Ce0  1  0.25000000  0.11755000  0.18145000  1
  Ce  Ce1  1  0.75000001  0.88244997  0.81854999  1
  Mg  Mg2  1  0.75000001  0.61754998  0.31855000  1
  Mg  Mg3  1  0.25000000  0.38244999  0.68144999  1
  Sn  Sn4  1  0.25000000  0.63331898  0.03718200  1
  Sn  Sn5  1  0.75000001  0.36668099  0.96281799  1
  Sn  Sn6  1  0.75000001  0.13331900  0.46281799  1
  Sn  Sn7  1  0.25000000  0.86668097  0.53718199  1
