# generated using pymatgen
data_Ta7Te2Se11
_symmetry_space_group_name_H-M   'P 1'
_cell_length_a   8.17692661
_cell_length_b   8.17692661
_cell_length_c   8.17692661
_cell_angle_alpha   107.46397400
_cell_angle_beta   107.46397400
_cell_angle_gamma   107.46398163
_symmetry_Int_Tables_number   1
_chemical_formula_structural   Ta7Te2Se11
_chemical_formula_sum   'Ta7 Te2 Se11'
_cell_volume   449.43185967
_cell_formula_units_Z   1
loop_
 _symmetry_equiv_pos_site_id
 _symmetry_equiv_pos_as_xyz
  1  'x, y, z'
loop_
 _atom_site_type_symbol
 _atom_site_label
 _atom_site_symmetry_multiplicity
 _atom_site_fract_x
 _atom_site_fract_y
 _atom_site_fract_z
 _atom_site_occupancy
  Ta  Ta0  1  0.49999996  0.49999997  0.49999993  1
  Ta  Ta1  1  0.68880293  0.97057294  0.89641988  1
  Ta  Ta2  1  0.89641993  0.68880296  0.97057289  1
  Ta  Ta3  1  0.97057292  0.89641994  0.68880287  1
  Ta  Ta4  1  0.31119698  0.02942700  0.10357998  1
  Ta  Ta5  1  0.10357998  0.31119698  0.02942697  1
  Ta  Ta6  1  0.02942700  0.10357999  0.31119699  1
  Te  Te7  1  0.00000000  0.00000000  0.00000000  1
  Se  Se8  1  0.68603196  0.07510900  0.22285195  1
  Se  Se9  1  0.22285197  0.68603196  0.07510893  1
  Se  Se10  1  0.07510899  0.22285199  0.68603198  1
  Se  Se11  1  0.31396795  0.92489094  0.77714791  1
  Te  Te12  1  0.77714795  0.31396798  0.92489093  1
  Se  Se13  1  0.92489093  0.77714795  0.31396788  1
  Se  Se14  1  0.53813995  0.61652996  0.84248092  1
  Se  Se15  1  0.84248094  0.53813997  0.61652991  1
  Se  Se16  1  0.61652994  0.84248095  0.53813990  1
  Se  Se17  1  0.46185997  0.38346998  0.15751894  1
  Se  Se18  1  0.15751898  0.46185997  0.38346995  1
  Se  Se19  1  0.38346998  0.15751899  0.46185996  1
