# generated using pymatgen
data_Sr3Ca(RuO4)2
_symmetry_space_group_name_H-M   'P 1'
_cell_length_a   5.44384003
_cell_length_b   5.45848083
_cell_length_c   6.85393190
_cell_angle_alpha   90.00000000
_cell_angle_beta   113.39904785
_cell_angle_gamma   90.00000000
_symmetry_Int_Tables_number   1
_chemical_formula_structural   Sr3Ca(RuO4)2
_chemical_formula_sum   'Sr3 Ca1 Ru2 O8'
_cell_volume   186.91606723
_cell_formula_units_Z   1
loop_
 _symmetry_equiv_pos_site_id
 _symmetry_equiv_pos_as_xyz
  1  'x, y, z'
loop_
 _atom_site_type_symbol
 _atom_site_label
 _atom_site_symmetry_multiplicity
 _atom_site_fract_x
 _atom_site_fract_y
 _atom_site_fract_z
 _atom_site_occupancy
  Sr  Sr0  1  0.39283200  0.75000002  0.78566401  1
  Sr  Sr1  1  0.60716800  0.25000001  0.21433601  1
  Sr  Sr2  1  0.88686300  0.25000001  0.77372601  1
  Ca  Ca3  1  0.11313700  0.75000002  0.22627400  1
  Ru  Ru4  1  0.25074300  0.25000001  0.50148600  1
  Ru  Ru5  1  0.74925700  0.75000002  0.49851401  1
  O  O6  1  0.07635400  0.25000001  0.15270800  1
  O  O7  1  0.58825100  0.75000002  0.17650201  1
  O  O8  1  0.92364600  0.75000002  0.84729201  1
  O  O9  1  0.41174900  0.25000001  0.82349801  1
  O  O10  1  0.00000000  0.00000000  0.50000000  1
  O  O11  1  0.50000000  0.50000002  0.50000001  1
  O  O12  1  -0.00000000  0.50000002  0.50000000  1
  O  O13  1  0.50000000  1.00000003  0.50000001  1
