# generated using pymatgen
data_LiNiO3
_symmetry_space_group_name_H-M   'P 1'
_cell_length_a   5.09750557
_cell_length_b   5.09750557
_cell_length_c   5.50642967
_cell_angle_alpha   62.42764282
_cell_angle_beta   62.42764282
_cell_angle_gamma   60.00000763
_symmetry_Int_Tables_number   1
_chemical_formula_structural   LiNiO3
_chemical_formula_sum   'Li2 Ni2 O6'
_cell_volume   104.72919727
_cell_formula_units_Z   2
loop_
 _symmetry_equiv_pos_site_id
 _symmetry_equiv_pos_as_xyz
  1  'x, y, z'
loop_
 _atom_site_type_symbol
 _atom_site_label
 _atom_site_symmetry_multiplicity
 _atom_site_fract_x
 _atom_site_fract_y
 _atom_site_fract_z
 _atom_site_occupancy
  Li  Li0  1  0.14149200  0.14149200  0.57552402  1
  Li  Li1  1  0.85850798  0.85850798  0.42447600  1
  Ni  Ni2  1  0.34758999  0.34758999  0.95723003  1
  Ni  Ni3  1  0.65240998  0.65240998  0.04276999  1
  O  O4  1  0.72419298  0.05838200  0.75908503  1
  O  O5  1  0.94161798  0.54165998  0.24091500  1
  O  O6  1  0.54165999  0.27580699  0.24091500  1
  O  O7  1  0.45833999  0.72419298  0.75908502  1
  O  O8  1  0.05838200  0.45833999  0.75908503  1
  O  O9  1  0.27580699  0.94161797  0.24091500  1
