# generated using pymatgen
data_Tb3AlGe2
_symmetry_space_group_name_H-M   'P 1'
_cell_length_a   4.22818184
_cell_length_b   5.99445200
_cell_length_c   7.37708664
_cell_angle_alpha   113.97190094
_cell_angle_beta   106.65303802
_cell_angle_gamma   90.00000000
_symmetry_Int_Tables_number   1
_chemical_formula_structural   Tb3AlGe2
_chemical_formula_sum   'Tb3 Al1 Ge2'
_cell_volume   162.22920262
_cell_formula_units_Z   1
loop_
 _symmetry_equiv_pos_site_id
 _symmetry_equiv_pos_as_xyz
  1  'x, y, z'
loop_
 _atom_site_type_symbol
 _atom_site_label
 _atom_site_symmetry_multiplicity
 _atom_site_fract_x
 _atom_site_fract_y
 _atom_site_fract_z
 _atom_site_occupancy
  Tb  Tb0  1  0.00000000  0.00000000  0.00000000  1
  Tb  Tb1  1  0.33595103  0.33595100  0.67190203  1
  Tb  Tb2  1  0.66404905  0.66404901  0.32809804  1
  Al  Al3  1  0.66698204  0.16698200  0.33396403  1
  Ge  Ge4  1  0.00000002  0.50000000  0.00000001  1
  Ge  Ge5  1  0.33301804  0.83301801  0.66603604  1
