# generated using pymatgen
data_AcTl3
_symmetry_space_group_name_H-M   'P 1'
_cell_length_a   3.98920202
_cell_length_b   6.05041981
_cell_length_c   6.95458555
_cell_angle_alpha   111.12791443
_cell_angle_beta   106.66669464
_cell_angle_gamma   90.00000000
_symmetry_Int_Tables_number   1
_chemical_formula_structural   AcTl3
_chemical_formula_sum   'Ac1 Tl3'
_cell_volume   148.98957480
_cell_formula_units_Z   1
loop_
 _symmetry_equiv_pos_site_id
 _symmetry_equiv_pos_as_xyz
  1  'x, y, z'
loop_
 _atom_site_type_symbol
 _atom_site_label
 _atom_site_symmetry_multiplicity
 _atom_site_fract_x
 _atom_site_fract_y
 _atom_site_fract_z
 _atom_site_occupancy
  Ac  Ac0  1  0.39463697  0.67067601  0.78927397  1
  Tl  Tl1  1  0.60536298  0.32932400  0.21072598  1
  Tl  Tl2  1  0.15653297  0.87561601  0.31306596  1
  Tl  Tl3  1  0.84346699  0.12438400  0.68693398  1
