# generated using pymatgen
data_La5Pb3
_symmetry_space_group_name_H-M   'P 1'
_cell_length_a   6.56107903
_cell_length_b   9.53926849
_cell_length_c   9.53926849
_cell_angle_alpha   119.96095276
_cell_angle_beta   90.00000000
_cell_angle_gamma   90.00000000
_symmetry_Int_Tables_number   1
_chemical_formula_structural   La5Pb3
_chemical_formula_sum   'La10 Pb6'
_cell_volume   517.25749392
_cell_formula_units_Z   2
loop_
 _symmetry_equiv_pos_site_id
 _symmetry_equiv_pos_as_xyz
  1  'x, y, z'
loop_
 _atom_site_type_symbol
 _atom_site_label
 _atom_site_symmetry_multiplicity
 _atom_site_fract_x
 _atom_site_fract_y
 _atom_site_fract_z
 _atom_site_occupancy
  La  La0  1  0.50000000  0.66670503  0.33337173  1
  La  La1  1  0.50000000  0.33333335  0.66671038  1
  La  La2  1  -0.00000000  0.33333335  0.66671038  1
  La  La3  1  -0.00000000  0.66666670  0.33333339  1
  La  La4  1  0.25000700  0.74750003  0.74750008  1
  La  La5  1  0.24999600  0.25230101  0.00002102  1
  La  La6  1  0.24999600  0.00002100  0.25230101  1
  La  La7  1  0.75000700  0.25250001  0.25250003  1
  La  La8  1  0.74999600  0.74769903  0.99997909  1
  La  La9  1  0.74999600  0.99997904  0.74769910  1
  Pb  Pb10  1  0.25000900  0.38900002  0.38900004  1
  Pb  Pb11  1  0.24999600  0.61102603  0.99999108  1
  Pb  Pb12  1  0.24999600  0.99999004  0.61102510  1
  Pb  Pb13  1  0.75000900  0.61100003  0.61100007  1
  Pb  Pb14  1  0.74999600  0.38897402  0.00000903  1
  Pb  Pb15  1  0.74999600  0.00001000  0.38897501  1
