# generated using pymatgen
data_Ba2EuWO6
_symmetry_space_group_name_H-M   'P 1'
_cell_length_a   6.09167004
_cell_length_b   6.10594654
_cell_length_c   8.61592102
_cell_angle_alpha   90.05339050
_cell_angle_beta   90.00000000
_cell_angle_gamma   90.00000000
_symmetry_Int_Tables_number   1
_chemical_formula_structural   Ba2EuWO6
_chemical_formula_sum   'Ba4 Eu2 W2 O12'
_cell_volume   320.47258941
_cell_formula_units_Z   2
loop_
 _symmetry_equiv_pos_site_id
 _symmetry_equiv_pos_as_xyz
  1  'x, y, z'
loop_
 _atom_site_type_symbol
 _atom_site_label
 _atom_site_symmetry_multiplicity
 _atom_site_fract_x
 _atom_site_fract_y
 _atom_site_fract_z
 _atom_site_occupancy
  Ba  Ba0  1  0.48758700  0.50056101  0.74943199  1
  Ba  Ba1  1  0.98758699  0.99943903  0.75056801  1
  Ba  Ba2  1  0.51241300  0.49943901  0.25056801  1
  Ba  Ba3  1  0.01241300  0.00056100  0.24943199  1
  Eu  Eu4  1  0.50000000  0.00000000  -0.00000000  1
  Eu  Eu5  1  0.00000000  0.50000001  0.50000000  1
  W  W6  1  0.50000000  0.00000000  0.49999999  1
  W  W7  1  0.00000000  0.50000001  0.00000001  1
  O  O8  1  0.00427300  0.45796001  0.77082499  1
  O  O9  1  0.50427300  0.04204000  0.72917498  1
  O  O10  1  0.99572699  0.54204002  0.22917501  1
  O  O11  1  0.49572700  0.95796003  0.27082502  1
  O  O12  1  0.21142800  0.74842302  0.97874999  1
  O  O13  1  0.71142800  0.75157702  0.52125001  1
  O  O14  1  0.74875800  0.21071901  0.47739199  1
  O  O15  1  0.24875800  0.28928101  0.02260801  1
  O  O16  1  0.78857200  0.25157701  0.02125001  1
  O  O17  1  0.28857200  0.24842301  0.47874999  1
  O  O18  1  0.25124200  0.78928102  0.52260801  1
  O  O19  1  0.75124200  0.71071902  0.97739199  1
