# generated using pymatgen
data_LiTiO4
_symmetry_space_group_name_H-M   'P 1'
_cell_length_a   4.68367720
_cell_length_b   5.08808517
_cell_length_c   5.73324203
_cell_angle_alpha   88.82369232
_cell_angle_beta   89.99860382
_cell_angle_gamma   89.99889374
_symmetry_Int_Tables_number   1
_chemical_formula_structural   LiTiO4
_chemical_formula_sum   'Li2 Ti2 O8'
_cell_volume   136.59980224
_cell_formula_units_Z   2
loop_
 _symmetry_equiv_pos_site_id
 _symmetry_equiv_pos_as_xyz
  1  'x, y, z'
loop_
 _atom_site_type_symbol
 _atom_site_label
 _atom_site_symmetry_multiplicity
 _atom_site_fract_x
 _atom_site_fract_y
 _atom_site_fract_z
 _atom_site_occupancy
  Li  Li0  1  0.02552600  0.21919200  0.83437203  1
  Li  Li1  1  0.97447395  0.78080799  0.16562805  1
  Ti  Ti2  1  0.47444698  0.21918700  0.33435103  1
  Ti  Ti3  1  0.52555297  0.78081299  0.66564905  1
  O  O4  1  0.22526699  0.08131700  0.11051001  1
  O  O5  1  0.27472699  0.08132700  0.61051303  1
  O  O6  1  0.72527296  0.91867299  0.38948705  1
  O  O7  1  0.77473196  0.91868299  0.88949007  1
  O  O8  1  0.76526697  0.42482599  0.12672404  1
  O  O9  1  0.73472697  0.42483499  0.62673205  1
  O  O10  1  0.26527399  0.57516499  0.37326803  1
  O  O11  1  0.23473299  0.57517299  0.87327605  1
