# generated using pymatgen
data_Os(S2O)2
_symmetry_space_group_name_H-M   'P 1'
_cell_length_a   5.58094311
_cell_length_b   5.58094311
_cell_length_c   5.58094311
_cell_angle_alpha   109.47122192
_cell_angle_beta   109.47122192
_cell_angle_gamma   109.47122192
_symmetry_Int_Tables_number   1
_chemical_formula_structural   Os(S2O)2
_chemical_formula_sum   'Os1 S4 O2'
_cell_volume   133.81379096
_cell_formula_units_Z   1
loop_
 _symmetry_equiv_pos_site_id
 _symmetry_equiv_pos_as_xyz
  1  'x, y, z'
loop_
 _atom_site_type_symbol
 _atom_site_label
 _atom_site_symmetry_multiplicity
 _atom_site_fract_x
 _atom_site_fract_y
 _atom_site_fract_z
 _atom_site_occupancy
  Os  Os0  1  0.00000000  0.00000000  0.00000000  1
  S  S1  1  0.71048800  0.00000000  0.71048802  1
  S  S2  1  0.28951207  1.00000004  0.28951206  1
  S  S3  1  0.71048805  0.71048803  1.00000006  1
  O  O4  1  0.28951202  0.28951201  1.00000002  1
  S  S5  1  0.00000002  0.28951201  0.28951202  1
  O  O6  1  0.00000005  0.71048803  0.71048804  1
