# generated using pymatgen
data_Li3Be2H2O7
_symmetry_space_group_name_H-M   'P 1'
_cell_length_a   5.46979761
_cell_length_b   5.46979761
_cell_length_c   5.46979761
_cell_angle_alpha   60.00000000
_cell_angle_beta   60.00000000
_cell_angle_gamma   60.00000000
_symmetry_Int_Tables_number   1
_chemical_formula_structural   Li3Be2H2O7
_chemical_formula_sum   'Li3 Be2 H2 O7'
_cell_volume   115.71742845
_cell_formula_units_Z   1
loop_
 _symmetry_equiv_pos_site_id
 _symmetry_equiv_pos_as_xyz
  1  'x, y, z'
loop_
 _atom_site_type_symbol
 _atom_site_label
 _atom_site_symmetry_multiplicity
 _atom_site_fract_x
 _atom_site_fract_y
 _atom_site_fract_z
 _atom_site_occupancy
  Be  Be0  1  0.00000000  0.00000000  0.00000000  1
  Li  Li1  1  0.75000000  0.75000000  0.75000000  1
  Be  Be2  1  0.37500000  0.87500000  0.37500000  1
  Li  Li3  1  0.87500000  0.37500000  0.37500000  1
  H  H4  1  0.37500000  0.37500000  0.37500000  1
  Li  Li5  1  0.37500000  0.37500000  0.87500000  1
  H  H6  1  0.62259500  0.62259600  0.13221300  1
  O  O7  1  0.12740500  0.12740400  0.12740400  1
  O  O8  1  0.12740500  0.61778700  0.12740400  1
  O  O9  1  0.62259500  0.62259600  0.62259600  1
  O  O10  1  0.13221200  0.62259600  0.62259600  1
  O  O11  1  0.12740500  0.12740400  0.61778700  1
  O  O12  1  0.61778800  0.12740400  0.12740400  1
  O  O13  1  0.62259500  0.13221300  0.62259600  1
