# generated using pymatgen
data_LiTmAlTc3
_symmetry_space_group_name_H-M   'P 1'
_cell_length_a   5.41567135
_cell_length_b   5.41567135
_cell_length_c   5.41567135
_cell_angle_alpha   60.00000000
_cell_angle_beta   60.00000000
_cell_angle_gamma   60.00000000
_symmetry_Int_Tables_number   1
_chemical_formula_structural   LiTmAlTc3
_chemical_formula_sum   'Li1 Tm1 Al1 Tc3'
_cell_volume   112.31607179
_cell_formula_units_Z   1
loop_
 _symmetry_equiv_pos_site_id
 _symmetry_equiv_pos_as_xyz
  1  'x, y, z'
loop_
 _atom_site_type_symbol
 _atom_site_label
 _atom_site_symmetry_multiplicity
 _atom_site_fract_x
 _atom_site_fract_y
 _atom_site_fract_z
 _atom_site_occupancy
  Tm  Tm0  1  0.00000000  0.00000000  0.00000000  1
  Li  Li1  1  0.75000001  0.75000001  0.75000001  1
  Tc  Tc2  1  0.37546101  0.87361701  0.37546101  1
  Al  Al3  1  0.37546101  0.37546101  0.37546101  1
  Tc  Tc4  1  0.37546101  0.37546101  0.87361701  1
  Tc  Tc5  1  0.87361701  0.37546101  0.37546101  1
