# generated using pymatgen
data_LuFeO3
_symmetry_space_group_name_H-M   'P 1'
_cell_length_a   5.21474886
_cell_length_b   5.73538017
_cell_length_c   7.32890415
_cell_angle_alpha   90.00000000
_cell_angle_beta   90.00000000
_cell_angle_gamma   90.00000000
_symmetry_Int_Tables_number   1
_chemical_formula_structural   LuFeO3
_chemical_formula_sum   'Lu4 Fe4 O12'
_cell_volume   219.19702243
_cell_formula_units_Z   4
loop_
 _symmetry_equiv_pos_site_id
 _symmetry_equiv_pos_as_xyz
  1  'x, y, z'
loop_
 _atom_site_type_symbol
 _atom_site_label
 _atom_site_symmetry_multiplicity
 _atom_site_fract_x
 _atom_site_fract_y
 _atom_site_fract_z
 _atom_site_occupancy
  Lu  Lu0  1  0.02453700  0.91435497  0.74999998  1
  Lu  Lu1  1  0.52453701  0.58564498  0.24999999  1
  Lu  Lu2  1  0.47546301  0.41435499  0.74999998  1
  Lu  Lu3  1  0.97546303  0.08564500  0.24999999  1
  Fe  Fe4  1  0.50000001  0.00000000  0.49999999  1
  Fe  Fe5  1  0.00000000  0.49999998  0.49999999  1
  Fe  Fe6  1  0.00000000  0.49999998  0.00000000  1
  Fe  Fe7  1  0.50000001  0.00000000  0.00000000  1
  O  O8  1  0.69813202  0.31680799  0.44724999  1
  O  O9  1  0.19813201  0.18319199  0.55274999  1
  O  O10  1  0.80186802  0.81680798  0.05275000  1
  O  O11  1  0.30186801  0.68319198  0.94724998  1
  O  O12  1  0.30186801  0.68319198  0.55274999  1
  O  O13  1  0.80186802  0.81680798  0.44724999  1
  O  O14  1  0.19813201  0.18319199  0.94724998  1
  O  O15  1  0.69813202  0.31680799  0.05275000  1
  O  O16  1  0.11224900  0.46809899  0.24999999  1
  O  O17  1  0.61224902  0.03190100  0.74999998  1
  O  O18  1  0.88775102  0.53190098  0.74999998  1
  O  O19  1  0.38775101  0.96809897  0.24999999  1
