# generated using pymatgen
data_Mg
_symmetry_space_group_name_H-M   'P 1'
_cell_length_a   3.48030806
_cell_length_b   6.02453470
_cell_length_c   7.93524981
_cell_angle_alpha   105.90030670
_cell_angle_beta   90.00000000
_cell_angle_gamma   106.78879547
_symmetry_Int_Tables_number   1
_chemical_formula_structural   Mg
_chemical_formula_sum   Mg6
_cell_volume   152.62723721
_cell_formula_units_Z   6
loop_
 _symmetry_equiv_pos_site_id
 _symmetry_equiv_pos_as_xyz
  1  'x, y, z'
loop_
 _atom_site_type_symbol
 _atom_site_label
 _atom_site_symmetry_multiplicity
 _atom_site_fract_x
 _atom_site_fract_y
 _atom_site_fract_z
 _atom_site_occupancy
  Mg  Mg0  1  0.06015101  0.12030200  0.61425298  1
  Mg  Mg1  1  0.38394904  0.76789800  0.27457297  1
  Mg  Mg2  1  0.99822604  0.99645200  0.00492697  1
  Mg  Mg3  1  0.71911101  0.43822200  0.94003497  1
  Mg  Mg4  1  0.34201404  0.68402800  0.65992197  1
  Mg  Mg5  1  0.66321601  0.32643200  0.33962398  1
