# generated using pymatgen
data_HfTl3CuSe8
_symmetry_space_group_name_H-M   'P 1'
_cell_length_a   7.29501247
_cell_length_b   7.29501247
_cell_length_c   7.90471077
_cell_angle_alpha   105.08287048
_cell_angle_beta   106.47129822
_cell_angle_gamma   114.25534058
_symmetry_Int_Tables_number   1
_chemical_formula_structural   HfTl3CuSe8
_chemical_formula_sum   'Hf1 Tl3 Cu1 Se8'
_cell_volume   331.90500045
_cell_formula_units_Z   1
loop_
 _symmetry_equiv_pos_site_id
 _symmetry_equiv_pos_as_xyz
  1  'x, y, z'
loop_
 _atom_site_type_symbol
 _atom_site_label
 _atom_site_symmetry_multiplicity
 _atom_site_fract_x
 _atom_site_fract_y
 _atom_site_fract_z
 _atom_site_occupancy
  Hf  Hf0  1  0.77243300  0.27243300  0.50000001  1
  Tl  Tl1  1  0.22756704  0.72756699  0.49999999  1
  Tl  Tl2  1  0.74861600  0.26838400  0.01700000  1
  Tl  Tl3  1  0.25138403  0.73161599  0.98300000  1
  Cu  Cu4  1  0.00000000  0.00000000  0.00000000  1
  Se  Se5  1  0.78241501  0.55246499  0.33487999  1
  Se  Se6  1  0.21758502  0.44753499  0.66512000  1
  Se  Se7  1  0.20644302  0.45775799  0.17004199  1
  Se  Se8  1  0.79355701  0.54224199  0.82995800  1
  Se  Se9  1  0.28771599  0.03640100  0.82995802  1
  Se  Se10  1  0.71228404  0.96359899  0.17004198  1
  Se  Se11  1  0.30087099  0.02353600  0.32440701  1
  Se  Se12  1  0.69912904  0.97646399  0.67559299  1
