# generated using pymatgen
data_BaNbO3
_symmetry_space_group_name_H-M   'P 1'
_cell_length_a   7.53383398
_cell_length_b   7.53383398
_cell_length_c   7.53383398
_cell_angle_alpha   109.47122192
_cell_angle_beta   109.47122192
_cell_angle_gamma   109.47122192
_symmetry_Int_Tables_number   1
_chemical_formula_structural   BaNbO3
_chemical_formula_sum   'Ba4 Nb4 O12'
_cell_volume   329.17453097
_cell_formula_units_Z   4
loop_
 _symmetry_equiv_pos_site_id
 _symmetry_equiv_pos_as_xyz
  1  'x, y, z'
loop_
 _atom_site_type_symbol
 _atom_site_label
 _atom_site_symmetry_multiplicity
 _atom_site_fract_x
 _atom_site_fract_y
 _atom_site_fract_z
 _atom_site_occupancy
  Ba  Ba0  1  0.00000003  0.50000001  0.00000003  1
  Ba  Ba1  1  0.00000000  0.00000000  0.49999999  1
  Ba  Ba2  1  0.50000006  1.00000002  1.00000005  1
  Ba  Ba3  1  0.50000003  0.50000001  0.50000003  1
  Nb  Nb4  1  0.00000000  0.00000000  0.00000000  1
  Nb  Nb5  1  0.50000003  0.50000001  1.00000002  1
  Nb  Nb6  1  0.00000003  0.50000001  0.50000002  1
  Nb  Nb7  1  0.50000006  1.00000002  0.50000006  1
  O  O8  1  0.00000005  0.73491702  0.73491703  1
  O  O9  1  0.25000005  0.75000002  0.50000004  1
  O  O10  1  0.73491704  0.73491702  1.00000004  1
  O  O11  1  0.75000002  0.50000001  0.25000004  1
  O  O12  1  0.50000004  0.75000002  0.25000005  1
  O  O13  1  0.75000001  0.25000001  0.50000002  1
  O  O14  1  0.26508306  1.00000002  0.26508306  1
  O  O15  1  0.73491706  1.00000002  0.73491706  1
  O  O16  1  0.00000002  0.26508301  0.26508301  1
  O  O17  1  0.50000001  0.25000001  0.75000001  1
  O  O18  1  0.25000003  0.50000001  0.75000002  1
  O  O19  1  0.26508301  0.26508301  1.00000000  1
