# generated using pymatgen
data_Eu11Ir9
_symmetry_space_group_name_H-M   'P 1'
_cell_length_a   7.26197910
_cell_length_b   7.49293280
_cell_length_c   10.39595985
_cell_angle_alpha   90.00000000
_cell_angle_beta   90.00000000
_cell_angle_gamma   90.00000000
_symmetry_Int_Tables_number   1
_chemical_formula_structural   Eu11Ir9
_chemical_formula_sum   'Eu11 Ir9'
_cell_volume   565.68078388
_cell_formula_units_Z   1
loop_
 _symmetry_equiv_pos_site_id
 _symmetry_equiv_pos_as_xyz
  1  'x, y, z'
loop_
 _atom_site_type_symbol
 _atom_site_label
 _atom_site_symmetry_multiplicity
 _atom_site_fract_x
 _atom_site_fract_y
 _atom_site_fract_z
 _atom_site_occupancy
  Eu  Eu0  1  0.98509099  0.05652800  0.25000000  1
  Eu  Eu1  1  0.48509099  0.44347201  0.75000001  1
  Eu  Eu2  1  0.51490899  0.55652802  0.25000000  1
  Eu  Eu3  1  0.01490900  0.94347203  0.75000001  1
  Eu  Eu4  1  0.49999999  0.00000000  0.00000000  1
  Eu  Eu5  1  0.00000000  0.50000001  0.00000000  1
  Eu  Eu6  1  0.00000000  0.50000001  0.50000001  1
  Eu  Eu7  1  0.49999999  0.00000000  0.50000001  1
  Eu  Eu8  1  0.70663499  0.29273101  0.45618601  1
  Eu  Eu9  1  0.20663500  0.20726901  0.54381401  1
  Ir  Ir10  1  0.79336499  0.79273102  0.04381400  1
  Eu  Eu11  1  0.29336500  0.70726902  0.95618601  1
  Ir  Ir12  1  0.29336500  0.70726902  0.54381401  1
  Ir  Ir13  1  0.79336499  0.79273102  0.45618601  1
  Ir  Ir14  1  0.20663500  0.20726901  0.95618601  1
  Ir  Ir15  1  0.70663499  0.29273101  0.04381400  1
  Ir  Ir16  1  0.08230000  0.47941101  0.25000000  1
  Ir  Ir17  1  0.58229999  0.02058900  0.75000001  1
  Ir  Ir18  1  0.41769999  0.97941103  0.25000000  1
  Ir  Ir19  1  0.91769999  0.52058901  0.75000001  1
