# generated using pymatgen
data_PrB2Ir3
_symmetry_space_group_name_H-M   'P 1'
_cell_length_a   3.17678905
_cell_length_b   5.53790379
_cell_length_c   5.53790331
_cell_angle_alpha   120.00000000
_cell_angle_beta   90.00000000
_cell_angle_gamma   90.00000000
_symmetry_Int_Tables_number   1
_chemical_formula_structural   PrB2Ir3
_chemical_formula_sum   'Pr1 B2 Ir3'
_cell_volume   84.37422234
_cell_formula_units_Z   1
loop_
 _symmetry_equiv_pos_site_id
 _symmetry_equiv_pos_as_xyz
  1  'x, y, z'
loop_
 _atom_site_type_symbol
 _atom_site_label
 _atom_site_symmetry_multiplicity
 _atom_site_fract_x
 _atom_site_fract_y
 _atom_site_fract_z
 _atom_site_occupancy
  Pr  Pr0  1  0.00000000  0.00000000  0.00000000  1
  B  B1  1  -0.00000000  0.33333334  0.66666667  1
  B  B2  1  0.99999999  0.66666667  0.33333331  1
  Ir  Ir3  1  0.49999999  0.50000001  -0.00000003  1
  Ir  Ir4  1  0.49999999  0.50000001  0.49999999  1
  Ir  Ir5  1  0.49999999  0.00000000  0.50000002  1
