# generated using pymatgen
data_ZrCoGe
_symmetry_space_group_name_H-M   'P 1'
_cell_length_a   3.99482012
_cell_length_b   6.39214802
_cell_length_c   6.39214754
_cell_angle_alpha   120.00000000
_cell_angle_beta   90.00000000
_cell_angle_gamma   90.00000000
_symmetry_Int_Tables_number   1
_chemical_formula_structural   ZrCoGe
_chemical_formula_sum   'Zr3 Co3 Ge3'
_cell_volume   141.35835210
_cell_formula_units_Z   3
loop_
 _symmetry_equiv_pos_site_id
 _symmetry_equiv_pos_as_xyz
  1  'x, y, z'
loop_
 _atom_site_type_symbol
 _atom_site_label
 _atom_site_symmetry_multiplicity
 _atom_site_fract_x
 _atom_site_fract_y
 _atom_site_fract_z
 _atom_site_occupancy
  Zr  Zr0  1  0.49999999  0.00000000  0.58870600  1
  Zr  Zr1  1  0.49999999  0.58870598  0.99999997  1
  Zr  Zr2  1  0.49999999  0.41129399  0.41129398  1
  Co  Co3  1  0.49999999  0.00000000  -0.00000000  1
  Co  Co4  1  0.99999997  0.75958098  0.75958096  1
  Co  Co5  1  0.99999997  0.24041899  0.99999998  1
  Ge  Ge6  1  -0.00000000  0.00000000  0.24041900  1
  Ge  Ge7  1  0.99999997  0.33333332  0.66666665  1
  Ge  Ge8  1  -0.00000000  0.66666665  0.33333330  1
