# generated using pymatgen
data_Hf5AlGa2
_symmetry_space_group_name_H-M   'P 1'
_cell_length_a   4.91620588
_cell_length_b   6.16754198
_cell_length_c   6.16754198
_cell_angle_alpha   120.00000000
_cell_angle_beta   90.00000000
_cell_angle_gamma   90.00000000
_symmetry_Int_Tables_number   1
_chemical_formula_structural   Hf5AlGa2
_chemical_formula_sum   'Hf5 Al1 Ga2'
_cell_volume   161.95148047
_cell_formula_units_Z   1
loop_
 _symmetry_equiv_pos_site_id
 _symmetry_equiv_pos_as_xyz
  1  'x, y, z'
loop_
 _atom_site_type_symbol
 _atom_site_label
 _atom_site_symmetry_multiplicity
 _atom_site_fract_x
 _atom_site_fract_y
 _atom_site_fract_z
 _atom_site_occupancy
  Hf  Hf0  1  0.75000002  0.82954900  0.17045100  1
  Hf  Hf1  1  0.75000002  0.82954900  0.65909799  1
  Hf  Hf2  1  0.75000002  0.34090200  0.17045100  1
  Hf  Hf3  1  0.25000001  0.65909800  0.82954899  1
  Hf  Hf4  1  0.25000001  0.17045100  0.34090200  1
  Al  Al5  1  0.25000001  0.17045100  0.82954900  1
  Ga  Ga6  1  0.75000002  0.33333333  0.66666666  1
  Ga  Ga7  1  0.25000001  0.66666667  0.33333333  1
