# generated using pymatgen
data_Mn2Co2BC5
_symmetry_space_group_name_H-M   'P 1'
_cell_length_a   3.11685610
_cell_length_b   5.43253613
_cell_length_c   7.23000622
_cell_angle_alpha   90.00000000
_cell_angle_beta   90.00000000
_cell_angle_gamma   106.67062378
_symmetry_Int_Tables_number   1
_chemical_formula_structural   Mn2Co2BC5
_chemical_formula_sum   'Mn2 Co2 B1 C5'
_cell_volume   117.27618215
_cell_formula_units_Z   1
loop_
 _symmetry_equiv_pos_site_id
 _symmetry_equiv_pos_as_xyz
  1  'x, y, z'
loop_
 _atom_site_type_symbol
 _atom_site_label
 _atom_site_symmetry_multiplicity
 _atom_site_fract_x
 _atom_site_fract_y
 _atom_site_fract_z
 _atom_site_occupancy
  Mn  Mn0  1  0.25224105  0.50448200  0.74999998  1
  Mn  Mn1  1  0.74775903  0.49551800  0.24999999  1
  Co  Co2  1  0.00000000  0.00000000  0.49999998  1
  Co  Co3  1  0.00000000  0.00000000  0.00000000  1
  C  C4  1  0.92693207  0.85386400  0.74999998  1
  B  B5  1  0.07306801  0.14613600  0.24999999  1
  C  C6  1  0.61332601  0.22665200  0.55713698  1
  C  C7  1  0.38667407  0.77334800  0.44286299  1
  C  C8  1  0.61332601  0.22665200  0.94286297  1
  C  C9  1  0.38667407  0.77334800  0.05713700  1
