# generated using pymatgen
data_TiSi
_symmetry_space_group_name_H-M   'P 1'
_cell_length_a   4.08862019
_cell_length_b   5.49594402
_cell_length_c   5.49594402
_cell_angle_alpha   97.11666107
_cell_angle_beta   90.00000000
_cell_angle_gamma   90.00000000
_symmetry_Int_Tables_number   1
_chemical_formula_structural   TiSi
_chemical_formula_sum   'Ti4 Si4'
_cell_volume   122.54697358
_cell_formula_units_Z   4
loop_
 _symmetry_equiv_pos_site_id
 _symmetry_equiv_pos_as_xyz
  1  'x, y, z'
loop_
 _atom_site_type_symbol
 _atom_site_label
 _atom_site_symmetry_multiplicity
 _atom_site_fract_x
 _atom_site_fract_y
 _atom_site_fract_z
 _atom_site_occupancy
  Ti  Ti0  1  0.00000000  0.00000000  0.00000000  1
  Ti  Ti1  1  0.49999998  0.72584897  0.27415095  1
  Ti  Ti2  1  0.49999998  0.27415099  0.72584896  1
  Ti  Ti3  1  -0.00000000  0.49999998  0.49999995  1
  Si  Si4  1  0.99999995  0.00000000  0.49999998  1
  Si  Si5  1  -0.00000000  0.49999998  -0.00000003  1
  Si  Si6  1  0.49999998  0.22472399  0.22472398  1
  Si  Si7  1  0.49999998  0.77527596  0.77527593  1
