# generated using pymatgen
data_Li3NiO4
_symmetry_space_group_name_H-M   'P 1'
_cell_length_a   5.87792778
_cell_length_b   5.90415621
_cell_length_c   5.90682507
_cell_angle_alpha   89.95012665
_cell_angle_beta   60.27677155
_cell_angle_gamma   60.27899551
_symmetry_Int_Tables_number   1
_chemical_formula_structural   Li3NiO4
_chemical_formula_sum   'Li6 Ni2 O8'
_cell_volume   146.22156466
_cell_formula_units_Z   2
loop_
 _symmetry_equiv_pos_site_id
 _symmetry_equiv_pos_as_xyz
  1  'x, y, z'
loop_
 _atom_site_type_symbol
 _atom_site_label
 _atom_site_symmetry_multiplicity
 _atom_site_fract_x
 _atom_site_fract_y
 _atom_site_fract_z
 _atom_site_occupancy
  Li  Li0  1  0.99997897  0.50002102  0.00001004  1
  Li  Li1  1  0.49997495  0.49999202  0.49999804  1
  Li  Li2  1  0.50000402  0.00000400  0.49997198  1
  Li  Li3  1  0.00006494  0.49997202  0.50000906  1
  Li  Li4  1  0.50013389  0.99998904  0.00003411  1
  Li  Li5  1  0.99997903  0.00003500  0.99998996  1
  Ni  Ni6  1  0.49995195  0.49999802  0.00000305  1
  Ni  Ni7  1  0.99994603  0.00000300  0.50004697  1
  O  O8  1  0.99497900  0.22610801  0.77563399  1
  O  O9  1  0.97501693  0.76740703  0.76905106  1
  O  O10  1  0.50843699  0.23675501  0.76208301  1
  O  O11  1  0.51218399  0.22908301  0.23120301  1
  O  O12  1  0.48798192  0.77078403  0.76859907  1
  O  O13  1  0.49145592  0.76328303  0.23790608  1
  O  O14  1  0.02488997  0.23270501  0.23104203  1
  O  O15  1  0.00502190  0.77386103  0.22441809  1
