# generated using pymatgen
data_TiP
_symmetry_space_group_name_H-M   'P 1'
_cell_length_a   3.60649800
_cell_length_b   5.18586016
_cell_length_c   7.36031628
_cell_angle_alpha   109.59012604
_cell_angle_beta   90.00000000
_cell_angle_gamma   90.00000000
_symmetry_Int_Tables_number   1
_chemical_formula_structural   TiP
_chemical_formula_sum   'Ti4 P4'
_cell_volume   129.69015428
_cell_formula_units_Z   4
loop_
 _symmetry_equiv_pos_site_id
 _symmetry_equiv_pos_as_xyz
  1  'x, y, z'
loop_
 _atom_site_type_symbol
 _atom_site_label
 _atom_site_symmetry_multiplicity
 _atom_site_fract_x
 _atom_site_fract_y
 _atom_site_fract_z
 _atom_site_occupancy
  Ti  Ti0  1  0.25000000  0.22748599  0.43495699  1
  Ti  Ti1  1  0.75000000  0.77251396  0.56504297  1
  Ti  Ti2  1  0.25000000  0.70576197  0.91920796  1
  Ti  Ti3  1  0.75000000  0.29423799  0.08079199  1
  P  P4  1  0.25000000  0.64163797  0.28952497  1
  P  P5  1  0.75000000  0.35836198  0.71047498  1
  P  P6  1  0.25000000  0.13753199  0.78918899  1
  P  P7  1  0.75000000  0.86246796  0.21081097  1
