# generated using pymatgen
data_DySn3
_symmetry_space_group_name_H-M   'P 1'
_cell_length_a   4.42785692
_cell_length_b   4.47179413
_cell_length_c   8.92824173
_cell_angle_alpha   90.00000000
_cell_angle_beta   90.00000000
_cell_angle_gamma   90.00000000
_symmetry_Int_Tables_number   1
_chemical_formula_structural   DySn3
_chemical_formula_sum   'Dy2 Sn6'
_cell_volume   176.78333418
_cell_formula_units_Z   2
loop_
 _symmetry_equiv_pos_site_id
 _symmetry_equiv_pos_as_xyz
  1  'x, y, z'
loop_
 _atom_site_type_symbol
 _atom_site_label
 _atom_site_symmetry_multiplicity
 _atom_site_fract_x
 _atom_site_fract_y
 _atom_site_fract_z
 _atom_site_occupancy
  Dy  Dy0  1  0.00000000  0.00000000  0.75287302  1
  Dy  Dy1  1  0.00000000  0.00000000  0.24712701  1
  Sn  Sn2  1  0.50000001  0.49999999  0.76391102  1
  Sn  Sn3  1  0.50000001  0.49999999  0.23608901  1
  Sn  Sn4  1  0.50000001  0.00000000  0.00000000  1
  Sn  Sn5  1  0.50000001  0.00000000  0.50000002  1
  Sn  Sn6  1  0.00000000  0.49999999  0.00000000  1
  Sn  Sn7  1  0.00000000  0.49999999  0.50000002  1
