# generated using pymatgen
data_Ba2Zn2In2SbS7
_symmetry_space_group_name_H-M   'P 1'
_cell_length_a   6.80549192
_cell_length_b   6.82667732
_cell_length_c   11.90829945
_cell_angle_alpha   90.00000000
_cell_angle_beta   90.00000000
_cell_angle_gamma   119.89739990
_symmetry_Int_Tables_number   1
_chemical_formula_structural   Ba2Zn2In2SbS7
_chemical_formula_sum   'Ba2 Zn2 In2 Sb1 S7'
_cell_volume   479.62007406
_cell_formula_units_Z   1
loop_
 _symmetry_equiv_pos_site_id
 _symmetry_equiv_pos_as_xyz
  1  'x, y, z'
loop_
 _atom_site_type_symbol
 _atom_site_label
 _atom_site_symmetry_multiplicity
 _atom_site_fract_x
 _atom_site_fract_y
 _atom_site_fract_z
 _atom_site_occupancy
  Ba  Ba0  1  0.50000001  0.00000000  0.74999997  1
  Ba  Ba1  1  0.50000001  0.00000000  0.24999999  1
  In  In2  1  0.75838605  0.51972502  0.49999998  1
  In  In3  1  0.24161404  0.48027502  0.49999998  1
  Zn  Zn4  1  0.76133905  0.51972502  -0.00000000  1
  Zn  Zn5  1  0.23866104  0.48027502  -0.00000000  1
  S  S6  1  0.34357601  0.15326601  -0.00000000  1
  Sb  Sb7  1  0.65642407  0.84673403  -0.00000000  1
  S  S8  1  0.19031006  0.84673403  0.49999998  1
  S  S9  1  0.80969002  0.15326601  0.49999998  1
  S  S10  1  0.50000004  0.50000002  0.32633399  1
  S  S11  1  0.00000004  0.50000002  0.17366599  1
  S  S12  1  0.50000004  0.50000002  0.67366597  1
  S  S13  1  0.00000004  0.50000002  0.82633397  1
