# generated using pymatgen
data_NaV3O8
_symmetry_space_group_name_H-M   'P 1'
_cell_length_a   5.19943619
_cell_length_b   5.19943619
_cell_length_c   9.09409428
_cell_angle_alpha   90.00000000
_cell_angle_beta   90.00000000
_cell_angle_gamma   120.00000000
_symmetry_Int_Tables_number   1
_chemical_formula_structural   NaV3O8
_chemical_formula_sum   'Na1 V3 O8'
_cell_volume   212.91320077
_cell_formula_units_Z   1
loop_
 _symmetry_equiv_pos_site_id
 _symmetry_equiv_pos_as_xyz
  1  'x, y, z'
loop_
 _atom_site_type_symbol
 _atom_site_label
 _atom_site_symmetry_multiplicity
 _atom_site_fract_x
 _atom_site_fract_y
 _atom_site_fract_z
 _atom_site_occupancy
  Na  Na0  1  0.00000000  0.00000000  0.49999998  1
  V  V1  1  0.00000000  0.00000000  0.00000000  1
  V  V2  1  0.33333335  0.66666669  0.20244199  1
  V  V3  1  0.66666665  0.33333335  0.79755798  1
  O  O4  1  0.07303201  0.33087501  0.14257500  1
  O  O5  1  0.66912500  0.74215703  0.14257500  1
  O  O6  1  0.33087499  0.07303200  0.85742497  1
  O  O7  1  0.25784303  0.92696804  0.14257500  1
  O  O8  1  0.74215700  0.66912503  0.85742497  1
  O  O9  1  0.92696798  0.25784301  0.85742497  1
  O  O10  1  0.33333335  0.66666669  0.38374199  1
  O  O11  1  0.66666665  0.33333335  0.61625798  1
