# generated using pymatgen
data_Li5Co3O11
_symmetry_space_group_name_H-M   'P 1'
_cell_length_a   5.81366396
_cell_length_b   6.09138727
_cell_length_c   6.13815355
_cell_angle_alpha   100.73310852
_cell_angle_beta   100.40312195
_cell_angle_gamma   98.79544067
_symmetry_Int_Tables_number   1
_chemical_formula_structural   Li5Co3O11
_chemical_formula_sum   'Li5 Co3 O11'
_cell_volume   206.10793234
_cell_formula_units_Z   1
loop_
 _symmetry_equiv_pos_site_id
 _symmetry_equiv_pos_as_xyz
  1  'x, y, z'
loop_
 _atom_site_type_symbol
 _atom_site_label
 _atom_site_symmetry_multiplicity
 _atom_site_fract_x
 _atom_site_fract_y
 _atom_site_fract_z
 _atom_site_occupancy
  Li  Li0  1  0.99363102  0.98123803  0.00066607  1
  Li  Li1  1  0.30100101  0.60805202  0.13447803  1
  Li  Li2  1  0.85037502  0.66158702  0.38096504  1
  Li  Li3  1  0.59548601  0.15806700  0.34069001  1
  Co  Co4  1  0.40356301  0.85195002  0.66352303  1
  Li  Li5  1  0.15244101  0.34800101  0.60375700  1
  Co  Co6  1  0.68594001  0.40934901  0.87041301  1
  O  O7  1  0.93235802  0.65737802  0.07706505  1
  O  O8  1  0.56603101  0.41358801  0.17808703  1
  Co  Co9  1  0.57947902  0.82948702  0.41156404  1
  O  O10  1  0.18790101  0.57538001  0.42148002  1
  O  O11  1  0.82151601  0.42740301  0.58830502  1
  O  O12  1  0.41340701  0.17756300  0.58689800  1
  O  O13  1  0.42029101  0.59397502  0.82953601  1
  O  O14  1  0.32320401  0.94912102  0.09410605  1
  O  O15  1  0.93419301  0.10784300  0.31892402  1
  O  O16  1  0.05787101  0.88877302  0.67362402  1
  O  O17  1  0.68242401  0.06340400  0.90012499  1
  O  O18  1  0.09888800  0.29784501  0.92579398  1
