# generated using pymatgen
data_YAlGa
_symmetry_space_group_name_H-M   'P 1'
_cell_length_a   5.45723820
_cell_length_b   5.45723820
_cell_length_c   5.45723820
_cell_angle_alpha   91.73260498
_cell_angle_beta   118.46286011
_cell_angle_gamma   119.54953766
_symmetry_Int_Tables_number   1
_chemical_formula_structural   YAlGa
_chemical_formula_sum   'Y2 Al2 Ga2'
_cell_volume   116.57811527
_cell_formula_units_Z   2
loop_
 _symmetry_equiv_pos_site_id
 _symmetry_equiv_pos_as_xyz
  1  'x, y, z'
loop_
 _atom_site_type_symbol
 _atom_site_label
 _atom_site_symmetry_multiplicity
 _atom_site_fract_x
 _atom_site_fract_y
 _atom_site_fract_z
 _atom_site_occupancy
  Y  Y0  1  0.49999996  0.24367299  0.74367294  1
  Y  Y1  1  -0.00000000  0.00632700  0.00632700  1
  Al  Al2  1  0.24999995  0.62499996  0.37499995  1
  Al  Al3  1  0.74999995  0.12499999  0.37499994  1
  Ga  Ga4  1  0.74999992  0.62499996  0.37499992  1
  Ga  Ga5  1  0.24999995  0.62499996  0.87499994  1
