# generated using pymatgen
data_Be2CuTc
_symmetry_space_group_name_H-M   'P 1'
_cell_length_a   4.03653765
_cell_length_b   4.03653765
_cell_length_c   4.03653765
_cell_angle_alpha   60.00000000
_cell_angle_beta   60.00000000
_cell_angle_gamma   60.00000000
_symmetry_Int_Tables_number   1
_chemical_formula_structural   Be2CuTc
_chemical_formula_sum   'Be2 Cu1 Tc1'
_cell_volume   46.50632521
_cell_formula_units_Z   1
loop_
 _symmetry_equiv_pos_site_id
 _symmetry_equiv_pos_as_xyz
  1  'x, y, z'
loop_
 _atom_site_type_symbol
 _atom_site_label
 _atom_site_symmetry_multiplicity
 _atom_site_fract_x
 _atom_site_fract_y
 _atom_site_fract_z
 _atom_site_occupancy
  Be  Be0  1  0.49999998  0.49999998  0.49999998  1
  Cu  Cu1  1  0.00000000  0.00000000  0.00000000  1
  Be  Be2  1  0.24999999  0.24999999  0.24999999  1
  Tc  Tc3  1  0.74999996  0.74999996  0.74999996  1
