# generated using pymatgen
data_KNa(VS3)2
_symmetry_space_group_name_H-M   'P 1'
_cell_length_a   5.75280523
_cell_length_b   6.94521999
_cell_length_c   6.94521904
_cell_angle_alpha   120.00000763
_cell_angle_beta   90.00000000
_cell_angle_gamma   90.00000000
_symmetry_Int_Tables_number   1
_chemical_formula_structural   KNa(VS3)2
_chemical_formula_sum   'K1 Na1 V2 S6'
_cell_volume   240.31574348
_cell_formula_units_Z   1
loop_
 _symmetry_equiv_pos_site_id
 _symmetry_equiv_pos_as_xyz
  1  'x, y, z'
loop_
 _atom_site_type_symbol
 _atom_site_label
 _atom_site_symmetry_multiplicity
 _atom_site_fract_x
 _atom_site_fract_y
 _atom_site_fract_z
 _atom_site_occupancy
  Na  Na0  1  0.24999999  0.66666669  0.33333339  1
  K  K1  1  0.74999997  0.33333335  0.66666670  1
  V  V2  1  0.49999998  0.00000000  -0.00000000  1
  V  V3  1  0.00000000  0.00000000  0.00000000  1
  S  S4  1  0.74999997  0.83025803  0.66051607  1
  S  S5  1  0.74999997  0.83025803  0.16974106  1
  S  S6  1  0.74999997  0.33948301  0.16974103  1
  S  S7  1  0.24999999  0.16974201  0.33948402  1
  S  S8  1  0.24999999  0.16974201  0.83025903  1
  S  S9  1  0.24999999  0.66051702  0.83025906  1
