# generated using pymatgen
data_YbEu3(HoSe4)2
_symmetry_space_group_name_H-M   'P 1'
_cell_length_a   7.48371983
_cell_length_b   7.48371983
_cell_length_c   7.48371983
_cell_angle_alpha   109.44520569
_cell_angle_beta   109.48423004
_cell_angle_gamma   109.48423004
_symmetry_Int_Tables_number   1
_chemical_formula_structural   YbEu3(HoSe4)2
_chemical_formula_sum   'Yb1 Eu3 Ho2 Se8'
_cell_volume   322.64920431
_cell_formula_units_Z   1
loop_
 _symmetry_equiv_pos_site_id
 _symmetry_equiv_pos_as_xyz
  1  'x, y, z'
loop_
 _atom_site_type_symbol
 _atom_site_label
 _atom_site_symmetry_multiplicity
 _atom_site_fract_x
 _atom_site_fract_y
 _atom_site_fract_z
 _atom_site_occupancy
  Eu  Eu0  1  0.00000000  0.00000000  0.00000000  1
  Eu  Eu1  1  0.12680200  0.24872201  0.62339903  1
  Yb  Yb2  1  0.50000001  0.75000003  0.25000003  1
  Eu  Eu3  1  0.87319802  0.49659702  0.12192001  1
  Ho  Ho4  1  0.37467701  0.87808004  0.75127805  1
  Ho  Ho5  1  0.62532301  0.37660102  0.50340302  1
  Se  Se6  1  0.89641302  0.76836103  0.51462503  1
  Se  Se7  1  0.59533601  0.62061803  0.87393404  1
  Se  Se8  1  0.74626502  0.12805301  0.23164000  1
  Se  Se9  1  0.25373501  0.48537502  0.38178703  1
  Se  Se10  1  0.10358700  0.61821203  0.87194705  1
  Se  Se11  1  0.74668402  0.12606701  0.72140202  1
  Se  Se12  1  0.25331601  0.97471804  0.37938205  1
  Se  Se13  1  0.40466401  0.27859801  0.02528101  1
