# generated using pymatgen
data_DySi4
_symmetry_space_group_name_H-M   'P 1'
_cell_length_a   5.57548618
_cell_length_b   7.82942963
_cell_length_c   7.82942963
_cell_angle_alpha   75.62745667
_cell_angle_beta   69.14160919
_cell_angle_gamma   69.14160919
_symmetry_Int_Tables_number   1
_chemical_formula_structural   DySi4
_chemical_formula_sum   'Dy4 Si16'
_cell_volume   295.54663841
_cell_formula_units_Z   4
loop_
 _symmetry_equiv_pos_site_id
 _symmetry_equiv_pos_as_xyz
  1  'x, y, z'
loop_
 _atom_site_type_symbol
 _atom_site_label
 _atom_site_symmetry_multiplicity
 _atom_site_fract_x
 _atom_site_fract_y
 _atom_site_fract_z
 _atom_site_occupancy
  Dy  Dy0  1  0.63445402  0.59909800  0.13199399  1
  Dy  Dy1  1  0.36554602  0.40090200  0.86800600  1
  Dy  Dy2  1  0.86554604  0.86800600  0.40090199  1
  Dy  Dy3  1  0.13445401  0.13199400  0.59909801  1
  Si  Si4  1  0.75000006  1.00000000  -0.00000003  1
  Si  Si5  1  0.13867104  0.47603900  0.24661798  1
  Si  Si6  1  0.63867199  0.24661700  0.47603902  1
  Si  Si7  1  0.36132805  0.75338300  0.52396098  1
  Si  Si8  1  0.25000008  1.00000000  -0.00000005  1
  Si  Si9  1  0.86132901  0.52396100  0.75338201  1
  Si  Si10  1  0.89747398  0.25587700  0.94917503  1
  Si  Si11  1  0.10252607  0.74412300  0.05082496  1
  Si  Si12  1  0.60252597  0.05082500  0.74412303  1
  Si  Si13  1  0.39747407  0.94917500  0.25587696  1
  Si  Si14  1  0.47893605  0.77106400  0.77106398  1
  Si  Si15  1  0.02106402  0.22893600  0.22893599  1
  Si  Si16  1  0.52106399  0.22893600  0.22893601  1
  Si  Si17  1  0.75000001  0.50000000  0.50000001  1
  Si  Si18  1  0.25000004  0.50000000  0.49999999  1
  Si  Si19  1  0.97893602  0.77106400  0.77106400  1
