# generated using pymatgen
data_YbSi2
_symmetry_space_group_name_H-M   'P 1'
_cell_length_a   4.33966351
_cell_length_b   4.33966398
_cell_length_c   13.77142143
_cell_angle_alpha   90.00000000
_cell_angle_beta   90.00000000
_cell_angle_gamma   119.90913391
_symmetry_Int_Tables_number   1
_chemical_formula_structural   YbSi2
_chemical_formula_sum   'Yb4 Si8'
_cell_volume   224.81147964
_cell_formula_units_Z   4
loop_
 _symmetry_equiv_pos_site_id
 _symmetry_equiv_pos_as_xyz
  1  'x, y, z'
loop_
 _atom_site_type_symbol
 _atom_site_label
 _atom_site_symmetry_multiplicity
 _atom_site_fract_x
 _atom_site_fract_y
 _atom_site_fract_z
 _atom_site_occupancy
  Yb  Yb0  1  0.00003000  0.00003000  0.74478798  1
  Yb  Yb1  1  0.00002900  0.00002900  0.49999998  1
  Yb  Yb2  1  0.00003000  0.00003000  0.25521199  1
  Yb  Yb3  1  0.00002900  0.00002900  -0.00000000  1
  Si  Si4  1  0.66666666  0.33333336  0.85456397  1
  Si  Si5  1  0.66715899  0.33289702  0.62886798  1
  Si  Si6  1  0.66715899  0.33289702  0.37113199  1
  Si  Si7  1  0.66666666  0.33333336  0.14543600  1
  Si  Si8  1  0.33334902  0.66673705  0.85456397  1
  Si  Si9  1  0.33289702  0.66715905  0.62886798  1
  Si  Si10  1  0.33289702  0.66715905  0.37113199  1
  Si  Si11  1  0.33334902  0.66673705  0.14543600  1
