# generated using pymatgen
data_BHC2
_symmetry_space_group_name_H-M   'P 1'
_cell_length_a   3.90835595
_cell_length_b   4.51349878
_cell_length_c   4.51349878
_cell_angle_alpha   68.91367340
_cell_angle_beta   64.34425354
_cell_angle_gamma   64.34425354
_symmetry_Int_Tables_number   1
_chemical_formula_structural   BHC2
_chemical_formula_sum   'B1 H1 C2'
_cell_volume   63.22293830
_cell_formula_units_Z   1
loop_
 _symmetry_equiv_pos_site_id
 _symmetry_equiv_pos_as_xyz
  1  'x, y, z'
loop_
 _atom_site_type_symbol
 _atom_site_label
 _atom_site_symmetry_multiplicity
 _atom_site_fract_x
 _atom_site_fract_y
 _atom_site_fract_z
 _atom_site_occupancy
  B  B0  1  1.00000001  0.04338100  0.95661902  1
  C  C1  1  0.00000001  0.60711801  0.39288199  1
  C  C2  1  0.16885701  0.30589300  0.35639200  1
  H  H3  1  0.83114202  0.64360901  0.69410700  1
