# generated using pymatgen
data_Eu2Sc2O5
_symmetry_space_group_name_H-M   'P 1'
_cell_length_a   5.87679577
_cell_length_b   6.95376396
_cell_length_c   7.53128719
_cell_angle_alpha   104.04591370
_cell_angle_beta   90.00000000
_cell_angle_gamma   114.99645996
_symmetry_Int_Tables_number   1
_chemical_formula_structural   Eu2Sc2O5
_chemical_formula_sum   'Eu4 Sc4 O10'
_cell_volume   268.75746837
_cell_formula_units_Z   2
loop_
 _symmetry_equiv_pos_site_id
 _symmetry_equiv_pos_as_xyz
  1  'x, y, z'
loop_
 _atom_site_type_symbol
 _atom_site_label
 _atom_site_symmetry_multiplicity
 _atom_site_fract_x
 _atom_site_fract_y
 _atom_site_fract_z
 _atom_site_occupancy
  Eu  Eu0  1  0.84678106  0.69356199  0.45955795  1
  Eu  Eu1  1  0.00000000  0.00000000  0.00000000  1
  Eu  Eu2  1  0.15321902  0.30643800  0.54044197  1
  Eu  Eu3  1  0.68874504  0.37748999  0.87372996  1
  Sc  Sc4  1  0.31125503  0.62250999  0.12626997  1
  Sc  Sc5  1  0.58942703  0.17885400  0.19988299  1
  Sc  Sc6  1  0.41057304  0.82114599  0.80011694  1
  Sc  Sc7  1  0.50000002  0.00000000  0.49999999  1
  O  O8  1  0.66747804  0.33495600  0.55208497  1
  O  O9  1  0.33252204  0.66504399  0.44791496  1
  O  O10  1  0.08851203  0.63439799  0.87529095  1
  O  O11  1  0.45411403  0.36560199  0.12470898  1
  O  O12  1  0.91148805  0.36560199  0.12470898  1
  O  O13  1  0.54588604  0.63439799  0.87529095  1
  O  O14  1  0.26244304  0.96599999  0.28236294  1
  O  O15  1  0.29644301  0.03400000  0.71763698  1
  O  O16  1  0.70355706  0.96599999  0.28236294  1
  O  O17  1  0.73755703  0.03400000  0.71763698  1
