# generated using pymatgen
data_Li2MnO4
_symmetry_space_group_name_H-M   'P 1'
_cell_length_a   5.83533430
_cell_length_b   5.83533478
_cell_length_c   5.92720032
_cell_angle_alpha   60.51137924
_cell_angle_beta   60.51138306
_cell_angle_gamma   60.00000000
_symmetry_Int_Tables_number   1
_chemical_formula_structural   Li2MnO4
_chemical_formula_sum   'Li4 Mn2 O8'
_cell_volume   143.80703149
_cell_formula_units_Z   2
loop_
 _symmetry_equiv_pos_site_id
 _symmetry_equiv_pos_as_xyz
  1  'x, y, z'
loop_
 _atom_site_type_symbol
 _atom_site_label
 _atom_site_symmetry_multiplicity
 _atom_site_fract_x
 _atom_site_fract_y
 _atom_site_fract_z
 _atom_site_occupancy
  Li  Li0  1  0.11972000  0.11972000  0.64084001  1
  Li  Li1  1  0.49721100  0.49721100  0.50836702  1
  Li  Li2  1  0.49941899  0.00556400  0.99559801  1
  Li  Li3  1  0.00556401  0.49941900  0.99559801  1
  Mn  Mn4  1  0.49941900  0.49941900  0.99559802  1
  Mn  Mn5  1  0.88408400  0.88408401  0.34774803  1
  O  O6  1  0.26285700  0.26285700  0.21142901  1
  O  O7  1  0.25047400  0.25047400  0.78866801  1
  O  O8  1  0.71038399  0.25047400  0.78866802  1
  O  O9  1  0.25047401  0.71038401  0.78866802  1
  O  O10  1  0.74579199  0.28951100  0.21890502  1
  O  O11  1  0.28951101  0.74579201  0.21890502  1
  O  O12  1  0.74579200  0.74579201  0.21890503  1
  O  O13  1  0.73929900  0.73929901  0.78210303  1
