# generated using pymatgen
data_La2B2C3
_symmetry_space_group_name_H-M   'P 1'
_cell_length_a   3.99893594
_cell_length_b   5.76478863
_cell_length_c   5.89862394
_cell_angle_alpha   73.39900970
_cell_angle_beta   70.18574524
_cell_angle_gamma   69.70574951
_symmetry_Int_Tables_number   1
_chemical_formula_structural   La2B2C3
_chemical_formula_sum   'La2 B2 C3'
_cell_volume   117.79072040
_cell_formula_units_Z   1
loop_
 _symmetry_equiv_pos_site_id
 _symmetry_equiv_pos_as_xyz
  1  'x, y, z'
loop_
 _atom_site_type_symbol
 _atom_site_label
 _atom_site_symmetry_multiplicity
 _atom_site_fract_x
 _atom_site_fract_y
 _atom_site_fract_z
 _atom_site_occupancy
  La  La0  1  0.94160704  0.31755699  0.79922895  1
  La  La1  1  0.05839302  0.68244299  0.20077096  1
  B  B2  1  0.30437603  0.80348699  0.58776095  1
  B  B3  1  0.69562403  0.19651300  0.41223896  1
  C  C4  1  0.67677405  0.88576999  0.76068193  1
  C  C5  1  0.32322602  0.11423000  0.23931798  1
  C  C6  1  0.50000003  0.49999999  0.49999996  1
