# generated using pymatgen
data_TmGe5Ir6
_symmetry_space_group_name_H-M   'P 1'
_cell_length_a   3.91292000
_cell_length_b   7.90809393
_cell_length_c   7.90809393
_cell_angle_alpha   120.00000000
_cell_angle_beta   90.00000000
_cell_angle_gamma   90.00000000
_symmetry_Int_Tables_number   1
_chemical_formula_structural   TmGe5Ir6
_chemical_formula_sum   'Tm1 Ge5 Ir6'
_cell_volume   211.92160693
_cell_formula_units_Z   1
loop_
 _symmetry_equiv_pos_site_id
 _symmetry_equiv_pos_as_xyz
  1  'x, y, z'
loop_
 _atom_site_type_symbol
 _atom_site_label
 _atom_site_symmetry_multiplicity
 _atom_site_fract_x
 _atom_site_fract_y
 _atom_site_fract_z
 _atom_site_occupancy
  Tm  Tm0  1  0.00000000  0.00000000  0.00000000  1
  Ge  Ge1  1  -0.00000000  0.50000000  0.49999998  1
  Ge  Ge2  1  -0.00000000  0.50000000  -0.00000001  1
  Ge  Ge3  1  1.00000000  0.00000000  0.49999999  1
  Ge  Ge4  1  0.50000000  0.78582100  0.21417998  1
  Ge  Ge5  1  0.50000000  0.21417900  0.42835799  1
  Ir  Ir6  1  0.50000000  0.57164100  0.78581997  1
  Ir  Ir7  1  0.50000000  0.42835900  0.21417999  1
  Ir  Ir8  1  0.50000000  0.78582100  0.57164197  1
  Ir  Ir9  1  0.50000000  0.21417900  0.78581998  1
  Ir  Ir10  1  1.00000000  0.66666667  0.33333331  1
  Ir  Ir11  1  -0.00000000  0.33333333  0.66666664  1
