# generated using pymatgen
data_Tm2AlP2
_symmetry_space_group_name_H-M   'P 1'
_cell_length_a   6.88394880
_cell_length_b   7.87440014
_cell_length_c   8.85339832
_cell_angle_alpha   90.00000000
_cell_angle_beta   90.00000000
_cell_angle_gamma   91.00406647
_symmetry_Int_Tables_number   1
_chemical_formula_structural   Tm2AlP2
_chemical_formula_sum   'Tm8 Al4 P8'
_cell_volume   479.84218519
_cell_formula_units_Z   4
loop_
 _symmetry_equiv_pos_site_id
 _symmetry_equiv_pos_as_xyz
  1  'x, y, z'
loop_
 _atom_site_type_symbol
 _atom_site_label
 _atom_site_symmetry_multiplicity
 _atom_site_fract_x
 _atom_site_fract_y
 _atom_site_fract_z
 _atom_site_occupancy
  Tm  Tm0  1  0.65451702  0.66530600  0.52002098  1
  Tm  Tm1  1  0.34548301  0.33469400  0.02002100  1
  Tm  Tm2  1  0.34548301  0.33469400  0.47997898  1
  Tm  Tm3  1  0.65451702  0.66530600  0.97997896  1
  Tm  Tm4  1  0.97679203  0.53093900  0.24999999  1
  Tm  Tm5  1  0.02320800  0.46906100  0.74999997  1
  Tm  Tm6  1  0.66887902  0.16097900  0.24999999  1
  Tm  Tm7  1  0.33112101  0.83902099  0.74999997  1
  Al  Al8  1  0.00000000  0.00000000  0.00000000  1
  Al  Al9  1  0.00000000  0.00000000  0.49999998  1
  Al  Al10  1  0.63858502  0.17595100  0.74999997  1
  Al  Al11  1  0.36141501  0.82404899  0.24999999  1
  P  P12  1  0.75941102  0.87919399  0.74999997  1
  P  P13  1  0.24058901  0.12080600  0.24999999  1
  P  P14  1  0.23399501  0.67179800  0.01925600  1
  P  P15  1  0.76600502  0.32820200  0.51925598  1
  P  P16  1  0.76600502  0.32820200  0.98074396  1
  P  P17  1  0.23399501  0.67179800  0.48074398  1
  P  P18  1  0.72638902  0.82083499  0.24999999  1
  P  P19  1  0.27361101  0.17916500  0.74999997  1
