# generated using pymatgen
data_Sm2FeN3
_symmetry_space_group_name_H-M   'P 1'
_cell_length_a   3.59677792
_cell_length_b   3.59677792
_cell_length_c   6.59363079
_cell_angle_alpha   90.00000000
_cell_angle_beta   90.00000000
_cell_angle_gamma   90.00000000
_symmetry_Int_Tables_number   1
_chemical_formula_structural   Sm2FeN3
_chemical_formula_sum   'Sm2 Fe1 N3'
_cell_volume   85.30055783
_cell_formula_units_Z   1
loop_
 _symmetry_equiv_pos_site_id
 _symmetry_equiv_pos_as_xyz
  1  'x, y, z'
loop_
 _atom_site_type_symbol
 _atom_site_label
 _atom_site_symmetry_multiplicity
 _atom_site_fract_x
 _atom_site_fract_y
 _atom_site_fract_z
 _atom_site_occupancy
  Sm  Sm0  1  0.00000000  0.00000000  0.75000002  1
  Sm  Sm1  1  0.00000000  0.00000000  0.25000001  1
  Fe  Fe2  1  0.50000001  0.50000001  0.00000000  1
  N  N3  1  0.50000001  0.50000001  0.50000002  1
  N  N4  1  0.50000001  0.00000000  0.50000002  1
  N  N5  1  0.00000000  0.50000001  -0.00000000  1
