# generated using pymatgen
data_Hf7(AlSi2)3
_symmetry_space_group_name_H-M   'P 1'
_cell_length_a   5.37687588
_cell_length_b   7.71845818
_cell_length_c   7.77010632
_cell_angle_alpha   119.78035736
_cell_angle_beta   90.00000000
_cell_angle_gamma   90.00000000
_symmetry_Int_Tables_number   1
_chemical_formula_structural   Hf7(AlSi2)3
_chemical_formula_sum   'Hf7 Al3 Si6'
_cell_volume   279.88209707
_cell_formula_units_Z   1
loop_
 _symmetry_equiv_pos_site_id
 _symmetry_equiv_pos_as_xyz
  1  'x, y, z'
loop_
 _atom_site_type_symbol
 _atom_site_label
 _atom_site_symmetry_multiplicity
 _atom_site_fract_x
 _atom_site_fract_y
 _atom_site_fract_z
 _atom_site_occupancy
  Hf  Hf0  1  0.50000001  0.24592299  -0.00000001  1
  Hf  Hf1  1  0.50000001  0.74883196  0.74875495  1
  Hf  Hf2  1  0.50000001  0.00007700  0.25124500  1
  Hf  Hf3  1  1.00000002  0.74861796  -0.00000004  1
  Hf  Hf4  1  -0.00000000  0.26360499  0.26363598  1
  Hf  Hf5  1  -0.00000000  0.99996895  0.73636393  1
  Hf  Hf6  1  0.74899902  0.33257098  0.66660297  1
  Al  Al7  1  0.74899902  0.66596797  0.33339696  1
  Al  Al8  1  0.25100101  0.66596797  0.33339696  1
  Al  Al9  1  0.25100101  0.33257098  0.66660297  1
  Si  Si10  1  0.50000001  0.60421197  0.99999995  1
  Si  Si11  1  0.50000001  0.39414398  0.39399197  1
  Si  Si12  1  0.50000001  0.00015200  0.60600799  1
  Si  Si13  1  -0.00000000  0.38768598  -0.00000002  1
  Si  Si14  1  -0.00000000  0.60915197  0.60859396  1
  Si  Si15  1  -0.00000000  0.00055800  0.39140599  1
