# generated using pymatgen
data_ScTi2AlSi7
_symmetry_space_group_name_H-M   'P 1'
_cell_length_a   4.04471111
_cell_length_b   4.04471111
_cell_length_c   11.29351902
_cell_angle_alpha   90.00000000
_cell_angle_beta   90.00000000
_cell_angle_gamma   90.00000000
_symmetry_Int_Tables_number   1
_chemical_formula_structural   ScTi2AlSi7
_chemical_formula_sum   'Sc1 Ti2 Al1 Si7'
_cell_volume   184.75844745
_cell_formula_units_Z   1
loop_
 _symmetry_equiv_pos_site_id
 _symmetry_equiv_pos_as_xyz
  1  'x, y, z'
loop_
 _atom_site_type_symbol
 _atom_site_label
 _atom_site_symmetry_multiplicity
 _atom_site_fract_x
 _atom_site_fract_y
 _atom_site_fract_z
 _atom_site_occupancy
  Ti  Ti0  1  0.49999999  0.49999999  0.82087100  1
  Sc  Sc1  1  0.49999999  0.49999999  0.17912900  1
  Ti  Ti2  1  0.00000000  0.00000000  0.50000000  1
  Si  Si3  1  0.49999999  0.00000000  0.00000000  1
  Si  Si4  1  0.00000000  0.49999999  0.00000000  1
  Al  Al5  1  0.49999999  0.00000000  0.63755500  1
  Si  Si6  1  0.00000000  0.49999999  0.63755500  1
  Si  Si7  1  0.49999999  0.00000000  0.36244500  1
  Si  Si8  1  0.00000000  0.49999999  0.36244500  1
  Si  Si9  1  0.00000000  0.00000000  0.81955400  1
  Si  Si10  1  0.00000000  0.00000000  0.18044600  1
