# generated using pymatgen
data_Eu2Cl3O
_symmetry_space_group_name_H-M   'P 1'
_cell_length_a   8.62231541
_cell_length_b   8.62231541
_cell_length_c   8.62231541
_cell_angle_alpha   106.83990479
_cell_angle_beta   106.83990479
_cell_angle_gamma   106.83990479
_symmetry_Int_Tables_number   1
_chemical_formula_structural   Eu2Cl3O
_chemical_formula_sum   'Eu6 Cl9 O3'
_cell_volume   536.16210332
_cell_formula_units_Z   3
loop_
 _symmetry_equiv_pos_site_id
 _symmetry_equiv_pos_as_xyz
  1  'x, y, z'
loop_
 _atom_site_type_symbol
 _atom_site_label
 _atom_site_symmetry_multiplicity
 _atom_site_fract_x
 _atom_site_fract_y
 _atom_site_fract_z
 _atom_site_occupancy
  Eu  Eu0  1  0.03128201  0.09656500  0.28561001  1
  Eu  Eu1  1  0.09656502  0.28561000  0.03128202  1
  Eu  Eu2  1  0.28561000  0.03128200  0.09656501  1
  Eu  Eu3  1  0.96871804  0.90343501  0.71439010  1
  Eu  Eu4  1  0.90343503  0.71439001  0.96871808  1
  Eu  Eu5  1  0.71439005  0.96871801  0.90343509  1
  O  O6  1  0.36883600  0.14320700  0.44507102  1
  O  O7  1  0.14320703  0.44507100  0.36883603  1
  Cl  Cl8  1  0.44507102  0.36883600  0.14320704  1
  Cl  Cl9  1  0.63116405  0.85679301  0.55492908  1
  Cl  Cl10  1  0.85679302  0.55492900  0.63116407  1
  Cl  Cl11  1  0.55492903  0.63116400  0.85679306  1
  Cl  Cl12  1  0.68922499  0.07684600  0.22344903  1
  Cl  Cl13  1  0.22344904  0.68922501  0.07684606  1
  Cl  Cl14  1  0.07684601  0.22344900  0.68922502  1
  Cl  Cl15  1  0.31077506  0.92315401  0.77655107  1
  Cl  Cl16  1  0.77655101  0.31077500  0.92315405  1
  O  O17  1  0.92315403  0.77655101  0.31077509  1
