# generated using pymatgen
data_Eu3Mg4
_symmetry_space_group_name_H-M   'P 1'
_cell_length_a   5.47507668
_cell_length_b   5.47507668
_cell_length_c   8.21503544
_cell_angle_alpha   70.53474426
_cell_angle_beta   70.53474426
_cell_angle_gamma   59.99999237
_symmetry_Int_Tables_number   1
_chemical_formula_structural   Eu3Mg4
_chemical_formula_sum   'Eu3 Mg4'
_cell_volume   196.84515324
_cell_formula_units_Z   1
loop_
 _symmetry_equiv_pos_site_id
 _symmetry_equiv_pos_as_xyz
  1  'x, y, z'
loop_
 _atom_site_type_symbol
 _atom_site_label
 _atom_site_symmetry_multiplicity
 _atom_site_fract_x
 _atom_site_fract_y
 _atom_site_fract_z
 _atom_site_occupancy
  Eu  Eu0  1  0.49999998  0.49999999  0.49999999  1
  Eu  Eu1  1  0.64739198  0.64739199  0.05782397  1
  Eu  Eu2  1  0.35260799  0.35260800  0.94217601  1
  Mg  Mg3  1  0.78726497  0.78726499  0.63820499  1
  Mg  Mg4  1  0.21273499  0.21273500  0.36179500  1
  Mg  Mg5  1  0.93379397  0.93379399  0.19861797  1
  Mg  Mg6  1  0.06620600  0.06620600  0.80138202  1
