# generated using pymatgen
data_Lu(NiGe)2
_symmetry_space_group_name_H-M   'P 1'
_cell_length_a   3.88737202
_cell_length_b   3.88737202
_cell_length_c   5.61148071
_cell_angle_alpha   110.26585388
_cell_angle_beta   110.26585388
_cell_angle_gamma   90.00000000
_symmetry_Int_Tables_number   1
_chemical_formula_structural   Lu(NiGe)2
_chemical_formula_sum   'Lu1 Ni2 Ge2'
_cell_volume   73.92813456
_cell_formula_units_Z   1
loop_
 _symmetry_equiv_pos_site_id
 _symmetry_equiv_pos_as_xyz
  1  'x, y, z'
loop_
 _atom_site_type_symbol
 _atom_site_label
 _atom_site_symmetry_multiplicity
 _atom_site_fract_x
 _atom_site_fract_y
 _atom_site_fract_z
 _atom_site_occupancy
  Lu  Lu0  1  0.00000000  0.00000000  0.00000000  1
  Ni  Ni1  1  0.74999999  0.25000000  0.50000000  1
  Ni  Ni2  1  0.24999999  0.74999999  0.50000000  1
  Ge  Ge3  1  0.62871098  0.62871099  0.25742199  1
  Ge  Ge4  1  0.37128899  0.37128900  0.74257801  1
