# generated using pymatgen
data_Yb5Mg
_symmetry_space_group_name_H-M   'P 1'
_cell_length_a   3.57407188
_cell_length_b   5.59178782
_cell_length_c   9.34039211
_cell_angle_alpha   90.00000000
_cell_angle_beta   101.03002930
_cell_angle_gamma   90.00000000
_symmetry_Int_Tables_number   1
_chemical_formula_structural   Yb5Mg
_chemical_formula_sum   'Yb5 Mg1'
_cell_volume   183.22357175
_cell_formula_units_Z   1
loop_
 _symmetry_equiv_pos_site_id
 _symmetry_equiv_pos_as_xyz
  1  'x, y, z'
loop_
 _atom_site_type_symbol
 _atom_site_label
 _atom_site_symmetry_multiplicity
 _atom_site_fract_x
 _atom_site_fract_y
 _atom_site_fract_z
 _atom_site_occupancy
  Yb  Yb0  1  0.00123200  0.50000002  0.00246400  1
  Yb  Yb1  1  0.67105902  0.50000002  0.34211798  1
  Yb  Yb2  1  0.33276101  0.50000002  0.66552197  1
  Yb  Yb3  1  0.55386502  0.00000000  0.10772999  1
  Yb  Yb4  1  0.88564803  1.00000003  0.77129596  1
  Mg  Mg5  1  0.22210801  0.00000000  0.44421598  1
