# generated using pymatgen
data_Yb5Mg(AlSi3)2
_symmetry_space_group_name_H-M   'P 1'
_cell_length_a   4.44983196
_cell_length_b   6.88055801
_cell_length_c   9.59381962
_cell_angle_alpha   90.00000000
_cell_angle_beta   103.40962982
_cell_angle_gamma   90.00000000
_symmetry_Int_Tables_number   1
_chemical_formula_structural   Yb5Mg(AlSi3)2
_chemical_formula_sum   'Yb5 Mg1 Al2 Si6'
_cell_volume   285.72893203
_cell_formula_units_Z   1
loop_
 _symmetry_equiv_pos_site_id
 _symmetry_equiv_pos_as_xyz
  1  'x, y, z'
loop_
 _atom_site_type_symbol
 _atom_site_label
 _atom_site_symmetry_multiplicity
 _atom_site_fract_x
 _atom_site_fract_y
 _atom_site_fract_z
 _atom_site_occupancy
  Yb  Yb0  1  0.69100201  0.06242700  0.38200403  1
  Yb  Yb1  1  0.30899800  0.93757300  0.61799603  1
  Mg  Mg2  1  0.30899800  0.56242700  0.61799603  1
  Yb  Yb3  1  0.69100201  0.43757300  0.38200403  1
  Yb  Yb4  1  0.15649800  0.75000000  0.31299602  1
  Yb  Yb5  1  0.84350201  0.25000000  0.68700404  1
  Al  Al6  1  0.94956401  0.75000000  0.89912805  1
  Al  Al7  1  0.05043600  0.25000000  0.10087201  1
  Si  Si8  1  0.22037600  0.25000000  0.44075202  1
  Si  Si9  1  0.77962401  0.75000000  0.55924804  1
  Si  Si10  1  0.56308501  0.56479600  0.12617001  1
  Si  Si11  1  0.43691501  0.43520400  0.87383005  1
  Si  Si12  1  0.43691501  0.06479600  0.87383005  1
  Si  Si13  1  0.56308501  0.93520400  0.12617001  1
