# generated using pymatgen
data_KTlClO2
_symmetry_space_group_name_H-M   'P 1'
_cell_length_a   3.94871998
_cell_length_b   3.94871998
_cell_length_c   6.91315413
_cell_angle_alpha   106.59439850
_cell_angle_beta   106.59439850
_cell_angle_gamma   90.00000000
_symmetry_Int_Tables_number   1
_chemical_formula_structural   KTlClO2
_chemical_formula_sum   'K1 Tl1 Cl1 O2'
_cell_volume   98.60938873
_cell_formula_units_Z   1
loop_
 _symmetry_equiv_pos_site_id
 _symmetry_equiv_pos_as_xyz
  1  'x, y, z'
loop_
 _atom_site_type_symbol
 _atom_site_label
 _atom_site_symmetry_multiplicity
 _atom_site_fract_x
 _atom_site_fract_y
 _atom_site_fract_z
 _atom_site_occupancy
  K  K0  1  0.34233200  0.34233200  0.68466400  1
  Tl  Tl1  1  0.65766801  0.65766800  0.31533600  1
  Cl  Cl2  1  0.00000000  0.00000000  0.00000000  1
  O  O3  1  0.75000001  0.25000000  0.50000000  1
  O  O4  1  0.25000000  0.75000000  0.50000000  1
