# generated using pymatgen
data_La2Sn
_symmetry_space_group_name_H-M   'P 1'
_cell_length_a   4.52707815
_cell_length_b   4.52707815
_cell_length_c   9.31875992
_cell_angle_alpha   104.05784607
_cell_angle_beta   104.05784607
_cell_angle_gamma   90.00000000
_symmetry_Int_Tables_number   1
_chemical_formula_structural   La2Sn
_chemical_formula_sum   'La4 Sn2'
_cell_volume   179.36093766
_cell_formula_units_Z   2
loop_
 _symmetry_equiv_pos_site_id
 _symmetry_equiv_pos_as_xyz
  1  'x, y, z'
loop_
 _atom_site_type_symbol
 _atom_site_label
 _atom_site_symmetry_multiplicity
 _atom_site_fract_x
 _atom_site_fract_y
 _atom_site_fract_z
 _atom_site_occupancy
  La  La0  1  0.00000002  0.49999999  0.00000002  1
  La  La1  1  0.49999999  0.00000000  0.00000002  1
  La  La2  1  0.82139501  0.82139499  0.64279003  1
  La  La3  1  0.17860500  0.17860500  0.35721000  1
  Sn  Sn4  1  0.63835601  0.63835599  0.27671203  1
  Sn  Sn5  1  0.36164401  0.36164399  0.72328799  1
