# generated using pymatgen
data_ScC
_symmetry_space_group_name_H-M   'P 1'
_cell_length_a   3.34701896
_cell_length_b   5.89985561
_cell_length_c   5.89985561
_cell_angle_alpha   109.64910889
_cell_angle_beta   90.00000000
_cell_angle_gamma   90.00000000
_symmetry_Int_Tables_number   1
_chemical_formula_structural   ScC
_chemical_formula_sum   'Sc4 C4'
_cell_volume   109.71994986
_cell_formula_units_Z   4
loop_
 _symmetry_equiv_pos_site_id
 _symmetry_equiv_pos_as_xyz
  1  'x, y, z'
loop_
 _atom_site_type_symbol
 _atom_site_label
 _atom_site_symmetry_multiplicity
 _atom_site_fract_x
 _atom_site_fract_y
 _atom_site_fract_z
 _atom_site_occupancy
  Sc  Sc0  1  1.00000001  0.50000000  -0.00000001  1
  Sc  Sc1  1  1.00000001  0.00000000  0.50000000  1
  Sc  Sc2  1  0.50000001  0.50000000  0.49999999  1
  Sc  Sc3  1  0.50000001  0.00000000  -0.00000000  1
  C  C4  1  0.50000001  0.22281000  0.77719000  1
  C  C5  1  -0.00000000  0.70881900  0.70881899  1
  C  C6  1  1.00000001  0.29118100  0.29118099  1
  C  C7  1  0.50000001  0.77719000  0.22280998  1
