# generated using pymatgen
data_La7Sn9
_symmetry_space_group_name_H-M   'P 1'
_cell_length_a   6.31754589
_cell_length_b   9.81701088
_cell_length_c   9.81701088
_cell_angle_alpha   84.05735016
_cell_angle_beta   71.23028564
_cell_angle_gamma   71.23028564
_symmetry_Int_Tables_number   1
_chemical_formula_structural   La7Sn9
_chemical_formula_sum   'La7 Sn9'
_cell_volume   545.80977862
_cell_formula_units_Z   1
loop_
 _symmetry_equiv_pos_site_id
 _symmetry_equiv_pos_as_xyz
  1  'x, y, z'
loop_
 _atom_site_type_symbol
 _atom_site_label
 _atom_site_symmetry_multiplicity
 _atom_site_fract_x
 _atom_site_fract_y
 _atom_site_fract_z
 _atom_site_occupancy
  La  La0  1  0.57936101  0.14873100  0.69254698  1
  La  La1  1  0.42063902  0.85126900  0.30745294  1
  La  La2  1  0.72809203  0.69254700  0.85126894  1
  La  La3  1  0.27190801  0.30745300  0.14873098  1
  La  La4  1  0.92063902  0.30745300  0.85126897  1
  La  La5  1  0.22809202  0.85126900  0.69254693  1
  Sn  Sn6  1  0.77190802  0.14873100  0.30745298  1
  La  La7  1  0.07936101  0.69254700  0.14873095  1
  Sn  Sn8  1  0.75000002  0.00000000  -0.00000001  1
  Sn  Sn9  1  0.25000001  0.00000000  -0.00000000  1
  Sn  Sn10  1  0.50000002  0.50000000  0.49999996  1
  Sn  Sn11  1  0.00000001  0.50000000  0.49999996  1
  Sn  Sn12  1  0.83732303  0.82535400  0.49999993  1
  Sn  Sn13  1  0.66267702  0.50000000  0.17464596  1
  Sn  Sn14  1  0.33732302  0.50000000  0.82535396  1
  Sn  Sn15  1  0.16267701  0.17464600  0.49999998  1
