# generated using pymatgen
data_SrLi3CoO8
_symmetry_space_group_name_H-M   'P 1'
_cell_length_a   5.25898790
_cell_length_b   5.52568531
_cell_length_c   6.21423292
_cell_angle_alpha   73.52601624
_cell_angle_beta   81.79129791
_cell_angle_gamma   66.66136169
_symmetry_Int_Tables_number   1
_chemical_formula_structural   SrLi3CoO8
_chemical_formula_sum   'Sr1 Li3 Co1 O8'
_cell_volume   158.90557403
_cell_formula_units_Z   1
loop_
 _symmetry_equiv_pos_site_id
 _symmetry_equiv_pos_as_xyz
  1  'x, y, z'
loop_
 _atom_site_type_symbol
 _atom_site_label
 _atom_site_symmetry_multiplicity
 _atom_site_fract_x
 _atom_site_fract_y
 _atom_site_fract_z
 _atom_site_occupancy
  Li  Li0  1  0.78178400  0.45797699  0.34607402  1
  Li  Li1  1  0.21812101  0.54201499  0.65399502  1
  Sr  Sr2  1  0.00006003  0.99999298  0.00000602  1
  Li  Li3  1  0.53631102  0.93311598  0.75355903  1
  Co  Co4  1  0.46367800  0.06687300  0.24633501  1
  O  O5  1  0.76125001  0.79960598  0.10715603  1
  O  O6  1  0.23883600  0.20035800  0.89284201  1
  O  O7  1  0.73721600  0.25431299  0.16708302  1
  O  O8  1  0.26284902  0.74572898  0.83286902  1
  O  O9  1  0.63104100  0.26256899  0.62411302  1
  O  O10  1  0.36892702  0.73735698  0.37589702  1
  O  O11  1  0.83003301  0.68577299  0.60115303  1
  O  O12  1  0.16989301  0.31431899  0.39891801  1
