# generated using pymatgen
data_Eu4Zn4Pd5
_symmetry_space_group_name_H-M   'P 1'
_cell_length_a   4.47494411
_cell_length_b   4.47494411
_cell_length_c   16.12574577
_cell_angle_alpha   90.00000000
_cell_angle_beta   90.00000000
_cell_angle_gamma   90.00000000
_symmetry_Int_Tables_number   1
_chemical_formula_structural   Eu4Zn4Pd5
_chemical_formula_sum   'Eu4 Zn4 Pd5'
_cell_volume   322.92007208
_cell_formula_units_Z   1
loop_
 _symmetry_equiv_pos_site_id
 _symmetry_equiv_pos_as_xyz
  1  'x, y, z'
loop_
 _atom_site_type_symbol
 _atom_site_label
 _atom_site_symmetry_multiplicity
 _atom_site_fract_x
 _atom_site_fract_y
 _atom_site_fract_z
 _atom_site_occupancy
  Eu  Eu0  1  0.49999999  0.49999999  0.33210000  1
  Eu  Eu1  1  0.00000000  0.00000000  0.83417701  1
  Eu  Eu2  1  0.00000000  0.00000000  0.16582300  1
  Eu  Eu3  1  0.49999999  0.49999999  0.66790001  1
  Zn  Zn4  1  0.49999999  0.00000000  0.00000000  1
  Zn  Zn5  1  0.00000000  0.49999999  0.50000001  1
  Zn  Zn6  1  0.00000000  0.49999999  0.00000000  1
  Zn  Zn7  1  0.49999999  0.00000000  0.50000001  1
  Pd  Pd8  1  0.49999999  0.49999999  0.13114500  1
  Pd  Pd9  1  0.00000000  0.00000000  0.63085701  1
  Pd  Pd10  1  0.00000000  0.00000000  0.36914301  1
  Pd  Pd11  1  0.49999999  0.49999999  0.86885501  1
  Pd  Pd12  1  0.00000000  0.00000000  0.00000000  1
