# generated using pymatgen
data_CeGa2
_symmetry_space_group_name_H-M   'P 1'
_cell_length_a   4.24135494
_cell_length_b   5.71588802
_cell_length_c   6.09463978
_cell_angle_alpha   75.75600433
_cell_angle_beta   69.63755035
_cell_angle_gamma   68.22179413
_symmetry_Int_Tables_number   1
_chemical_formula_structural   CeGa2
_chemical_formula_sum   'Ce2 Ga4'
_cell_volume   127.46739847
_cell_formula_units_Z   2
loop_
 _symmetry_equiv_pos_site_id
 _symmetry_equiv_pos_as_xyz
  1  'x, y, z'
loop_
 _atom_site_type_symbol
 _atom_site_label
 _atom_site_symmetry_multiplicity
 _atom_site_fract_x
 _atom_site_fract_y
 _atom_site_fract_z
 _atom_site_occupancy
  Ce  Ce0  1  0.43897695  0.78504204  0.33700504  1
  Ce  Ce1  1  0.56102299  0.21495801  0.66299503  1
  Ga  Ga2  1  0.85020297  0.61084803  0.68874605  1
  Ga  Ga3  1  0.14979698  0.38915202  0.31125402  1
  Ga  Ga4  1  0.17080595  0.74789403  0.91049305  1
  Ga  Ga5  1  0.82919399  0.25210601  0.08950702  1
