# generated using pymatgen
data_Ti2CuPd
_symmetry_space_group_name_H-M   'P 1'
_cell_length_a   2.78815007
_cell_length_b   4.76865196
_cell_length_c   5.20151234
_cell_angle_alpha   117.28332520
_cell_angle_beta   105.54608917
_cell_angle_gamma   90.00000000
_symmetry_Int_Tables_number   1
_chemical_formula_structural   Ti2CuPd
_chemical_formula_sum   'Ti2 Cu1 Pd1'
_cell_volume   58.60271115
_cell_formula_units_Z   1
loop_
 _symmetry_equiv_pos_site_id
 _symmetry_equiv_pos_as_xyz
  1  'x, y, z'
loop_
 _atom_site_type_symbol
 _atom_site_label
 _atom_site_symmetry_multiplicity
 _atom_site_fract_x
 _atom_site_fract_y
 _atom_site_fract_z
 _atom_site_occupancy
  Ti  Ti0  1  0.50000001  0.83551300  -0.00000000  1
  Ti  Ti1  1  0.25392900  0.25816800  0.50785798  1
  Cu  Cu2  1  0.74607000  0.75030900  0.49214098  1
  Pd  Pd3  1  0.00000001  0.32267200  -0.00000000  1
