# generated using pymatgen
data_AcTl
_symmetry_space_group_name_H-M   'P 1'
_cell_length_a   4.25138807
_cell_length_b   4.25138807
_cell_length_c   7.05564880
_cell_angle_alpha   90.00000000
_cell_angle_beta   90.00000000
_cell_angle_gamma   120.00000000
_symmetry_Int_Tables_number   1
_chemical_formula_structural   AcTl
_chemical_formula_sum   'Ac1 Tl1'
_cell_volume   110.44068379
_cell_formula_units_Z   1
loop_
 _symmetry_equiv_pos_site_id
 _symmetry_equiv_pos_as_xyz
  1  'x, y, z'
loop_
 _atom_site_type_symbol
 _atom_site_label
 _atom_site_symmetry_multiplicity
 _atom_site_fract_x
 _atom_site_fract_y
 _atom_site_fract_z
 _atom_site_occupancy
  Ac  Ac0  1  0.66666665  0.33333333  0.75000002  1
  Tl  Tl1  1  0.33333333  0.66666665  0.25000001  1
