# generated using pymatgen
data_NaCl
_symmetry_space_group_name_H-M   'P 1'
_cell_length_a   4.03038216
_cell_length_b   4.03038263
_cell_length_c   16.05792427
_cell_angle_alpha   90.00000000
_cell_angle_beta   90.00000000
_cell_angle_gamma   119.99999237
_symmetry_Int_Tables_number   1
_chemical_formula_structural   NaCl
_chemical_formula_sum   'Na4 Cl4'
_cell_volume   225.89809927
_cell_formula_units_Z   4
loop_
 _symmetry_equiv_pos_site_id
 _symmetry_equiv_pos_as_xyz
  1  'x, y, z'
loop_
 _atom_site_type_symbol
 _atom_site_label
 _atom_site_symmetry_multiplicity
 _atom_site_fract_x
 _atom_site_fract_y
 _atom_site_fract_z
 _atom_site_occupancy
  Na  Na0  1  0.66666663  0.33333333  0.74999999  1
  Na  Na1  1  0.33333329  0.66666666  0.25000000  1
  Na  Na2  1  0.00000000  0.00000000  0.49999999  1
  Na  Na3  1  0.00000000  0.00000000  0.00000000  1
  Cl  Cl4  1  0.66666663  0.33333333  0.08918200  1
  Cl  Cl5  1  0.33333329  0.66666666  0.91081798  1
  Cl  Cl6  1  0.33333329  0.66666666  0.58918199  1
  Cl  Cl7  1  0.66666663  0.33333333  0.41081799  1
