# generated using pymatgen
data_LiVO2
_symmetry_space_group_name_H-M   'P 1'
_cell_length_a   5.42778397
_cell_length_b   5.68000317
_cell_length_c   7.20113182
_cell_angle_alpha   90.00000000
_cell_angle_beta   90.12431335
_cell_angle_gamma   90.00000000
_symmetry_Int_Tables_number   1
_chemical_formula_structural   LiVO2
_chemical_formula_sum   'Li4 V4 O8'
_cell_volume   222.00914810
_cell_formula_units_Z   4
loop_
 _symmetry_equiv_pos_site_id
 _symmetry_equiv_pos_as_xyz
  1  'x, y, z'
loop_
 _atom_site_type_symbol
 _atom_site_label
 _atom_site_symmetry_multiplicity
 _atom_site_fract_x
 _atom_site_fract_y
 _atom_site_fract_z
 _atom_site_occupancy
  Li  Li0  1  0.49303800  0.17804599  0.00342501  1
  Li  Li1  1  0.49059800  0.67591398  0.74816202  1
  Li  Li2  1  0.99303801  0.82195398  0.50342502  1
  Li  Li3  1  0.99059801  0.32408599  0.24816202  1
  V  V4  1  0.00151300  0.81292798  0.99795902  1
  V  V5  1  0.50151300  0.18707199  0.49795902  1
  V  V6  1  0.00511800  0.31432899  0.75061901  1
  V  V7  1  0.50511800  0.68567098  0.25061901  1
  O  O8  1  0.83137001  0.70569498  0.22526801  1
  O  O9  1  0.33137000  0.29430499  0.72526802  1
  O  O10  1  0.86464601  0.20453799  0.54455202  1
  O  O11  1  0.36464600  0.79546198  0.04455201  1
  O  O12  1  0.91913901  0.15287000  0.95371703  1
  O  O13  1  0.42057800  0.38299299  0.27629801  1
  O  O14  1  0.92057801  0.61700698  0.77629803  1
  O  O15  1  0.41913900  0.84712998  0.45371701  1
