# generated using pymatgen
data_Li3TiO4
_symmetry_space_group_name_H-M   'P 1'
_cell_length_a   3.84857607
_cell_length_b   5.37942314
_cell_length_c   10.21524715
_cell_angle_alpha   90.76996613
_cell_angle_beta   90.00000000
_cell_angle_gamma   110.95979309
_symmetry_Int_Tables_number   1
_chemical_formula_structural   Li3TiO4
_chemical_formula_sum   'Li6 Ti2 O8'
_cell_volume   197.47325831
_cell_formula_units_Z   2
loop_
 _symmetry_equiv_pos_site_id
 _symmetry_equiv_pos_as_xyz
  1  'x, y, z'
loop_
 _atom_site_type_symbol
 _atom_site_label
 _atom_site_symmetry_multiplicity
 _atom_site_fract_x
 _atom_site_fract_y
 _atom_site_fract_z
 _atom_site_occupancy
  Li  Li0  1  0.13116101  0.26232201  0.05739899  1
  Li  Li1  1  0.86883903  0.73767804  0.94260095  1
  Li  Li2  1  0.13746101  0.27492201  0.45240598  1
  Li  Li3  1  0.18490302  0.36980602  0.74930896  1
  Li  Li4  1  0.81509702  0.63019403  0.25069098  1
  Li  Li5  1  0.86253903  0.72507804  0.54759396  1
  Ti  Ti6  1  0.04350000  0.08700000  0.61983697  1
  Ti  Ti7  1  0.69590801  0.39181602  0.41849498  1
  O  O8  1  0.30409203  0.60818403  0.58150496  1
  O  O9  1  0.95650004  0.91300005  0.38016297  1
  O  O10  1  0.05144501  0.10289001  0.88267396  1
  O  O11  1  0.69058201  0.38116402  0.09598199  1
  O  O12  1  0.25882203  0.51764403  0.25431698  1
  O  O13  1  0.74117802  0.48235602  0.74568296  1
  O  O14  1  0.30941803  0.61883603  0.90401795  1
  O  O15  1  0.94855504  0.89711005  0.11732598  1
