# generated using pymatgen
data_Tb2Ge3
_symmetry_space_group_name_H-M   'P 1'
_cell_length_a   6.23853922
_cell_length_b   9.87192535
_cell_length_c   9.87192535
_cell_angle_alpha   119.95021057
_cell_angle_beta   90.00000000
_cell_angle_gamma   90.00000000
_symmetry_Int_Tables_number   1
_chemical_formula_structural   Tb2Ge3
_chemical_formula_sum   'Tb8 Ge12'
_cell_volume   526.78686645
_cell_formula_units_Z   4
loop_
 _symmetry_equiv_pos_site_id
 _symmetry_equiv_pos_as_xyz
  1  'x, y, z'
loop_
 _atom_site_type_symbol
 _atom_site_label
 _atom_site_symmetry_multiplicity
 _atom_site_fract_x
 _atom_site_fract_y
 _atom_site_fract_z
 _atom_site_occupancy
  Tb  Tb0  1  0.39673799  0.33378501  0.66621502  1
  Tb  Tb1  1  0.89673797  0.66621502  0.33378501  1
  Tb  Tb2  1  0.24414799  0.13134700  0.86865303  1
  Tb  Tb3  1  0.24376799  0.73672502  0.86790503  1
  Tb  Tb4  1  0.24376799  0.13209500  0.26327501  1
  Tb  Tb5  1  0.74414797  0.86865303  0.13134700  1
  Tb  Tb6  1  0.74376797  0.26327501  0.13209500  1
  Tb  Tb7  1  0.74376797  0.86790503  0.73672502  1
  Ge  Ge8  1  0.47885098  0.53800602  0.46199401  1
  Ge  Ge9  1  0.47920998  0.92339703  0.46180701  1
  Ge  Ge10  1  0.47920998  0.53819302  0.07660300  1
  Ge  Ge11  1  0.97885097  0.46199401  0.53800602  1
  Ge  Ge12  1  0.97920997  0.07660300  0.53819302  1
  Ge  Ge13  1  0.97920997  0.46180701  0.92339703  1
  Ge  Ge14  1  0.19783099  0.80958803  0.19041200  1
  Ge  Ge15  1  0.19773799  0.38090301  0.19077400  1
  Ge  Ge16  1  0.19773799  0.80922603  0.61909702  1
  Ge  Ge17  1  0.69783098  0.19041201  0.80958803  1
  Ge  Ge18  1  0.69773798  0.61909702  0.80922602  1
  Ge  Ge19  1  0.69773798  0.19077401  0.38090301  1
