# generated using pymatgen
data_Li8VO5
_symmetry_space_group_name_H-M   'P 1'
_cell_length_a   3.30910802
_cell_length_b   5.58109140
_cell_length_c   10.89134502
_cell_angle_alpha   90.00000000
_cell_angle_beta   90.00000000
_cell_angle_gamma   93.08638000
_symmetry_Int_Tables_number   1
_chemical_formula_structural   Li8VO5
_chemical_formula_sum   'Li8 V1 O5'
_cell_volume   200.85432729
_cell_formula_units_Z   1
loop_
 _symmetry_equiv_pos_site_id
 _symmetry_equiv_pos_as_xyz
  1  'x, y, z'
loop_
 _atom_site_type_symbol
 _atom_site_label
 _atom_site_symmetry_multiplicity
 _atom_site_fract_x
 _atom_site_fract_y
 _atom_site_fract_z
 _atom_site_occupancy
  Li  Li0  1  0.12900000  0.29877500  0.75000000  1
  Li  Li1  1  0.87100000  0.70122500  0.25000000  1
  Li  Li2  1  0.63114400  0.77079000  0.91955200  1
  Li  Li3  1  0.63114400  0.77079000  0.58044800  1
  Li  Li4  1  0.36885600  0.22921000  0.41955200  1
  Li  Li5  1  0.36885600  0.22921000  0.08044800  1
  Li  Li6  1  0.00000000  0.50000000  -0.00000000  1
  Li  Li7  1  0.77902100  0.93408100  0.12021800  1
  V  V8  1  0.77902100  0.93408100  0.37978200  1
  O  O9  1  0.62146500  0.51282900  0.75000000  1
  O  O10  1  0.37853500  0.48717100  0.25000000  1
  O  O11  1  0.22097900  0.06591900  0.87978200  1
  O  O12  1  0.22097900  0.06591900  0.62021800  1
  O  O13  1  0.00000000  0.50000000  0.50000000  1
