# generated using pymatgen
data_LiFe2N
_symmetry_space_group_name_H-M   'P 1'
_cell_length_a   2.91639709
_cell_length_b   2.92661595
_cell_length_c   4.18931103
_cell_angle_alpha   110.44423676
_cell_angle_beta   90.00000000
_cell_angle_gamma   90.00000000
_symmetry_Int_Tables_number   1
_chemical_formula_structural   LiFe2N
_chemical_formula_sum   'Li1 Fe2 N1'
_cell_volume   33.50429021
_cell_formula_units_Z   1
loop_
 _symmetry_equiv_pos_site_id
 _symmetry_equiv_pos_as_xyz
  1  'x, y, z'
loop_
 _atom_site_type_symbol
 _atom_site_label
 _atom_site_symmetry_multiplicity
 _atom_site_fract_x
 _atom_site_fract_y
 _atom_site_fract_z
 _atom_site_occupancy
  Li  Li0  1  0.24999999  0.14546700  0.29093399  1
  Fe  Fe1  1  0.74999998  0.85453300  0.70906596  1
  Fe  Fe2  1  0.24999999  0.43557400  0.87114797  1
  N  N3  1  0.74999998  0.56442600  0.12885198  1
