# generated using pymatgen
data_Li2VAgS4
_symmetry_space_group_name_H-M   'P 1'
_cell_length_a   6.10099459
_cell_length_b   6.10099459
_cell_length_c   6.10099459
_cell_angle_alpha   99.19709015
_cell_angle_beta   114.83992004
_cell_angle_gamma   114.83992004
_symmetry_Int_Tables_number   1
_chemical_formula_structural   Li2VAgS4
_chemical_formula_sum   'Li2 V1 Ag1 S4'
_cell_volume   170.71236327
_cell_formula_units_Z   1
loop_
 _symmetry_equiv_pos_site_id
 _symmetry_equiv_pos_as_xyz
  1  'x, y, z'
loop_
 _atom_site_type_symbol
 _atom_site_label
 _atom_site_symmetry_multiplicity
 _atom_site_fract_x
 _atom_site_fract_y
 _atom_site_fract_z
 _atom_site_occupancy
  Li  Li0  1  0.50000000  0.75000001  0.24999998  1
  Li  Li1  1  0.50000001  0.25000000  0.75000001  1
  V  V2  1  -0.00000001  0.50000001  0.49999999  1
  Ag  Ag3  1  0.00000000  0.00000000  0.00000000  1
  S  S4  1  1.00000001  0.85981901  0.46580298  1
  S  S5  1  0.39401500  0.53419601  0.53419599  1
  S  S6  1  0.60598501  0.14018200  0.14018200  1
  S  S7  1  -0.00000001  0.46580300  0.85981900  1
