# generated using pymatgen
data_K2WNO4
_symmetry_space_group_name_H-M   'P 1'
_cell_length_a   5.81263494
_cell_length_b   5.81263494
_cell_length_c   5.81263494
_cell_angle_alpha   79.10360718
_cell_angle_beta   66.01977539
_cell_angle_gamma   113.86261749
_symmetry_Int_Tables_number   1
_chemical_formula_structural   K2WNO4
_chemical_formula_sum   'K2 W1 N1 O4'
_cell_volume   148.69596773
_cell_formula_units_Z   1
loop_
 _symmetry_equiv_pos_site_id
 _symmetry_equiv_pos_as_xyz
  1  'x, y, z'
loop_
 _atom_site_type_symbol
 _atom_site_label
 _atom_site_symmetry_multiplicity
 _atom_site_fract_x
 _atom_site_fract_y
 _atom_site_fract_z
 _atom_site_occupancy
  K  K0  1  0.24386698  0.24386699  0.00000003  1
  K  K1  1  0.24386695  0.74386696  0.50000006  1
  W  W2  1  0.74984495  0.50230497  0.25246005  1
  N  N3  1  0.75476498  0.00230500  0.74754000  1
  O  O4  1  0.75249494  0.63778996  0.38529506  1
  O  O5  1  0.02308399  0.13778899  0.61470600  1
  O  O6  1  0.75123996  0.36603798  0.11479804  1
  O  O7  1  0.48083694  0.86603895  0.88520106  1
