# generated using pymatgen
data_SmScS3
_symmetry_space_group_name_H-M   'P 1'
_cell_length_a   6.40554619
_cell_length_b   7.41456795
_cell_length_c   9.26828098
_cell_angle_alpha   90.00000000
_cell_angle_beta   90.00000000
_cell_angle_gamma   90.00000000
_symmetry_Int_Tables_number   1
_chemical_formula_structural   SmScS3
_chemical_formula_sum   'Sm4 Sc4 S12'
_cell_volume   440.19104999
_cell_formula_units_Z   4
loop_
 _symmetry_equiv_pos_site_id
 _symmetry_equiv_pos_as_xyz
  1  'x, y, z'
loop_
 _atom_site_type_symbol
 _atom_site_label
 _atom_site_symmetry_multiplicity
 _atom_site_fract_x
 _atom_site_fract_y
 _atom_site_fract_z
 _atom_site_occupancy
  Sm  Sm0  1  0.55897198  0.12426000  0.75000000  1
  Sm  Sm1  1  0.94102797  0.62426000  0.75000000  1
  Sm  Sm2  1  0.44102799  0.87574001  0.25000000  1
  Sm  Sm3  1  0.05897200  0.37574000  0.25000000  1
  Sc  Sc4  1  0.49999999  0.50000000  0.00000000  1
  Sc  Sc5  1  0.00000000  0.00000000  0.50000000  1
  Sc  Sc6  1  0.49999999  0.50000000  0.50000000  1
  Sc  Sc7  1  0.00000000  0.00000000  0.00000000  1
  S  S8  1  0.34123499  0.17779200  0.44385800  1
  S  S9  1  0.15876500  0.67779200  0.05614200  1
  S  S10  1  0.65876498  0.82220801  0.94385800  1
  S  S11  1  0.84123498  0.32220800  0.55614200  1
  S  S12  1  0.65876498  0.82220801  0.55614200  1
  S  S13  1  0.84123498  0.32220800  0.94385800  1
  S  S14  1  0.34123499  0.17779200  0.05614200  1
  S  S15  1  0.15876500  0.67779200  0.44385800  1
  S  S16  1  0.34858199  0.45728200  0.75000000  1
  S  S17  1  0.15141800  0.95728201  0.75000000  1
  S  S18  1  0.65141798  0.54271800  0.25000000  1
  S  S19  1  0.84858198  0.04271800  0.25000000  1
