# generated using pymatgen
data_Sr2Ca2Ga5Rh
_symmetry_space_group_name_H-M   'P 1'
_cell_length_a   4.87505722
_cell_length_b   4.99508190
_cell_length_c   11.30465317
_cell_angle_alpha   91.24250793
_cell_angle_beta   90.00000000
_cell_angle_gamma   90.00000000
_symmetry_Int_Tables_number   1
_chemical_formula_structural   Sr2Ca2Ga5Rh
_chemical_formula_sum   'Sr2 Ca2 Ga5 Rh1'
_cell_volume   275.21838773
_cell_formula_units_Z   1
loop_
 _symmetry_equiv_pos_site_id
 _symmetry_equiv_pos_as_xyz
  1  'x, y, z'
loop_
 _atom_site_type_symbol
 _atom_site_label
 _atom_site_symmetry_multiplicity
 _atom_site_fract_x
 _atom_site_fract_y
 _atom_site_fract_z
 _atom_site_occupancy
  Sr  Sr0  1  0.74999997  0.26227901  0.75592499  1
  Sr  Sr1  1  0.24999999  0.73772101  0.24407499  1
  Ca  Ca2  1  0.24999999  0.24731000  0.50108499  1
  Ca  Ca3  1  0.74999997  0.75269001  0.49891499  1
  Ga  Ga4  1  0.74999997  0.19512000  0.12365100  1
  Ga  Ga5  1  0.24999999  0.80488002  0.87634899  1
  Ga  Ga6  1  0.24999999  0.31027301  0.00071500  1
  Ga  Ga7  1  0.24999999  0.74819001  0.63378099  1
  Rh  Rh8  1  0.74999997  0.25181000  0.36621899  1
  Ga  Ga9  1  0.74999997  0.68972701  0.99928499  1
