# generated using pymatgen
data_Mn2P
_symmetry_space_group_name_H-M   'P 1'
_cell_length_a   3.30017209
_cell_length_b   7.04780626
_cell_length_c   7.04780626
_cell_angle_alpha   86.85771179
_cell_angle_beta   76.45979309
_cell_angle_gamma   76.45979309
_symmetry_Int_Tables_number   1
_chemical_formula_structural   Mn2P
_chemical_formula_sum   'Mn6 P3'
_cell_volume   154.93907994
_cell_formula_units_Z   3
loop_
 _symmetry_equiv_pos_site_id
 _symmetry_equiv_pos_as_xyz
  1  'x, y, z'
loop_
 _atom_site_type_symbol
 _atom_site_label
 _atom_site_symmetry_multiplicity
 _atom_site_fract_x
 _atom_site_fract_y
 _atom_site_fract_z
 _atom_site_occupancy
  Mn  Mn0  1  0.62083793  0.67802699  0.08029596  1
  Mn  Mn1  1  0.70113491  0.91970398  0.67802593  1
  Mn  Mn2  1  0.29886499  0.08029600  0.32197398  1
  Mn  Mn3  1  0.37916197  0.32197299  0.91970395  1
  Mn  Mn4  1  0.00000000  0.00000000  0.00000000  1
  P  P5  1  0.71424596  0.34300799  0.22849896  1
  P  P6  1  0.94274592  0.77150099  0.34300694  1
  Mn  Mn7  1  0.05725398  0.22849900  0.65699297  1
  P  P8  1  0.28575394  0.65699199  0.77150095  1
