# generated using pymatgen
data_LaAg3
_symmetry_space_group_name_H-M   'P 1'
_cell_length_a   4.63230705
_cell_length_b   6.60677385
_cell_length_c   6.60677385
_cell_angle_alpha   120.00000000
_cell_angle_beta   90.00000000
_cell_angle_gamma   90.00000000
_symmetry_Int_Tables_number   1
_chemical_formula_structural   LaAg3
_chemical_formula_sum   'La2 Ag6'
_cell_volume   175.10834900
_cell_formula_units_Z   2
loop_
 _symmetry_equiv_pos_site_id
 _symmetry_equiv_pos_as_xyz
  1  'x, y, z'
loop_
 _atom_site_type_symbol
 _atom_site_label
 _atom_site_symmetry_multiplicity
 _atom_site_fract_x
 _atom_site_fract_y
 _atom_site_fract_z
 _atom_site_occupancy
  La  La0  1  0.49999999  0.33333334  0.66666667  1
  La  La1  1  -0.00000000  0.66666668  0.33333333  1
  Ag  Ag2  1  0.49999999  0.86023302  0.13976699  1
  Ag  Ag3  1  0.49999999  0.27953400  0.13976700  1
  Ag  Ag4  1  0.49999999  0.86023302  0.72046600  1
  Ag  Ag5  1  0.99999999  0.13915000  0.86085000  1
  Ag  Ag6  1  0.99999999  0.72170001  0.86085000  1
  Ag  Ag7  1  0.99999999  0.13915000  0.27830000  1
