# generated using pymatgen
data_CoTe
_symmetry_space_group_name_H-M   'P 1'
_cell_length_a   3.71341300
_cell_length_b   4.90095186
_cell_length_c   5.97545481
_cell_angle_alpha   90.00000000
_cell_angle_beta   90.00000000
_cell_angle_gamma   90.00000000
_symmetry_Int_Tables_number   1
_chemical_formula_structural   CoTe
_chemical_formula_sum   'Co3 Te3'
_cell_volume   108.74884585
_cell_formula_units_Z   3
loop_
 _symmetry_equiv_pos_site_id
 _symmetry_equiv_pos_as_xyz
  1  'x, y, z'
loop_
 _atom_site_type_symbol
 _atom_site_label
 _atom_site_symmetry_multiplicity
 _atom_site_fract_x
 _atom_site_fract_y
 _atom_site_fract_z
 _atom_site_occupancy
  Co  Co0  1  0.50000000  0.50000001  0.50000002  1
  Co  Co1  1  0.00000000  0.00000000  0.00000000  1
  Te  Te2  1  0.50000000  0.29052901  0.87373303  1
  Co  Co3  1  0.50000000  0.70947102  0.12626700  1
  Te  Te4  1  -0.00000000  0.20947101  0.37373301  1
  Te  Te5  1  0.00000000  0.79052902  0.62626702  1
