# generated using pymatgen
data_LiNiO2
_symmetry_space_group_name_H-M   'P 1'
_cell_length_a   4.96749592
_cell_length_b   5.06098795
_cell_length_c   5.84107924
_cell_angle_alpha   90.00000000
_cell_angle_beta   90.00000000
_cell_angle_gamma   109.10688019
_symmetry_Int_Tables_number   1
_chemical_formula_structural   LiNiO2
_chemical_formula_sum   'Li4 Ni4 O8'
_cell_volume   138.75741059
_cell_formula_units_Z   4
loop_
 _symmetry_equiv_pos_site_id
 _symmetry_equiv_pos_as_xyz
  1  'x, y, z'
loop_
 _atom_site_type_symbol
 _atom_site_label
 _atom_site_symmetry_multiplicity
 _atom_site_fract_x
 _atom_site_fract_y
 _atom_site_fract_z
 _atom_site_occupancy
  Li  Li0  1  0.00000001  0.49999998  0.49999998  1
  Li  Li1  1  0.50000001  0.49999998  0.25767599  1
  Li  Li2  1  0.00000001  0.49999998  -0.00000000  1
  Li  Li3  1  0.50000001  0.49999998  0.74232397  1
  Ni  Ni4  1  0.50000001  0.00000000  0.49999998  1
  Ni  Ni5  1  0.00000000  0.00000000  0.74467897  1
  Ni  Ni6  1  0.00000001  0.99999997  0.25532099  1
  Ni  Ni7  1  0.50000001  0.00000000  0.00000000  1
  O  O8  1  0.74545701  0.21932899  0.77098297  1
  O  O9  1  0.22211601  0.24005399  0.49999998  1
  O  O10  1  0.74545701  0.21932899  0.22901699  1
  O  O11  1  0.25482301  0.22471699  -0.00000000  1
  O  O12  1  0.25454301  0.78067097  0.22901699  1
  O  O13  1  0.74517702  0.77528297  0.99999996  1
  O  O14  1  0.25454301  0.78067097  0.77098297  1
  O  O15  1  0.77788402  0.75994597  0.49999998  1
