# generated using pymatgen
data_MnNi3
_symmetry_space_group_name_H-M   'P 1'
_cell_length_a   3.54200792
_cell_length_b   3.54200792
_cell_length_c   7.04930115
_cell_angle_alpha   90.00000000
_cell_angle_beta   90.00000000
_cell_angle_gamma   90.00000000
_symmetry_Int_Tables_number   1
_chemical_formula_structural   MnNi3
_chemical_formula_sum   'Mn2 Ni6'
_cell_volume   88.43926422
_cell_formula_units_Z   2
loop_
 _symmetry_equiv_pos_site_id
 _symmetry_equiv_pos_as_xyz
  1  'x, y, z'
loop_
 _atom_site_type_symbol
 _atom_site_label
 _atom_site_symmetry_multiplicity
 _atom_site_fract_x
 _atom_site_fract_y
 _atom_site_fract_z
 _atom_site_occupancy
  Mn  Mn0  1  0.00000000  0.00000000  0.49999999  1
  Mn  Mn1  1  0.50000001  0.50000001  -0.00000000  1
  Ni  Ni2  1  0.50000001  0.50000001  0.49999999  1
  Ni  Ni3  1  0.50000001  0.00000000  0.25728799  1
  Ni  Ni4  1  0.50000001  0.00000000  0.74271198  1
  Ni  Ni5  1  -0.00000000  0.50000001  0.25728799  1
  Ni  Ni6  1  -0.00000000  0.50000001  0.74271198  1
  Ni  Ni7  1  0.00000000  0.00000000  0.00000000  1
