# generated using pymatgen
data_Li6MnCoO8
_symmetry_space_group_name_H-M   'P 1'
_cell_length_a   5.14794636
_cell_length_b   5.95672607
_cell_length_c   5.95672607
_cell_angle_alpha   60.50357056
_cell_angle_beta   73.67354584
_cell_angle_gamma   73.67354584
_symmetry_Int_Tables_number   1
_chemical_formula_structural   Li6MnCoO8
_chemical_formula_sum   'Li6 Mn1 Co1 O8'
_cell_volume   150.33282731
_cell_formula_units_Z   1
loop_
 _symmetry_equiv_pos_site_id
 _symmetry_equiv_pos_as_xyz
  1  'x, y, z'
loop_
 _atom_site_type_symbol
 _atom_site_label
 _atom_site_symmetry_multiplicity
 _atom_site_fract_x
 _atom_site_fract_y
 _atom_site_fract_z
 _atom_site_occupancy
  Li  Li0  1  0.24659700  0.62643601  0.87645499  1
  Li  Li1  1  0.25340300  0.12354500  0.37356400  1
  Li  Li2  1  0.74659700  0.87645502  0.62643598  1
  Li  Li3  1  0.75340300  0.37356401  0.12354499  1
  Li  Li4  1  0.25000000  0.62414801  0.37585199  1
  Li  Li5  1  0.75000000  0.37585201  0.62414799  1
  Co  Co6  1  0.25000000  0.12313600  0.87686401  1
  Mn  Mn7  1  0.75000000  0.87686402  0.12313598  1
  O  O8  1  0.48925700  0.26004401  0.51337000  1
  O  O9  1  0.49245800  0.76430402  0.00861698  1
  O  O10  1  0.99245800  0.00861700  0.76430400  1
  O  O11  1  0.51074300  0.73995602  0.48662999  1
  O  O12  1  0.50754200  0.23569601  0.99138300  1
  O  O13  1  0.01074300  0.48663001  0.73995600  1
  O  O14  1  0.98925700  0.51337001  0.26004399  1
  O  O15  1  0.00754200  0.99138302  0.23569598  1
