# generated using pymatgen
data_Sm2CdPd2
_symmetry_space_group_name_H-M   'P 1'
_cell_length_a   3.94206309
_cell_length_b   7.76949787
_cell_length_c   7.76949787
_cell_angle_alpha   90.00000000
_cell_angle_beta   90.00000000
_cell_angle_gamma   90.00000000
_symmetry_Int_Tables_number   1
_chemical_formula_structural   Sm2CdPd2
_chemical_formula_sum   'Sm4 Cd2 Pd4'
_cell_volume   237.96302168
_cell_formula_units_Z   2
loop_
 _symmetry_equiv_pos_site_id
 _symmetry_equiv_pos_as_xyz
  1  'x, y, z'
loop_
 _atom_site_type_symbol
 _atom_site_label
 _atom_site_symmetry_multiplicity
 _atom_site_fract_x
 _atom_site_fract_y
 _atom_site_fract_z
 _atom_site_occupancy
  Sm  Sm0  1  0.49999999  0.83564101  0.66435901  1
  Sm  Sm1  1  0.49999999  0.33564101  0.83564101  1
  Sm  Sm2  1  0.49999999  0.16435900  0.33564101  1
  Sm  Sm3  1  0.49999999  0.66435901  0.16435900  1
  Cd  Cd4  1  0.00000000  0.50000001  0.50000001  1
  Cd  Cd5  1  0.00000000  0.00000000  0.00000000  1
  Pd  Pd6  1  0.00000000  0.13332800  0.63332801  1
  Pd  Pd7  1  0.00000000  0.63332801  0.86667201  1
  Pd  Pd8  1  0.00000000  0.36667201  0.13332800  1
  Pd  Pd9  1  0.00000000  0.86667201  0.36667201  1
