# generated using pymatgen
data_BaSrCa6CdO5
_symmetry_space_group_name_H-M   'P 1'
_cell_length_a   3.55955911
_cell_length_b   7.94598293
_cell_length_c   11.34091282
_cell_angle_alpha   109.53234863
_cell_angle_beta   90.00000000
_cell_angle_gamma   90.00000000
_symmetry_Int_Tables_number   1
_chemical_formula_structural   BaSrCa6CdO5
_chemical_formula_sum   'Ba1 Sr1 Ca6 Cd1 O5'
_cell_volume   302.30928985
_cell_formula_units_Z   1
loop_
 _symmetry_equiv_pos_site_id
 _symmetry_equiv_pos_as_xyz
  1  'x, y, z'
loop_
 _atom_site_type_symbol
 _atom_site_label
 _atom_site_symmetry_multiplicity
 _atom_site_fract_x
 _atom_site_fract_y
 _atom_site_fract_z
 _atom_site_occupancy
  Ba  Ba0  1  0.74999998  0.43100101  0.60762701  1
  Sr  Sr1  1  0.24999999  0.56899902  0.39237302  1
  Ca  Ca2  1  0.24999999  0.08399700  0.37551900  1
  Ca  Ca3  1  0.74999998  0.91600302  0.62448103  1
  Ca  Ca4  1  0.24999999  0.30498601  0.83947800  1
  Ca  Ca5  1  0.74999998  0.69501402  0.16052203  1
  Ca  Ca6  1  0.24999999  0.76517602  0.86313602  1
  Ca  Ca7  1  0.74999998  0.23482401  0.13686401  1
  O  O8  1  0.24999999  0.23845001  0.60023900  1
  Cd  Cd9  1  0.74999998  0.76155002  0.39976103  1
  O  O10  1  0.24999999  0.47500101  0.18097202  1
  O  O11  1  0.74999998  0.52499901  0.81902801  1
  O  O12  1  0.24999999  0.63807302  0.60760502  1
  O  O13  1  0.74999998  0.36192701  0.39239501  1
