# generated using pymatgen
data_EuAl3Pd4
_symmetry_space_group_name_H-M   'P 1'
_cell_length_a   4.29923296
_cell_length_b   4.29923296
_cell_length_c   9.62169361
_cell_angle_alpha   90.00000000
_cell_angle_beta   90.00000000
_cell_angle_gamma   90.00000000
_symmetry_Int_Tables_number   1
_chemical_formula_structural   EuAl3Pd4
_chemical_formula_sum   'Eu1 Al3 Pd4'
_cell_volume   177.84165058
_cell_formula_units_Z   1
loop_
 _symmetry_equiv_pos_site_id
 _symmetry_equiv_pos_as_xyz
  1  'x, y, z'
loop_
 _atom_site_type_symbol
 _atom_site_label
 _atom_site_symmetry_multiplicity
 _atom_site_fract_x
 _atom_site_fract_y
 _atom_site_fract_z
 _atom_site_occupancy
  Eu  Eu0  1  -0.00000000  0.50000000  0.83548703  1
  Al  Al1  1  0.50000000  0.00000000  0.16451301  1
  Al  Al2  1  0.50000000  0.50000000  0.50000002  1
  Al  Al3  1  0.00000000  0.00000000  0.50000002  1
  Pd  Pd4  1  -0.00000000  0.50000000  0.34338901  1
  Pd  Pd5  1  0.50000000  0.00000000  0.65661103  1
  Pd  Pd6  1  0.50000000  0.50000000  -0.00000000  1
  Pd  Pd7  1  0.00000000  0.00000000  0.00000000  1
