# generated using pymatgen
data_NaLi(CuO4)2
_symmetry_space_group_name_H-M   'P 1'
_cell_length_a   5.31085205
_cell_length_b   5.31085205
_cell_length_c   6.85577679
_cell_angle_alpha   112.78826904
_cell_angle_beta   112.78826904
_cell_angle_gamma   90.00000000
_symmetry_Int_Tables_number   1
_chemical_formula_structural   NaLi(CuO4)2
_chemical_formula_sum   'Na1 Li1 Cu2 O8'
_cell_volume   161.77834899
_cell_formula_units_Z   1
loop_
 _symmetry_equiv_pos_site_id
 _symmetry_equiv_pos_as_xyz
  1  'x, y, z'
loop_
 _atom_site_type_symbol
 _atom_site_label
 _atom_site_symmetry_multiplicity
 _atom_site_fract_x
 _atom_site_fract_y
 _atom_site_fract_z
 _atom_site_occupancy
  Na  Na0  1  0.75000003  0.25000001  0.50000007  1
  Li  Li1  1  0.50000004  0.50000001  1.00000009  1
  Cu  Cu2  1  0.25000005  0.75000002  0.50000008  1
  Cu  Cu3  1  0.00000000  0.00000000  0.00000000  1
  O  O4  1  0.40543306  0.80912202  0.32563809  1
  O  O5  1  0.92020605  0.51651701  0.32563909  1
  O  O6  1  0.06911404  0.66758502  0.83277607  1
  O  O7  1  0.76366202  0.16519100  0.83277607  1
  O  O8  1  0.83480907  0.93088602  0.16722411  1
  O  O9  1  0.33241502  0.23633801  0.16722404  1
  O  O10  1  0.19087801  0.07979400  0.67436103  1
  O  O11  1  0.48348404  0.59456802  0.67436209  1
