# generated using pymatgen
data_SrCaTiCoO6
_symmetry_space_group_name_H-M   'P 1'
_cell_length_a   5.60984278
_cell_length_b   5.77462006
_cell_length_c   8.07235050
_cell_angle_alpha   90.00128174
_cell_angle_beta   90.72029877
_cell_angle_gamma   89.99994659
_symmetry_Int_Tables_number   1
_chemical_formula_structural   SrCaTiCoO6
_chemical_formula_sum   'Sr2 Ca2 Ti2 Co2 O12'
_cell_volume   261.48079422
_cell_formula_units_Z   2
loop_
 _symmetry_equiv_pos_site_id
 _symmetry_equiv_pos_as_xyz
  1  'x, y, z'
loop_
 _atom_site_type_symbol
 _atom_site_label
 _atom_site_symmetry_multiplicity
 _atom_site_fract_x
 _atom_site_fract_y
 _atom_site_fract_z
 _atom_site_occupancy
  Sr  Sr0  1  0.51130803  0.44462200  0.74552097  1
  Sr  Sr1  1  0.01130500  0.05539500  0.24553099  1
  Ca  Ca2  1  0.99087706  0.94712899  0.75639396  1
  Ca  Ca3  1  0.49086203  0.55286499  0.25639399  1
  Ti  Ti4  1  0.99967605  0.49761900  0.00012797  1
  Ti  Ti5  1  0.49966901  0.00233700  0.50013596  1
  Co  Co6  1  0.49942101  0.00207200  0.00107498  1
  Co  Co7  1  0.99941305  0.49791200  0.50106696  1
  O  O8  1  0.90150004  0.46014200  0.25712297  1
  O  O9  1  0.40154401  0.03985900  0.75713796  1
  O  O10  1  0.82070803  0.21834300  0.55221695  1
  O  O11  1  0.32067302  0.28165100  0.05225499  1
  O  O12  1  0.79391903  0.19273100  0.94872794  1
  O  O13  1  0.29391502  0.30726000  0.44871698  1
  O  O14  1  0.70375404  0.69015499  0.55155997  1
  O  O15  1  0.20374503  0.80986099  0.05154302  1
  O  O16  1  0.67543204  0.72017299  0.94516996  1
  O  O17  1  0.17539203  0.77985199  0.44519900  1
  O  O18  1  0.60343505  0.96448999  0.24205500  1
  O  O19  1  0.10345102  0.53553299  0.74205199  1
