# generated using pymatgen
data_Ti2Cu2O5
_symmetry_space_group_name_H-M   'P 1'
_cell_length_a   3.07522798
_cell_length_b   4.81254196
_cell_length_c   14.26241779
_cell_angle_alpha   93.96598816
_cell_angle_beta   90.00000000
_cell_angle_gamma   90.00000000
_symmetry_Int_Tables_number   1
_chemical_formula_structural   Ti2Cu2O5
_chemical_formula_sum   'Ti4 Cu4 O10'
_cell_volume   210.57351215
_cell_formula_units_Z   2
loop_
 _symmetry_equiv_pos_site_id
 _symmetry_equiv_pos_as_xyz
  1  'x, y, z'
loop_
 _atom_site_type_symbol
 _atom_site_label
 _atom_site_symmetry_multiplicity
 _atom_site_fract_x
 _atom_site_fract_y
 _atom_site_fract_z
 _atom_site_occupancy
  Ti  Ti0  1  1.00000001  0.90700801  0.83525298  1
  Ti  Ti1  1  0.00000000  0.09299200  0.16474700  1
  Ti  Ti2  1  0.00000000  0.00000000  0.49999999  1
  Ti  Ti3  1  0.50000000  0.50000000  -0.00000000  1
  Cu  Cu4  1  0.50000000  0.54506300  0.33342799  1
  Cu  Cu5  1  0.50000000  0.45493700  0.66657198  1
  Cu  Cu6  1  0.50000000  0.24821300  0.10328100  1
  Cu  Cu7  1  0.00000000  0.27959800  0.60055599  1
  O  O8  1  0.00000000  0.36319300  0.26765299  1
  O  O9  1  0.00000000  0.72040201  0.39944399  1
  O  O10  1  -0.00000000  0.63680700  0.73234698  1
  O  O11  1  0.50000000  0.75178701  0.89671898  1
  O  O12  1  0.50000000  0.19932300  0.43598099  1
  O  O13  1  0.50000000  0.12123600  0.77529798  1
  O  O14  1  1.00000001  0.25813200  0.93591198  1
  O  O15  1  0.00000000  0.74186801  0.06408800  1
  O  O16  1  0.50000000  0.87876401  0.22470199  1
  O  O17  1  0.50000000  0.80067701  0.56401899  1
