# generated using pymatgen
data_Na2TlCd2
_symmetry_space_group_name_H-M   'P 1'
_cell_length_a   4.33602810
_cell_length_b   4.33602762
_cell_length_c   11.06038380
_cell_angle_alpha   90.00000000
_cell_angle_beta   90.00000000
_cell_angle_gamma   120.00000000
_symmetry_Int_Tables_number   1
_chemical_formula_structural   Na2TlCd2
_chemical_formula_sum   'Na2 Tl1 Cd2'
_cell_volume   180.08807552
_cell_formula_units_Z   1
loop_
 _symmetry_equiv_pos_site_id
 _symmetry_equiv_pos_as_xyz
  1  'x, y, z'
loop_
 _atom_site_type_symbol
 _atom_site_label
 _atom_site_symmetry_multiplicity
 _atom_site_fract_x
 _atom_site_fract_y
 _atom_site_fract_z
 _atom_site_occupancy
  Na  Na0  1  0.66666663  0.33333333  0.14606400  1
  Na  Na1  1  0.33333329  0.66666665  0.85393602  1
  Cd  Cd2  1  0.00000000  0.00000000  0.00000000  1
  Cd  Cd3  1  0.33333329  0.66666665  0.33940801  1
  Tl  Tl4  1  0.66666663  0.33333333  0.66059201  1
