# generated using pymatgen
data_EuScS3
_symmetry_space_group_name_H-M   'P 1'
_cell_length_a   6.36500216
_cell_length_b   7.00207806
_cell_length_c   9.55935478
_cell_angle_alpha   90.00000000
_cell_angle_beta   90.00000000
_cell_angle_gamma   90.00000000
_symmetry_Int_Tables_number   1
_chemical_formula_structural   EuScS3
_chemical_formula_sum   'Eu4 Sc4 S12'
_cell_volume   426.04363653
_cell_formula_units_Z   4
loop_
 _symmetry_equiv_pos_site_id
 _symmetry_equiv_pos_as_xyz
  1  'x, y, z'
loop_
 _atom_site_type_symbol
 _atom_site_label
 _atom_site_symmetry_multiplicity
 _atom_site_fract_x
 _atom_site_fract_y
 _atom_site_fract_z
 _atom_site_occupancy
  Eu  Eu0  1  0.04194400  0.60417100  0.25000001  1
  Eu  Eu1  1  0.45805599  0.10417100  0.25000001  1
  Eu  Eu2  1  0.95805598  0.39582900  0.75000002  1
  Eu  Eu3  1  0.54194399  0.89582899  0.75000002  1
  Sc  Sc4  1  0.49999999  0.50000000  0.50000001  1
  Sc  Sc5  1  0.49999999  0.50000000  0.00000000  1
  Sc  Sc6  1  0.00000000  0.00000000  0.50000001  1
  Sc  Sc7  1  0.00000000  0.00000000  0.00000000  1
  S  S8  1  0.17344500  0.31737900  0.07081400  1
  S  S9  1  0.32655499  0.81737899  0.07081400  1
  S  S10  1  0.67344498  0.18262100  0.57081401  1
  S  S11  1  0.82655498  0.68262099  0.92918602  1
  S  S12  1  0.64462798  0.45349200  0.25000001  1
  S  S13  1  0.35537199  0.54650800  0.75000002  1
  S  S14  1  0.82655498  0.68262099  0.57081401  1
  S  S15  1  0.17344500  0.31737900  0.42918601  1
  S  S16  1  0.32655499  0.81737899  0.42918601  1
  S  S17  1  0.67344498  0.18262100  0.92918602  1
  S  S18  1  0.14462800  0.04650800  0.75000002  1
  S  S19  1  0.85537198  0.95349199  0.25000001  1
