# generated using pymatgen
data_LiTi2O5
_symmetry_space_group_name_H-M   'P 1'
_cell_length_a   3.99129009
_cell_length_b   5.27431679
_cell_length_c   9.89138985
_cell_angle_alpha   90.00000000
_cell_angle_beta   90.00000000
_cell_angle_gamma   112.23277283
_symmetry_Int_Tables_number   1
_chemical_formula_structural   LiTi2O5
_chemical_formula_sum   'Li2 Ti4 O10'
_cell_volume   192.74612335
_cell_formula_units_Z   2
loop_
 _symmetry_equiv_pos_site_id
 _symmetry_equiv_pos_as_xyz
  1  'x, y, z'
loop_
 _atom_site_type_symbol
 _atom_site_label
 _atom_site_symmetry_multiplicity
 _atom_site_fract_x
 _atom_site_fract_y
 _atom_site_fract_z
 _atom_site_occupancy
  Li  Li0  1  0.20354998  0.40709999  0.75000001  1
  Li  Li1  1  0.79644996  0.59289999  0.25000000  1
  Ti  Ti2  1  0.13826099  0.27652200  0.44414201  1
  Ti  Ti3  1  0.13826099  0.27652200  0.05585800  1
  Ti  Ti4  1  0.86173896  0.72347799  0.94414201  1
  Ti  Ti5  1  0.86173896  0.72347799  0.55585801  1
  O  O6  1  0.04783900  0.09567800  0.88491901  1
  O  O7  1  0.04783900  0.09567800  0.61508101  1
  O  O8  1  0.31249397  0.62498799  0.55429501  1
  O  O9  1  0.31249397  0.62498799  0.94570501  1
  O  O10  1  0.78060297  0.56120599  0.75000001  1
  O  O11  1  0.95216095  0.90432199  0.38491901  1
  O  O12  1  0.68750597  0.37501199  0.44570501  1
  O  O13  1  0.21939698  0.43879399  0.25000000  1
  O  O14  1  0.95216095  0.90432199  0.11508100  1
  O  O15  1  0.68750597  0.37501199  0.05429500  1
