# generated using pymatgen
data_Tm2HfScRe3C10
_symmetry_space_group_name_H-M   'P 1'
_cell_length_a   3.67037892
_cell_length_b   3.67037892
_cell_length_c   14.04846096
_cell_angle_alpha   90.00000000
_cell_angle_beta   90.00000000
_cell_angle_gamma   90.00000000
_symmetry_Int_Tables_number   1
_chemical_formula_structural   Tm2HfScRe3C10
_chemical_formula_sum   'Tm2 Hf1 Sc1 Re3 C10'
_cell_volume   189.25639080
_cell_formula_units_Z   1
loop_
 _symmetry_equiv_pos_site_id
 _symmetry_equiv_pos_as_xyz
  1  'x, y, z'
loop_
 _atom_site_type_symbol
 _atom_site_label
 _atom_site_symmetry_multiplicity
 _atom_site_fract_x
 _atom_site_fract_y
 _atom_site_fract_z
 _atom_site_occupancy
  Hf  Hf0  1  0.00000000  0.00000000  0.86160900  1
  Tm  Tm1  1  0.00000000  0.00000000  0.13839100  1
  Tm  Tm2  1  0.00000000  0.00000000  0.37827800  1
  Sc  Sc3  1  0.00000000  0.00000000  0.62172200  1
  C  C4  1  0.50000001  0.50000001  0.86842100  1
  Re  Re5  1  0.50000001  0.50000001  0.13157900  1
  Re  Re6  1  0.50000001  0.50000001  0.37517400  1
  Re  Re7  1  0.50000001  0.50000001  0.62482600  1
  C  C8  1  0.50000001  0.00000000  0.00000000  1
  C  C9  1  0.50000001  0.00000000  0.25477900  1
  C  C10  1  0.50000001  0.00000000  0.50000000  1
  C  C11  1  0.50000001  0.00000000  0.74522100  1
  C  C12  1  0.00000000  0.50000001  0.00000000  1
  C  C13  1  0.00000000  0.50000001  0.25477900  1
  C  C14  1  0.00000000  0.50000001  0.50000000  1
  C  C15  1  0.00000000  0.50000001  0.74522100  1
  C  C16  1  0.50000001  0.50000001  0.00000000  1
