# generated using pymatgen
data_Ca2CoO4
_symmetry_space_group_name_H-M   'P 1'
_cell_length_a   5.34684801
_cell_length_b   5.37525606
_cell_length_c   6.62114859
_cell_angle_alpha   90.00000000
_cell_angle_beta   113.81410217
_cell_angle_gamma   90.00000000
_symmetry_Int_Tables_number   1
_chemical_formula_structural   Ca2CoO4
_chemical_formula_sum   'Ca4 Co2 O8'
_cell_volume   174.09452770
_cell_formula_units_Z   2
loop_
 _symmetry_equiv_pos_site_id
 _symmetry_equiv_pos_as_xyz
  1  'x, y, z'
loop_
 _atom_site_type_symbol
 _atom_site_label
 _atom_site_symmetry_multiplicity
 _atom_site_fract_x
 _atom_site_fract_y
 _atom_site_fract_z
 _atom_site_occupancy
  Ca  Ca0  1  0.60439601  0.25000000  0.20879202  1
  Ca  Ca1  1  0.39560401  0.74999999  0.79120799  1
  Ca  Ca2  1  0.11566500  0.74999999  0.23133000  1
  Ca  Ca3  1  0.88433502  0.25000000  0.76867001  1
  Co  Co4  1  0.24916800  0.25000000  0.49833599  1
  Co  Co5  1  0.75083201  0.74999999  0.50166401  1
  O  O6  1  0.92651102  0.74999999  0.85302201  1
  O  O7  1  0.40718201  0.25000000  0.81436399  1
  O  O8  1  0.07348900  0.25000000  0.14697800  1
  O  O9  1  0.59281801  0.74999999  0.18563602  1
  O  O10  1  -0.00000000  0.49999999  0.49999998  1
  O  O11  1  0.50000001  0.00000000  0.50000000  1
  O  O12  1  0.50000001  0.49999999  0.50000000  1
  O  O13  1  0.00000000  0.00000000  0.49999998  1
