# generated using pymatgen
data_KIn2Ge3
_symmetry_space_group_name_H-M   'P 1'
_cell_length_a   4.58381319
_cell_length_b   5.98959208
_cell_length_c   5.98959112
_cell_angle_alpha   120.00000763
_cell_angle_beta   90.00000000
_cell_angle_gamma   90.00000000
_symmetry_Int_Tables_number   1
_chemical_formula_structural   KIn2Ge3
_chemical_formula_sum   'K1 In2 Ge3'
_cell_volume   142.41375259
_cell_formula_units_Z   1
loop_
 _symmetry_equiv_pos_site_id
 _symmetry_equiv_pos_as_xyz
  1  'x, y, z'
loop_
 _atom_site_type_symbol
 _atom_site_label
 _atom_site_symmetry_multiplicity
 _atom_site_fract_x
 _atom_site_fract_y
 _atom_site_fract_z
 _atom_site_occupancy
  K  K0  1  0.00000000  0.00000000  0.00000000  1
  In  In1  1  -0.00000000  0.66666668  0.33333339  1
  Ge  Ge2  1  0.99999996  0.33333334  0.66666671  1
  In  In3  1  0.49999998  0.50000001  0.50000005  1
  Ge  Ge4  1  0.49999998  0.50000001  0.00000004  1
  Ge  Ge5  1  0.49999998  0.00000000  0.50000001  1
