# generated using pymatgen
data_Sr4Ag3GePd4
_symmetry_space_group_name_H-M   'P 1'
_cell_length_a   6.85133696
_cell_length_b   6.85133696
_cell_length_c   6.85133696
_cell_angle_alpha   90.00000000
_cell_angle_beta   90.00000000
_cell_angle_gamma   90.00000000
_symmetry_Int_Tables_number   1
_chemical_formula_structural   Sr4Ag3GePd4
_chemical_formula_sum   'Sr4 Ag3 Ge1 Pd4'
_cell_volume   321.60736169
_cell_formula_units_Z   1
loop_
 _symmetry_equiv_pos_site_id
 _symmetry_equiv_pos_as_xyz
  1  'x, y, z'
loop_
 _atom_site_type_symbol
 _atom_site_label
 _atom_site_symmetry_multiplicity
 _atom_site_fract_x
 _atom_site_fract_y
 _atom_site_fract_z
 _atom_site_occupancy
  Sr  Sr0  1  0.13590200  0.13590200  0.13590200  1
  Sr  Sr1  1  0.63590200  0.36409800  0.86409801  1
  Sr  Sr2  1  0.36409800  0.86409801  0.63590200  1
  Sr  Sr3  1  0.86409801  0.63590200  0.36409800  1
  Ag  Ag4  1  0.34219300  0.65780700  0.15780700  1
  Ag  Ag5  1  0.15780700  0.34219300  0.65780700  1
  Ag  Ag6  1  0.65780700  0.15780700  0.34219300  1
  Ge  Ge7  1  0.84219301  0.84219301  0.84219301  1
  Pd  Pd8  1  0.40998100  0.40998100  0.40998100  1
  Pd  Pd9  1  0.09001900  0.59001900  0.90998101  1
  Pd  Pd10  1  0.90998101  0.09001900  0.59001900  1
  Pd  Pd11  1  0.59001900  0.90998101  0.09001900  1
