# generated using pymatgen
data_KF
_symmetry_space_group_name_H-M   'P 1'
_cell_length_a   7.75643921
_cell_length_b   7.75643921
_cell_length_c   7.75643921
_cell_angle_alpha   90.00000000
_cell_angle_beta   90.00000000
_cell_angle_gamma   90.00000000
_symmetry_Int_Tables_number   1
_chemical_formula_structural   KF
_chemical_formula_sum   'K8 F8'
_cell_volume   466.64560426
_cell_formula_units_Z   8
loop_
 _symmetry_equiv_pos_site_id
 _symmetry_equiv_pos_as_xyz
  1  'x, y, z'
loop_
 _atom_site_type_symbol
 _atom_site_label
 _atom_site_symmetry_multiplicity
 _atom_site_fract_x
 _atom_site_fract_y
 _atom_site_fract_z
 _atom_site_occupancy
  K  K0  1  0.00000000  0.00000000  0.00000000  1
  K  K1  1  0.00000000  0.00000000  0.49999999  1
  K  K2  1  0.49999999  0.49999999  0.00000000  1
  K  K3  1  0.49999999  0.00000000  0.49999999  1
  K  K4  1  0.00000000  0.49999999  0.00000000  1
  K  K5  1  0.00000000  0.49999999  0.49999999  1
  K  K6  1  0.49999999  0.00000000  0.00000000  1
  K  K7  1  0.49999999  0.49999999  0.49999999  1
  F  F8  1  0.33839499  0.33839499  0.66160498  1
  F  F9  1  0.82976998  0.82976998  0.17023000  1
  F  F10  1  0.33839499  0.66160498  0.33839499  1
  F  F11  1  0.82976998  0.17023000  0.82976998  1
  F  F12  1  0.17023000  0.82976998  0.82976998  1
  F  F13  1  0.66160498  0.33839499  0.33839499  1
  F  F14  1  0.66160498  0.66160498  0.66160498  1
  F  F15  1  0.17023000  0.17023000  0.17023000  1
