# generated using pymatgen
data_Eu4Bi3
_symmetry_space_group_name_H-M   'P 1'
_cell_length_a   8.71708107
_cell_length_b   8.71708107
_cell_length_c   8.71708107
_cell_angle_alpha   109.47122192
_cell_angle_beta   109.47122192
_cell_angle_gamma   109.47122192
_symmetry_Int_Tables_number   1
_chemical_formula_structural   Eu4Bi3
_chemical_formula_sum   'Eu8 Bi6'
_cell_volume   509.90743384
_cell_formula_units_Z   2
loop_
 _symmetry_equiv_pos_site_id
 _symmetry_equiv_pos_as_xyz
  1  'x, y, z'
loop_
 _atom_site_type_symbol
 _atom_site_label
 _atom_site_symmetry_multiplicity
 _atom_site_fract_x
 _atom_site_fract_y
 _atom_site_fract_z
 _atom_site_occupancy
  Eu  Eu0  1  0.63605006  1.00000002  1.00000005  1
  Eu  Eu1  1  1.00000002  0.50000001  0.13605005  1
  Eu  Eu2  1  0.50000003  0.63605001  0.50000004  1
  Eu  Eu3  1  0.13605000  0.00000000  0.99999998  1
  Eu  Eu4  1  0.86395004  0.86395002  0.36395006  1
  Eu  Eu5  1  0.00000003  0.50000001  0.63605001  1
  Eu  Eu6  1  0.36395002  0.36395001  0.86395001  1
  Eu  Eu7  1  0.50000000  0.13605000  0.50000001  1
  Bi  Bi8  1  0.75000003  0.62500001  0.87500003  1
  Bi  Bi9  1  0.25000005  0.87500002  0.62500004  1
  Bi  Bi10  1  0.87500000  0.12500000  0.75000001  1
  Bi  Bi11  1  0.62500002  0.37500001  0.25000003  1
  Bi  Bi12  1  0.12500001  0.25000000  0.37500001  1
  Bi  Bi13  1  0.37500004  0.75000001  0.12500005  1
