# generated using pymatgen
data_Eu4Ge2Ir5Os
_symmetry_space_group_name_H-M   'P 1'
_cell_length_a   6.69206285
_cell_length_b   6.69206285
_cell_length_c   6.69206285
_cell_angle_alpha   90.00000000
_cell_angle_beta   90.00000000
_cell_angle_gamma   90.00000000
_symmetry_Int_Tables_number   1
_chemical_formula_structural   Eu4Ge2Ir5Os
_chemical_formula_sum   'Eu4 Ge2 Ir5 Os1'
_cell_volume   299.69537042
_cell_formula_units_Z   1
loop_
 _symmetry_equiv_pos_site_id
 _symmetry_equiv_pos_as_xyz
  1  'x, y, z'
loop_
 _atom_site_type_symbol
 _atom_site_label
 _atom_site_symmetry_multiplicity
 _atom_site_fract_x
 _atom_site_fract_y
 _atom_site_fract_z
 _atom_site_occupancy
  Eu  Eu0  1  0.13584100  0.13584100  0.13584100  1
  Eu  Eu1  1  0.36415901  0.86415902  0.63584101  1
  Eu  Eu2  1  0.63584101  0.36415901  0.86415902  1
  Eu  Eu3  1  0.86415902  0.63584101  0.36415901  1
  Ir  Ir4  1  0.16547800  0.33452201  0.66547801  1
  Os  Os5  1  0.33452201  0.66547801  0.16547800  1
  Ir  Ir6  1  0.66547801  0.16547800  0.33452201  1
  Ge  Ge7  1  0.83452202  0.83452202  0.83452202  1
  Ir  Ir8  1  0.58260501  0.91739502  0.08260500  1
  Ir  Ir9  1  0.91739502  0.08260500  0.58260501  1
  Ir  Ir10  1  0.08260500  0.58260501  0.91739502  1
  Ge  Ge11  1  0.41739501  0.41739501  0.41739501  1
