# generated using pymatgen
data_EuGe3Ru
_symmetry_space_group_name_H-M   'P 1'
_cell_length_a   4.46780205
_cell_length_b   4.46780205
_cell_length_c   6.07117128
_cell_angle_alpha   111.58937836
_cell_angle_beta   111.58937836
_cell_angle_gamma   90.00000000
_symmetry_Int_Tables_number   1
_chemical_formula_structural   EuGe3Ru
_chemical_formula_sum   'Eu1 Ge3 Ru1'
_cell_volume   103.48807933
_cell_formula_units_Z   1
loop_
 _symmetry_equiv_pos_site_id
 _symmetry_equiv_pos_as_xyz
  1  'x, y, z'
loop_
 _atom_site_type_symbol
 _atom_site_label
 _atom_site_symmetry_multiplicity
 _atom_site_fract_x
 _atom_site_fract_y
 _atom_site_fract_z
 _atom_site_occupancy
  Eu  Eu0  1  0.99960890  0.99960895  0.99921784  1
  Ge  Ge1  1  0.25811195  0.75811197  0.51622392  1
  Ge  Ge2  1  0.75811196  0.25811199  0.51622392  1
  Ge  Ge3  1  0.40920096  0.40920098  0.81840192  1
  Ru  Ru4  1  0.64796694  0.64796697  0.29593391  1
