# generated using pymatgen
data_HgPb2
_symmetry_space_group_name_H-M   'P 1'
_cell_length_a   4.46165180
_cell_length_b   4.85157728
_cell_length_c   4.46165180
_cell_angle_alpha   117.37514496
_cell_angle_beta   90.00000000
_cell_angle_gamma   117.37514496
_symmetry_Int_Tables_number   1
_chemical_formula_structural   HgPb2
_chemical_formula_sum   'Hg1 Pb2'
_cell_volume   73.36945399
_cell_formula_units_Z   1
loop_
 _symmetry_equiv_pos_site_id
 _symmetry_equiv_pos_as_xyz
  1  'x, y, z'
loop_
 _atom_site_type_symbol
 _atom_site_label
 _atom_site_symmetry_multiplicity
 _atom_site_fract_x
 _atom_site_fract_y
 _atom_site_fract_z
 _atom_site_occupancy
  Pb  Pb0  1  0.00000000  0.00000000  0.00000000  1
  Hg  Hg1  1  0.40836408  0.81672809  0.40836408  1
  Pb  Pb2  1  0.59163604  0.18327202  0.59163604  1
