# generated using pymatgen
data_Ag2P5O
_symmetry_space_group_name_H-M   'P 1'
_cell_length_a   7.28575468
_cell_length_b   7.28575468
_cell_length_c   7.30181980
_cell_angle_alpha   92.73876953
_cell_angle_beta   118.61469269
_cell_angle_gamma   118.17324829
_symmetry_Int_Tables_number   1
_chemical_formula_structural   Ag2P5O
_chemical_formula_sum   'Ag2 P5 O1'
_cell_volume   280.52779873
_cell_formula_units_Z   1
loop_
 _symmetry_equiv_pos_site_id
 _symmetry_equiv_pos_as_xyz
  1  'x, y, z'
loop_
 _atom_site_type_symbol
 _atom_site_label
 _atom_site_symmetry_multiplicity
 _atom_site_fract_x
 _atom_site_fract_y
 _atom_site_fract_z
 _atom_site_occupancy
  Ag  Ag0  1  0.42905395  0.65525100  0.08430495  1
  Ag  Ag1  1  0.57094598  0.34474900  0.91569497  1
  P  P2  1  0.72125295  0.72125300  0.99999995  1
  P  P3  1  0.27874698  0.27874700  -0.00000003  1
  P  P4  1  0.85434798  0.31056400  0.16491194  1
  P  P5  1  0.14565195  0.68943600  0.83508798  1
  P  P6  1  0.38245699  0.18690800  0.56936498  1
  O  O7  1  0.61754294  0.81309200  0.43063494  1
