# generated using pymatgen
data_Ac5Mg3
_symmetry_space_group_name_H-M   'P 1'
_cell_length_a   6.03207016
_cell_length_b   7.37239981
_cell_length_c   7.37239933
_cell_angle_alpha   120.00000000
_cell_angle_beta   90.00000000
_cell_angle_gamma   90.00000000
_symmetry_Int_Tables_number   1
_chemical_formula_structural   Ac5Mg3
_chemical_formula_sum   'Ac5 Mg3'
_cell_volume   283.93226439
_cell_formula_units_Z   1
loop_
 _symmetry_equiv_pos_site_id
 _symmetry_equiv_pos_as_xyz
  1  'x, y, z'
loop_
 _atom_site_type_symbol
 _atom_site_label
 _atom_site_symmetry_multiplicity
 _atom_site_fract_x
 _atom_site_fract_y
 _atom_site_fract_z
 _atom_site_occupancy
  Ac  Ac0  1  0.74999998  0.83251300  0.16748596  1
  Ac  Ac1  1  0.74999998  0.33497300  0.16748598  1
  Ac  Ac2  1  0.74999998  0.83251300  0.66502596  1
  Ac  Ac3  1  0.24999999  0.16748700  0.83251400  1
  Ac  Ac4  1  0.24999999  0.66502700  0.83251397  1
  Mg  Mg5  1  0.24999999  0.16748700  0.33497399  1
  Mg  Mg6  1  0.24999999  0.66666667  0.33333330  1
  Mg  Mg7  1  0.74999998  0.33333333  0.66666666  1
