# generated using pymatgen
data_Ba2FeO6
_symmetry_space_group_name_H-M   'P 1'
_cell_length_a   6.06588984
_cell_length_b   6.09348583
_cell_length_c   9.10617828
_cell_angle_alpha   70.45301819
_cell_angle_beta   90.00000000
_cell_angle_gamma   90.00000000
_symmetry_Int_Tables_number   1
_chemical_formula_structural   Ba2FeO6
_chemical_formula_sum   'Ba4 Fe2 O12'
_cell_volume   317.18800343
_cell_formula_units_Z   2
loop_
 _symmetry_equiv_pos_site_id
 _symmetry_equiv_pos_as_xyz
  1  'x, y, z'
loop_
 _atom_site_type_symbol
 _atom_site_label
 _atom_site_symmetry_multiplicity
 _atom_site_fract_x
 _atom_site_fract_y
 _atom_site_fract_z
 _atom_site_occupancy
  Ba  Ba0  1  0.50000001  0.33613400  0.32773202  1
  Ba  Ba1  1  1.00000003  0.83613400  0.32773204  1
  Ba  Ba2  1  0.50000001  0.66029900  0.67940204  1
  Ba  Ba3  1  0.00000000  0.16029900  0.67940202  1
  Fe  Fe4  1  0.50000001  0.00414900  0.99170202  1
  Fe  Fe5  1  0.00000000  0.50414900  0.99170204  1
  O  O6  1  0.75277302  0.98897401  0.51377105  1
  O  O7  1  0.24722701  0.49725500  0.51377103  1
  O  O8  1  0.25277301  0.99725501  0.51377105  1
  O  O9  1  0.74722702  0.48897400  0.51377103  1
  O  O10  1  0.65891402  0.75698300  0.16182604  1
  O  O11  1  0.34108601  0.08119100  0.16182601  1
  O  O12  1  0.15891400  0.58119100  0.16182603  1
  O  O13  1  0.84108602  0.25698300  0.16182601  1
  O  O14  1  0.33880401  0.25493400  0.82498502  1
  O  O15  1  0.66119602  0.92008100  0.82498505  1
  O  O16  1  0.83880402  0.42008100  0.82498503  1
  O  O17  1  0.16119600  0.75493400  0.82498505  1
