# generated using pymatgen
data_Na2Co3O7
_symmetry_space_group_name_H-M   'P 1'
_cell_length_a   5.02093601
_cell_length_b   5.03061962
_cell_length_c   6.84239292
_cell_angle_alpha   90.00000000
_cell_angle_beta   90.00000000
_cell_angle_gamma   119.93634796
_symmetry_Int_Tables_number   1
_chemical_formula_structural   Na2Co3O7
_chemical_formula_sum   'Na2 Co3 O7'
_cell_volume   149.76937170
_cell_formula_units_Z   1
loop_
 _symmetry_equiv_pos_site_id
 _symmetry_equiv_pos_as_xyz
  1  'x, y, z'
loop_
 _atom_site_type_symbol
 _atom_site_label
 _atom_site_symmetry_multiplicity
 _atom_site_fract_x
 _atom_site_fract_y
 _atom_site_fract_z
 _atom_site_occupancy
  Na  Na0  1  0.00000000  0.00000000  0.99738201  1
  Na  Na1  1  0.00000000  0.00000000  0.50098701  1
  Co  Co2  1  0.50000000  0.00000000  0.29343000  1
  Co  Co3  1  0.50000003  0.49999999  0.70947201  1
  O  O4  1  0.00000003  0.49999999  0.70947201  1
  Co  Co5  1  0.50000000  0.00000000  0.70715401  1
  O  O6  1  0.33577704  0.67155399  0.99863101  1
  O  O7  1  0.66422302  0.32844600  0.99863101  1
  O  O8  1  0.50000003  0.49999999  0.29077700  1
  O  O9  1  0.00000003  0.49999999  0.29077700  1
  O  O10  1  0.33439704  0.66879399  0.50190001  1
  O  O11  1  0.66560302  0.33120600  0.50190001  1
