# generated using pymatgen
data_EuZn2
_symmetry_space_group_name_H-M   'P 1'
_cell_length_a   4.63582611
_cell_length_b   5.85848475
_cell_length_c   5.91440916
_cell_angle_alpha   80.38375092
_cell_angle_beta   66.92663574
_cell_angle_gamma   66.69344330
_symmetry_Int_Tables_number   1
_chemical_formula_structural   EuZn2
_chemical_formula_sum   'Eu2 Zn4'
_cell_volume   135.70695230
_cell_formula_units_Z   2
loop_
 _symmetry_equiv_pos_site_id
 _symmetry_equiv_pos_as_xyz
  1  'x, y, z'
loop_
 _atom_site_type_symbol
 _atom_site_label
 _atom_site_symmetry_multiplicity
 _atom_site_fract_x
 _atom_site_fract_y
 _atom_site_fract_z
 _atom_site_occupancy
  Eu  Eu0  1  0.45505997  0.79284401  0.29703602  1
  Eu  Eu1  1  0.54493998  0.20715600  0.70296401  1
  Zn  Zn2  1  0.83568196  0.60475901  0.72387702  1
  Zn  Zn3  1  0.16431799  0.39524101  0.27612301  1
  Zn  Zn4  1  0.16293698  0.77849301  0.89563302  1
  Zn  Zn5  1  0.83706297  0.22150700  0.10436701  1
