# generated using pymatgen
data_KNaLiEuH5O11
_symmetry_space_group_name_H-M   'P 1'
_cell_length_a   6.69563293
_cell_length_b   6.79633188
_cell_length_c   6.79633188
_cell_angle_alpha   99.27127075
_cell_angle_beta   104.36975098
_cell_angle_gamma   75.63024902
_symmetry_Int_Tables_number   1
_chemical_formula_structural   KNaLiEuH5O11
_chemical_formula_sum   'K1 Na1 Li1 Eu1 H5 O11'
_cell_volume   288.58670050
_cell_formula_units_Z   1
loop_
 _symmetry_equiv_pos_site_id
 _symmetry_equiv_pos_as_xyz
  1  'x, y, z'
loop_
 _atom_site_type_symbol
 _atom_site_label
 _atom_site_symmetry_multiplicity
 _atom_site_fract_x
 _atom_site_fract_y
 _atom_site_fract_z
 _atom_site_occupancy
  Eu  Eu0  1  0.50000001  0.00000000  0.00000002  1
  K  K1  1  0.61747099  0.60559600  0.87039101  1
  Li  Li2  1  0.61747101  0.12960900  0.39440402  1
  Na  Na3  1  0.38252899  0.39440400  0.12960901  1
  H  H4  1  0.38252897  0.87039100  0.60559599  1
  H  H5  1  0.78609799  0.65614200  0.07911702  1
  H  H6  1  0.78609798  0.92088300  0.34385801  1
  H  H7  1  0.21390199  0.34385800  0.92088300  1
  O  O8  1  0.21390200  0.07911700  0.65614200  1
  H  H9  1  0.80478299  0.71860300  0.85933801  1
  O  O10  1  0.80478302  0.14066200  0.28139703  1
  O  O11  1  0.19521699  0.28139700  0.14066200  1
  O  O12  1  0.19521696  0.85933800  0.71860298  1
  O  O13  1  1.00000000  0.50000000  0.50000003  1
  O  O14  1  0.69946399  0.71398600  0.94561101  1
  O  O15  1  0.69946402  0.05438900  0.28601403  1
  O  O16  1  0.30053599  0.28601400  0.05438901  1
  O  O17  1  0.30053596  0.94561100  0.71398598  1
  O  O18  1  0.31568197  0.84521200  0.15478799  1
  O  O19  1  0.68431801  0.15478800  0.84521202  1
