# generated using pymatgen
data_SrLiAl3Ru14
_symmetry_space_group_name_H-M   'P 1'
_cell_length_a   6.83310843
_cell_length_b   6.83310843
_cell_length_c   6.83310890
_cell_angle_alpha   83.49176025
_cell_angle_beta   83.49176025
_cell_angle_gamma   83.49176025
_symmetry_Int_Tables_number   1
_chemical_formula_structural   SrLiAl3Ru14
_chemical_formula_sum   'Sr1 Li1 Al3 Ru14'
_cell_volume   313.31190487
_cell_formula_units_Z   1
loop_
 _symmetry_equiv_pos_site_id
 _symmetry_equiv_pos_as_xyz
  1  'x, y, z'
loop_
 _atom_site_type_symbol
 _atom_site_label
 _atom_site_symmetry_multiplicity
 _atom_site_fract_x
 _atom_site_fract_y
 _atom_site_fract_z
 _atom_site_occupancy
  Sr  Sr0  1  0.34286600  0.34286600  0.34286597  1
  Li  Li1  1  0.65713400  0.65713399  0.65713395  1
  Al  Al2  1  0.00000000  0.00000000  0.50000001  1
  Al  Al3  1  0.50000000  0.00000000  -0.00000002  1
  Al  Al4  1  0.00000000  0.50000000  -0.00000002  1
  Ru  Ru5  1  0.09757900  0.09757900  0.09757899  1
  Ru  Ru6  1  0.90242099  0.90242099  0.90242093  1
  Ru  Ru7  1  0.28242400  0.71757599  -0.00000005  1
  Ru  Ru8  1  0.00000000  0.28242400  0.71757600  1
  Ru  Ru9  1  0.71757599  0.00000000  0.28242397  1
  Ru  Ru10  1  0.00000000  0.71757599  0.28242397  1
  Ru  Ru11  1  0.28242400  0.00000000  0.71757600  1
  Ru  Ru12  1  0.71757599  0.28242400  -0.00000005  1
  Ru  Ru13  1  0.66418500  0.66418499  0.12096294  1
  Ru  Ru14  1  0.12096300  0.66418499  0.66418497  1
  Ru  Ru15  1  0.66418499  0.12096300  0.66418497  1
  Ru  Ru16  1  0.33581500  0.33581500  0.87903698  1
  Ru  Ru17  1  0.87903699  0.33581500  0.33581495  1
  Ru  Ru18  1  0.33581500  0.87903699  0.33581495  1
