# generated using pymatgen
data_SrCd3
_symmetry_space_group_name_H-M   'P 1'
_cell_length_a   6.91979790
_cell_length_b   6.91979790
_cell_length_c   10.56420422
_cell_angle_alpha   90.00000000
_cell_angle_beta   90.00000000
_cell_angle_gamma   102.91121674
_symmetry_Int_Tables_number   1
_chemical_formula_structural   SrCd3
_chemical_formula_sum   'Sr4 Cd12'
_cell_volume   493.06293768
_cell_formula_units_Z   4
loop_
 _symmetry_equiv_pos_site_id
 _symmetry_equiv_pos_as_xyz
  1  'x, y, z'
loop_
 _atom_site_type_symbol
 _atom_site_label
 _atom_site_symmetry_multiplicity
 _atom_site_fract_x
 _atom_site_fract_y
 _atom_site_fract_z
 _atom_site_occupancy
  Sr  Sr0  1  0.63628701  0.63628699  0.74999998  1
  Sr  Sr1  1  0.36371300  0.36371300  0.24999999  1
  Sr  Sr2  1  0.20182302  0.79817699  0.49999999  1
  Sr  Sr3  1  0.20182302  0.79817699  -0.00000000  1
  Cd  Cd4  1  0.79817699  0.20182300  0.49999999  1
  Cd  Cd5  1  0.79817699  0.20182300  -0.00000000  1
  Cd  Cd6  1  0.00518900  0.00518900  0.74999998  1
  Cd  Cd7  1  0.99481101  0.99481099  0.24999999  1
  Cd  Cd8  1  0.30517800  0.30517800  0.94492498  1
  Cd  Cd9  1  0.69482201  0.69482199  0.05507500  1
  Cd  Cd10  1  0.30517800  0.30517800  0.55507499  1
  Cd  Cd11  1  0.69482201  0.69482199  0.44492499  1
  Cd  Cd12  1  0.50586299  0.06232300  0.74999998  1
  Cd  Cd13  1  0.93767700  0.49413699  0.24999999  1
  Cd  Cd14  1  0.49413702  0.93767699  0.24999999  1
  Cd  Cd15  1  0.06232301  0.50586299  0.74999998  1
