# generated using pymatgen
data_Li5EuAl3Si6O5
_symmetry_space_group_name_H-M   'P 1'
_cell_length_a   6.42492533
_cell_length_b   6.44947481
_cell_length_c   6.44947481
_cell_angle_alpha   83.54409027
_cell_angle_beta   83.35593414
_cell_angle_gamma   83.35593414
_symmetry_Int_Tables_number   1
_chemical_formula_structural   Li5EuAl3Si6O5
_chemical_formula_sum   'Li5 Eu1 Al3 Si6 O5'
_cell_volume   262.33964643
_cell_formula_units_Z   1
loop_
 _symmetry_equiv_pos_site_id
 _symmetry_equiv_pos_as_xyz
  1  'x, y, z'
loop_
 _atom_site_type_symbol
 _atom_site_label
 _atom_site_symmetry_multiplicity
 _atom_site_fract_x
 _atom_site_fract_y
 _atom_site_fract_z
 _atom_site_occupancy
  Eu  Eu0  1  0.35037198  0.33938801  0.33938802  1
  Li  Li1  1  0.64962796  0.66061201  0.66061204  1
  Li  Li2  1  -0.00000001  0.28533300  0.71466703  1
  Li  Li3  1  0.71003995  0.99951602  0.28929905  1
  Li  Li4  1  0.28995997  0.71070101  0.00048404  1
  Li  Li5  1  0.28995999  0.00048400  0.71070101  1
  Al  Al6  1  0.71003997  0.28929900  0.99951602  1
  Al  Al7  1  -0.00000002  0.71466701  0.28533305  1
  Al  Al8  1  0.15029898  0.65653301  0.65653305  1
  Si  Si9  1  0.65554797  0.15002800  0.65675801  1
  Si  Si10  1  0.65554796  0.65675801  0.15002803  1
  Si  Si11  1  0.84970096  0.34346701  0.34346701  1
  Si  Si12  1  0.34445196  0.84997201  0.34324205  1
  Si  Si13  1  0.34445198  0.34324201  0.84997203  1
  Si  Si14  1  0.09763899  0.09739200  0.09739201  1
  O  O15  1  0.90236094  0.90260801  0.90260805  1
  O  O16  1  0.49999998  0.00000000  1.00000001  1
  O  O17  1  -0.00000001  0.50000001  0.00000003  1
  O  O18  1  0.00000000  0.00000000  0.50000001  1
  O  O19  1  -0.00000001  0.50000001  0.50000004  1
