# generated using pymatgen
data_YbTmFe4
_symmetry_space_group_name_H-M   'P 1'
_cell_length_a   5.32989216
_cell_length_b   5.32989216
_cell_length_c   5.32989216
_cell_angle_alpha   60.00000000
_cell_angle_beta   60.00000000
_cell_angle_gamma   60.00000000
_symmetry_Int_Tables_number   1
_chemical_formula_structural   YbTmFe4
_chemical_formula_sum   'Yb1 Tm1 Fe4'
_cell_volume   107.06321184
_cell_formula_units_Z   1
loop_
 _symmetry_equiv_pos_site_id
 _symmetry_equiv_pos_as_xyz
  1  'x, y, z'
loop_
 _atom_site_type_symbol
 _atom_site_label
 _atom_site_symmetry_multiplicity
 _atom_site_fract_x
 _atom_site_fract_y
 _atom_site_fract_z
 _atom_site_occupancy
  Tm  Tm0  1  0.00000000  0.00000000  0.00000000  1
  Yb  Yb1  1  0.75000002  0.75000002  0.75000002  1
  Fe  Fe2  1  0.37508601  0.87474003  0.37508701  1
  Fe  Fe3  1  0.37508601  0.37508701  0.37508701  1
  Fe  Fe4  1  0.37508601  0.37508701  0.87474003  1
  Fe  Fe5  1  0.87473903  0.37508701  0.37508701  1
