# generated using pymatgen
data_KLiVF6
_symmetry_space_group_name_H-M   'P 1'
_cell_length_a   7.58064413
_cell_length_b   7.79825449
_cell_length_c   7.79825449
_cell_angle_alpha   62.18727875
_cell_angle_beta   60.91887665
_cell_angle_gamma   60.91887665
_symmetry_Int_Tables_number   1
_chemical_formula_structural   KLiVF6
_chemical_formula_sum   'K2 Li2 V2 F12'
_cell_volume   335.69825903
_cell_formula_units_Z   2
loop_
 _symmetry_equiv_pos_site_id
 _symmetry_equiv_pos_as_xyz
  1  'x, y, z'
loop_
 _atom_site_type_symbol
 _atom_site_label
 _atom_site_symmetry_multiplicity
 _atom_site_fract_x
 _atom_site_fract_y
 _atom_site_fract_z
 _atom_site_occupancy
  K  K0  1  0.61128999  0.13871000  0.63871000  1
  K  K1  1  0.38871000  0.86128999  0.36128999  1
  Li  Li2  1  0.00000000  0.00000000  0.00000000  1
  Li  Li3  1  0.99999998  0.49999999  0.50000001  1
  V  V4  1  0.49999999  0.49999999  0.00000000  1
  V  V5  1  0.00000001  0.49999999  -0.00000000  1
  F  F6  1  0.09597800  0.15402200  0.65402199  1
  F  F7  1  0.70402399  0.54597599  0.04597601  1
  F  F8  1  0.09373801  0.55666899  0.68802199  1
  F  F9  1  0.66157099  0.18802200  0.05666901  1
  F  F10  1  0.66157199  0.55666799  0.68802200  1
  F  F11  1  0.09373700  0.18802300  0.05666900  1
  F  F12  1  0.90402199  0.84597799  0.34597800  1
  F  F13  1  0.29597600  0.45402399  0.95402399  1
  F  F14  1  0.90626198  0.44333099  0.31197801  1
  F  F15  1  0.33842900  0.81197799  0.94333099  1
  F  F16  1  0.33842800  0.44333199  0.31197800  1
  F  F17  1  0.90626299  0.81197699  0.94333100  1
