# generated using pymatgen
data_HoSi2
_symmetry_space_group_name_H-M   'P 1'
_cell_length_a   4.17554379
_cell_length_b   5.34288788
_cell_length_c   5.40466261
_cell_angle_alpha   75.07004547
_cell_angle_beta   67.27609253
_cell_angle_gamma   66.99837494
_symmetry_Int_Tables_number   1
_chemical_formula_structural   HoSi2
_chemical_formula_sum   'Ho2 Si4'
_cell_volume   101.56187373
_cell_formula_units_Z   2
loop_
 _symmetry_equiv_pos_site_id
 _symmetry_equiv_pos_as_xyz
  1  'x, y, z'
loop_
 _atom_site_type_symbol
 _atom_site_label
 _atom_site_symmetry_multiplicity
 _atom_site_fract_x
 _atom_site_fract_y
 _atom_site_fract_z
 _atom_site_occupancy
  Ho  Ho0  1  0.54117104  0.20797400  0.70968395  1
  Ho  Ho1  1  0.45577803  0.79314600  0.29529794  1
  Si  Si2  1  0.85247106  0.62000400  0.67505392  1
  Si  Si3  1  0.82236206  0.22137600  0.13389996  1
  Si  Si4  1  0.16237901  0.77598200  0.89925993  1
  Si  Si5  1  0.16583801  0.38152100  0.28680297  1
