# generated using pymatgen
data_Sm5Sn3
_symmetry_space_group_name_H-M   'P 1'
_cell_length_a   6.68266296
_cell_length_b   8.83934212
_cell_length_c   8.83934212
_cell_angle_alpha   60.00000000
_cell_angle_beta   90.00000000
_cell_angle_gamma   90.00000000
_symmetry_Int_Tables_number   1
_chemical_formula_structural   Sm5Sn3
_chemical_formula_sum   'Sm10 Sn6'
_cell_volume   452.18908622
_cell_formula_units_Z   2
loop_
 _symmetry_equiv_pos_site_id
 _symmetry_equiv_pos_as_xyz
  1  'x, y, z'
loop_
 _atom_site_type_symbol
 _atom_site_label
 _atom_site_symmetry_multiplicity
 _atom_site_fract_x
 _atom_site_fract_y
 _atom_site_fract_z
 _atom_site_occupancy
  Sm  Sm0  1  0.24708600  0.66666666  0.66666666  1
  Sm  Sm1  1  0.24708600  0.33333333  0.33333333  1
  Sm  Sm2  1  0.75291400  0.33333333  0.33333333  1
  Sm  Sm3  1  0.75291400  0.66666666  0.66666666  1
  Sm  Sm4  1  0.50000000  0.24489100  1.00000001  1
  Sm  Sm5  1  0.50000000  0.00000000  0.75510901  1
  Sm  Sm6  1  0.50000000  0.75510900  0.24489099  1
  Sm  Sm7  1  1.00000001  0.75497500  -0.00000001  1
  Sm  Sm8  1  0.00000000  0.00000000  0.24502500  1
  Sm  Sm9  1  1.00000001  0.24502500  0.75497501  1
  Sn  Sn10  1  1.00000001  0.39361300  1.00000001  1
  Sn  Sn11  1  0.00000000  0.00000000  0.60638701  1
  Sn  Sn12  1  1.00000001  0.60638700  0.39361299  1
  Sn  Sn13  1  0.50000000  0.60610000  1.00000000  1
  Sn  Sn14  1  0.50000000  0.00000000  0.39390001  1
  Sn  Sn15  1  0.50000000  0.39390000  0.60610000  1
