# generated using pymatgen
data_NaZnO2
_symmetry_space_group_name_H-M   'P 1'
_cell_length_a   3.28148055
_cell_length_b   3.28148055
_cell_length_c   5.73110628
_cell_angle_alpha   73.36421204
_cell_angle_beta   73.36421204
_cell_angle_gamma   59.99998856
_symmetry_Int_Tables_number   1
_chemical_formula_structural   NaZnO2
_chemical_formula_sum   'Na1 Zn1 O2'
_cell_volume   50.44048540
_cell_formula_units_Z   1
loop_
 _symmetry_equiv_pos_site_id
 _symmetry_equiv_pos_as_xyz
  1  'x, y, z'
loop_
 _atom_site_type_symbol
 _atom_site_label
 _atom_site_symmetry_multiplicity
 _atom_site_fract_x
 _atom_site_fract_y
 _atom_site_fract_z
 _atom_site_occupancy
  Na  Na0  1  0.50000004  0.50000001  0.50000000  1
  Zn  Zn1  1  0.00000000  0.00000000  0.00000000  1
  O  O2  1  0.26429402  0.26429400  0.20711800  1
  O  O3  1  0.73570605  0.73570601  0.79288200  1
