# generated using pymatgen
data_Na4TiO3
_symmetry_space_group_name_H-M   'P 1'
_cell_length_a   5.94033194
_cell_length_b   6.33277655
_cell_length_c   8.11419010
_cell_angle_alpha   109.70029449
_cell_angle_beta   90.00000000
_cell_angle_gamma   117.97036743
_symmetry_Int_Tables_number   1
_chemical_formula_structural   Na4TiO3
_chemical_formula_sum   'Na8 Ti2 O6'
_cell_volume   249.18037372
_cell_formula_units_Z   2
loop_
 _symmetry_equiv_pos_site_id
 _symmetry_equiv_pos_as_xyz
  1  'x, y, z'
loop_
 _atom_site_type_symbol
 _atom_site_label
 _atom_site_symmetry_multiplicity
 _atom_site_fract_x
 _atom_site_fract_y
 _atom_site_fract_z
 _atom_site_occupancy
  Na  Na0  1  0.51408405  0.59234903  0.83900498  1
  Na  Na1  1  0.07826504  0.59234903  0.33900499  1
  Na  Na2  1  0.73187406  0.76004104  0.53802498  1
  Na  Na3  1  0.96884503  0.23623601  0.93182697  1
  Na  Na4  1  0.02816705  0.76004104  0.03802500  1
  Na  Na5  1  0.26739102  0.23623601  0.43182699  1
  Na  Na6  1  0.87904604  0.43078103  0.63756898  1
  Na  Na7  1  0.55173504  0.43078103  0.13756900  1
  Ti  Ti8  1  0.33670707  0.95614906  0.75274398  1
  Ti  Ti9  1  0.61944208  0.95614906  0.25274399  1
  O  O10  1  0.32107805  0.63520604  0.60210298  1
  O  O11  1  0.31412805  0.63520604  0.10210300  1
  O  O12  1  0.64143603  0.29479102  0.84774097  1
  O  O13  1  0.65335503  0.29479102  0.34774099  1
  O  O14  1  0.99369907  0.87956805  0.80335598  1
  O  O15  1  0.88586907  0.87956805  0.30335599  1
