# generated using pymatgen
data_Mg3Al5Si6
_symmetry_space_group_name_H-M   'P 1'
_cell_length_a   4.00711393
_cell_length_b   4.00711346
_cell_length_c   19.83927536
_cell_angle_alpha   90.00000000
_cell_angle_beta   90.00000000
_cell_angle_gamma   120.00000000
_symmetry_Int_Tables_number   1
_chemical_formula_structural   Mg3Al5Si6
_chemical_formula_sum   'Mg3 Al5 Si6'
_cell_volume   275.87971391
_cell_formula_units_Z   1
loop_
 _symmetry_equiv_pos_site_id
 _symmetry_equiv_pos_as_xyz
  1  'x, y, z'
loop_
 _atom_site_type_symbol
 _atom_site_label
 _atom_site_symmetry_multiplicity
 _atom_site_fract_x
 _atom_site_fract_y
 _atom_site_fract_z
 _atom_site_occupancy
  Mg  Mg0  1  0.00000000  0.00000000  0.00000000  1
  Mg  Mg1  1  0.00000000  0.00000000  0.50000002  1
  Mg  Mg2  1  0.66666665  0.33333333  0.25000001  1
  Al  Al3  1  0.33333329  0.66666666  0.75000002  1
  Al  Al4  1  0.66666665  0.33333333  0.87166103  1
  Al  Al5  1  0.33333329  0.66666666  0.12833900  1
  Al  Al6  1  0.33333329  0.66666666  0.37166101  1
  Al  Al7  1  0.66666665  0.33333333  0.62833902  1
  Si  Si8  1  0.66666665  0.33333333  0.41634401  1
  Si  Si9  1  0.33333329  0.66666666  0.58365602  1
  Si  Si10  1  0.33333329  0.66666666  0.91634403  1
  Si  Si11  1  0.66666665  0.33333333  0.08365600  1
  Si  Si12  1  0.66666665  0.33333333  0.75000002  1
  Si  Si13  1  0.33333329  0.66666666  0.25000001  1
