# generated using pymatgen
data_Ba2Tl3Ag
_symmetry_space_group_name_H-M   'P 1'
_cell_length_a   5.43815708
_cell_length_b   8.82753563
_cell_length_c   10.53913403
_cell_angle_alpha   90.00000000
_cell_angle_beta   90.00000000
_cell_angle_gamma   90.00000000
_symmetry_Int_Tables_number   1
_chemical_formula_structural   Ba2Tl3Ag
_chemical_formula_sum   'Ba4 Tl6 Ag2'
_cell_volume   505.93666611
_cell_formula_units_Z   2
loop_
 _symmetry_equiv_pos_site_id
 _symmetry_equiv_pos_as_xyz
  1  'x, y, z'
loop_
 _atom_site_type_symbol
 _atom_site_label
 _atom_site_symmetry_multiplicity
 _atom_site_fract_x
 _atom_site_fract_y
 _atom_site_fract_z
 _atom_site_occupancy
  Ba  Ba0  1  0.74999999  0.47722202  0.33081000  1
  Ba  Ba1  1  0.25000000  0.52277802  0.66919000  1
  Ba  Ba2  1  0.74999999  0.97722204  0.16919000  1
  Ba  Ba3  1  0.25000000  0.02277800  0.83081000  1
  Tl  Tl4  1  0.74999999  0.35433901  0.92550300  1
  Tl  Tl5  1  0.25000000  0.64566103  0.07449700  1
  Tl  Tl6  1  0.74999999  0.85433904  0.57449700  1
  Tl  Tl7  1  0.25000000  0.14566101  0.42550300  1
  Ag  Ag8  1  0.74999999  0.25361301  0.60923900  1
  Ag  Ag9  1  0.25000000  0.74638703  0.39076100  1
  Tl  Tl10  1  0.74999999  0.75361303  0.89076100  1
  Tl  Tl11  1  0.25000000  0.24638701  0.10923900  1
