# generated using pymatgen
data_Hf3(Si2Os)2
_symmetry_space_group_name_H-M   'P 1'
_cell_length_a   7.11017799
_cell_length_b   7.11017752
_cell_length_c   7.16404486
_cell_angle_alpha   90.00000000
_cell_angle_beta   90.00000000
_cell_angle_gamma   120.00000000
_symmetry_Int_Tables_number   1
_chemical_formula_structural   Hf3(Si2Os)2
_chemical_formula_sum   'Hf6 Si8 Os4'
_cell_volume   313.65328813
_cell_formula_units_Z   2
loop_
 _symmetry_equiv_pos_site_id
 _symmetry_equiv_pos_as_xyz
  1  'x, y, z'
loop_
 _atom_site_type_symbol
 _atom_site_label
 _atom_site_symmetry_multiplicity
 _atom_site_fract_x
 _atom_site_fract_y
 _atom_site_fract_z
 _atom_site_occupancy
  Hf  Hf0  1  0.99220498  0.39371798  0.25000000  1
  Hf  Hf1  1  0.40151300  0.00779600  0.25000000  1
  Hf  Hf2  1  0.60628296  0.59848797  0.25000000  1
  Hf  Hf3  1  0.00779497  0.40151198  0.75000001  1
  Hf  Hf4  1  0.39371694  0.99220394  0.75000001  1
  Hf  Hf5  1  0.59848696  0.60628197  0.75000001  1
  Si  Si6  1  0.66666665  0.33333331  0.53355501  1
  Si  Si7  1  0.33333329  0.66666663  0.46644501  1
  Si  Si8  1  0.66666665  0.33333331  0.96644502  1
  Si  Si9  1  0.00000000  0.00000000  0.25000000  1
  Si  Si10  1  0.00000000  0.00000000  0.75000001  1
  Si  Si11  1  0.33333329  0.66666663  0.03355500  1
  Si  Si12  1  0.73269100  0.00000000  0.50000001  1
  Si  Si13  1  -0.00000005  0.73269096  0.50000001  1
  Os  Os14  1  -0.00000005  0.73269096  -0.00000000  1
  Os  Os15  1  0.26730898  0.26730898  0.50000001  1
  Os  Os16  1  0.26730898  0.26730898  -0.00000000  1
  Os  Os17  1  0.73269100  0.00000000  -0.00000000  1
