# generated using pymatgen
data_Sr2EuWO6
_symmetry_space_group_name_H-M   'P 1'
_cell_length_a   5.81665802
_cell_length_b   5.88539410
_cell_length_c   8.25486183
_cell_angle_alpha   90.00000000
_cell_angle_beta   89.60437775
_cell_angle_gamma   90.00000000
_symmetry_Int_Tables_number   1
_chemical_formula_structural   Sr2EuWO6
_chemical_formula_sum   'Sr4 Eu2 W2 O12'
_cell_volume   282.58462939
_cell_formula_units_Z   2
loop_
 _symmetry_equiv_pos_site_id
 _symmetry_equiv_pos_as_xyz
  1  'x, y, z'
loop_
 _atom_site_type_symbol
 _atom_site_label
 _atom_site_symmetry_multiplicity
 _atom_site_fract_x
 _atom_site_fract_y
 _atom_site_fract_z
 _atom_site_occupancy
  Sr  Sr0  1  0.49125300  0.53740699  0.24946001  1
  Sr  Sr1  1  0.00874700  0.03740700  0.25054000  1
  Sr  Sr2  1  0.99125300  0.96259298  0.74946003  1
  Sr  Sr3  1  0.50874700  0.46259299  0.75054001  1
  Eu  Eu4  1  0.50000000  0.00000000  0.50000001  1
  Eu  Eu5  1  0.00000000  0.49999999  -0.00000000  1
  W  W6  1  0.50000000  0.00000000  0.00000002  1
  W  W7  1  0.00000000  0.49999999  0.50000000  1
  O  O8  1  0.07634100  0.52069199  0.73368600  1
  O  O9  1  0.42365900  0.02069200  0.76631401  1
  O  O10  1  0.92365900  0.47930799  0.26631403  1
  O  O11  1  0.57634100  0.97930798  0.23368602  1
  O  O12  1  0.19550200  0.77200999  0.45808300  1
  O  O13  1  0.30449800  0.27201000  0.04191701  1
  O  O14  1  0.80449800  0.22799000  0.54191702  1
  O  O15  1  0.69550200  0.72798999  0.95808302  1
  O  O16  1  0.77080400  0.19851900  0.96073602  1
  O  O17  1  0.72919600  0.69851899  0.53926402  1
  O  O18  1  0.22919600  0.80148099  0.03926401  1
  O  O19  1  0.27080400  0.30148100  0.46073601  1
