# generated using pymatgen
data_Li2MnO4
_symmetry_space_group_name_H-M   'P 1'
_cell_length_a   5.86663389
_cell_length_b   5.86663389
_cell_length_c   5.92814684
_cell_angle_alpha   60.34266281
_cell_angle_beta   60.34266281
_cell_angle_gamma   60.00000381
_symmetry_Int_Tables_number   1
_chemical_formula_structural   Li2MnO4
_chemical_formula_sum   'Li4 Mn2 O8'
_cell_volume   145.01468781
_cell_formula_units_Z   2
loop_
 _symmetry_equiv_pos_site_id
 _symmetry_equiv_pos_as_xyz
  1  'x, y, z'
loop_
 _atom_site_type_symbol
 _atom_site_label
 _atom_site_symmetry_multiplicity
 _atom_site_fract_x
 _atom_site_fract_y
 _atom_site_fract_z
 _atom_site_occupancy
  Li  Li0  1  0.12506900  0.12506900  0.62479300  1
  Li  Li1  1  0.87493101  0.87493097  0.37520695  1
  Li  Li2  1  0.50000002  0.99999997  -0.00000005  1
  Li  Li3  1  0.50000001  0.49999999  -0.00000003  1
  Mn  Mn4  1  0.00000002  0.49999999  -0.00000002  1
  Mn  Mn5  1  0.50000001  0.49999999  0.49999998  1
  O  O6  1  0.26030800  0.26030799  0.21907599  1
  O  O7  1  0.70682400  0.25427899  0.78461799  1
  O  O8  1  0.25427900  0.25427899  0.78461800  1
  O  O9  1  0.25427902  0.70682398  0.78461798  1
  O  O10  1  0.74572100  0.29317599  0.21538197  1
  O  O11  1  0.74572101  0.74572098  0.21538195  1
  O  O12  1  0.29317602  0.74572098  0.21538197  1
  O  O13  1  0.73969201  0.73969198  0.78092397  1
