# generated using pymatgen
data_Li4Co(CO4)3
_symmetry_space_group_name_H-M   'P 1'
_cell_length_a   4.85289097
_cell_length_b   5.97110987
_cell_length_c   7.70594692
_cell_angle_alpha   74.70248413
_cell_angle_beta   90.10284424
_cell_angle_gamma   90.00762177
_symmetry_Int_Tables_number   1
_chemical_formula_structural   Li4Co(CO4)3
_chemical_formula_sum   'Li4 Co1 C3 O12'
_cell_volume   215.38433765
_cell_formula_units_Z   1
loop_
 _symmetry_equiv_pos_site_id
 _symmetry_equiv_pos_as_xyz
  1  'x, y, z'
loop_
 _atom_site_type_symbol
 _atom_site_label
 _atom_site_symmetry_multiplicity
 _atom_site_fract_x
 _atom_site_fract_y
 _atom_site_fract_z
 _atom_site_occupancy
  Li  Li0  1  0.00000000  0.00000000  0.00000000  1
  Li  Li1  1  0.50000004  0.50000001  0.50000002  1
  Li  Li2  1  0.00000000  0.00000000  0.50000000  1
  Li  Li3  1  0.50000004  0.50000001  0.00000002  1
  C  C4  1  0.49752900  0.00367800  0.25907300  1
  Co  Co5  1  0.00261403  0.50829801  0.74684102  1
  C  C6  1  0.50247107  0.99632202  0.74092704  1
  C  C7  1  0.99738604  0.49170201  0.25315902  1
  O  O8  1  0.21335200  0.00083800  0.26545100  1
  O  O9  1  0.71589404  0.49673701  0.74935202  1
  O  O10  1  0.14384704  0.64714301  0.60112303  1
  O  O11  1  0.62546401  0.15133300  0.11212200  1
  O  O12  1  0.65090506  0.85362002  0.39235303  1
  O  O13  1  0.15054303  0.37490301  0.89154902  1
  O  O14  1  0.78664807  0.99916202  0.73454904  1
  O  O15  1  0.28410603  0.50326301  0.25064802  1
  O  O16  1  0.85615303  0.35285701  0.39887701  1
  O  O17  1  0.37453606  0.84866701  0.88787804  1
  O  O18  1  0.34909501  0.14638000  0.60764701  1
  O  O19  1  0.84945705  0.62509701  0.10845102  1
