# generated using pymatgen
data_TmCu2GeIr
_symmetry_space_group_name_H-M   'P 1'
_cell_length_a   4.14567995
_cell_length_b   4.14567995
_cell_length_c   5.77325535
_cell_angle_alpha   111.04135895
_cell_angle_beta   111.04135895
_cell_angle_gamma   90.00000000
_symmetry_Int_Tables_number   1
_chemical_formula_structural   TmCu2GeIr
_chemical_formula_sum   'Tm1 Cu2 Ge1 Ir1'
_cell_volume   85.48036254
_cell_formula_units_Z   1
loop_
 _symmetry_equiv_pos_site_id
 _symmetry_equiv_pos_as_xyz
  1  'x, y, z'
loop_
 _atom_site_type_symbol
 _atom_site_label
 _atom_site_symmetry_multiplicity
 _atom_site_fract_x
 _atom_site_fract_y
 _atom_site_fract_z
 _atom_site_occupancy
  Tm  Tm0  1  0.00000000  0.00000000  0.00000000  1
  Cu  Cu1  1  0.24999996  0.74999999  0.49999994  1
  Cu  Cu2  1  0.74999998  0.25000000  0.49999995  1
  Ge  Ge3  1  0.62218497  0.62218499  0.24436994  1
  Ir  Ir4  1  0.37781498  0.37781499  0.75562995  1
