# generated using pymatgen
data_TmGaGe
_symmetry_space_group_name_H-M   'P 1'
_cell_length_a   4.03038311
_cell_length_b   7.41851807
_cell_length_c   7.41851807
_cell_angle_alpha   120.00000000
_cell_angle_beta   90.00000000
_cell_angle_gamma   90.00000000
_symmetry_Int_Tables_number   1
_chemical_formula_structural   TmGaGe
_chemical_formula_sum   'Tm3 Ga3 Ge3'
_cell_volume   192.09288502
_cell_formula_units_Z   3
loop_
 _symmetry_equiv_pos_site_id
 _symmetry_equiv_pos_as_xyz
  1  'x, y, z'
loop_
 _atom_site_type_symbol
 _atom_site_label
 _atom_site_symmetry_multiplicity
 _atom_site_fract_x
 _atom_site_fract_y
 _atom_site_fract_z
 _atom_site_occupancy
  Tm  Tm0  1  -0.00000000  0.40002800  0.40002799  1
  Tm  Tm1  1  -0.00000000  0.99999999  0.59997199  1
  Tm  Tm2  1  -0.00000000  0.59997199  -0.00000000  1
  Ga  Ga3  1  0.49999999  0.75608099  0.75608099  1
  Ga  Ga4  1  0.49999999  0.00000000  0.24391900  1
  Ga  Ga5  1  0.49999999  0.24391900  -0.00000000  1
  Ge  Ge6  1  0.49999999  0.66666666  0.33333333  1
  Ge  Ge7  1  0.49999999  0.33333333  0.66666666  1
  Ge  Ge8  1  0.00000000  0.00000000  0.00000000  1
