# generated using pymatgen
data_Eu3Cd5
_symmetry_space_group_name_H-M   'P 1'
_cell_length_a   6.69872904
_cell_length_b   6.69872904
_cell_length_c   10.70740986
_cell_angle_alpha   90.00000000
_cell_angle_beta   90.00000000
_cell_angle_gamma   101.02399445
_symmetry_Int_Tables_number   1
_chemical_formula_structural   Eu3Cd5
_chemical_formula_sum   'Eu6 Cd10'
_cell_volume   471.60720684
_cell_formula_units_Z   2
loop_
 _symmetry_equiv_pos_site_id
 _symmetry_equiv_pos_as_xyz
  1  'x, y, z'
loop_
 _atom_site_type_symbol
 _atom_site_label
 _atom_site_symmetry_multiplicity
 _atom_site_fract_x
 _atom_site_fract_y
 _atom_site_fract_z
 _atom_site_occupancy
  Eu  Eu0  1  0.20262296  0.79737697  -0.00000000  1
  Eu  Eu1  1  0.79737697  0.20262299  -0.00000000  1
  Eu  Eu2  1  0.79737697  0.20262299  0.50000001  1
  Eu  Eu3  1  0.20262296  0.79737697  0.50000001  1
  Eu  Eu4  1  0.62776396  0.62776398  0.75000001  1
  Eu  Eu5  1  0.37223597  0.37223599  0.25000000  1
  Cd  Cd6  1  0.49627498  0.07461000  0.75000001  1
  Cd  Cd7  1  0.50372495  0.92539096  0.25000000  1
  Cd  Cd8  1  0.07460898  0.49627498  0.75000001  1
  Cd  Cd9  1  0.92539095  0.50372498  0.25000000  1
  Cd  Cd10  1  0.02749800  0.02749800  0.75000001  1
  Cd  Cd11  1  0.97250193  0.97250196  0.25000000  1
  Cd  Cd12  1  0.30884498  0.30884499  0.94966901  1
  Cd  Cd13  1  0.69115495  0.69115497  0.05033100  1
  Cd  Cd14  1  0.69115495  0.69115497  0.44966901  1
  Cd  Cd15  1  0.30884498  0.30884499  0.55033101  1
