# generated using pymatgen
data_Tm4Co2O3
_symmetry_space_group_name_H-M   'P 1'
_cell_length_a   3.72795391
_cell_length_b   3.72795486
_cell_length_c   15.33345604
_cell_angle_alpha   90.00000000
_cell_angle_beta   90.00000000
_cell_angle_gamma   119.99999237
_symmetry_Int_Tables_number   1
_chemical_formula_structural   Tm4Co2O3
_chemical_formula_sum   'Tm4 Co2 O3'
_cell_volume   184.54908554
_cell_formula_units_Z   1
loop_
 _symmetry_equiv_pos_site_id
 _symmetry_equiv_pos_as_xyz
  1  'x, y, z'
loop_
 _atom_site_type_symbol
 _atom_site_label
 _atom_site_symmetry_multiplicity
 _atom_site_fract_x
 _atom_site_fract_y
 _atom_site_fract_z
 _atom_site_occupancy
  Tm  Tm0  1  0.33333336  0.66666669  0.59810100  1
  Tm  Tm1  1  0.66666669  0.33333335  0.40189900  1
  Tm  Tm2  1  0.33333336  0.66666669  0.17139600  1
  Tm  Tm3  1  0.66666669  0.33333335  0.82860400  1
  Co  Co4  1  0.00000000  0.00000000  0.50000000  1
  Co  Co5  1  0.33333336  0.66666669  0.31689000  1
  O  O6  1  0.66666669  0.33333335  0.68311000  1
  O  O7  1  0.33333336  0.66666669  0.89410800  1
  O  O8  1  0.66666669  0.33333335  0.10589200  1
