# generated using pymatgen
data_NaCaV2O4
_symmetry_space_group_name_H-M   'P 1'
_cell_length_a   5.57101011
_cell_length_b   5.57101011
_cell_length_c   5.57101011
_cell_angle_alpha   99.37155151
_cell_angle_beta   114.74509430
_cell_angle_gamma   114.74509430
_symmetry_Int_Tables_number   1
_chemical_formula_structural   NaCaV2O4
_chemical_formula_sum   'Na1 Ca1 V2 O4'
_cell_volume   130.08001397
_cell_formula_units_Z   1
loop_
 _symmetry_equiv_pos_site_id
 _symmetry_equiv_pos_as_xyz
  1  'x, y, z'
loop_
 _atom_site_type_symbol
 _atom_site_label
 _atom_site_symmetry_multiplicity
 _atom_site_fract_x
 _atom_site_fract_y
 _atom_site_fract_z
 _atom_site_occupancy
  Na  Na0  1  0.00000004  0.50000001  0.50000000  1
  Ca  Ca1  1  0.50000006  0.75000002  0.25000002  1
  V  V2  1  0.50000003  0.25000001  0.75000002  1
  V  V3  1  0.00000000  0.00000000  0.00000000  1
  O  O4  1  1.00000002  0.03042700  0.69442505  1
  O  O5  1  0.33600203  0.30557501  0.30557502  1
  O  O6  1  0.66399808  0.96957302  0.96957303  1
  O  O7  1  0.00000005  0.69442502  0.03042700  1
