# generated using pymatgen
data_NbZnSF
_symmetry_space_group_name_H-M   'P 1'
_cell_length_a   3.92488194
_cell_length_b   3.92488241
_cell_length_c   6.35716105
_cell_angle_alpha   90.00000000
_cell_angle_beta   90.00000000
_cell_angle_gamma   120.00000000
_symmetry_Int_Tables_number   1
_chemical_formula_structural   NbZnSF
_chemical_formula_sum   'Nb1 Zn1 S1 F1'
_cell_volume   84.81000569
_cell_formula_units_Z   1
loop_
 _symmetry_equiv_pos_site_id
 _symmetry_equiv_pos_as_xyz
  1  'x, y, z'
loop_
 _atom_site_type_symbol
 _atom_site_label
 _atom_site_symmetry_multiplicity
 _atom_site_fract_x
 _atom_site_fract_y
 _atom_site_fract_z
 _atom_site_occupancy
  Nb  Nb0  1  0.33333339  0.66666669  0.12398300  1
  Zn  Zn1  1  0.66666670  0.33333335  0.62398300  1
  F  F2  1  0.33333339  0.66666669  0.50101600  1
  S  S3  1  0.66666670  0.33333335  0.00101600  1
