# generated using pymatgen
data_Sm2Ga3
_symmetry_space_group_name_H-M   'P 1'
_cell_length_a   4.46984291
_cell_length_b   7.53299093
_cell_length_c   7.53299093
_cell_angle_alpha   90.00000000
_cell_angle_beta   90.00000000
_cell_angle_gamma   90.00000000
_symmetry_Int_Tables_number   1
_chemical_formula_structural   Sm2Ga3
_chemical_formula_sum   'Sm4 Ga6'
_cell_volume   253.64549300
_cell_formula_units_Z   2
loop_
 _symmetry_equiv_pos_site_id
 _symmetry_equiv_pos_as_xyz
  1  'x, y, z'
loop_
 _atom_site_type_symbol
 _atom_site_label
 _atom_site_symmetry_multiplicity
 _atom_site_fract_x
 _atom_site_fract_y
 _atom_site_fract_z
 _atom_site_occupancy
  Sm  Sm0  1  0.50000001  0.68056401  0.18056400  1
  Sm  Sm1  1  0.50000001  0.31943600  0.81943601  1
  Sm  Sm2  1  0.50000001  0.18056400  0.31943600  1
  Sm  Sm3  1  0.50000001  0.81943601  0.68056401  1
  Ga  Ga4  1  0.00000000  0.00000000  0.00000000  1
  Ga  Ga5  1  0.00000000  0.50000000  0.50000000  1
  Ga  Ga6  1  0.00000000  0.11270500  0.61270501  1
  Ga  Ga7  1  1.00000002  0.88729501  0.38729500  1
  Ga  Ga8  1  1.00000002  0.61270501  0.88729501  1
  Ga  Ga9  1  0.00000000  0.38729500  0.11270500  1
