# generated using pymatgen
data_TmTi(Co2Ge)4
_symmetry_space_group_name_H-M   'P 1'
_cell_length_a   3.76934600
_cell_length_b   7.24707890
_cell_length_c   7.24707890
_cell_angle_alpha   90.00000000
_cell_angle_beta   90.00000000
_cell_angle_gamma   90.00000000
_symmetry_Int_Tables_number   1
_chemical_formula_structural   TmTi(Co2Ge)4
_chemical_formula_sum   'Tm1 Ti1 Co8 Ge4'
_cell_volume   197.96662675
_cell_formula_units_Z   1
loop_
 _symmetry_equiv_pos_site_id
 _symmetry_equiv_pos_as_xyz
  1  'x, y, z'
loop_
 _atom_site_type_symbol
 _atom_site_label
 _atom_site_symmetry_multiplicity
 _atom_site_fract_x
 _atom_site_fract_y
 _atom_site_fract_z
 _atom_site_occupancy
  Tm  Tm0  1  0.00000000  0.50000001  0.50000001  1
  Ti  Ti1  1  0.50000000  0.00000000  -0.00000000  1
  Co  Co2  1  0.50000000  0.84608401  0.41177401  1
  Co  Co3  1  0.00000000  0.91177401  0.65391601  1
  Co  Co4  1  1.00000000  0.34608400  0.08822600  1
  Co  Co5  1  0.50000000  0.58822601  0.15391600  1
  Co  Co6  1  0.50000000  0.41177401  0.84608401  1
  Co  Co7  1  1.00000000  0.08822600  0.34608400  1
  Co  Co8  1  0.50000000  0.15391600  0.58822601  1
  Co  Co9  1  -0.00000000  0.65391601  0.91177401  1
  Ge  Ge10  1  0.50000000  0.71791601  0.71791601  1
  Ge  Ge11  1  0.50000000  0.28208400  0.28208400  1
  Ge  Ge12  1  1.00000000  0.78208401  0.21791600  1
  Ge  Ge13  1  1.00000000  0.21791600  0.78208401  1
