# generated using pymatgen
data_Sc(AlIr3)3
_symmetry_space_group_name_H-M   'P 1'
_cell_length_a   5.45387983
_cell_length_b   5.45388031
_cell_length_c   9.00282955
_cell_angle_alpha   90.00000000
_cell_angle_beta   90.00000000
_cell_angle_gamma   120.00000000
_symmetry_Int_Tables_number   1
_chemical_formula_structural   Sc(AlIr3)3
_chemical_formula_sum   'Sc1 Al3 Ir9'
_cell_volume   231.91072152
_cell_formula_units_Z   1
loop_
 _symmetry_equiv_pos_site_id
 _symmetry_equiv_pos_as_xyz
  1  'x, y, z'
loop_
 _atom_site_type_symbol
 _atom_site_label
 _atom_site_symmetry_multiplicity
 _atom_site_fract_x
 _atom_site_fract_y
 _atom_site_fract_z
 _atom_site_occupancy
  Sc  Sc0  1  0.00000000  0.00000000  0.00000000  1
  Al  Al1  1  0.50000002  0.00000000  0.24860801  1
  Al  Al2  1  0.50000003  0.50000001  0.24860801  1
  Al  Al3  1  0.00000002  0.50000001  0.24860801  1
  Ir  Ir4  1  0.50000002  0.00000000  0.75139204  1
  Ir  Ir5  1  0.50000003  0.50000001  0.75139204  1
  Ir  Ir6  1  0.00000002  0.50000001  0.75139204  1
  Ir  Ir7  1  0.33333337  0.66666668  -0.00000000  1
  Ir  Ir8  1  0.66666670  0.33333334  -0.00000000  1
  Ir  Ir9  1  0.33333337  0.66666668  0.50000002  1
  Ir  Ir10  1  0.66666670  0.33333334  0.50000002  1
  Ir  Ir11  1  0.00000000  0.00000000  0.33333335  1
  Ir  Ir12  1  0.00000000  0.00000000  0.66666670  1
