# generated using pymatgen
data_DyAl2
_symmetry_space_group_name_H-M   'P 1'
_cell_length_a   5.41546917
_cell_length_b   5.41546917
_cell_length_c   5.41546917
_cell_angle_alpha   88.56117249
_cell_angle_beta   60.49415970
_cell_angle_gamma   118.84083557
_symmetry_Int_Tables_number   1
_chemical_formula_structural   DyAl2
_chemical_formula_sum   'Dy2 Al4'
_cell_volume   113.66329404
_cell_formula_units_Z   2
loop_
 _symmetry_equiv_pos_site_id
 _symmetry_equiv_pos_as_xyz
  1  'x, y, z'
loop_
 _atom_site_type_symbol
 _atom_site_label
 _atom_site_symmetry_multiplicity
 _atom_site_fract_x
 _atom_site_fract_y
 _atom_site_fract_z
 _atom_site_occupancy
  Dy  Dy0  1  0.25000003  0.37029902  0.87970101  1
  Dy  Dy1  1  0.75000005  0.62970103  0.12029900  1
  Al  Al2  1  0.00000000  0.00000000  0.50000001  1
  Al  Al3  1  0.50000000  0.00000000  1.00000003  1
  Al  Al4  1  0.50000000  0.00000000  0.50000002  1
  Al  Al5  1  0.00000004  0.50000003  0.49999999  1
