# generated using pymatgen
data_Ca3EuGa2
_symmetry_space_group_name_H-M   'P 1'
_cell_length_a   5.00741577
_cell_length_b   5.00741577
_cell_length_c   7.11316299
_cell_angle_alpha   90.00000000
_cell_angle_beta   90.00000000
_cell_angle_gamma   90.00000000
_symmetry_Int_Tables_number   1
_chemical_formula_structural   Ca3EuGa2
_chemical_formula_sum   'Ca3 Eu1 Ga2'
_cell_volume   178.35696195
_cell_formula_units_Z   1
loop_
 _symmetry_equiv_pos_site_id
 _symmetry_equiv_pos_as_xyz
  1  'x, y, z'
loop_
 _atom_site_type_symbol
 _atom_site_label
 _atom_site_symmetry_multiplicity
 _atom_site_fract_x
 _atom_site_fract_y
 _atom_site_fract_z
 _atom_site_occupancy
  Ca  Ca0  1  0.50000002  0.00000000  0.76135900  1
  Ca  Ca1  1  0.00000000  0.50000002  0.23864100  1
  Ca  Ca2  1  0.50000002  0.00000000  0.23864100  1
  Eu  Eu3  1  0.00000000  0.50000002  0.76135900  1
  Ga  Ga4  1  0.50000002  0.50000002  0.50000000  1
  Ga  Ga5  1  0.00000000  0.00000000  0.00000000  1
