# generated using pymatgen
data_MgTlCu3Se4
_symmetry_space_group_name_H-M   'P 1'
_cell_length_a   4.12594414
_cell_length_b   5.49281788
_cell_length_c   12.44389629
_cell_angle_alpha   102.75034332
_cell_angle_beta   99.54265594
_cell_angle_gamma   90.00000000
_symmetry_Int_Tables_number   1
_chemical_formula_structural   MgTlCu3Se4
_chemical_formula_sum   'Mg1 Tl1 Cu3 Se4'
_cell_volume   271.05999147
_cell_formula_units_Z   1
loop_
 _symmetry_equiv_pos_site_id
 _symmetry_equiv_pos_as_xyz
  1  'x, y, z'
loop_
 _atom_site_type_symbol
 _atom_site_label
 _atom_site_symmetry_multiplicity
 _atom_site_fract_x
 _atom_site_fract_y
 _atom_site_fract_z
 _atom_site_occupancy
  Tl  Tl0  1  0.00000000  0.00000000  0.00000000  1
  Mg  Mg1  1  0.18791299  0.18791300  0.37582599  1
  Cu  Cu2  1  0.81208697  0.81208701  0.62417398  1
  Se  Se3  1  0.38072599  0.12451200  0.76145098  1
  Se  Se4  1  0.61927397  0.87548801  0.23854898  1
  Cu  Cu5  1  0.61927498  0.36306101  0.23854999  1
  Cu  Cu6  1  0.38072498  0.63693901  0.76144998  1
  Se  Se7  1  0.77236097  0.27236100  0.54472199  1
  Se  Se8  1  0.22763899  0.72763901  0.45527798  1
