# generated using pymatgen
data_CaDy5S8
_symmetry_space_group_name_H-M   'P 1'
_cell_length_a   7.40118170
_cell_length_b   7.40118170
_cell_length_c   7.40118170
_cell_angle_alpha   71.13867950
_cell_angle_beta   70.22296906
_cell_angle_gamma   109.77703094
_symmetry_Int_Tables_number   1
_chemical_formula_structural   CaDy5S8
_chemical_formula_sum   'Ca1 Dy5 S8'
_cell_volume   312.06453974
_cell_formula_units_Z   1
loop_
 _symmetry_equiv_pos_site_id
 _symmetry_equiv_pos_as_xyz
  1  'x, y, z'
loop_
 _atom_site_type_symbol
 _atom_site_label
 _atom_site_symmetry_multiplicity
 _atom_site_fract_x
 _atom_site_fract_y
 _atom_site_fract_z
 _atom_site_occupancy
  Dy  Dy0  1  0.11884207  0.98588703  0.63205892  1
  Ca  Ca1  1  0.38205301  0.13295400  0.98588797  1
  Dy  Dy2  1  0.88115801  0.24909901  0.13295496  1
  Dy  Dy3  1  0.00000003  0.50000002  0.49999996  1
  Dy  Dy4  1  0.61794704  0.63206002  0.24909794  1
  Dy  Dy5  1  0.50000005  0.75000003  0.74999992  1
  S  S6  1  0.89316505  0.86647303  0.37987891  1
  S  S7  1  0.75364800  0.02669200  0.86647297  1
  S  S8  1  0.60280001  0.24554701  0.51500196  1
  S  S9  1  0.23945202  0.35725401  0.24554597  1
  S  S10  1  0.76054803  0.51500202  0.88219893  1
  S  S11  1  0.24635202  0.37987901  0.72695596  1
  S  S12  1  0.10683505  0.72695602  0.02669194  1
  S  S13  1  0.39720006  0.88219803  0.35725392  1
