# generated using pymatgen
data_Li2C
_symmetry_space_group_name_H-M   'P 1'
_cell_length_a   3.65349007
_cell_length_b   6.18823814
_cell_length_c   6.18823767
_cell_angle_alpha   120.00000000
_cell_angle_beta   90.00000000
_cell_angle_gamma   90.00000000
_symmetry_Int_Tables_number   1
_chemical_formula_structural   Li2C
_chemical_formula_sum   'Li6 C3'
_cell_volume   121.16371088
_cell_formula_units_Z   3
loop_
 _symmetry_equiv_pos_site_id
 _symmetry_equiv_pos_as_xyz
  1  'x, y, z'
loop_
 _atom_site_type_symbol
 _atom_site_label
 _atom_site_symmetry_multiplicity
 _atom_site_fract_x
 _atom_site_fract_y
 _atom_site_fract_z
 _atom_site_occupancy
  Li  Li0  1  0.99999998  0.58766398  0.58766399  1
  Li  Li1  1  0.49999999  0.73885197  -0.00000002  1
  Li  Li2  1  0.49999999  0.00000000  0.73885201  1
  Li  Li3  1  -0.00000000  0.00000000  0.41233600  1
  Li  Li4  1  0.49999999  0.26114799  0.26114800  1
  Li  Li5  1  -0.00000000  0.41233598  -0.00000001  1
  C  C6  1  0.49999999  0.66666664  0.33333332  1
  C  C7  1  0.00000000  0.00000000  0.00000000  1
  C  C8  1  0.49999999  0.33333332  0.66666666  1
