# generated using pymatgen
data_Li2FeO3
_symmetry_space_group_name_H-M   'P 1'
_cell_length_a   3.07895207
_cell_length_b   5.47468090
_cell_length_c   5.59727764
_cell_angle_alpha   119.03727722
_cell_angle_beta   105.96440887
_cell_angle_gamma   90.00000000
_symmetry_Int_Tables_number   1
_chemical_formula_structural   Li2FeO3
_chemical_formula_sum   'Li2 Fe1 O3'
_cell_volume   78.30197629
_cell_formula_units_Z   1
loop_
 _symmetry_equiv_pos_site_id
 _symmetry_equiv_pos_as_xyz
  1  'x, y, z'
loop_
 _atom_site_type_symbol
 _atom_site_label
 _atom_site_symmetry_multiplicity
 _atom_site_fract_x
 _atom_site_fract_y
 _atom_site_fract_z
 _atom_site_occupancy
  Li  Li0  1  0.50000004  0.50000001  0.00000005  1
  Li  Li1  1  0.00000000  0.00000000  0.00000000  1
  Fe  Fe2  1  0.38358906  0.75490002  0.76717806  1
  O  O3  1  0.08992606  0.77675602  0.17985206  1
  O  O4  1  0.61641101  0.24510001  0.23282203  1
  O  O5  1  0.91007401  0.22324401  0.82014804  1
