# generated using pymatgen
data_YCdO4
_symmetry_space_group_name_H-M   'P 1'
_cell_length_a   3.92734218
_cell_length_b   3.92734218
_cell_length_c   6.92089891
_cell_angle_alpha   73.51701355
_cell_angle_beta   73.51701355
_cell_angle_gamma   60.00000000
_symmetry_Int_Tables_number   1
_chemical_formula_structural   YCdO4
_chemical_formula_sum   'Y1 Cd1 O4'
_cell_volume   87.34424320
_cell_formula_units_Z   1
loop_
 _symmetry_equiv_pos_site_id
 _symmetry_equiv_pos_as_xyz
  1  'x, y, z'
loop_
 _atom_site_type_symbol
 _atom_site_label
 _atom_site_symmetry_multiplicity
 _atom_site_fract_x
 _atom_site_fract_y
 _atom_site_fract_z
 _atom_site_occupancy
  Y  Y0  1  0.75872304  0.75872298  0.72383094  1
  Cd  Cd1  1  0.24127701  0.24127699  0.27616898  1
  O  O2  1  0.87796905  0.87796897  0.36609294  1
  O  O3  1  0.12203101  0.12203100  0.63390698  1
  O  O4  1  0.37016802  0.37016799  0.88949596  1
  O  O5  1  0.62983204  0.62983198  0.11050396  1
