# generated using pymatgen
data_Ca2TiRuO6
_symmetry_space_group_name_H-M   'P 1'
_cell_length_a   5.55062914
_cell_length_b   5.69660091
_cell_length_c   7.93805790
_cell_angle_alpha   90.00000000
_cell_angle_beta   89.97193909
_cell_angle_gamma   90.00000000
_symmetry_Int_Tables_number   1
_chemical_formula_structural   Ca2TiRuO6
_chemical_formula_sum   'Ca4 Ti2 Ru2 O12'
_cell_volume   250.99913029
_cell_formula_units_Z   2
loop_
 _symmetry_equiv_pos_site_id
 _symmetry_equiv_pos_as_xyz
  1  'x, y, z'
loop_
 _atom_site_type_symbol
 _atom_site_label
 _atom_site_symmetry_multiplicity
 _atom_site_fract_x
 _atom_site_fract_y
 _atom_site_fract_z
 _atom_site_occupancy
  Ca  Ca0  1  0.51353499  0.54818601  0.24966601  1
  Ca  Ca1  1  0.01353500  0.95181401  0.74966600  1
  Ca  Ca2  1  0.48646499  0.45181401  0.75033402  1
  Ca  Ca3  1  0.98646498  0.04818600  0.25033403  1
  Ti  Ti4  1  0.99999997  0.50000001  0.50000003  1
  Ti  Ti5  1  0.49999999  0.00000000  0.00000001  1
  Ru  Ru6  1  0.49999999  0.00000000  0.50000002  1
  Ru  Ru7  1  0.00000000  0.50000001  -0.00000000  1
  O  O8  1  0.78924798  0.79985301  0.44989102  1
  O  O9  1  0.28924799  0.70014701  0.94989101  1
  O  O10  1  0.21075199  0.20014700  0.55010901  1
  O  O11  1  0.71075198  0.29985300  0.05010902  1
  O  O12  1  0.80367798  0.78758301  0.05342302  1
  O  O13  1  0.30367799  0.71241701  0.55342301  1
  O  O14  1  0.19632200  0.21241700  0.94657701  1
  O  O15  1  0.69632198  0.28758300  0.44657702  1
  O  O16  1  0.40214899  0.96626401  0.25728901  1
  O  O17  1  0.90214898  0.53373601  0.75728903  1
  O  O18  1  0.59785099  0.03373600  0.74271102  1
  O  O19  1  0.09785100  0.46626401  0.24271100  1
