# generated using pymatgen
data_LiTiO3
_symmetry_space_group_name_H-M   'P 1'
_cell_length_a   5.20890713
_cell_length_b   5.41610146
_cell_length_c   7.70572710
_cell_angle_alpha   89.97378540
_cell_angle_beta   90.31905365
_cell_angle_gamma   89.98069000
_symmetry_Int_Tables_number   1
_chemical_formula_structural   LiTiO3
_chemical_formula_sum   'Li4 Ti4 O12'
_cell_volume   217.39033192
_cell_formula_units_Z   4
loop_
 _symmetry_equiv_pos_site_id
 _symmetry_equiv_pos_as_xyz
  1  'x, y, z'
loop_
 _atom_site_type_symbol
 _atom_site_label
 _atom_site_symmetry_multiplicity
 _atom_site_fract_x
 _atom_site_fract_y
 _atom_site_fract_z
 _atom_site_occupancy
  Li  Li0  1  0.99967097  0.49988298  0.00004303  1
  Li  Li1  1  0.49994997  0.99995696  0.50000304  1
  Li  Li2  1  0.47690298  0.56153098  0.75337402  1
  Li  Li3  1  0.97710296  0.93847996  0.25353804  1
  Ti  Ti4  1  0.52309898  0.43856598  0.24655102  1
  Ti  Ti5  1  0.02307500  0.06152400  0.74645700  1
  Ti  Ti6  1  0.00016899  0.49966998  0.50023401  1
  Ti  Ti7  1  0.49977497  0.99996496  0.00002604  1
  O  O8  1  0.87379797  0.44094998  0.76173202  1
  O  O9  1  0.37388299  0.05922200  0.26176100  1
  O  O10  1  0.12621299  0.55918198  0.23825602  1
  O  O11  1  0.62623697  0.94090996  0.73816803  1
  O  O12  1  0.70256597  0.69096397  0.06219003  1
  O  O13  1  0.20273398  0.80923396  0.56209703  1
  O  O14  1  0.29741899  0.30920199  0.93782701  1
  O  O15  1  0.79731398  0.19082799  0.43778601  1
  O  O16  1  0.18514498  0.79350597  0.92691702  1
  O  O17  1  0.68531197  0.70635597  0.42693703  1
  O  O18  1  0.81480098  0.20647199  0.07305901  1
  O  O19  1  0.31483399  0.29359699  0.57304201  1
