# generated using pymatgen
data_TiZn2P3
_symmetry_space_group_name_H-M   'P 1'
_cell_length_a   4.00528002
_cell_length_b   4.00528002
_cell_length_c   5.01504898
_cell_angle_alpha   90.00000000
_cell_angle_beta   90.00000000
_cell_angle_gamma   120.00000000
_symmetry_Int_Tables_number   1
_chemical_formula_structural   TiZn2P3
_chemical_formula_sum   'Ti1 Zn2 P3'
_cell_volume   69.67413387
_cell_formula_units_Z   1
loop_
 _symmetry_equiv_pos_site_id
 _symmetry_equiv_pos_as_xyz
  1  'x, y, z'
loop_
 _atom_site_type_symbol
 _atom_site_label
 _atom_site_symmetry_multiplicity
 _atom_site_fract_x
 _atom_site_fract_y
 _atom_site_fract_z
 _atom_site_occupancy
  Ti  Ti0  1  0.66666665  0.33333331  0.25000000  1
  Zn  Zn1  1  0.00000000  0.00000000  0.00000000  1
  P  P2  1  0.00000000  0.00000000  0.50000000  1
  Zn  Zn3  1  0.33333331  0.66666662  0.75000000  1
  P  P4  1  0.33333331  0.66666662  0.25000000  1
  P  P5  1  0.66666665  0.33333331  0.75000000  1
