# generated using pymatgen
data_LiSbO3
_symmetry_space_group_name_H-M   'P 1'
_cell_length_a   5.50835705
_cell_length_b   5.87742186
_cell_length_c   8.15035439
_cell_angle_alpha   90.00000000
_cell_angle_beta   89.77523804
_cell_angle_gamma   90.00000000
_symmetry_Int_Tables_number   1
_chemical_formula_structural   LiSbO3
_chemical_formula_sum   'Li4 Sb4 O12'
_cell_volume   263.86518848
_cell_formula_units_Z   4
loop_
 _symmetry_equiv_pos_site_id
 _symmetry_equiv_pos_as_xyz
  1  'x, y, z'
loop_
 _atom_site_type_symbol
 _atom_site_label
 _atom_site_symmetry_multiplicity
 _atom_site_fract_x
 _atom_site_fract_y
 _atom_site_fract_z
 _atom_site_occupancy
  Li  Li0  1  0.02203500  0.30636901  0.75136003  1
  Li  Li1  1  0.52203500  0.69363102  0.25135999  1
  Li  Li2  1  0.52355400  0.63619302  0.74621001  1
  Li  Li3  1  0.02355400  0.36380701  0.24621001  1
  Sb  Sb4  1  0.99760699  0.77233902  0.99712100  1
  Sb  Sb5  1  0.99868799  0.76259202  0.50252598  1
  Sb  Sb6  1  0.49760700  0.22766101  0.49712100  1
  Sb  Sb7  1  0.49868800  0.23740801  0.00252598  1
  O  O8  1  0.10547100  0.74901502  0.24648701  1
  O  O9  1  0.17492300  0.05906800  0.95075303  1
  O  O10  1  0.19394300  0.05995500  0.56064802  1
  O  O11  1  0.31436100  0.54327501  0.55668101  1
  O  O12  1  0.29934300  0.55846701  0.93413703  1
  O  O13  1  0.37007800  0.28784501  0.25408100  1
  O  O14  1  0.60547099  0.25098501  0.74648701  1
  O  O15  1  0.69394299  0.94004502  0.06064798  1
  O  O16  1  0.67492299  0.94093202  0.45075299  1
  O  O17  1  0.81436099  0.45672501  0.05668097  1
  O  O18  1  0.79934299  0.44153301  0.43413699  1
  O  O19  1  0.87007799  0.71215502  0.75408100  1
