# generated using pymatgen
data_BeTc6Os
_symmetry_space_group_name_H-M   'P 1'
_cell_length_a   4.36353111
_cell_length_b   5.53963423
_cell_length_c   5.53963327
_cell_angle_alpha   120.00000763
_cell_angle_beta   90.00000000
_cell_angle_gamma   90.00000000
_symmetry_Int_Tables_number   1
_chemical_formula_structural   BeTc6Os
_chemical_formula_sum   'Be1 Tc6 Os1'
_cell_volume   115.96602751
_cell_formula_units_Z   1
loop_
 _symmetry_equiv_pos_site_id
 _symmetry_equiv_pos_as_xyz
  1  'x, y, z'
loop_
 _atom_site_type_symbol
 _atom_site_label
 _atom_site_symmetry_multiplicity
 _atom_site_fract_x
 _atom_site_fract_y
 _atom_site_fract_z
 _atom_site_occupancy
  Tc  Tc0  1  0.24999999  0.16181200  0.32362402  1
  Tc  Tc1  1  0.24999999  0.67637500  0.83818706  1
  Be  Be2  1  0.24999999  0.16181200  0.83818702  1
  Tc  Tc3  1  0.74999998  0.83818800  0.67637607  1
  Tc  Tc4  1  0.74999998  0.32362500  0.16181303  1
  Tc  Tc5  1  0.74999998  0.83818800  0.16181306  1
  Tc  Tc6  1  0.74999998  0.33333333  0.66666670  1
  Os  Os7  1  0.24999999  0.66666666  0.33333339  1
