# generated using pymatgen
data_Zr3(NiGe2)2
_symmetry_space_group_name_H-M   'P 1'
_cell_length_a   3.95125508
_cell_length_b   6.36351585
_cell_length_c   6.36351633
_cell_angle_alpha   120.00000000
_cell_angle_beta   90.00000000
_cell_angle_gamma   90.00000000
_symmetry_Int_Tables_number   1
_chemical_formula_structural   Zr3(NiGe2)2
_chemical_formula_sum   'Zr3 Ni2 Ge4'
_cell_volume   138.56705684
_cell_formula_units_Z   1
loop_
 _symmetry_equiv_pos_site_id
 _symmetry_equiv_pos_as_xyz
  1  'x, y, z'
loop_
 _atom_site_type_symbol
 _atom_site_label
 _atom_site_symmetry_multiplicity
 _atom_site_fract_x
 _atom_site_fract_y
 _atom_site_fract_z
 _atom_site_occupancy
  Zr  Zr0  1  0.49999999  1.00000004  0.41911705  1
  Zr  Zr1  1  0.49999999  0.41911702  0.00000002  1
  Zr  Zr2  1  0.49999999  0.58088303  0.58088303  1
  Ge  Ge3  1  -0.00000000  0.33333335  0.66666669  1
  Ni  Ni4  1  -0.00000000  0.66666670  0.33333337  1
  Ni  Ni5  1  0.49999999  0.00000000  -0.00000000  1
  Ge  Ge6  1  -0.00000000  1.00000004  0.75024305  1
  Ge  Ge7  1  -0.00000000  0.75024303  0.00000003  1
  Ge  Ge8  1  -0.00000000  0.24975701  0.24975701  1
