# generated using pymatgen
data_NaPO4
_symmetry_space_group_name_H-M   'P 1'
_cell_length_a   5.79590225
_cell_length_b   5.79590225
_cell_length_c   5.79590225
_cell_angle_alpha   105.92383575
_cell_angle_beta   105.92383575
_cell_angle_gamma   116.82592773
_symmetry_Int_Tables_number   1
_chemical_formula_structural   NaPO4
_chemical_formula_sum   'Na2 P2 O8'
_cell_volume   148.00440132
_cell_formula_units_Z   2
loop_
 _symmetry_equiv_pos_site_id
 _symmetry_equiv_pos_as_xyz
  1  'x, y, z'
loop_
 _atom_site_type_symbol
 _atom_site_label
 _atom_site_symmetry_multiplicity
 _atom_site_fract_x
 _atom_site_fract_y
 _atom_site_fract_z
 _atom_site_occupancy
  Na  Na0  1  0.49999999  0.50000000  0.00000001  1
  Na  Na1  1  0.24999997  0.75000000  0.50000002  1
  P  P2  1  0.75000001  0.25000000  0.50000003  1
  P  P3  1  0.00000000  0.00000000  0.00000000  1
  O  O4  1  0.15988395  0.98593600  0.82605203  1
  O  O5  1  0.73593500  0.40988300  0.32605103  1
  O  O6  1  0.08383198  0.40988400  0.67394802  1
  O  O7  1  0.15988399  0.33383200  0.17394901  1
  O  O8  1  0.01406496  0.84011700  0.17394901  1
  O  O9  1  0.59011601  0.26406400  0.67394803  1
  O  O10  1  0.59011597  0.91616800  0.32605103  1
  O  O11  1  0.66616798  0.84011600  0.82605204  1
