# generated using pymatgen
data_K2Eu2B2RuO7
_symmetry_space_group_name_H-M   'P 1'
_cell_length_a   3.90498209
_cell_length_b   8.13882256
_cell_length_c   8.13882256
_cell_angle_alpha   109.09551239
_cell_angle_beta   90.00000000
_cell_angle_gamma   90.00000000
_symmetry_Int_Tables_number   1
_chemical_formula_structural   K2Eu2B2RuO7
_chemical_formula_sum   'K2 Eu2 B2 Ru1 O7'
_cell_volume   244.43439308
_cell_formula_units_Z   1
loop_
 _symmetry_equiv_pos_site_id
 _symmetry_equiv_pos_as_xyz
  1  'x, y, z'
loop_
 _atom_site_type_symbol
 _atom_site_label
 _atom_site_symmetry_multiplicity
 _atom_site_fract_x
 _atom_site_fract_y
 _atom_site_fract_z
 _atom_site_occupancy
  K  K0  1  0.49999999  0.28733601  0.28733600  1
  K  K1  1  0.49999999  0.71266402  0.71266401  1
  Eu  Eu2  1  -0.00000000  0.13480200  0.86519802  1
  Eu  Eu3  1  -0.00000000  0.86519802  0.13480199  1
  B  B4  1  0.49999999  0.50000001  1.00000002  1
  B  B5  1  0.49999999  0.00000000  0.50000001  1
  O  O6  1  0.49999999  0.34680101  0.99483202  1
  O  O7  1  0.49999999  0.65319901  0.00516799  1
  Ru  Ru8  1  0.49999999  0.00516800  0.65319902  1
  O  O9  1  0.49999999  0.99483202  0.34680099  1
  O  O10  1  -0.00000000  0.15646600  0.15646600  1
  O  O11  1  -0.00000000  0.84353402  0.84353401  1
  O  O12  1  -0.00000000  0.37749201  0.62250801  1
  O  O13  1  0.99999998  0.62250801  0.37749200  1
