# generated using pymatgen
data_Li2Mn3(NiO4)2
_symmetry_space_group_name_H-M   'P 1'
_cell_length_a   5.75610209
_cell_length_b   5.75610209
_cell_length_c   5.75610209
_cell_angle_alpha   90.00000000
_cell_angle_beta   90.00000000
_cell_angle_gamma   90.00000000
_symmetry_Int_Tables_number   1
_chemical_formula_structural   Li2Mn3(NiO4)2
_chemical_formula_sum   'Li2 Mn3 Ni2 O8'
_cell_volume   190.71526811
_cell_formula_units_Z   1
loop_
 _symmetry_equiv_pos_site_id
 _symmetry_equiv_pos_as_xyz
  1  'x, y, z'
loop_
 _atom_site_type_symbol
 _atom_site_label
 _atom_site_symmetry_multiplicity
 _atom_site_fract_x
 _atom_site_fract_y
 _atom_site_fract_z
 _atom_site_occupancy
  Li  Li0  1  0.49999999  0.49999999  0.49999999  1
  Li  Li1  1  0.00000000  0.49999999  0.75581799  1
  Mn  Mn2  1  0.49999999  0.24418200  -0.00000000  1
  Mn  Mn3  1  0.75581799  0.00000000  0.49999999  1
  Mn  Mn4  1  0.00000000  0.49999999  0.24418200  1
  Ni  Ni5  1  0.49999999  0.75581799  -0.00000000  1
  Ni  Ni6  1  0.24418200  0.00000000  0.49999999  1
  O  O7  1  0.73533699  0.26466300  0.73533699  1
  O  O8  1  0.26466300  0.73533699  0.26466300  1
  O  O9  1  0.73533699  0.73533699  0.26466300  1
  O  O10  1  0.26466300  0.26466300  0.73533699  1
  O  O11  1  0.26466300  0.73533699  0.73533699  1
  O  O12  1  0.73533699  0.26466300  0.26466300  1
  O  O13  1  0.26466300  0.26466300  0.26466300  1
  O  O14  1  0.73533699  0.73533699  0.73533699  1
