# generated using pymatgen
data_Li4NiO5
_symmetry_space_group_name_H-M   'P 1'
_cell_length_a   5.27874565
_cell_length_b   5.27874565
_cell_length_c   5.67150784
_cell_angle_alpha   62.26557159
_cell_angle_beta   62.26557159
_cell_angle_gamma   60.00000763
_symmetry_Int_Tables_number   1
_chemical_formula_structural   Li4NiO5
_chemical_formula_sum   'Li4 Ni1 O5'
_cell_volume   115.42438132
_cell_formula_units_Z   1
loop_
 _symmetry_equiv_pos_site_id
 _symmetry_equiv_pos_as_xyz
  1  'x, y, z'
loop_
 _atom_site_type_symbol
 _atom_site_label
 _atom_site_symmetry_multiplicity
 _atom_site_fract_x
 _atom_site_fract_y
 _atom_site_fract_z
 _atom_site_occupancy
  Li  Li0  1  0.77166200  0.77166197  0.68501399  1
  Li  Li1  1  0.27184800  0.27184799  0.18445600  1
  Li  Li2  1  0.47859400  0.47859398  0.56421799  1
  Li  Li3  1  0.97679900  0.97679896  0.06960299  1
  Ni  Ni4  1  0.59373701  0.87931797  0.34691799  1
  O  O5  1  0.36242599  0.07501200  0.85905900  1
  O  O6  1  0.07501202  0.70350297  0.85905899  1
  O  O7  1  0.70350299  0.36242599  0.85905899  1
  O  O8  1  0.18002701  0.59373698  0.34691799  1
  O  O9  1  0.87931798  0.18002699  0.34691800  1
