# generated using pymatgen
data_Ce2Si3Pt
_symmetry_space_group_name_H-M   'P 1'
_cell_length_a   4.19507885
_cell_length_b   4.34809923
_cell_length_c   7.38142300
_cell_angle_alpha   90.00000000
_cell_angle_beta   90.00000000
_cell_angle_gamma   90.00000000
_symmetry_Int_Tables_number   1
_chemical_formula_structural   Ce2Si3Pt
_chemical_formula_sum   'Ce2 Si3 Pt1'
_cell_volume   134.64172547
_cell_formula_units_Z   1
loop_
 _symmetry_equiv_pos_site_id
 _symmetry_equiv_pos_as_xyz
  1  'x, y, z'
loop_
 _atom_site_type_symbol
 _atom_site_label
 _atom_site_symmetry_multiplicity
 _atom_site_fract_x
 _atom_site_fract_y
 _atom_site_fract_z
 _atom_site_occupancy
  Ce  Ce0  1  0.00000000  0.49999997  0.99693800  1
  Ce  Ce1  1  0.00000000  0.00000000  0.50123200  1
  Si  Si2  1  0.50000002  0.00000000  0.83549900  1
  Si  Si3  1  0.50000002  0.00000000  0.17323300  1
  Pt  Pt4  1  0.50000002  0.49999997  0.66223100  1
  Si  Si5  1  0.50000002  0.49999997  0.33086700  1
