# generated using pymatgen
data_HoNiSn
_symmetry_space_group_name_H-M   'P 1'
_cell_length_a   4.01889420
_cell_length_b   7.02502012
_cell_length_c   7.02501917
_cell_angle_alpha   120.00000000
_cell_angle_beta   90.00000000
_cell_angle_gamma   90.00000000
_symmetry_Int_Tables_number   1
_chemical_formula_structural   HoNiSn
_chemical_formula_sum   'Ho3 Ni3 Sn3'
_cell_volume   171.76405750
_cell_formula_units_Z   3
loop_
 _symmetry_equiv_pos_site_id
 _symmetry_equiv_pos_as_xyz
  1  'x, y, z'
loop_
 _atom_site_type_symbol
 _atom_site_label
 _atom_site_symmetry_multiplicity
 _atom_site_fract_x
 _atom_site_fract_y
 _atom_site_fract_z
 _atom_site_occupancy
  Ho  Ho0  1  0.99999995  0.42034898  0.42034898  1
  Ho  Ho1  1  -0.00000000  0.99999995  0.57965095  1
  Ho  Ho2  1  0.99999995  0.57965097  -0.00000004  1
  Sn  Sn3  1  0.49999998  0.77268096  0.77268097  1
  Sn  Sn4  1  0.49999998  0.99999995  0.22731894  1
  Sn  Sn5  1  0.49999998  0.22731899  -0.00000001  1
  Ni  Ni6  1  0.49999998  0.66666663  0.33333330  1
  Ni  Ni7  1  0.49999998  0.33333332  0.66666666  1
  Ni  Ni8  1  0.00000000  0.00000000  0.00000000  1
