# generated using pymatgen
data_LiAlFeN2
_symmetry_space_group_name_H-M   'P 1'
_cell_length_a   3.39584947
_cell_length_b   3.39585400
_cell_length_c   6.14855719
_cell_angle_alpha   89.99975586
_cell_angle_beta   89.99978638
_cell_angle_gamma   60.00065994
_symmetry_Int_Tables_number   1
_chemical_formula_structural   LiAlFeN2
_chemical_formula_sum   'Li1 Al1 Fe1 N2'
_cell_volume   61.40506229
_cell_formula_units_Z   1
loop_
 _symmetry_equiv_pos_site_id
 _symmetry_equiv_pos_as_xyz
  1  'x, y, z'
loop_
 _atom_site_type_symbol
 _atom_site_label
 _atom_site_symmetry_multiplicity
 _atom_site_fract_x
 _atom_site_fract_y
 _atom_site_fract_z
 _atom_site_occupancy
  Li  Li0  1  0.66666666  0.66666667  0.30132201  1
  Al  Al1  1  0.33333333  0.33333334  0.69867799  1
  Fe  Fe2  1  0.00000000  0.00000000  0.00000000  1
  N  N3  1  0.66666666  0.66666667  0.63586300  1
  N  N4  1  0.33333333  0.33333334  0.36413700  1
