# generated using pymatgen
data_Nb2Ge
_symmetry_space_group_name_H-M   'P 1'
_cell_length_a   3.44433808
_cell_length_b   7.20310163
_cell_length_c   7.20310163
_cell_angle_alpha   86.72303772
_cell_angle_beta   76.16732788
_cell_angle_gamma   76.16732788
_symmetry_Int_Tables_number   1
_chemical_formula_structural   Nb2Ge
_chemical_formula_sum   'Nb6 Ge3'
_cell_volume   168.49290599
_cell_formula_units_Z   3
loop_
 _symmetry_equiv_pos_site_id
 _symmetry_equiv_pos_as_xyz
  1  'x, y, z'
loop_
 _atom_site_type_symbol
 _atom_site_label
 _atom_site_symmetry_multiplicity
 _atom_site_fract_x
 _atom_site_fract_y
 _atom_site_fract_z
 _atom_site_occupancy
  Nb  Nb0  1  0.00000000  0.00000000  0.00000000  1
  Nb  Nb1  1  0.31807899  0.06774900  0.29609300  1
  Nb  Nb2  1  0.61417188  0.70390702  0.06774904  1
  Nb  Nb3  1  0.38582795  0.29609301  0.93225103  1
  Nb  Nb4  1  0.68192085  0.93225103  0.70390706  1
  Nb  Nb5  1  0.06302196  0.22701401  0.64694203  1
  Ge  Ge6  1  0.70996394  0.35305801  0.22701401  1
  Ge  Ge7  1  0.29003590  0.64694202  0.77298605  1
  Ge  Ge8  1  0.93697787  0.77298602  0.35305804  1
