# generated using pymatgen
data_LaSiP
_symmetry_space_group_name_H-M   'P 1'
_cell_length_a   4.12973213
_cell_length_b   4.12973213
_cell_length_c   8.51533031
_cell_angle_alpha   90.00000000
_cell_angle_beta   90.00000000
_cell_angle_gamma   120.00000000
_symmetry_Int_Tables_number   1
_chemical_formula_structural   LaSiP
_chemical_formula_sum   'La2 Si2 P2'
_cell_volume   125.76966278
_cell_formula_units_Z   2
loop_
 _symmetry_equiv_pos_site_id
 _symmetry_equiv_pos_as_xyz
  1  'x, y, z'
loop_
 _atom_site_type_symbol
 _atom_site_label
 _atom_site_symmetry_multiplicity
 _atom_site_fract_x
 _atom_site_fract_y
 _atom_site_fract_z
 _atom_site_occupancy
  La  La0  1  0.00000000  0.00000000  0.00000000  1
  La  La1  1  0.00000000  0.00000000  0.49999998  1
  Si  Si2  1  0.33333334  0.66666668  0.74999997  1
  Si  Si3  1  0.66666665  0.33333334  0.24999999  1
  P  P4  1  0.33333334  0.66666668  0.24999999  1
  P  P5  1  0.66666665  0.33333334  0.74999997  1
