# generated using pymatgen
data_HfGa3
_symmetry_space_group_name_H-M   'P 1'
_cell_length_a   3.87509203
_cell_length_b   3.87509203
_cell_length_c   8.69401455
_cell_angle_alpha   90.00000000
_cell_angle_beta   90.00000000
_cell_angle_gamma   90.00000000
_symmetry_Int_Tables_number   1
_chemical_formula_structural   HfGa3
_chemical_formula_sum   'Hf2 Ga6'
_cell_volume   130.55226311
_cell_formula_units_Z   2
loop_
 _symmetry_equiv_pos_site_id
 _symmetry_equiv_pos_as_xyz
  1  'x, y, z'
loop_
 _atom_site_type_symbol
 _atom_site_label
 _atom_site_symmetry_multiplicity
 _atom_site_fract_x
 _atom_site_fract_y
 _atom_site_fract_z
 _atom_site_occupancy
  Hf  Hf0  1  0.50000000  0.50000000  0.50000003  1
  Hf  Hf1  1  0.50000000  0.50000000  0.00000000  1
  Ga  Ga2  1  0.00000000  0.00000000  0.50000003  1
  Ga  Ga3  1  0.00000000  0.50000000  0.24274801  1
  Ga  Ga4  1  0.50000000  0.00000000  0.75725204  1
  Ga  Ga5  1  0.50000000  0.00000000  0.24274801  1
  Ga  Ga6  1  0.00000000  0.50000000  0.75725204  1
  Ga  Ga7  1  0.00000000  0.00000000  0.00000000  1
