# generated using pymatgen
data_Ce2Si3Pt
_symmetry_space_group_name_H-M   'P 1'
_cell_length_a   4.07855988
_cell_length_b   4.21377373
_cell_length_c   7.33266830
_cell_angle_alpha   90.00000000
_cell_angle_beta   90.00000000
_cell_angle_gamma   90.00000000
_symmetry_Int_Tables_number   1
_chemical_formula_structural   Ce2Si3Pt
_chemical_formula_sum   'Ce2 Si3 Pt1'
_cell_volume   126.02017935
_cell_formula_units_Z   1
loop_
 _symmetry_equiv_pos_site_id
 _symmetry_equiv_pos_as_xyz
  1  'x, y, z'
loop_
 _atom_site_type_symbol
 _atom_site_label
 _atom_site_symmetry_multiplicity
 _atom_site_fract_x
 _atom_site_fract_y
 _atom_site_fract_z
 _atom_site_occupancy
  Ce  Ce0  1  0.00000000  0.49998700  0.50000001  1
  Ce  Ce1  1  0.00000000  0.99998400  0.00000003  1
  Si  Si2  1  0.50000002  0.99995800  0.33312003  1
  Si  Si3  1  0.50000002  0.49995700  0.83400800  1
  Si  Si4  1  0.50000002  0.49995700  0.16599201  1
  Pt  Pt5  1  0.50000002  0.99995800  0.66688002  1
