# generated using pymatgen
data_LiTiCoS4
_symmetry_space_group_name_H-M   'P 1'
_cell_length_a   7.01679611
_cell_length_b   7.01679611
_cell_length_c   7.01679611
_cell_angle_alpha   87.53874969
_cell_angle_beta   61.41068268
_cell_angle_gamma   118.58931732
_symmetry_Int_Tables_number   1
_chemical_formula_structural   LiTiCoS4
_chemical_formula_sum   'Li2 Ti2 Co2 S8'
_cell_volume   249.24771104
_cell_formula_units_Z   2
loop_
 _symmetry_equiv_pos_site_id
 _symmetry_equiv_pos_as_xyz
  1  'x, y, z'
loop_
 _atom_site_type_symbol
 _atom_site_label
 _atom_site_symmetry_multiplicity
 _atom_site_fract_x
 _atom_site_fract_y
 _atom_site_fract_z
 _atom_site_occupancy
  Li  Li0  1  0.00000000  0.00000000  0.00000000  1
  Li  Li1  1  0.50000000  0.25000000  0.25000000  1
  Ti  Ti2  1  0.25000000  0.62500001  0.62499998  1
  Ti  Ti3  1  0.75000001  0.62500001  0.62499999  1
  Co  Co4  1  0.75000000  0.12500000  0.62500001  1
  Co  Co5  1  0.25000000  0.62500001  0.12499998  1
  S  S6  1  0.22068500  0.84252201  0.37816297  1
  S  S7  1  0.77931500  0.37816301  0.84252201  1
  S  S8  1  0.77931500  0.40115201  0.37816300  1
  S  S9  1  0.22068500  0.37816301  0.40115199  1
  S  S10  1  0.27931500  0.40747801  0.87183700  1
  S  S11  1  0.27931501  0.87183701  0.84884798  1
  S  S12  1  0.72068501  0.84884801  0.87183699  1
  S  S13  1  0.72068501  0.87183701  0.40747798  1
