# generated using pymatgen
data_Li2YbMg4Sc
_symmetry_space_group_name_H-M   'P 1'
_cell_length_a   5.09325838
_cell_length_b   5.09325838
_cell_length_c   8.78549957
_cell_angle_alpha   73.14998627
_cell_angle_beta   73.14998627
_cell_angle_gamma   59.99999619
_symmetry_Int_Tables_number   1
_chemical_formula_structural   Li2YbMg4Sc
_chemical_formula_sum   'Li2 Yb1 Mg4 Sc1'
_cell_volume   185.98908387
_cell_formula_units_Z   1
loop_
 _symmetry_equiv_pos_site_id
 _symmetry_equiv_pos_as_xyz
  1  'x, y, z'
loop_
 _atom_site_type_symbol
 _atom_site_label
 _atom_site_symmetry_multiplicity
 _atom_site_fract_x
 _atom_site_fract_y
 _atom_site_fract_z
 _atom_site_occupancy
  Li  Li0  1  0.24814300  0.24814300  0.25557098  1
  Yb  Yb1  1  0.75185699  0.75185699  0.74442894  1
  Li  Li2  1  0.62746099  0.62746099  0.11761698  1
  Mg  Mg3  1  0.12225900  0.12225900  0.63322297  1
  Mg  Mg4  1  0.87774099  0.87774099  0.36677696  1
  Mg  Mg5  1  0.37253899  0.37253899  0.88238295  1
  Mg  Mg6  1  0.49999999  0.49999999  0.49999996  1
  Sc  Sc7  1  0.00000000  0.00000000  0.00000000  1
