# generated using pymatgen
data_TmAl2
_symmetry_space_group_name_H-M   'P 1'
_cell_length_a   5.49280596
_cell_length_b   5.49280548
_cell_length_c   8.51981640
_cell_angle_alpha   90.00000000
_cell_angle_beta   90.00000000
_cell_angle_gamma   120.00000000
_symmetry_Int_Tables_number   1
_chemical_formula_structural   TmAl2
_chemical_formula_sum   'Tm4 Al8'
_cell_volume   222.61239605
_cell_formula_units_Z   4
loop_
 _symmetry_equiv_pos_site_id
 _symmetry_equiv_pos_as_xyz
  1  'x, y, z'
loop_
 _atom_site_type_symbol
 _atom_site_label
 _atom_site_symmetry_multiplicity
 _atom_site_fract_x
 _atom_site_fract_y
 _atom_site_fract_z
 _atom_site_occupancy
  Tm  Tm0  1  0.66666665  0.33333333  0.55574597  1
  Tm  Tm1  1  0.33333330  0.66666666  0.05574600  1
  Tm  Tm2  1  0.33333330  0.66666666  0.44425398  1
  Tm  Tm3  1  0.66666665  0.33333333  0.94425396  1
  Al  Al4  1  0.67717496  0.83858699  0.74999996  1
  Al  Al5  1  0.83858797  0.67717599  0.24999999  1
  Al  Al6  1  0.83858800  0.16141300  0.24999999  1
  Al  Al7  1  0.16141195  0.83858699  0.74999996  1
  Al  Al8  1  0.32282499  0.16141300  0.24999999  1
  Al  Al9  1  0.16141198  0.32282399  0.74999996  1
  Al  Al10  1  0.00000000  0.00000000  0.00000000  1
  Al  Al11  1  0.00000000  0.00000000  0.49999998  1
