# generated using pymatgen
data_Tm2(CoSi)3
_symmetry_space_group_name_H-M   'P 1'
_cell_length_a   3.86558604
_cell_length_b   5.39595461
_cell_length_c   12.96169376
_cell_angle_alpha   90.00000000
_cell_angle_beta   90.00000000
_cell_angle_gamma   110.98925781
_symmetry_Int_Tables_number   1
_chemical_formula_structural   Tm2(CoSi)3
_chemical_formula_sum   'Tm4 Co6 Si6'
_cell_volume   252.42268007
_cell_formula_units_Z   2
loop_
 _symmetry_equiv_pos_site_id
 _symmetry_equiv_pos_as_xyz
  1  'x, y, z'
loop_
 _atom_site_type_symbol
 _atom_site_label
 _atom_site_symmetry_multiplicity
 _atom_site_fract_x
 _atom_site_fract_y
 _atom_site_fract_z
 _atom_site_occupancy
  Tm  Tm0  1  0.07535999  0.15072000  0.61640801  1
  Tm  Tm1  1  0.92463991  0.84927999  0.38359201  1
  Tm  Tm2  1  0.07535999  0.15072000  0.88359202  1
  Tm  Tm3  1  0.92463991  0.84927999  0.11640800  1
  Co  Co4  1  0.36409093  0.72818199  0.75000001  1
  Co  Co5  1  0.63590897  0.27181800  0.25000000  1
  Co  Co6  1  0.21968896  0.43937799  0.08028600  1
  Co  Co7  1  0.78031094  0.56062199  0.91971402  1
  Co  Co8  1  0.21968896  0.43937799  0.41971401  1
  Co  Co9  1  0.78031094  0.56062199  0.58028601  1
  Si  Si10  1  0.38885193  0.77770399  0.54183501  1
  Si  Si11  1  0.61114797  0.22229600  0.45816501  1
  Si  Si12  1  0.38885193  0.77770399  0.95816502  1
  Si  Si13  1  0.61114797  0.22229600  0.04183500  1
  Si  Si14  1  0.66587696  0.33175400  0.75000001  1
  Si  Si15  1  0.33412294  0.66824599  0.25000000  1
