# generated using pymatgen
data_Li2YbMgCu3
_symmetry_space_group_name_H-M   'P 1'
_cell_length_a   5.34132195
_cell_length_b   5.48189974
_cell_length_c   5.48189974
_cell_angle_alpha   76.27025604
_cell_angle_beta   60.84473038
_cell_angle_gamma   60.84473038
_symmetry_Int_Tables_number   1
_chemical_formula_structural   Li2YbMgCu3
_chemical_formula_sum   'Li2 Yb1 Mg1 Cu3'
_cell_volume   122.41665755
_cell_formula_units_Z   1
loop_
 _symmetry_equiv_pos_site_id
 _symmetry_equiv_pos_as_xyz
  1  'x, y, z'
loop_
 _atom_site_type_symbol
 _atom_site_label
 _atom_site_symmetry_multiplicity
 _atom_site_fract_x
 _atom_site_fract_y
 _atom_site_fract_z
 _atom_site_occupancy
  Yb  Yb0  1  0.00000000  0.00000000  0.00000000  1
  Li  Li1  1  0.69556903  0.60886298  0.99999993  1
  Li  Li2  1  0.30443200  0.00000000  0.39113599  1
  Mg  Mg3  1  0.69556801  0.00000000  0.60886398  1
  Cu  Cu4  1  0.30443101  0.39113699  -0.00000002  1
  Cu  Cu5  1  0.25000002  0.49999998  0.49999995  1
  Cu  Cu6  1  0.75000002  0.49999998  0.49999995  1
