# generated using pymatgen
data_K2CuSbO3
_symmetry_space_group_name_H-M   'P 1'
_cell_length_a   3.98960996
_cell_length_b   3.98960996
_cell_length_c   8.51377106
_cell_angle_alpha   103.55056000
_cell_angle_beta   103.55056000
_cell_angle_gamma   90.00000000
_symmetry_Int_Tables_number   1
_chemical_formula_structural   K2CuSbO3
_chemical_formula_sum   'K2 Cu1 Sb1 O3'
_cell_volume   127.85790727
_cell_formula_units_Z   1
loop_
 _symmetry_equiv_pos_site_id
 _symmetry_equiv_pos_as_xyz
  1  'x, y, z'
loop_
 _atom_site_type_symbol
 _atom_site_label
 _atom_site_symmetry_multiplicity
 _atom_site_fract_x
 _atom_site_fract_y
 _atom_site_fract_z
 _atom_site_occupancy
  K  K0  1  0.60645901  0.60645901  0.21291801  1
  K  K1  1  0.39354100  0.39354100  0.78708204  1
  Cu  Cu2  1  0.00000000  0.00000000  0.00000000  1
  Sb  Sb3  1  0.18240900  0.18240900  0.36481802  1
  O  O4  1  0.81759101  0.81759101  0.63518204  1
  O  O5  1  0.00000000  0.50000001  0.00000000  1
  O  O6  1  0.50000001  0.00000000  0.00000000  1
