# generated using pymatgen
data_Cs3CuBr5
_symmetry_space_group_name_H-M   'P 1'
_cell_length_a   9.43997002
_cell_length_b   10.19834042
_cell_length_c   9.43997002
_cell_angle_alpha   62.43084335
_cell_angle_beta   90.00000000
_cell_angle_gamma   117.56916046
_symmetry_Int_Tables_number   1
_chemical_formula_structural   Cs3CuBr5
_chemical_formula_sum   'Cs6 Cu2 Br10'
_cell_volume   687.09344249
_cell_formula_units_Z   2
loop_
 _symmetry_equiv_pos_site_id
 _symmetry_equiv_pos_as_xyz
  1  'x, y, z'
loop_
 _atom_site_type_symbol
 _atom_site_label
 _atom_site_symmetry_multiplicity
 _atom_site_fract_x
 _atom_site_fract_y
 _atom_site_fract_z
 _atom_site_occupancy
  Cs  Cs0  1  0.25000003  0.50000003  0.75000000  1
  Cs  Cs1  1  0.75000003  0.50000003  0.25000000  1
  Cs  Cs2  1  0.16712700  0.00000100  0.66712600  1
  Cs  Cs3  1  0.83287307  0.99999906  0.33287399  1
  Cs  Cs4  1  0.66712700  0.00000000  0.83287300  1
  Cs  Cs5  1  0.33287300  0.00000000  0.16712700  1
  Cu  Cu6  1  0.75000003  0.50000003  0.75000000  1
  Cu  Cu7  1  0.25000003  0.50000003  0.25000000  1
  Br  Br8  1  0.79770502  0.30280702  0.99489800  1
  Br  Br9  1  0.20229505  0.69719304  0.00510200  1
  Br  Br10  1  0.50510202  0.30280702  0.70229500  1
  Br  Br11  1  0.29770502  0.30280702  0.20229500  1
  Br  Br12  1  0.99489805  0.69719304  0.50510199  1
  Br  Br13  1  0.49489805  0.69719304  0.29770500  1
  Br  Br14  1  0.70229505  0.69719304  0.79770499  1
  Br  Br15  1  0.00510202  0.30280702  0.49489800  1
  Br  Br16  1  0.00000000  0.00000000  0.00000000  1
  Br  Br17  1  0.50000000  0.00000000  0.50000000  1
