# generated using pymatgen
data_Tm(CoSi)2
_symmetry_space_group_name_H-M   'P 1'
_cell_length_a   3.94238997
_cell_length_b   3.94238997
_cell_length_c   5.72452593
_cell_angle_alpha   110.14163971
_cell_angle_beta   110.14163971
_cell_angle_gamma   90.00000000
_symmetry_Int_Tables_number   1
_chemical_formula_structural   Tm(CoSi)2
_chemical_formula_sum   'Tm1 Co2 Si2'
_cell_volume   77.71060142
_cell_formula_units_Z   1
loop_
 _symmetry_equiv_pos_site_id
 _symmetry_equiv_pos_as_xyz
  1  'x, y, z'
loop_
 _atom_site_type_symbol
 _atom_site_label
 _atom_site_symmetry_multiplicity
 _atom_site_fract_x
 _atom_site_fract_y
 _atom_site_fract_z
 _atom_site_occupancy
  Tm  Tm0  1  0.00000000  0.00000000  0.00000000  1
  Co  Co1  1  0.75000003  0.25000001  0.50000006  1
  Co  Co2  1  0.25000004  0.75000003  0.50000007  1
  Si  Si3  1  0.61663405  0.61663402  0.23326807  1
  Si  Si4  1  0.38336603  0.38336601  0.76673206  1
