# generated using pymatgen
data_LaIn2
_symmetry_space_group_name_H-M   'P 1'
_cell_length_a   6.22165298
_cell_length_b   6.22165298
_cell_length_c   6.76050043
_cell_angle_alpha   62.83166504
_cell_angle_beta   62.83166504
_cell_angle_gamma   60.24584579
_symmetry_Int_Tables_number   1
_chemical_formula_structural   LaIn2
_chemical_formula_sum   'La2 In4'
_cell_volume   192.95520466
_cell_formula_units_Z   2
loop_
 _symmetry_equiv_pos_site_id
 _symmetry_equiv_pos_as_xyz
  1  'x, y, z'
loop_
 _atom_site_type_symbol
 _atom_site_label
 _atom_site_symmetry_multiplicity
 _atom_site_fract_x
 _atom_site_fract_y
 _atom_site_fract_z
 _atom_site_occupancy
  La  La0  1  0.58463399  0.75136599  0.24789098  1
  La  La1  1  0.24863399  0.41536600  0.25210899  1
  In  In2  1  0.75136599  0.58463399  0.74789098  1
  In  In3  1  0.41536599  0.24863400  0.75210900  1
  In  In4  1  0.08206199  0.91793799  0.74999999  1
  In  In5  1  0.91793799  0.08206200  0.24999998  1
