# generated using pymatgen
data_Eu3B(CO3)4
_symmetry_space_group_name_H-M   'P 1'
_cell_length_a   5.21368504
_cell_length_b   6.97756910
_cell_length_c   8.63450146
_cell_angle_alpha   99.08810425
_cell_angle_beta   90.02580261
_cell_angle_gamma   90.62654114
_symmetry_Int_Tables_number   1
_chemical_formula_structural   Eu3B(CO3)4
_chemical_formula_sum   'Eu3 B1 C4 O12'
_cell_volume   310.15073204
_cell_formula_units_Z   1
loop_
 _symmetry_equiv_pos_site_id
 _symmetry_equiv_pos_as_xyz
  1  'x, y, z'
loop_
 _atom_site_type_symbol
 _atom_site_label
 _atom_site_symmetry_multiplicity
 _atom_site_fract_x
 _atom_site_fract_y
 _atom_site_fract_z
 _atom_site_occupancy
  Eu  Eu0  1  0.74543095  0.70346601  0.15779903  1
  Eu  Eu1  1  0.24789495  0.86640601  0.66344604  1
  Eu  Eu2  1  0.75210499  0.13359400  0.33655404  1
  B  B3  1  0.25456898  0.29653400  0.84220105  1
  C  C4  1  0.74619095  0.83456901  0.77929707  1
  C  C5  1  0.23864396  0.65358001  0.27668402  1
  C  C6  1  0.76135597  0.34642000  0.72331606  1
  C  C7  1  0.25380899  0.16543100  0.22070302  1
  O  O8  1  0.53178495  0.80116101  0.84814506  1
  O  O9  1  0.96015195  0.80173501  0.84726908  1
  O  O10  1  0.74514594  0.89830001  0.64644106  1
  O  O11  1  0.23408596  0.69650501  0.13622002  1
  O  O12  1  0.45563096  0.63513001  0.34683503  1
  O  O13  1  0.02347596  0.63369001  0.34980602  1
  O  O14  1  0.97652397  0.36631000  0.65019407  1
  O  O15  1  0.54436897  0.36487000  0.65316505  1
  O  O16  1  0.76591398  0.30349500  0.86378007  1
  O  O17  1  0.25485399  0.10170000  0.35355903  1
  O  O18  1  0.03984799  0.19826500  0.15273101  1
  O  O19  1  0.46821499  0.19883900  0.15185502  1
