# generated using pymatgen
data_KInS3
_symmetry_space_group_name_H-M   'P 1'
_cell_length_a   6.06128311
_cell_length_b   7.48849583
_cell_length_c   7.48849726
_cell_angle_alpha   60.00000381
_cell_angle_beta   90.00000000
_cell_angle_gamma   90.00000000
_symmetry_Int_Tables_number   1
_chemical_formula_structural   KInS3
_chemical_formula_sum   'K2 In2 S6'
_cell_volume   294.36385725
_cell_formula_units_Z   2
loop_
 _symmetry_equiv_pos_site_id
 _symmetry_equiv_pos_as_xyz
  1  'x, y, z'
loop_
 _atom_site_type_symbol
 _atom_site_label
 _atom_site_symmetry_multiplicity
 _atom_site_fract_x
 _atom_site_fract_y
 _atom_site_fract_z
 _atom_site_occupancy
  K  K0  1  0.75036699  0.66666669  0.66666664  1
  K  K1  1  0.25036700  0.33333334  0.33333332  1
  In  In2  1  0.45536499  0.00000000  0.00000000  1
  In  In3  1  0.95536498  0.00000000  0.00000000  1
  S  S4  1  0.25352300  0.84709603  0.84709596  1
  S  S5  1  0.25352300  0.30580801  0.84709597  1
  S  S6  1  0.25352300  0.84709603  0.30580798  1
  S  S7  1  0.75352299  0.15290400  0.15290399  1
  S  S8  1  0.75352299  0.69419202  0.15290398  1
  S  S9  1  0.75352299  0.15290400  0.69419198  1
