# generated using pymatgen
data_KCl
_symmetry_space_group_name_H-M   'P 1'
_cell_length_a   4.44680214
_cell_length_b   4.44680262
_cell_length_c   13.29794025
_cell_angle_alpha   90.00000000
_cell_angle_beta   90.00000000
_cell_angle_gamma   120.00000000
_symmetry_Int_Tables_number   1
_chemical_formula_structural   KCl
_chemical_formula_sum   'K3 Cl3'
_cell_volume   227.72497732
_cell_formula_units_Z   3
loop_
 _symmetry_equiv_pos_site_id
 _symmetry_equiv_pos_as_xyz
  1  'x, y, z'
loop_
 _atom_site_type_symbol
 _atom_site_label
 _atom_site_symmetry_multiplicity
 _atom_site_fract_x
 _atom_site_fract_y
 _atom_site_fract_z
 _atom_site_occupancy
  K  K0  1  0.66666667  0.33333333  0.00048900  1
  K  K1  1  0.33333337  0.66666666  0.50048899  1
  K  K2  1  0.00000000  0.00000000  0.70335899  1
  Cl  Cl3  1  0.00000000  0.00000000  0.20335900  1
  Cl  Cl4  1  0.66666667  0.33333333  0.31165199  1
  Cl  Cl5  1  0.33333337  0.66666666  0.81165198  1
