# generated using pymatgen
data_EuPb
_symmetry_space_group_name_H-M   'P 1'
_cell_length_a   5.13223219
_cell_length_b   5.13223076
_cell_length_c   5.65087986
_cell_angle_alpha   90.00000000
_cell_angle_beta   90.00000000
_cell_angle_gamma   120.00000763
_symmetry_Int_Tables_number   1
_chemical_formula_structural   EuPb
_chemical_formula_sum   'Eu2 Pb2'
_cell_volume   128.90184805
_cell_formula_units_Z   2
loop_
 _symmetry_equiv_pos_site_id
 _symmetry_equiv_pos_as_xyz
  1  'x, y, z'
loop_
 _atom_site_type_symbol
 _atom_site_label
 _atom_site_symmetry_multiplicity
 _atom_site_fract_x
 _atom_site_fract_y
 _atom_site_fract_z
 _atom_site_occupancy
  Eu  Eu0  1  0.33333333  0.66666669  0.25000001  1
  Eu  Eu1  1  0.66666664  0.33333334  0.75000002  1
  Pb  Pb2  1  0.00000000  0.00000000  0.50000001  1
  Pb  Pb3  1  0.00000000  0.00000000  0.00000000  1
