# generated using pymatgen
data_Ba2Eu3Al7BIr7
_symmetry_space_group_name_H-M   'P 1'
_cell_length_a   3.94332600
_cell_length_b   7.07648849
_cell_length_c   17.10831642
_cell_angle_alpha   90.00000000
_cell_angle_beta   90.00000000
_cell_angle_gamma   106.17795563
_symmetry_Int_Tables_number   1
_chemical_formula_structural   Ba2Eu3Al7BIr7
_chemical_formula_sum   'Ba2 Eu3 Al7 B1 Ir7'
_cell_volume   458.50106026
_cell_formula_units_Z   1
loop_
 _symmetry_equiv_pos_site_id
 _symmetry_equiv_pos_as_xyz
  1  'x, y, z'
loop_
 _atom_site_type_symbol
 _atom_site_label
 _atom_site_symmetry_multiplicity
 _atom_site_fract_x
 _atom_site_fract_y
 _atom_site_fract_z
 _atom_site_occupancy
  Ba  Ba0  1  0.47600990  0.95201996  0.75000003  1
  Ba  Ba1  1  0.52399000  0.04798000  0.25000001  1
  Eu  Eu2  1  0.00000000  0.00000000  0.00000000  1
  Eu  Eu3  1  0.00000000  0.00000000  0.50000002  1
  Eu  Eu4  1  0.27059394  0.54118798  0.39691801  1
  Al  Al5  1  0.72940595  0.45881198  0.60308202  1
  Al  Al6  1  0.72940595  0.45881198  0.89691803  1
  Al  Al7  1  0.27059394  0.54118798  0.10308200  1
  Al  Al8  1  0.20358096  0.40716198  0.75000003  1
  Al  Al9  1  0.79641894  0.59283797  0.25000001  1
  Ir  Ir10  1  0.35595292  0.71190597  0.95324703  1
  Al  Al11  1  0.64404697  0.28809399  0.04675300  1
  Al  Al12  1  0.64404697  0.28809399  0.45324702  1
  Ir  Ir13  1  0.35595292  0.71190597  0.54675302  1
  Ir  Ir14  1  0.10444298  0.20888599  0.86127203  1
  B  B15  1  0.89555691  0.79111396  0.13872800  1
  Ir  Ir16  1  0.89555691  0.79111396  0.36127201  1
  Ir  Ir17  1  0.10444298  0.20888599  0.63872802  1
  Ir  Ir18  1  0.79851593  0.59703197  0.75000003  1
  Ir  Ir19  1  0.20148396  0.40296798  0.25000001  1
