# generated using pymatgen
data_BeB3C
_symmetry_space_group_name_H-M   'P 1'
_cell_length_a   3.02619910
_cell_length_b   3.02620006
_cell_length_c   5.42321491
_cell_angle_alpha   89.99322510
_cell_angle_beta   89.99321747
_cell_angle_gamma   60.00485611
_symmetry_Int_Tables_number   1
_chemical_formula_structural   BeB3C
_chemical_formula_sum   'Be1 B3 C1'
_cell_volume   43.01340520
_cell_formula_units_Z   1
loop_
 _symmetry_equiv_pos_site_id
 _symmetry_equiv_pos_as_xyz
  1  'x, y, z'
loop_
 _atom_site_type_symbol
 _atom_site_label
 _atom_site_symmetry_multiplicity
 _atom_site_fract_x
 _atom_site_fract_y
 _atom_site_fract_z
 _atom_site_occupancy
  Be  Be0  1  0.66675497  0.66675500  0.64626304  1
  B  B1  1  0.33324498  0.33324500  0.35373702  1
  B  B2  1  0.00000000  0.00000000  0.00000000  1
  B  B3  1  0.66659997  0.66660100  0.19931903  1
  C  C4  1  0.33333332  0.33346567  0.80068103  1
