# generated using pymatgen
data_ZrNb5Co7
_symmetry_space_group_name_H-M   'P 1'
_cell_length_a   5.01999187
_cell_length_b   6.63608646
_cell_length_c   6.63608646
_cell_angle_alpha   81.77497101
_cell_angle_beta   67.77564240
_cell_angle_gamma   67.77564240
_symmetry_Int_Tables_number   1
_chemical_formula_structural   ZrNb5Co7
_chemical_formula_sum   'Zr1 Nb5 Co7'
_cell_volume   189.44226507
_cell_formula_units_Z   1
loop_
 _symmetry_equiv_pos_site_id
 _symmetry_equiv_pos_as_xyz
  1  'x, y, z'
loop_
 _atom_site_type_symbol
 _atom_site_label
 _atom_site_symmetry_multiplicity
 _atom_site_fract_x
 _atom_site_fract_y
 _atom_site_fract_z
 _atom_site_occupancy
  Zr  Zr0  1  0.00000000  0.00000000  0.00000000  1
  Nb  Nb1  1  0.34012205  0.65987798  0.65987795  1
  Nb  Nb2  1  0.00000004  0.65987798  0.34012195  1
  Nb  Nb3  1  0.00000002  0.34012199  0.65987796  1
  Nb  Nb4  1  0.65987803  0.34012199  0.34012198  1
  Nb  Nb5  1  0.27945902  0.22054099  0.22054099  1
  Co  Co6  1  0.50000002  0.22054099  0.77945898  1
  Co  Co7  1  0.50000006  0.77945898  0.22054096  1
  Co  Co8  1  0.72054106  0.77945898  0.77945895  1
  Co  Co9  1  0.50000004  0.49999998  -0.00000002  1
  Co  Co10  1  0.00000000  0.00000000  0.49999999  1
  Co  Co11  1  0.50000007  0.99999997  0.49999994  1
  Co  Co12  1  0.00000003  0.49999998  -0.00000003  1
