# generated using pymatgen
data_MoSeS
_symmetry_space_group_name_H-M   'P 1'
_cell_length_a   3.27428603
_cell_length_b   3.27428532
_cell_length_c   30.21925735
_cell_angle_alpha   90.00000000
_cell_angle_beta   90.00000000
_cell_angle_gamma   120.00000763
_symmetry_Int_Tables_number   1
_chemical_formula_structural   MoSeS
_chemical_formula_sum   'Mo3 Se3 S3'
_cell_volume   280.57406314
_cell_formula_units_Z   3
loop_
 _symmetry_equiv_pos_site_id
 _symmetry_equiv_pos_as_xyz
  1  'x, y, z'
loop_
 _atom_site_type_symbol
 _atom_site_label
 _atom_site_symmetry_multiplicity
 _atom_site_fract_x
 _atom_site_fract_y
 _atom_site_fract_z
 _atom_site_occupancy
  Mo  Mo0  1  0.00000000  0.00000000  0.88436499  1
  Mo  Mo1  1  0.66666666  0.33333333  0.65299899  1
  Mo  Mo2  1  0.00000000  0.00000000  0.42167800  1
  Se  Se3  1  0.00000000  0.00000000  0.59705199  1
  Se  Se4  1  0.66666666  0.33333333  0.94034399  1
  Se  Se5  1  0.66666666  0.33333333  0.82838199  1
  S  S6  1  0.00000000  0.00000000  0.70897499  1
  S  S7  1  0.66666666  0.33333333  0.47278699  1
  S  S8  1  0.66666666  0.33333333  0.37057700  1
