# generated using pymatgen
data_Sr2ScSbO6
_symmetry_space_group_name_H-M   'P 1'
_cell_length_a   5.61503887
_cell_length_b   5.79327965
_cell_length_c   8.04449940
_cell_angle_alpha   89.97871399
_cell_angle_beta   89.65384674
_cell_angle_gamma   89.61370087
_symmetry_Int_Tables_number   1
_chemical_formula_structural   Sr2ScSbO6
_chemical_formula_sum   'Sr4 Sc2 Sb2 O12'
_cell_volume   261.67272849
_cell_formula_units_Z   2
loop_
 _symmetry_equiv_pos_site_id
 _symmetry_equiv_pos_as_xyz
  1  'x, y, z'
loop_
 _atom_site_type_symbol
 _atom_site_label
 _atom_site_symmetry_multiplicity
 _atom_site_fract_x
 _atom_site_fract_y
 _atom_site_fract_z
 _atom_site_occupancy
  Sr  Sr0  1  -0.00000001  0.50000000  -0.00000000  1
  Sr  Sr1  1  0.50000001  0.00000000  0.50000001  1
  Sr  Sr2  1  0.98546802  0.05124900  0.24870002  1
  Sr  Sr3  1  0.01453198  0.94875100  0.75129999  1
  Sc  Sc4  1  0.51541900  0.55470800  0.25099601  1
  Sc  Sc5  1  0.48458100  0.44529200  0.74900400  1
  Sb  Sb6  1  -0.00000001  0.50000000  0.49999999  1
  Sb  Sb7  1  0.50000001  0.00000000  0.00000001  1
  O  O8  1  0.10605599  0.46964900  0.26183400  1
  O  O9  1  0.21257800  0.19540900  0.95145399  1
  O  O10  1  0.19269100  0.21584400  0.55635900  1
  O  O11  1  0.31378799  0.71428900  0.94265599  1
  O  O12  1  0.28595999  0.69132100  0.55317900  1
  O  O13  1  0.40307399  0.96059900  0.23895901  1
  O  O14  1  0.59692601  0.03940100  0.76104100  1
  O  O15  1  0.71404001  0.30867900  0.44682101  1
  O  O16  1  0.68621201  0.28571100  0.05734402  1
  O  O17  1  0.80730900  0.78415600  0.44364102  1
  O  O18  1  0.78742200  0.80459100  0.04854602  1
  O  O19  1  0.89394401  0.53035100  0.73816601  1
