# generated using pymatgen
data_Li3Ti(CoO4)2
_symmetry_space_group_name_H-M   'P 1'
_cell_length_a   6.00848579
_cell_length_b   6.02551270
_cell_length_c   6.74304438
_cell_angle_alpha   77.16544342
_cell_angle_beta   63.54261017
_cell_angle_gamma   60.09343338
_symmetry_Int_Tables_number   1
_chemical_formula_structural   Li3Ti(CoO4)2
_chemical_formula_sum   'Li3 Ti1 Co2 O8'
_cell_volume   189.45491497
_cell_formula_units_Z   1
loop_
 _symmetry_equiv_pos_site_id
 _symmetry_equiv_pos_as_xyz
  1  'x, y, z'
loop_
 _atom_site_type_symbol
 _atom_site_label
 _atom_site_symmetry_multiplicity
 _atom_site_fract_x
 _atom_site_fract_y
 _atom_site_fract_z
 _atom_site_occupancy
  Li  Li0  1  0.90578304  0.18843400  0.50000000  1
  Li  Li1  1  0.59421706  0.81156599  0.49999998  1
  Ti  Ti2  1  0.84421704  0.31156599  -0.00000000  1
  Li  Li3  1  0.15578304  0.68843399  -0.00000002  1
  Co  Co4  1  0.50000002  0.00000000  0.00000000  1
  Co  Co5  1  0.25000003  0.49999999  0.49999999  1
  O  O6  1  0.14609201  0.21748300  0.15632700  1
  O  O7  1  0.51990305  0.78251599  0.84367199  1
  O  O8  1  0.69758206  0.78251599  0.15632699  1
  O  O9  1  0.63642603  0.21748300  0.84367200  1
  O  O10  1  0.11357402  0.28251700  0.65632800  1
  O  O11  1  0.05241803  0.71748399  0.34367298  1
  O  O12  1  0.23009704  0.71748399  0.65632799  1
  O  O13  1  0.60390803  0.28251700  0.34367300  1
