# generated using pymatgen
data_TmGe2
_symmetry_space_group_name_H-M   'P 1'
_cell_length_a   4.44164896
_cell_length_b   6.62692881
_cell_length_c   7.81274509
_cell_angle_alpha   90.00000000
_cell_angle_beta   90.00000000
_cell_angle_gamma   90.00000000
_symmetry_Int_Tables_number   1
_chemical_formula_structural   TmGe2
_chemical_formula_sum   'Tm4 Ge8'
_cell_volume   229.96417861
_cell_formula_units_Z   4
loop_
 _symmetry_equiv_pos_site_id
 _symmetry_equiv_pos_as_xyz
  1  'x, y, z'
loop_
 _atom_site_type_symbol
 _atom_site_label
 _atom_site_symmetry_multiplicity
 _atom_site_fract_x
 _atom_site_fract_y
 _atom_site_fract_z
 _atom_site_occupancy
  Tm  Tm0  1  0.25000000  0.50060201  0.72052199  1
  Tm  Tm1  1  0.25000000  0.00060200  0.77947799  1
  Tm  Tm2  1  0.75000001  0.49939801  0.27947800  1
  Tm  Tm3  1  0.75000001  0.99939803  0.22052200  1
  Ge  Ge4  1  0.25000000  0.19722601  0.41550199  1
  Ge  Ge5  1  0.25000000  0.69722602  0.08449800  1
  Ge  Ge6  1  0.75000001  0.80277402  0.58449799  1
  Ge  Ge7  1  0.75000001  0.30277401  0.91550199  1
  Ge  Ge8  1  0.25000000  0.77399502  0.41307800  1
  Ge  Ge9  1  0.25000000  0.27399501  0.08692200  1
  Ge  Ge10  1  0.75000001  0.22600501  0.58692199  1
  Ge  Ge11  1  0.75000001  0.72600502  0.91307799  1
