# generated using pymatgen
data_LiTi(Co2O3)2
_symmetry_space_group_name_H-M   'P 1'
_cell_length_a   3.29357409
_cell_length_b   3.29357409
_cell_length_c   15.66298866
_cell_angle_alpha   90.00000000
_cell_angle_beta   90.00000000
_cell_angle_gamma   120.00000000
_symmetry_Int_Tables_number   1
_chemical_formula_structural   LiTi(Co2O3)2
_chemical_formula_sum   'Li1 Ti1 Co4 O6'
_cell_volume   147.14318132
_cell_formula_units_Z   1
loop_
 _symmetry_equiv_pos_site_id
 _symmetry_equiv_pos_as_xyz
  1  'x, y, z'
loop_
 _atom_site_type_symbol
 _atom_site_label
 _atom_site_symmetry_multiplicity
 _atom_site_fract_x
 _atom_site_fract_y
 _atom_site_fract_z
 _atom_site_occupancy
  Ti  Ti0  1  0.66666666  0.33333335  0.99327502  1
  Li  Li1  1  0.66666666  0.33333335  0.66864501  1
  Co  Co2  1  0.66666666  0.33333335  0.33455201  1
  Co  Co3  1  0.33333335  0.66666670  0.50127101  1
  Co  Co4  1  0.33333335  0.66666670  0.83489902  1
  Co  Co5  1  0.33333335  0.66666670  0.16958700  1
  O  O6  1  0.66666666  0.33333335  0.53786101  1
  O  O7  1  0.66666666  0.33333335  0.87351002  1
  O  O8  1  0.66666666  0.33333335  0.20422900  1
  O  O9  1  0.33333335  0.66666670  0.70459502  1
  O  O10  1  0.33333335  0.66666670  0.37062201  1
  O  O11  1  0.33333335  0.66666670  0.04095000  1
