# generated using pymatgen
data_Eu(NiGe)2
_symmetry_space_group_name_H-M   'P 1'
_cell_length_a   4.07880402
_cell_length_b   4.07880402
_cell_length_c   6.12363815
_cell_angle_alpha   109.45325470
_cell_angle_beta   109.45325470
_cell_angle_gamma   90.00000000
_symmetry_Int_Tables_number   1
_chemical_formula_structural   Eu(NiGe)2
_chemical_formula_sum   'Eu1 Ni2 Ge2'
_cell_volume   89.86962739
_cell_formula_units_Z   1
loop_
 _symmetry_equiv_pos_site_id
 _symmetry_equiv_pos_as_xyz
  1  'x, y, z'
loop_
 _atom_site_type_symbol
 _atom_site_label
 _atom_site_symmetry_multiplicity
 _atom_site_fract_x
 _atom_site_fract_y
 _atom_site_fract_z
 _atom_site_occupancy
  Eu  Eu0  1  0.00000000  0.00000000  0.00000000  1
  Ge  Ge1  1  0.64292702  0.64292701  0.28585403  1
  Ge  Ge2  1  0.35707301  0.35707300  0.71414600  1
  Ni  Ni3  1  0.25000002  0.75000001  0.50000002  1
  Ni  Ni4  1  0.75000001  0.25000000  0.50000001  1
