# generated using pymatgen
data_EuScC4
_symmetry_space_group_name_H-M   'P 1'
_cell_length_a   4.96503639
_cell_length_b   5.87963533
_cell_length_c   5.88967323
_cell_angle_alpha   90.00000000
_cell_angle_beta   90.00000000
_cell_angle_gamma   90.00514221
_symmetry_Int_Tables_number   1
_chemical_formula_structural   EuScC4
_chemical_formula_sum   'Eu2 Sc2 C8'
_cell_volume   171.93489419
_cell_formula_units_Z   2
loop_
 _symmetry_equiv_pos_site_id
 _symmetry_equiv_pos_as_xyz
  1  'x, y, z'
loop_
 _atom_site_type_symbol
 _atom_site_label
 _atom_site_symmetry_multiplicity
 _atom_site_fract_x
 _atom_site_fract_y
 _atom_site_fract_z
 _atom_site_occupancy
  Eu  Eu0  1  0.49999999  0.00000000  0.49999998  1
  Eu  Eu1  1  0.00000000  0.00000000  0.00000000  1
  Sc  Sc2  1  -0.00000002  0.50000002  0.49999998  1
  Sc  Sc3  1  0.49999997  0.50000002  0.99999996  1
  C  C4  1  0.50025299  0.11521800  0.99482096  1
  C  C5  1  0.99974694  0.88478203  0.49482098  1
  C  C6  1  0.00001498  0.49290502  0.11291100  1
  C  C7  1  0.49998497  0.50709502  0.61291098  1
  C  C8  1  0.49974695  0.88478203  0.00517900  1
  C  C9  1  0.00025299  0.11521800  0.50517898  1
  C  C10  1  0.99998496  0.50709502  0.88708896  1
  C  C11  1  0.50001497  0.49290502  0.38708898  1
