# generated using pymatgen
data_Dy4B5Os11
_symmetry_space_group_name_H-M   'P 1'
_cell_length_a   4.98411083
_cell_length_b   7.06321287
_cell_length_c   7.44727182
_cell_angle_alpha   90.00000000
_cell_angle_beta   90.00000000
_cell_angle_gamma   90.00000000
_symmetry_Int_Tables_number   1
_chemical_formula_structural   Dy4B5Os11
_chemical_formula_sum   'Dy4 B5 Os11'
_cell_volume   262.17253432
_cell_formula_units_Z   1
loop_
 _symmetry_equiv_pos_site_id
 _symmetry_equiv_pos_as_xyz
  1  'x, y, z'
loop_
 _atom_site_type_symbol
 _atom_site_label
 _atom_site_symmetry_multiplicity
 _atom_site_fract_x
 _atom_site_fract_y
 _atom_site_fract_z
 _atom_site_occupancy
  Dy  Dy0  1  0.75000003  0.90577902  0.24829701  1
  Dy  Dy1  1  0.25000001  0.09422100  0.75170302  1
  Dy  Dy2  1  0.75000003  0.40577901  0.75170302  1
  Dy  Dy3  1  0.25000001  0.59422101  0.24829701  1
  B  B4  1  0.75000003  0.51126601  0.11594800  1
  B  B5  1  0.25000001  0.48873401  0.88405202  1
  B  B6  1  0.75000003  0.01126700  0.88405202  1
  B  B7  1  0.25000001  0.98873402  0.11594800  1
  Os  Os8  1  0.00000000  0.75000001  0.61711501  1
  Os  Os9  1  0.50000002  0.25000000  0.38288501  1
  Os  Os10  1  0.00000000  0.25000000  0.38288501  1
  Os  Os11  1  0.50000002  0.75000001  0.61711501  1
  B  B12  1  0.75000003  0.54985201  0.41706601  1
  Os  Os13  1  0.25000001  0.45014801  0.58293401  1
  Os  Os14  1  0.75000003  0.04985200  0.58293401  1
  Os  Os15  1  0.25000001  0.95014802  0.41706601  1
  Os  Os16  1  0.00000000  0.75000001  0.95051602  1
  Os  Os17  1  0.50000002  0.25000000  0.04948400  1
  Os  Os18  1  0.00000000  0.25000000  0.04948400  1
  Os  Os19  1  0.50000002  0.75000001  0.95051602  1
