# generated using pymatgen
data_Tm9AgS10
_symmetry_space_group_name_H-M   'P 1'
_cell_length_a   3.72389603
_cell_length_b   10.06845284
_cell_length_c   10.16332436
_cell_angle_alpha   90.00000000
_cell_angle_beta   90.00000000
_cell_angle_gamma   90.00000000
_symmetry_Int_Tables_number   1
_chemical_formula_structural   Tm9AgS10
_chemical_formula_sum   'Tm9 Ag1 S10'
_cell_volume   381.06237749
_cell_formula_units_Z   1
loop_
 _symmetry_equiv_pos_site_id
 _symmetry_equiv_pos_as_xyz
  1  'x, y, z'
loop_
 _atom_site_type_symbol
 _atom_site_label
 _atom_site_symmetry_multiplicity
 _atom_site_fract_x
 _atom_site_fract_y
 _atom_site_fract_z
 _atom_site_occupancy
  Tm  Tm0  1  0.25000000  0.80111701  0.22293999  1
  Tm  Tm1  1  0.74999999  0.19888300  0.77705997  1
  Tm  Tm2  1  0.25000000  0.69888301  0.72293997  1
  Tm  Tm3  1  0.74999999  0.30111700  0.27705999  1
  Tm  Tm4  1  0.74999999  0.56300501  0.12502700  1
  Tm  Tm5  1  0.25000000  0.43699501  0.87497297  1
  Tm  Tm6  1  0.74999999  0.93699502  0.62502698  1
  Tm  Tm7  1  0.25000000  0.06300500  0.37497299  1
  Tm  Tm8  1  0.74999999  0.63228601  0.45265398  1
  Ag  Ag9  1  0.25000000  0.36771401  0.54734598  1
  S  S10  1  0.74999999  0.86771401  0.95265397  1
  S  S11  1  0.25000000  0.13228600  0.04734600  1
  S  S12  1  0.74999999  0.31914901  0.01093900  1
  S  S13  1  0.25000000  0.68085101  0.98906097  1
  S  S14  1  0.74999999  0.18085100  0.51093898  1
  S  S15  1  0.25000000  0.81914901  0.48906098  1
  S  S16  1  0.74999999  0.99719202  0.18611299  1
  S  S17  1  0.25000000  0.00280800  0.81388697  1
  S  S18  1  0.74999999  0.50280801  0.68611298  1
  S  S19  1  0.25000000  0.49719201  0.31388699  1
