# generated using pymatgen
data_ScAl2
_symmetry_space_group_name_H-M   'P 1'
_cell_length_a   3.22617793
_cell_length_b   3.22617793
_cell_length_c   5.48801041
_cell_angle_alpha   107.09336853
_cell_angle_beta   107.09336853
_cell_angle_gamma   90.00000000
_symmetry_Int_Tables_number   1
_chemical_formula_structural   ScAl2
_chemical_formula_sum   'Sc1 Al2'
_cell_volume   51.95168291
_cell_formula_units_Z   1
loop_
 _symmetry_equiv_pos_site_id
 _symmetry_equiv_pos_as_xyz
  1  'x, y, z'
loop_
 _atom_site_type_symbol
 _atom_site_label
 _atom_site_symmetry_multiplicity
 _atom_site_fract_x
 _atom_site_fract_y
 _atom_site_fract_z
 _atom_site_occupancy
  Sc  Sc0  1  0.64442204  0.64442202  0.28884402  1
  Al  Al1  1  0.35557802  0.35557801  0.71115599  1
  Al  Al2  1  0.00000000  0.00000000  0.00000000  1
