# generated using pymatgen
data_BaSr7Pb6
_symmetry_space_group_name_H-M   'P 1'
_cell_length_a   9.30549335
_cell_length_b   9.30549335
_cell_length_c   9.30549335
_cell_angle_alpha   109.47122192
_cell_angle_beta   109.47122192
_cell_angle_gamma   109.47122192
_symmetry_Int_Tables_number   1
_chemical_formula_structural   BaSr7Pb6
_chemical_formula_sum   'Ba1 Sr7 Pb6'
_cell_volume   620.29216917
_cell_formula_units_Z   1
loop_
 _symmetry_equiv_pos_site_id
 _symmetry_equiv_pos_as_xyz
  1  'x, y, z'
loop_
 _atom_site_type_symbol
 _atom_site_label
 _atom_site_symmetry_multiplicity
 _atom_site_fract_x
 _atom_site_fract_y
 _atom_site_fract_z
 _atom_site_occupancy
  Ba  Ba0  1  0.35621102  0.35621101  0.85621101  1
  Sr  Sr1  1  1.00000002  0.50000001  0.14378905  1
  Sr  Sr2  1  0.64378899  0.00000000  0.00000002  1
  Sr  Sr3  1  0.50000004  0.64378901  0.50000004  1
  Sr  Sr4  1  0.14378900  0.00000000  0.00000000  1
  Sr  Sr5  1  0.50000000  0.14378900  0.50000001  1
  Sr  Sr6  1  0.85621105  0.85621102  0.35621106  1
  Sr  Sr7  1  0.00000003  0.50000001  0.64378902  1
  Pb  Pb8  1  0.87500000  0.12500000  0.75000001  1
  Pb  Pb9  1  0.75000003  0.62500001  0.87500004  1
  Pb  Pb10  1  0.25000005  0.87500002  0.62500004  1
  Pb  Pb11  1  0.12500001  0.25000001  0.37500001  1
  Pb  Pb12  1  0.37500004  0.75000002  0.12500005  1
  Pb  Pb13  1  0.62500002  0.37500001  0.25000003  1
