# generated using pymatgen
data_MnSi3Pt2
_symmetry_space_group_name_H-M   'P 1'
_cell_length_a   4.13123798
_cell_length_b   4.99660778
_cell_length_c   4.99660826
_cell_angle_alpha   60.00000381
_cell_angle_beta   90.00000000
_cell_angle_gamma   90.00000000
_symmetry_Int_Tables_number   1
_chemical_formula_structural   MnSi3Pt2
_chemical_formula_sum   'Mn1 Si3 Pt2'
_cell_volume   89.32261383
_cell_formula_units_Z   1
loop_
 _symmetry_equiv_pos_site_id
 _symmetry_equiv_pos_as_xyz
  1  'x, y, z'
loop_
 _atom_site_type_symbol
 _atom_site_label
 _atom_site_symmetry_multiplicity
 _atom_site_fract_x
 _atom_site_fract_y
 _atom_site_fract_z
 _atom_site_occupancy
  Mn  Mn0  1  0.00000000  0.00000000  0.00000000  1
  Si  Si1  1  -0.00000000  0.66666669  0.66666670  1
  Si  Si2  1  1.00000000  0.33333335  0.33333335  1
  Si  Si3  1  0.50000000  0.50000002  0.00000001  1
  Pt  Pt4  1  0.50000000  0.00000000  0.50000002  1
  Pt  Pt5  1  0.50000000  0.50000002  0.50000003  1
