# generated using pymatgen
data_La5Sb4
_symmetry_space_group_name_H-M   'P 1'
_cell_length_a   6.80231190
_cell_length_b   9.67083645
_cell_length_c   9.67083645
_cell_angle_alpha   120.00000000
_cell_angle_beta   90.00000000
_cell_angle_gamma   90.00000000
_symmetry_Int_Tables_number   1
_chemical_formula_structural   La5Sb4
_chemical_formula_sum   'La10 Sb8'
_cell_volume   550.95388546
_cell_formula_units_Z   2
loop_
 _symmetry_equiv_pos_site_id
 _symmetry_equiv_pos_as_xyz
  1  'x, y, z'
loop_
 _atom_site_type_symbol
 _atom_site_label
 _atom_site_symmetry_multiplicity
 _atom_site_fract_x
 _atom_site_fract_y
 _atom_site_fract_z
 _atom_site_occupancy
  La  La0  1  0.75000001  0.72533797  0.72533800  1
  La  La1  1  0.25000000  0.99999996  0.72533801  1
  La  La2  1  0.75000001  0.27466199  0.99999999  1
  La  La3  1  0.25000000  0.72533797  1.00000000  1
  La  La4  1  0.25000000  0.27466199  0.27466200  1
  La  La5  1  0.75000001  0.00000000  0.27466200  1
  La  La6  1  0.50000001  0.33333332  0.66666666  1
  La  La7  1  -0.00000000  0.66666664  0.33333334  1
  La  La8  1  0.50000001  0.66666664  0.33333334  1
  La  La9  1  -0.00000000  0.33333332  0.66666666  1
  Sb  Sb10  1  0.25000000  0.38300099  0.99999999  1
  Sb  Sb11  1  0.75000001  0.00000000  0.61699899  1
  Sb  Sb12  1  0.75000001  0.38300099  0.38300100  1
  Sb  Sb13  1  0.25000000  0.61699898  0.61699900  1
  Sb  Sb14  1  0.25000000  0.99999996  0.38300101  1
  Sb  Sb15  1  0.75000001  0.61699898  1.00000000  1
  Sb  Sb16  1  0.50000001  0.00000000  -0.00000000  1
  Sb  Sb17  1  0.00000000  0.00000000  0.00000000  1
