# generated using pymatgen
data_EuC4O3
_symmetry_space_group_name_H-M   'P 1'
_cell_length_a   4.25151682
_cell_length_b   6.60949993
_cell_length_c   8.18621826
_cell_angle_alpha   82.12509918
_cell_angle_beta   89.02291107
_cell_angle_gamma   72.20450592
_symmetry_Int_Tables_number   1
_chemical_formula_structural   EuC4O3
_chemical_formula_sum   'Eu2 C8 O6'
_cell_volume   216.88889265
_cell_formula_units_Z   2
loop_
 _symmetry_equiv_pos_site_id
 _symmetry_equiv_pos_as_xyz
  1  'x, y, z'
loop_
 _atom_site_type_symbol
 _atom_site_label
 _atom_site_symmetry_multiplicity
 _atom_site_fract_x
 _atom_site_fract_y
 _atom_site_fract_z
 _atom_site_occupancy
  Eu  Eu0  1  0.20690901  0.03403800  0.22185299  1
  Eu  Eu1  1  0.79309100  0.96596199  0.77814696  1
  C  C2  1  0.83101201  0.65173199  0.14868398  1
  C  C3  1  0.43361800  0.43777400  0.19569099  1
  C  C4  1  0.56638201  0.56222600  0.80430896  1
  C  C5  1  0.16898800  0.34826800  0.85131596  1
  C  C6  1  0.85389001  0.80035999  0.45675697  1
  C  C7  1  0.14611000  0.19964000  0.54324297  1
  C  C8  1  0.36978099  0.76429599  0.78928696  1
  C  C9  1  0.90451102  0.53550600  0.82089895  1
  O  O10  1  0.16257500  0.15273300  0.92135296  1
  O  O11  1  0.63021902  0.23570400  0.21071298  1
  O  O12  1  0.09548899  0.46449400  0.17910099  1
  O  O13  1  0.83742501  0.84726699  0.07864699  1
  O  O14  1  0.51806800  0.62772699  0.18460499  1
  O  O15  1  0.48193201  0.37227300  0.81539496  1
