# generated using pymatgen
data_Na2SrSbS4
_symmetry_space_group_name_H-M   'P 1'
_cell_length_a   6.79453611
_cell_length_b   6.79453611
_cell_length_c   6.79453611
_cell_angle_alpha   105.15949249
_cell_angle_beta   105.15949249
_cell_angle_gamma   118.48876190
_symmetry_Int_Tables_number   1
_chemical_formula_structural   Na2SrSbS4
_chemical_formula_sum   'Na2 Sr1 Sb1 S4'
_cell_volume   236.91764068
_cell_formula_units_Z   1
loop_
 _symmetry_equiv_pos_site_id
 _symmetry_equiv_pos_as_xyz
  1  'x, y, z'
loop_
 _atom_site_type_symbol
 _atom_site_label
 _atom_site_symmetry_multiplicity
 _atom_site_fract_x
 _atom_site_fract_y
 _atom_site_fract_z
 _atom_site_occupancy
  Sr  Sr0  1  0.00000000  0.00000000  0.00000000  1
  Na  Na1  1  0.50000001  0.00000000  0.50000002  1
  Na  Na2  1  0.00000003  0.50000003  0.50000004  1
  Sb  Sb3  1  0.50000004  0.50000003  0.00000006  1
  S  S4  1  0.07873406  0.92126605  0.50000007  1
  S  S5  1  0.42126604  0.57873403  0.50000006  1
  S  S6  1  0.92126604  0.42126602  0.84253208  1
  S  S7  1  0.57873401  0.07873400  0.15746803  1
