# generated using pymatgen
data_HfGaNi
_symmetry_space_group_name_H-M   'P 1'
_cell_length_a   3.50414109
_cell_length_b   6.85806179
_cell_length_c   6.85806227
_cell_angle_alpha   120.00000000
_cell_angle_beta   90.00000000
_cell_angle_gamma   90.00000000
_symmetry_Int_Tables_number   1
_chemical_formula_structural   HfGaNi
_chemical_formula_sum   'Hf3 Ga3 Ni3'
_cell_volume   142.72992378
_cell_formula_units_Z   3
loop_
 _symmetry_equiv_pos_site_id
 _symmetry_equiv_pos_as_xyz
  1  'x, y, z'
loop_
 _atom_site_type_symbol
 _atom_site_label
 _atom_site_symmetry_multiplicity
 _atom_site_fract_x
 _atom_site_fract_y
 _atom_site_fract_z
 _atom_site_occupancy
  Hf  Hf0  1  0.49999999  0.59432102  0.59432099  1
  Hf  Hf1  1  0.49999999  0.00000000  0.40567899  1
  Hf  Hf2  1  0.49999999  0.40567901  0.00000000  1
  Ga  Ga3  1  -0.00000000  0.25763301  0.25763299  1
  Ga  Ga4  1  0.99999997  0.00000000  0.74236698  1
  Ga  Ga5  1  -0.00000000  0.74236703  0.00000001  1
  Ni  Ni6  1  -0.00000000  0.66666669  0.33333333  1
  Ni  Ni7  1  -0.00000000  0.33333334  0.66666665  1
  Ni  Ni8  1  0.49999999  0.00000000  -0.00000000  1
