# generated using pymatgen
data_LiAlCu2
_symmetry_space_group_name_H-M   'P 1'
_cell_length_a   5.58466005
_cell_length_b   5.60316992
_cell_length_c   5.58466005
_cell_angle_alpha   60.10921860
_cell_angle_beta   90.00000000
_cell_angle_gamma   119.89077759
_symmetry_Int_Tables_number   1
_chemical_formula_structural   LiAlCu2
_chemical_formula_sum   'Li2 Al2 Cu4'
_cell_volume   123.97665638
_cell_formula_units_Z   2
loop_
 _symmetry_equiv_pos_site_id
 _symmetry_equiv_pos_as_xyz
  1  'x, y, z'
loop_
 _atom_site_type_symbol
 _atom_site_label
 _atom_site_symmetry_multiplicity
 _atom_site_fract_x
 _atom_site_fract_y
 _atom_site_fract_z
 _atom_site_occupancy
  Li  Li0  1  0.00000000  0.00000000  0.00000000  1
  Li  Li1  1  0.50000000  0.00000000  0.50000000  1
  Al  Al2  1  0.95165295  0.49044698  0.46120601  1
  Al  Al3  1  0.53879295  0.49044498  0.04834801  1
  Cu  Cu4  1  0.04834696  0.50955398  0.95165300  1
  Cu  Cu5  1  0.46120695  0.50955398  0.53879301  1
  Cu  Cu6  1  0.50000000  0.00000000  0.00000000  1
  Cu  Cu7  1  0.99999999  0.00000000  0.50000000  1
