# generated using pymatgen
data_Li2Co3O8
_symmetry_space_group_name_H-M   'P 1'
_cell_length_a   5.83488798
_cell_length_b   5.87678146
_cell_length_c   5.97294474
_cell_angle_alpha   89.40058899
_cell_angle_beta   62.43221664
_cell_angle_gamma   73.99801636
_symmetry_Int_Tables_number   1
_chemical_formula_structural   Li2Co3O8
_chemical_formula_sum   'Li2 Co3 O8'
_cell_volume   172.86919864
_cell_formula_units_Z   1
loop_
 _symmetry_equiv_pos_site_id
 _symmetry_equiv_pos_as_xyz
  1  'x, y, z'
loop_
 _atom_site_type_symbol
 _atom_site_label
 _atom_site_symmetry_multiplicity
 _atom_site_fract_x
 _atom_site_fract_y
 _atom_site_fract_z
 _atom_site_occupancy
  Li  Li0  1  0.50000000  0.00000000  0.50000002  1
  Li  Li1  1  0.00948099  0.47480201  0.24547200  1
  Co  Co2  1  0.49896199  0.50137601  0.75357702  1
  Co  Co3  1  0.99051898  0.52519802  0.75452803  1
  Co  Co4  1  0.50103799  0.49862401  0.24642302  1
  O  O5  1  0.25443199  0.30947301  0.36589301  1
  O  O6  1  0.24643199  0.31838801  0.84799902  1
  O  O7  1  0.72098099  0.33333334  0.89964103  1
  O  O8  1  0.71326399  0.31292801  0.40586702  1
  O  O9  1  0.27901898  0.66671802  0.10035901  1
  O  O10  1  0.28673598  0.68707202  0.59413302  1
  O  O11  1  0.74556798  0.69052702  0.63410703  1
  O  O12  1  0.75356798  0.68161202  0.15200102  1
