# generated using pymatgen
data_Dy3Ga5
_symmetry_space_group_name_H-M   'P 1'
_cell_length_a   4.84039021
_cell_length_b   6.44052839
_cell_length_c   6.44052839
_cell_angle_alpha   111.81852722
_cell_angle_beta   90.00000000
_cell_angle_gamma   90.00000000
_symmetry_Int_Tables_number   1
_chemical_formula_structural   Dy3Ga5
_chemical_formula_sum   'Dy3 Ga5'
_cell_volume   186.39851778
_cell_formula_units_Z   1
loop_
 _symmetry_equiv_pos_site_id
 _symmetry_equiv_pos_as_xyz
  1  'x, y, z'
loop_
 _atom_site_type_symbol
 _atom_site_label
 _atom_site_symmetry_multiplicity
 _atom_site_fract_x
 _atom_site_fract_y
 _atom_site_fract_z
 _atom_site_occupancy
  Dy  Dy0  1  0.74999997  0.37114800  0.62885199  1
  Dy  Dy1  1  0.24999999  0.62885200  0.37114798  1
  Dy  Dy2  1  0.74999997  0.82111000  0.17888996  1
  Ga  Ga3  1  0.24999999  0.17889000  0.82111001  1
  Ga  Ga4  1  0.74999997  0.31301800  0.11762499  1
  Ga  Ga5  1  0.24999999  0.68698200  0.88237498  1
  Ga  Ga6  1  0.24999999  0.11762500  0.31301800  1
  Ga  Ga7  1  0.74999997  0.88237500  0.68698197  1
