# generated using pymatgen
data_SmSn2
_symmetry_space_group_name_H-M   'P 1'
_cell_length_a   6.29173183
_cell_length_b   9.44531155
_cell_length_c   9.44531155
_cell_angle_alpha   120.00000000
_cell_angle_beta   90.00000000
_cell_angle_gamma   90.00000000
_symmetry_Int_Tables_number   1
_chemical_formula_structural   SmSn2
_chemical_formula_sum   'Sm6 Sn12'
_cell_volume   486.10871847
_cell_formula_units_Z   6
loop_
 _symmetry_equiv_pos_site_id
 _symmetry_equiv_pos_as_xyz
  1  'x, y, z'
loop_
 _atom_site_type_symbol
 _atom_site_label
 _atom_site_symmetry_multiplicity
 _atom_site_fract_x
 _atom_site_fract_y
 _atom_site_fract_z
 _atom_site_occupancy
  Sm  Sm0  1  0.25000001  0.38192602  0.38192601  1
  Sm  Sm1  1  0.75000002  0.61807403  0.61807402  1
  Sm  Sm2  1  0.25000001  1.00000004  0.61807401  1
  Sm  Sm3  1  0.75000002  0.00000000  0.38192601  1
  Sm  Sm4  1  0.25000001  0.61807403  1.00000003  1
  Sm  Sm5  1  0.75000002  0.38192602  1.00000003  1
  Sn  Sn6  1  0.50000001  0.00000000  -0.00000000  1
  Sn  Sn7  1  0.00000000  0.00000000  0.00000000  1
  Sn  Sn8  1  0.25000001  0.74645603  0.74645602  1
  Sn  Sn9  1  0.75000002  0.25354401  0.25354401  1
  Sn  Sn10  1  0.25000001  1.00000004  0.25354400  1
  Sn  Sn11  1  0.75000002  1.00000004  0.74645602  1
  Sn  Sn12  1  0.25000001  0.25354401  -0.00000000  1
  Sn  Sn13  1  0.75000002  0.74645603  -0.00000001  1
  Sn  Sn14  1  0.50000001  0.66666670  0.33333334  1
  Sn  Sn15  1  0.50000001  0.33333335  0.66666669  1
  Sn  Sn16  1  1.00000003  0.33333335  0.66666669  1
  Sn  Sn17  1  -0.00000000  0.66666670  0.33333334  1
