# generated using pymatgen
data_LaSn3
_symmetry_space_group_name_H-M   'P 1'
_cell_length_a   8.15276432
_cell_length_b   8.69898701
_cell_length_c   8.15276432
_cell_angle_alpha   62.05626678
_cell_angle_beta   90.00000000
_cell_angle_gamma   117.94373322
_symmetry_Int_Tables_number   1
_chemical_formula_structural   LaSn3
_chemical_formula_sum   'La4 Sn12'
_cell_volume   433.00234811
_cell_formula_units_Z   4
loop_
 _symmetry_equiv_pos_site_id
 _symmetry_equiv_pos_as_xyz
  1  'x, y, z'
loop_
 _atom_site_type_symbol
 _atom_site_label
 _atom_site_symmetry_multiplicity
 _atom_site_fract_x
 _atom_site_fract_y
 _atom_site_fract_z
 _atom_site_occupancy
  La  La0  1  0.49999998  0.00000000  0.49999998  1
  La  La1  1  0.00000000  0.00000000  0.00000000  1
  La  La2  1  0.51495401  0.71588602  0.29906796  1
  La  La3  1  0.20093102  0.71588402  0.98504693  1
  Sn  Sn4  1  0.01495403  0.71588502  0.48504595  1
  Sn  Sn5  1  0.70093101  0.71588502  0.79906894  1
  Sn  Sn6  1  0.48504599  0.28411401  0.70093196  1
  Sn  Sn7  1  0.79906898  0.28411601  0.01495299  1
  Sn  Sn8  1  0.98504597  0.28411501  0.51495397  1
  Sn  Sn9  1  0.29906900  0.28411501  0.20093098  1
  Sn  Sn10  1  0.25000001  0.50000001  0.74999995  1
  Sn  Sn11  1  0.74999999  0.50000001  0.24999997  1
  Sn  Sn12  1  0.13627299  0.00000100  0.63627198  1
  Sn  Sn13  1  0.86372701  0.99999903  0.36372794  1
  Sn  Sn14  1  0.63627298  0.00000000  0.86372697  1
  Sn  Sn15  1  0.36372699  0.00000000  0.13627299  1
