# generated using pymatgen
data_Yb2TlZnP2
_symmetry_space_group_name_H-M   'P 1'
_cell_length_a   4.67901182
_cell_length_b   4.67901278
_cell_length_c   7.30871582
_cell_angle_alpha   90.00000000
_cell_angle_beta   90.00000000
_cell_angle_gamma   119.99999237
_symmetry_Int_Tables_number   1
_chemical_formula_structural   Yb2TlZnP2
_chemical_formula_sum   'Yb2 Tl1 Zn1 P2'
_cell_volume   138.57347707
_cell_formula_units_Z   1
loop_
 _symmetry_equiv_pos_site_id
 _symmetry_equiv_pos_as_xyz
  1  'x, y, z'
loop_
 _atom_site_type_symbol
 _atom_site_label
 _atom_site_symmetry_multiplicity
 _atom_site_fract_x
 _atom_site_fract_y
 _atom_site_fract_z
 _atom_site_occupancy
  Yb  Yb0  1  0.33333330  0.66666663  0.65506602  1
  Yb  Yb1  1  0.66666667  0.33333331  0.34493401  1
  Zn  Zn2  1  0.00000000  0.00000000  0.50000001  1
  Tl  Tl3  1  0.00000000  0.00000000  0.00000000  1
  P  P4  1  0.33333330  0.66666663  0.24709401  1
  P  P5  1  0.66666667  0.33333331  0.75290602  1
