# generated using pymatgen
data_YZr3N4
_symmetry_space_group_name_H-M   'P 1'
_cell_length_a   4.72773790
_cell_length_b   4.72773790
_cell_length_c   6.28271532
_cell_angle_alpha   112.10156250
_cell_angle_beta   112.10156250
_cell_angle_gamma   90.00000000
_symmetry_Int_Tables_number   1
_chemical_formula_structural   YZr3N4
_chemical_formula_sum   'Y1 Zr3 N4'
_cell_volume   118.89816474
_cell_formula_units_Z   1
loop_
 _symmetry_equiv_pos_site_id
 _symmetry_equiv_pos_as_xyz
  1  'x, y, z'
loop_
 _atom_site_type_symbol
 _atom_site_label
 _atom_site_symmetry_multiplicity
 _atom_site_fract_x
 _atom_site_fract_y
 _atom_site_fract_z
 _atom_site_occupancy
  Zr  Zr0  1  0.49999998  0.50000000  -0.00000004  1
  Zr  Zr1  1  0.24999997  0.75000000  0.49999997  1
  Zr  Zr2  1  0.74999999  0.25000000  0.49999998  1
  Y  Y3  1  0.00000000  0.00000000  0.00000000  1
  N  N4  1  0.53017900  0.03017900  0.06035798  1
  N  N5  1  0.21982099  0.21982100  0.43964200  1
  N  N6  1  0.78017897  0.78017900  0.56035796  1
  N  N7  1  0.96982099  0.46982100  0.93964198  1
