# generated using pymatgen
data_Sm4Si9Ge
_symmetry_space_group_name_H-M   'P 1'
_cell_length_a   4.23669004
_cell_length_b   5.70993090
_cell_length_c   12.88520241
_cell_angle_alpha   84.53231812
_cell_angle_beta   80.53753662
_cell_angle_gamma   68.22312164
_symmetry_Int_Tables_number   1
_chemical_formula_structural   Sm4Si9Ge
_chemical_formula_sum   'Sm4 Si9 Ge1'
_cell_volume   285.32497052
_cell_formula_units_Z   1
loop_
 _symmetry_equiv_pos_site_id
 _symmetry_equiv_pos_as_xyz
  1  'x, y, z'
loop_
 _atom_site_type_symbol
 _atom_site_label
 _atom_site_symmetry_multiplicity
 _atom_site_fract_x
 _atom_site_fract_y
 _atom_site_fract_z
 _atom_site_occupancy
  Sm  Sm0  1  0.60252800  0.71607597  0.07886800  1
  Sm  Sm1  1  0.39747200  0.28392399  0.92113197  1
  Sm  Sm2  1  0.52159600  0.33207599  0.62473198  1
  Sm  Sm3  1  0.47840400  0.66792397  0.37526799  1
  Ge  Ge4  1  0.25697400  0.25879499  0.22725699  1
  Si  Si5  1  0.74302600  0.74120497  0.77274298  1
  Si  Si6  1  0.95287700  0.85765397  0.23659199  1
  Si  Si7  1  0.04712300  0.14234599  0.76340798  1
  Si  Si8  1  0.86939000  0.71730797  0.54391198  1
  Si  Si9  1  0.13061000  0.28269199  0.45608799  1
  Si  Si10  1  0.11296500  0.84924197  0.92482799  1
  Si  Si11  1  0.88703500  0.15075799  0.07517199  1
  Si  Si12  1  0.75338900  0.07773200  0.41548998  1
  Si  Si13  1  0.24661100  0.92226796  0.58450999  1
