# generated using pymatgen
data_KCdAg
_symmetry_space_group_name_H-M   'P 1'
_cell_length_a   6.75345612
_cell_length_b   6.75345659
_cell_length_c   11.13687992
_cell_angle_alpha   90.00000000
_cell_angle_beta   90.00000000
_cell_angle_gamma   120.00000000
_symmetry_Int_Tables_number   1
_chemical_formula_structural   KCdAg
_chemical_formula_sum   'K4 Cd4 Ag4'
_cell_volume   439.89230374
_cell_formula_units_Z   4
loop_
 _symmetry_equiv_pos_site_id
 _symmetry_equiv_pos_as_xyz
  1  'x, y, z'
loop_
 _atom_site_type_symbol
 _atom_site_label
 _atom_site_symmetry_multiplicity
 _atom_site_fract_x
 _atom_site_fract_y
 _atom_site_fract_z
 _atom_site_occupancy
  K  K0  1  0.66666667  0.33333333  0.93653801  1
  K  K1  1  0.33333336  0.66666667  0.43653800  1
  K  K2  1  0.33333336  0.66666667  0.06346200  1
  K  K3  1  0.66666667  0.33333333  0.56346200  1
  Ag  Ag4  1  0.00000000  0.00000000  0.00000000  1
  Cd  Cd5  1  0.00000000  0.00000000  0.50000000  1
  Cd  Cd6  1  0.16554504  0.83445500  0.75000001  1
  Cd  Cd7  1  0.83445502  0.66891000  0.25000000  1
  Cd  Cd8  1  0.33109000  0.16554500  0.25000000  1
  Ag  Ag9  1  0.66891003  0.83445500  0.75000001  1
  Ag  Ag10  1  0.16554501  0.33109000  0.75000001  1
  Ag  Ag11  1  0.83445499  0.16554500  0.25000000  1
