# generated using pymatgen
data_DyMg4In3
_symmetry_space_group_name_H-M   'P 1'
_cell_length_a   4.89287376
_cell_length_b   6.53810358
_cell_length_c   6.53810358
_cell_angle_alpha   113.35304260
_cell_angle_beta   90.00000000
_cell_angle_gamma   90.00000000
_symmetry_Int_Tables_number   1
_chemical_formula_structural   DyMg4In3
_chemical_formula_sum   'Dy1 Mg4 In3'
_cell_volume   192.02069554
_cell_formula_units_Z   1
loop_
 _symmetry_equiv_pos_site_id
 _symmetry_equiv_pos_as_xyz
  1  'x, y, z'
loop_
 _atom_site_type_symbol
 _atom_site_label
 _atom_site_symmetry_multiplicity
 _atom_site_fract_x
 _atom_site_fract_y
 _atom_site_fract_z
 _atom_site_occupancy
  Dy  Dy0  1  0.75000004  0.36560500  0.63439500  1
  Mg  Mg1  1  0.25000001  0.63439501  0.36560497  1
  Mg  Mg2  1  0.75000004  0.82376401  0.17623595  1
  Mg  Mg3  1  0.25000001  0.17623600  0.82376402  1
  In  In4  1  0.75000004  0.31032300  0.12007698  1
  Mg  Mg5  1  0.25000001  0.68967701  0.87992299  1
  In  In6  1  0.25000001  0.12007700  0.31032300  1
  In  In7  1  0.75000004  0.87992301  0.68967697  1
