# generated using pymatgen
data_Li4Co3O5
_symmetry_space_group_name_H-M   'P 1'
_cell_length_a   3.87711906
_cell_length_b   3.87713838
_cell_length_c   10.35721779
_cell_angle_alpha   89.99972534
_cell_angle_beta   89.99895477
_cell_angle_gamma   89.99993896
_symmetry_Int_Tables_number   1
_chemical_formula_structural   Li4Co3O5
_chemical_formula_sum   'Li4 Co3 O5'
_cell_volume   155.69101431
_cell_formula_units_Z   1
loop_
 _symmetry_equiv_pos_site_id
 _symmetry_equiv_pos_as_xyz
  1  'x, y, z'
loop_
 _atom_site_type_symbol
 _atom_site_label
 _atom_site_symmetry_multiplicity
 _atom_site_fract_x
 _atom_site_fract_y
 _atom_site_fract_z
 _atom_site_occupancy
  Li  Li0  1  0.50001306  0.99994600  0.24998599  1
  Li  Li1  1  0.99999104  0.50005100  0.75001500  1
  Li  Li2  1  0.00000505  0.99999100  0.99993797  1
  Li  Li3  1  0.50000604  0.50000600  0.50006099  1
  Co  Co4  1  0.00000203  0.49999800  0.96340797  1
  Co  Co5  1  0.50000306  0.99999700  0.46357199  1
  Co  Co6  1  0.00000503  0.49999800  0.53658598  1
  O  O7  1  0.50000406  0.99999900  0.03643500  1
  O  O8  1  0.99999407  0.99996600  0.80035099  1
  O  O9  1  0.50000004  0.50004100  0.30045200  1
  O  O10  1  0.99998702  0.00001900  0.19956401  1
  O  O11  1  0.49999004  0.49998800  0.69963199  1
