# generated using pymatgen
data_CuN2
_symmetry_space_group_name_H-M   'P 1'
_cell_length_a   2.83309007
_cell_length_b   2.83308911
_cell_length_c   4.25879717
_cell_angle_alpha   90.00000000
_cell_angle_beta   90.00000000
_cell_angle_gamma   120.00000763
_symmetry_Int_Tables_number   1
_chemical_formula_structural   CuN2
_chemical_formula_sum   'Cu1 N2'
_cell_volume   29.60316676
_cell_formula_units_Z   1
loop_
 _symmetry_equiv_pos_site_id
 _symmetry_equiv_pos_as_xyz
  1  'x, y, z'
loop_
 _atom_site_type_symbol
 _atom_site_label
 _atom_site_symmetry_multiplicity
 _atom_site_fract_x
 _atom_site_fract_y
 _atom_site_fract_z
 _atom_site_occupancy
  Cu  Cu0  1  0.33333330  0.66666668  0.75246797  1
  N  N1  1  0.66666664  0.33333334  0.24753199  1
  N  N2  1  0.00000000  0.00000000  0.49999998  1
