# generated using pymatgen
data_Eu2SeO2
_symmetry_space_group_name_H-M   'P 1'
_cell_length_a   3.88621211
_cell_length_b   3.88621259
_cell_length_c   14.35264874
_cell_angle_alpha   90.00000000
_cell_angle_beta   90.00000000
_cell_angle_gamma   119.99999237
_symmetry_Int_Tables_number   1
_chemical_formula_structural   Eu2SeO2
_chemical_formula_sum   'Eu4 Se2 O4'
_cell_volume   187.72226089
_cell_formula_units_Z   2
loop_
 _symmetry_equiv_pos_site_id
 _symmetry_equiv_pos_as_xyz
  1  'x, y, z'
loop_
 _atom_site_type_symbol
 _atom_site_label
 _atom_site_symmetry_multiplicity
 _atom_site_fract_x
 _atom_site_fract_y
 _atom_site_fract_z
 _atom_site_occupancy
  Eu  Eu0  1  0.66666663  0.33333332  0.59714801  1
  Eu  Eu1  1  0.66666663  0.33333332  0.90285202  1
  Eu  Eu2  1  0.33333329  0.66666665  0.09714800  1
  Eu  Eu3  1  0.33333329  0.66666665  0.40285201  1
  Se  Se4  1  0.00000000  0.00000000  0.25000000  1
  Se  Se5  1  0.00000000  0.00000000  0.75000001  1
  O  O6  1  0.66666663  0.33333332  0.44000001  1
  O  O7  1  0.66666663  0.33333332  0.06000000  1
  O  O8  1  0.33333329  0.66666665  0.56000001  1
  O  O9  1  0.33333329  0.66666665  0.94000002  1
