# generated using pymatgen
data_Li4CoO6
_symmetry_space_group_name_H-M   'P 1'
_cell_length_a   2.86158991
_cell_length_b   5.87175226
_cell_length_c   6.75462294
_cell_angle_alpha   104.92313385
_cell_angle_beta   102.22929382
_cell_angle_gamma   90.00000000
_symmetry_Int_Tables_number   1
_chemical_formula_structural   Li4CoO6
_chemical_formula_sum   'Li4 Co1 O6'
_cell_volume   106.99937970
_cell_formula_units_Z   1
loop_
 _symmetry_equiv_pos_site_id
 _symmetry_equiv_pos_as_xyz
  1  'x, y, z'
loop_
 _atom_site_type_symbol
 _atom_site_label
 _atom_site_symmetry_multiplicity
 _atom_site_fract_x
 _atom_site_fract_y
 _atom_site_fract_z
 _atom_site_occupancy
  Li  Li0  1  0.64921700  0.30465400  0.29843398  1
  Li  Li1  1  0.35078298  0.69534599  0.70156598  1
  Li  Li2  1  0.66009798  0.83349199  0.32019597  1
  Li  Li3  1  0.33990200  0.16650800  0.67980398  1
  Co  Co4  1  -0.00000002  0.49999999  -0.00000000  1
  O  O5  1  0.50493198  0.71509699  0.00986398  1
  O  O6  1  0.15409198  0.59830299  0.30818399  1
  O  O7  1  0.82368498  0.93165799  0.64736996  1
  O  O8  1  0.17631500  0.06834200  0.35262999  1
  O  O9  1  0.84590800  0.40169699  0.69181597  1
  O  O10  1  0.49506800  0.28490300  0.99013597  1
