# generated using pymatgen
data_BaPrO3
_symmetry_space_group_name_H-M   'P 1'
_cell_length_a   6.26744986
_cell_length_b   6.29210997
_cell_length_c   8.81888103
_cell_angle_alpha   90.00000000
_cell_angle_beta   90.00000000
_cell_angle_gamma   90.00000000
_symmetry_Int_Tables_number   1
_chemical_formula_structural   BaPrO3
_chemical_formula_sum   'Ba4 Pr4 O12'
_cell_volume   347.77683931
_cell_formula_units_Z   4
loop_
 _symmetry_equiv_pos_site_id
 _symmetry_equiv_pos_as_xyz
  1  'x, y, z'
loop_
 _atom_site_type_symbol
 _atom_site_label
 _atom_site_symmetry_multiplicity
 _atom_site_fract_x
 _atom_site_fract_y
 _atom_site_fract_z
 _atom_site_occupancy
  Ba  Ba0  1  0.01599000  0.99190401  0.75000000  1
  Ba  Ba1  1  0.48401101  0.49190400  0.25000000  1
  Ba  Ba2  1  0.51598901  0.50809600  0.75000000  1
  Ba  Ba3  1  0.98401102  0.00809600  0.25000000  1
  Pr  Pr4  1  -0.00000000  0.50000000  -0.00000000  1
  Pr  Pr5  1  -0.00000000  0.50000000  0.50000000  1
  Pr  Pr6  1  0.50000001  0.00000000  0.50000000  1
  Pr  Pr7  1  0.50000001  0.00000000  -0.00000000  1
  O  O8  1  0.23267501  0.23363700  0.04147600  1
  O  O9  1  0.51217101  0.92498300  0.25000000  1
  O  O10  1  0.73267502  0.26636300  0.45852400  1
  O  O11  1  0.73267502  0.26636300  0.04147600  1
  O  O12  1  0.76732502  0.76636300  0.54147600  1
  O  O13  1  0.01217100  0.57501700  0.25000000  1
  O  O14  1  0.23267501  0.23363700  0.45852400  1
  O  O15  1  0.26732501  0.73363700  0.95852400  1
  O  O16  1  0.26732501  0.73363700  0.54147600  1
  O  O17  1  0.48782901  0.07501700  0.75000000  1
  O  O18  1  0.76732502  0.76636300  0.95852400  1
  O  O19  1  0.98782902  0.42498300  0.75000000  1
