# generated using pymatgen
data_Ti2Ni4P2C
_symmetry_space_group_name_H-M   'P 1'
_cell_length_a   3.19795895
_cell_length_b   6.16668177
_cell_length_c   6.16668272
_cell_angle_alpha   120.00000000
_cell_angle_beta   90.00000000
_cell_angle_gamma   90.00000000
_symmetry_Int_Tables_number   1
_chemical_formula_structural   Ti2Ni4P2C
_chemical_formula_sum   'Ti2 Ni4 P2 C1'
_cell_volume   105.31898313
_cell_formula_units_Z   1
loop_
 _symmetry_equiv_pos_site_id
 _symmetry_equiv_pos_as_xyz
  1  'x, y, z'
loop_
 _atom_site_type_symbol
 _atom_site_label
 _atom_site_symmetry_multiplicity
 _atom_site_fract_x
 _atom_site_fract_y
 _atom_site_fract_z
 _atom_site_occupancy
  Ti  Ti0  1  1.00000002  0.25190402  0.25190401  1
  Ti  Ti1  1  -0.00000000  1.00000007  0.74809606  1
  Ni  Ni2  1  1.00000002  0.74809605  1.00000004  1
  Ni  Ni3  1  0.50000001  0.61126804  0.61126803  1
  Ni  Ni4  1  0.50000001  1.00000007  0.38873206  1
  Ni  Ni5  1  0.50000001  0.38873203  1.00000001  1
  P  P6  1  -0.00000000  0.66666671  0.33333337  1
  P  P7  1  -0.00000000  0.33333336  0.66666668  1
  C  C8  1  0.50000001  0.00000000  -0.00000000  1
