# generated using pymatgen
data_LiMnCo2S3
_symmetry_space_group_name_H-M   'P 1'
_cell_length_a   3.54624009
_cell_length_b   5.97858238
_cell_length_c   7.50471497
_cell_angle_alpha   111.89389038
_cell_angle_beta   103.66634369
_cell_angle_gamma   90.00000000
_symmetry_Int_Tables_number   1
_chemical_formula_structural   LiMnCo2S3
_chemical_formula_sum   'Li1 Mn1 Co2 S3'
_cell_volume   142.76902652
_cell_formula_units_Z   1
loop_
 _symmetry_equiv_pos_site_id
 _symmetry_equiv_pos_as_xyz
  1  'x, y, z'
loop_
 _atom_site_type_symbol
 _atom_site_label
 _atom_site_symmetry_multiplicity
 _atom_site_fract_x
 _atom_site_fract_y
 _atom_site_fract_z
 _atom_site_occupancy
  Li  Li0  1  0.00000000  0.00000000  0.00000000  1
  Mn  Mn1  1  0.74619992  0.73030397  0.49239995  1
  Co  Co2  1  0.25379997  0.26969599  0.50759999  1
  Co  Co3  1  0.35455698  0.01280100  0.70911400  1
  S  S4  1  0.86019193  0.51846398  0.72038396  1
  S  S5  1  0.13980796  0.48153598  0.27961598  1
  S  S6  1  0.64544291  0.98719895  0.29088594  1
