# generated using pymatgen
data_DyInGe
_symmetry_space_group_name_H-M   'P 1'
_cell_length_a   3.71544099
_cell_length_b   7.88548803
_cell_length_c   7.88548803
_cell_angle_alpha   120.00000000
_cell_angle_beta   90.00000000
_cell_angle_gamma   90.00000000
_symmetry_Int_Tables_number   1
_chemical_formula_structural   DyInGe
_chemical_formula_sum   'Dy3 In3 Ge3'
_cell_volume   200.07745459
_cell_formula_units_Z   3
loop_
 _symmetry_equiv_pos_site_id
 _symmetry_equiv_pos_as_xyz
  1  'x, y, z'
loop_
 _atom_site_type_symbol
 _atom_site_label
 _atom_site_symmetry_multiplicity
 _atom_site_fract_x
 _atom_site_fract_y
 _atom_site_fract_z
 _atom_site_occupancy
  Dy  Dy0  1  -0.00000000  0.40477300  0.40477300  1
  Dy  Dy1  1  1.00000000  0.59522700  1.00000001  1
  Dy  Dy2  1  -0.00000000  0.00000000  0.59522700  1
  In  In3  1  0.50000000  0.74808000  0.74808001  1
  In  In4  1  0.50000000  0.25192000  0.00000000  1
  In  In5  1  0.50000000  0.00000000  0.25192000  1
  Ge  Ge6  1  0.50000000  0.33333333  0.66666667  1
  Ge  Ge7  1  0.50000000  0.66666667  0.33333334  1
  Ge  Ge8  1  0.00000000  0.00000000  0.00000000  1
