# generated using pymatgen
data_Li4CuO5
_symmetry_space_group_name_H-M   'P 1'
_cell_length_a   5.25965452
_cell_length_b   5.25965452
_cell_length_c   7.91609144
_cell_angle_alpha   83.51995850
_cell_angle_beta   83.51995850
_cell_angle_gamma   67.32064819
_symmetry_Int_Tables_number   1
_chemical_formula_structural   Li4CuO5
_chemical_formula_sum   'Li8 Cu2 O10'
_cell_volume   200.19149659
_cell_formula_units_Z   2
loop_
 _symmetry_equiv_pos_site_id
 _symmetry_equiv_pos_as_xyz
  1  'x, y, z'
loop_
 _atom_site_type_symbol
 _atom_site_label
 _atom_site_symmetry_multiplicity
 _atom_site_fract_x
 _atom_site_fract_y
 _atom_site_fract_z
 _atom_site_occupancy
  Li  Li0  1  0.03496102  0.36290498  0.35201798  1
  Li  Li1  1  0.36290499  0.03496100  0.85201797  1
  Li  Li2  1  0.56640500  0.21999899  0.44448597  1
  Li  Li3  1  0.21999903  0.56640498  0.94448596  1
  Li  Li4  1  0.78000101  0.43359498  0.05551397  1
  Li  Li5  1  0.43359503  0.78000097  0.55551395  1
  Li  Li6  1  0.63709504  0.96503896  0.14798195  1
  Li  Li7  1  0.96503901  0.63709497  0.64798194  1
  Cu  Cu8  1  0.17134704  0.82865296  0.24999997  1
  Cu  Cu9  1  0.82865299  0.17134699  0.74999996  1
  O  O10  1  0.35325199  0.01076200  0.34058198  1
  O  O11  1  0.01076202  0.35325198  0.84058197  1
  O  O12  1  0.23225303  0.59041197  0.42752697  1
  O  O13  1  0.59041200  0.23225299  0.92752696  1
  O  O14  1  0.87132199  0.12867799  0.24999997  1
  O  O15  1  0.12867804  0.87132196  0.74999995  1
  O  O16  1  0.40958803  0.76774697  0.07247296  1
  O  O17  1  0.76774701  0.40958798  0.57247295  1
  O  O18  1  0.98923801  0.64674797  0.15941795  1
  O  O19  1  0.64674804  0.98923796  0.65941794  1
