# generated using pymatgen
data_CaCoO4
_symmetry_space_group_name_H-M   'P 1'
_cell_length_a   3.95386600
_cell_length_b   5.61371708
_cell_length_c   7.05472851
_cell_angle_alpha   90.00000000
_cell_angle_beta   106.27381897
_cell_angle_gamma   90.00000000
_symmetry_Int_Tables_number   1
_chemical_formula_structural   CaCoO4
_chemical_formula_sum   'Ca2 Co2 O8'
_cell_volume   150.31208359
_cell_formula_units_Z   2
loop_
 _symmetry_equiv_pos_site_id
 _symmetry_equiv_pos_as_xyz
  1  'x, y, z'
loop_
 _atom_site_type_symbol
 _atom_site_label
 _atom_site_symmetry_multiplicity
 _atom_site_fract_x
 _atom_site_fract_y
 _atom_site_fract_z
 _atom_site_occupancy
  Ca  Ca0  1  0.15131300  0.24434100  0.30262601  1
  Ca  Ca1  1  0.84868701  0.74434099  0.69737403  1
  Co  Co2  1  0.41515800  0.29009400  0.83031602  1
  Co  Co3  1  0.58484200  0.79009399  0.16968401  1
  O  O4  1  0.33430900  0.01333300  0.66861802  1
  O  O5  1  0.66569101  0.51333299  0.33138202  1
  O  O6  1  0.29970400  0.49160799  0.59940802  1
  O  O7  1  0.70029601  0.99160799  0.40059202  1
  O  O8  1  0.07460600  0.82675899  0.14921200  1
  O  O9  1  0.92539401  0.32675900  0.85078803  1
  O  O10  1  0.53860500  0.13286500  0.07721001  1
  O  O11  1  0.46139500  0.63286499  0.92279003  1
