# generated using pymatgen
data_Ti3Al3Fe2
_symmetry_space_group_name_H-M   'P 1'
_cell_length_a   4.38044500
_cell_length_b   5.42732811
_cell_length_c   5.42732906
_cell_angle_alpha   60.00000381
_cell_angle_beta   90.00000000
_cell_angle_gamma   90.00000000
_symmetry_Int_Tables_number   1
_chemical_formula_structural   Ti3Al3Fe2
_chemical_formula_sum   'Ti3 Al3 Fe2'
_cell_volume   111.74320208
_cell_formula_units_Z   1
loop_
 _symmetry_equiv_pos_site_id
 _symmetry_equiv_pos_as_xyz
  1  'x, y, z'
loop_
 _atom_site_type_symbol
 _atom_site_label
 _atom_site_symmetry_multiplicity
 _atom_site_fract_x
 _atom_site_fract_y
 _atom_site_fract_z
 _atom_site_occupancy
  Ti  Ti0  1  0.25000000  0.83349600  0.33300796  1
  Ti  Ti1  1  0.25000000  0.83349600  0.83349495  1
  Al  Al2  1  0.25000000  0.33300900  0.83349497  1
  Ti  Ti3  1  0.75000000  0.16650400  0.66699198  1
  Al  Al4  1  0.75000000  0.16650400  0.16650499  1
  Al  Al5  1  0.75000000  0.66699100  0.16650497  1
  Fe  Fe6  1  0.75000000  0.66666667  0.66666663  1
  Fe  Fe7  1  0.25000000  0.33333333  0.33333331  1
