# generated using pymatgen
data_EuCu2
_symmetry_space_group_name_H-M   'P 1'
_cell_length_a   4.25806189
_cell_length_b   4.29548216
_cell_length_c   4.29548168
_cell_angle_alpha   120.00000000
_cell_angle_beta   90.00000000
_cell_angle_gamma   90.00000000
_symmetry_Int_Tables_number   1
_chemical_formula_structural   EuCu2
_chemical_formula_sum   'Eu1 Cu2'
_cell_volume   68.04032692
_cell_formula_units_Z   1
loop_
 _symmetry_equiv_pos_site_id
 _symmetry_equiv_pos_as_xyz
  1  'x, y, z'
loop_
 _atom_site_type_symbol
 _atom_site_label
 _atom_site_symmetry_multiplicity
 _atom_site_fract_x
 _atom_site_fract_y
 _atom_site_fract_z
 _atom_site_occupancy
  Eu  Eu0  1  1.00000003  0.33333331  0.66666662  1
  Cu  Cu1  1  0.50000001  0.00000000  -0.00000000  1
  Cu  Cu2  1  0.50000001  0.66666662  0.33333327  1
