# generated using pymatgen
data_Sr2ZnF6
_symmetry_space_group_name_H-M   'P 1'
_cell_length_a   4.69560099
_cell_length_b   5.97529793
_cell_length_c   5.97529793
_cell_angle_alpha   60.00000000
_cell_angle_beta   90.00000000
_cell_angle_gamma   90.00000000
_symmetry_Int_Tables_number   1
_chemical_formula_structural   Sr2ZnF6
_chemical_formula_sum   'Sr2 Zn1 F6'
_cell_volume   145.19141740
_cell_formula_units_Z   1
loop_
 _symmetry_equiv_pos_site_id
 _symmetry_equiv_pos_as_xyz
  1  'x, y, z'
loop_
 _atom_site_type_symbol
 _atom_site_label
 _atom_site_symmetry_multiplicity
 _atom_site_fract_x
 _atom_site_fract_y
 _atom_site_fract_z
 _atom_site_occupancy
  Sr  Sr0  1  0.29526500  0.66666668  0.66666668  1
  Sr  Sr1  1  0.70473500  0.33333334  0.33333334  1
  Zn  Zn2  1  0.00000000  0.00000000  0.00000000  1
  F  F3  1  0.77339200  0.83769202  0.32461600  1
  F  F4  1  0.77339200  0.32461601  0.83769202  1
  F  F5  1  0.77339200  0.83769202  0.83769202  1
  F  F6  1  0.22660800  0.16230800  0.67538402  1
  F  F7  1  0.22660800  0.67538401  0.16230800  1
  F  F8  1  0.22660800  0.16230800  0.16230800  1
