# generated using pymatgen
data_HfAgPt
_symmetry_space_group_name_H-M   'P 1'
_cell_length_a   5.27576399
_cell_length_b   5.27576351
_cell_length_c   13.22987366
_cell_angle_alpha   90.00000000
_cell_angle_beta   90.00000000
_cell_angle_gamma   120.00000000
_symmetry_Int_Tables_number   1
_chemical_formula_structural   HfAgPt
_chemical_formula_sum   'Hf6 Ag6 Pt6'
_cell_volume   318.90182710
_cell_formula_units_Z   6
loop_
 _symmetry_equiv_pos_site_id
 _symmetry_equiv_pos_as_xyz
  1  'x, y, z'
loop_
 _atom_site_type_symbol
 _atom_site_label
 _atom_site_symmetry_multiplicity
 _atom_site_fract_x
 _atom_site_fract_y
 _atom_site_fract_z
 _atom_site_occupancy
  Hf  Hf0  1  0.83901095  0.67802197  0.66666668  1
  Hf  Hf1  1  0.83901099  0.16098899  -0.00000000  1
  Hf  Hf2  1  0.32197799  0.16098899  0.33333334  1
  Hf  Hf3  1  0.16098898  0.32197798  0.66666668  1
  Hf  Hf4  1  0.16098894  0.83901096  -0.00000000  1
  Hf  Hf5  1  0.67802194  0.83901096  0.33333334  1
  Ag  Ag6  1  0.50000000  0.00000000  0.78294202  1
  Ag  Ag7  1  0.49999997  0.49999998  0.11627500  1
  Ag  Ag8  1  0.99999997  0.49999998  0.44960801  1
  Ag  Ag9  1  0.50000000  0.00000000  0.55039201  1
  Ag  Ag10  1  0.99999997  0.49999998  0.21705801  1
  Ag  Ag11  1  0.49999997  0.49999998  0.88372502  1
  Pt  Pt12  1  0.50000000  0.00000000  0.16666700  1
  Pt  Pt13  1  0.49999997  0.49999998  0.50000001  1
  Pt  Pt14  1  0.99999997  0.49999998  0.83333302  1
  Pt  Pt15  1  0.00000000  0.00000000  0.16666700  1
  Pt  Pt16  1  0.00000000  0.00000000  0.50000001  1
  Pt  Pt17  1  0.00000000  0.00000000  0.83333302  1
