# generated using pymatgen
data_Li2O2
_symmetry_space_group_name_H-M   'P 1'
_cell_length_a   5.90960598
_cell_length_b   6.45384502
_cell_length_c   5.90960598
_cell_angle_alpha   117.24755859
_cell_angle_beta   90.00000000
_cell_angle_gamma   117.24755859
_symmetry_Int_Tables_number   1
_chemical_formula_structural   Li2O2
_chemical_formula_sum   'Li7 O7'
_cell_volume   171.76653040
_cell_formula_units_Z   3
loop_
 _symmetry_equiv_pos_site_id
 _symmetry_equiv_pos_as_xyz
  1  'x, y, z'
loop_
 _atom_site_type_symbol
 _atom_site_label
 _atom_site_symmetry_multiplicity
 _atom_site_fract_x
 _atom_site_fract_y
 _atom_site_fract_z
 _atom_site_occupancy
  Li  Li0  1  0.62499999  0.24999998  0.87499999  1
  Li  Li1  1  0.12499995  0.74999995  0.37499995  1
  Li  Li2  1  0.62499999  0.24999998  0.37499998  1
  Li  Li3  1  0.62499995  0.74999995  0.37499995  1
  Li  Li4  1  0.62499995  0.74999995  0.87499995  1
  Li  Li5  1  0.12499998  0.24999998  0.37499998  1
  O  O6  1  0.12499998  0.24999998  0.87499999  1
  Li  Li7  1  0.12499995  0.74999995  0.87499995  1
  O  O8  1  0.74999997  0.49999996  0.24999997  1
  O  O9  1  0.50000000  0.00000000  0.50000000  1
  O  O10  1  0.23704697  0.47409397  0.23704697  1
  O  O11  1  0.48704694  0.97409393  0.98704694  1
  O  O12  1  0.01295300  0.02590600  0.51295300  1
  O  O13  1  0.76295297  0.52590596  0.76295297  1
