# generated using pymatgen
data_LiIrO3
_symmetry_space_group_name_H-M   'P 1'
_cell_length_a   5.24370480
_cell_length_b   5.48621607
_cell_length_c   7.61290789
_cell_angle_alpha   90.00000000
_cell_angle_beta   90.00000000
_cell_angle_gamma   90.00000000
_symmetry_Int_Tables_number   1
_chemical_formula_structural   LiIrO3
_chemical_formula_sum   'Li4 Ir4 O12'
_cell_volume   219.00887640
_cell_formula_units_Z   4
loop_
 _symmetry_equiv_pos_site_id
 _symmetry_equiv_pos_as_xyz
  1  'x, y, z'
loop_
 _atom_site_type_symbol
 _atom_site_label
 _atom_site_symmetry_multiplicity
 _atom_site_fract_x
 _atom_site_fract_y
 _atom_site_fract_z
 _atom_site_occupancy
  Li  Li0  1  0.01590800  0.68137699  0.00000000  1
  Li  Li1  1  0.51590802  0.31862300  0.50000001  1
  Li  Li2  1  0.48822202  0.20020900  0.00000000  1
  Li  Li3  1  0.98822204  0.79979099  0.50000001  1
  Ir  Ir4  1  0.00120400  0.24159200  0.75029201  1
  Ir  Ir5  1  0.00120400  0.24159200  0.24970800  1
  Ir  Ir6  1  0.50120402  0.75840799  0.25029200  1
  Ir  Ir7  1  0.50120402  0.75840799  0.74970801  1
  O  O8  1  0.10758800  0.19517600  0.50000001  1
  O  O9  1  0.19256001  0.94782899  0.81068301  1
  O  O10  1  0.19256001  0.94782899  0.18931700  1
  O  O11  1  0.31435901  0.44102699  0.81175201  1
  O  O12  1  0.31435901  0.44102699  0.18824800  1
  O  O13  1  0.37174301  0.71167999  0.50000001  1
  O  O14  1  0.60758802  0.80482399  0.00000000  1
  O  O15  1  0.69256003  0.05217100  0.31068300  1
  O  O16  1  0.69256003  0.05217100  0.68931701  1
  O  O17  1  0.81435903  0.55897299  0.68824801  1
  O  O18  1  0.81435903  0.55897299  0.31175200  1
  O  O19  1  0.87174303  0.28832000  0.00000000  1
