# generated using pymatgen
data_Na2AlV2OsO14
_symmetry_space_group_name_H-M   'P 1'
_cell_length_a   5.08069515
_cell_length_b   7.53105688
_cell_length_c   7.54859495
_cell_angle_alpha   103.53884888
_cell_angle_beta   90.00000000
_cell_angle_gamma   90.00000000
_symmetry_Int_Tables_number   1
_chemical_formula_structural   Na2AlV2OsO14
_chemical_formula_sum   'Na2 Al1 V2 Os1 O14'
_cell_volume   280.80568883
_cell_formula_units_Z   1
loop_
 _symmetry_equiv_pos_site_id
 _symmetry_equiv_pos_as_xyz
  1  'x, y, z'
loop_
 _atom_site_type_symbol
 _atom_site_label
 _atom_site_symmetry_multiplicity
 _atom_site_fract_x
 _atom_site_fract_y
 _atom_site_fract_z
 _atom_site_occupancy
  Na  Na0  1  0.25387999  0.81017801  0.19899398  1
  Na  Na1  1  0.24611999  0.31017800  0.19899399  1
  V  V2  1  0.75387998  0.68982201  0.80100598  1
  V  V3  1  0.74611998  0.18982200  0.80100598  1
  Os  Os4  1  0.94803197  0.71624701  0.03465299  1
  Al  Al5  1  0.55196798  0.21624700  0.03465300  1
  O  O6  1  0.35757499  0.55508901  0.18446499  1
  O  O7  1  0.55137098  0.89853901  0.30484698  1
  O  O8  1  0.14242500  0.05508900  0.18446500  1
  O  O9  1  0.94862897  0.39853900  0.30484699  1
  O  O10  1  0.04945400  0.80791001  0.38581198  1
  O  O11  1  0.45054599  0.30791000  0.38581199  1
  O  O12  1  0.54945398  0.69209001  0.61418798  1
  O  O13  1  0.95054597  0.19209000  0.61418799  1
  O  O14  1  0.05137100  0.60146101  0.69515298  1
  O  O15  1  0.85757497  0.94491101  0.81553497  1
  O  O16  1  0.44862899  0.10146100  0.69515299  1
  O  O17  1  0.64242498  0.44491101  0.81553498  1
  O  O18  1  0.44803199  0.78375301  0.96534697  1
  O  O19  1  0.05196800  0.28375300  0.96534698  1
