# generated using pymatgen
data_PrFe2(Ge6Ir)2
_symmetry_space_group_name_H-M   'P 1'
_cell_length_a   7.02018213
_cell_length_b   7.02018213
_cell_length_c   7.02018213
_cell_angle_alpha   109.47122192
_cell_angle_beta   109.47122192
_cell_angle_gamma   109.47122192
_symmetry_Int_Tables_number   1
_chemical_formula_structural   PrFe2(Ge6Ir)2
_chemical_formula_sum   'Pr1 Fe2 Ge12 Ir2'
_cell_volume   266.33192467
_cell_formula_units_Z   1
loop_
 _symmetry_equiv_pos_site_id
 _symmetry_equiv_pos_as_xyz
  1  'x, y, z'
loop_
 _atom_site_type_symbol
 _atom_site_label
 _atom_site_symmetry_multiplicity
 _atom_site_fract_x
 _atom_site_fract_y
 _atom_site_fract_z
 _atom_site_occupancy
  Pr  Pr0  1  0.00000000  0.00000000  0.00000000  1
  Ge  Ge1  1  0.35799503  0.50170401  0.14370903  1
  Ge  Ge2  1  0.64200503  0.49829601  0.85629103  1
  Fe  Fe3  1  0.35799501  0.21428601  0.85629101  1
  Ge  Ge4  1  0.78571401  0.14370900  0.64200502  1
  Fe  Fe5  1  0.14370904  0.64200502  0.78571403  1
  Ge  Ge6  1  0.14370902  0.35799501  0.50170402  1
  Ge  Ge7  1  0.21428605  0.85629103  0.35799505  1
  Ge  Ge8  1  0.85629104  0.64200502  0.49829605  1
  Ge  Ge9  1  0.50170401  0.14370900  0.35799502  1
  Ge  Ge10  1  0.49829605  0.85629103  0.64200505  1
  Ge  Ge11  1  0.64200505  0.78571402  0.14370906  1
  Ge  Ge12  1  0.85629102  0.35799501  0.21428604  1
  Ir  Ir13  1  0.00000003  0.50000001  0.00000003  1
  Ge  Ge14  1  0.00000000  0.00000000  0.49999999  1
  Ge  Ge15  1  0.50000003  0.50000001  0.50000003  1
  Ir  Ir16  1  0.50000000  0.00000000  1.00000000  1
