# generated using pymatgen
data_B
_symmetry_space_group_name_H-M   'P 1'
_cell_length_a   3.18848801
_cell_length_b   4.24115849
_cell_length_c   5.61450768
_cell_angle_alpha   109.50080872
_cell_angle_beta   106.49614716
_cell_angle_gamma   90.00000000
_symmetry_Int_Tables_number   1
_chemical_formula_structural   B
_chemical_formula_sum   B4
_cell_volume   68.24478184
_cell_formula_units_Z   4
loop_
 _symmetry_equiv_pos_site_id
 _symmetry_equiv_pos_as_xyz
  1  'x, y, z'
loop_
 _atom_site_type_symbol
 _atom_site_label
 _atom_site_symmetry_multiplicity
 _atom_site_fract_x
 _atom_site_fract_y
 _atom_site_fract_z
 _atom_site_occupancy
  B  B0  1  0.98699906  0.96933900  0.97399806  1
  B  B1  1  0.98811704  0.58802700  0.97623404  1
  B  B2  1  0.41428401  0.01105000  0.82856800  1
  B  B3  1  0.15733701  0.21377500  0.31467401  1
