# generated using pymatgen
data_CsKTi6CuS5
_symmetry_space_group_name_H-M   'P 1'
_cell_length_a   4.46259594
_cell_length_b   9.52286243
_cell_length_c   9.52286243
_cell_angle_alpha   120.00000000
_cell_angle_beta   90.00000000
_cell_angle_gamma   90.00000000
_symmetry_Int_Tables_number   1
_chemical_formula_structural   CsKTi6CuS5
_chemical_formula_sum   'Cs1 K1 Ti6 Cu1 S5'
_cell_volume   350.47191284
_cell_formula_units_Z   1
loop_
 _symmetry_equiv_pos_site_id
 _symmetry_equiv_pos_as_xyz
  1  'x, y, z'
loop_
 _atom_site_type_symbol
 _atom_site_label
 _atom_site_symmetry_multiplicity
 _atom_site_fract_x
 _atom_site_fract_y
 _atom_site_fract_z
 _atom_site_occupancy
  K  K0  1  0.25000000  0.66666665  0.33333336  1
  Cs  Cs1  1  0.75000001  0.33333332  0.66666668  1
  Ti  Ti2  1  0.25000000  0.85015598  0.82787104  1
  Ti  Ti3  1  0.75000001  0.02228500  0.85015601  1
  Ti  Ti4  1  0.75000001  0.82787098  0.97771504  1
  Ti  Ti5  1  0.75000001  0.14984400  0.17212901  1
  Ti  Ti6  1  0.25000000  0.97771497  0.14984404  1
  Ti  Ti7  1  0.25000000  0.17212900  0.02228501  1
  S  S8  1  0.25000000  0.67763998  0.95643303  1
  Cu  Cu9  1  0.75000001  0.72120698  0.67764103  1
  S  S10  1  0.75000001  0.95643397  0.27879404  1
  S  S11  1  0.75000001  0.32235999  0.04356701  1
  S  S12  1  0.25000000  0.04356600  0.72120601  1
  S  S13  1  0.25000000  0.27879299  0.32235901  1
