# generated using pymatgen
data_BaZrSe2
_symmetry_space_group_name_H-M   'P 1'
_cell_length_a   6.80935192
_cell_length_b   8.55221844
_cell_length_c   13.56852245
_cell_angle_alpha   84.26692200
_cell_angle_beta   75.46776581
_cell_angle_gamma   66.54026794
_symmetry_Int_Tables_number   1
_chemical_formula_structural   BaZrSe2
_chemical_formula_sum   'Ba4 Zr4 Se8'
_cell_volume   701.65855841
_cell_formula_units_Z   4
loop_
 _symmetry_equiv_pos_site_id
 _symmetry_equiv_pos_as_xyz
  1  'x, y, z'
loop_
 _atom_site_type_symbol
 _atom_site_label
 _atom_site_symmetry_multiplicity
 _atom_site_fract_x
 _atom_site_fract_y
 _atom_site_fract_z
 _atom_site_occupancy
  Ba  Ba0  1  0.81572902  0.00000000  0.36854199  1
  Ba  Ba1  1  0.18427096  1.00000002  0.63145800  1
  Ba  Ba2  1  0.93427100  0.50000001  0.13145798  1
  Ba  Ba3  1  0.56572899  0.50000001  0.86854200  1
  Zr  Zr4  1  0.24999998  0.50000001  0.50000000  1
  Zr  Zr5  1  0.50000001  0.00000000  -0.00000001  1
  Zr  Zr6  1  0.75000000  0.50000001  0.49999999  1
  Zr  Zr7  1  0.00000000  0.00000000  0.00000000  1
  Se  Se8  1  0.90540399  0.80430302  0.88000099  1
  Se  Se9  1  0.58970801  0.19569700  0.11999899  1
  Se  Se10  1  0.29029297  0.80430302  0.11999899  1
  Se  Se11  1  0.21459500  0.19569700  0.88000101  1
  Se  Se12  1  0.84459599  0.69569701  0.61999899  1
  Se  Se13  1  0.16029199  0.30430301  0.38000100  1
  Se  Se14  1  0.45970698  0.69569701  0.38000099  1
  Se  Se15  1  0.53540500  0.30430301  0.61999900  1
