# generated using pymatgen
data_Yb2Si2P
_symmetry_space_group_name_H-M   'P 1'
_cell_length_a   4.10292196
_cell_length_b   4.10292149
_cell_length_c   14.03128815
_cell_angle_alpha   90.00000000
_cell_angle_beta   90.00000000
_cell_angle_gamma   120.00000763
_symmetry_Int_Tables_number   1
_chemical_formula_structural   Yb2Si2P
_chemical_formula_sum   'Yb4 Si4 P2'
_cell_volume   204.55712202
_cell_formula_units_Z   2
loop_
 _symmetry_equiv_pos_site_id
 _symmetry_equiv_pos_as_xyz
  1  'x, y, z'
loop_
 _atom_site_type_symbol
 _atom_site_label
 _atom_site_symmetry_multiplicity
 _atom_site_fract_x
 _atom_site_fract_y
 _atom_site_fract_z
 _atom_site_occupancy
  Yb  Yb0  1  0.33333337  0.66666667  0.38206800  1
  Yb  Yb1  1  0.66666669  0.33333334  0.88206799  1
  Yb  Yb2  1  0.33333337  0.66666667  0.64765399  1
  Yb  Yb3  1  0.66666669  0.33333334  0.14765400  1
  Si  Si4  1  0.00000000  0.00000000  0.00161500  1
  Si  Si5  1  0.00000000  0.00000000  0.50161499  1
  Si  Si6  1  0.33333337  0.66666667  0.01736200  1
  Si  Si7  1  0.66666669  0.33333334  0.51736199  1
  P  P8  1  0.00000000  0.00000000  0.26697100  1
  P  P9  1  0.00000000  0.00000000  0.76697099  1
