# generated using pymatgen
data_Al4CoSi3
_symmetry_space_group_name_H-M   'P 1'
_cell_length_a   4.25264120
_cell_length_b   4.54883385
_cell_length_c   5.30306578
_cell_angle_alpha   90.00000000
_cell_angle_beta   90.00000000
_cell_angle_gamma   90.00000000
_symmetry_Int_Tables_number   1
_chemical_formula_structural   Al4CoSi3
_chemical_formula_sum   'Al4 Co1 Si3'
_cell_volume   102.58546474
_cell_formula_units_Z   1
loop_
 _symmetry_equiv_pos_site_id
 _symmetry_equiv_pos_as_xyz
  1  'x, y, z'
loop_
 _atom_site_type_symbol
 _atom_site_label
 _atom_site_symmetry_multiplicity
 _atom_site_fract_x
 _atom_site_fract_y
 _atom_site_fract_z
 _atom_site_occupancy
  Al  Al0  1  0.49999998  0.16741701  0.74563003  1
  Al  Al1  1  0.49999998  0.16741701  0.25437001  1
  Al  Al2  1  0.00000000  0.83152903  0.74924603  1
  Al  Al3  1  0.00000000  0.83152903  0.25075401  1
  Si  Si4  1  0.00000000  0.31290601  0.50000002  1
  Co  Co5  1  0.49999998  0.69034302  0.00000000  1
  Si  Si6  1  0.00000000  0.32811101  0.00000000  1
  Si  Si7  1  0.49999998  0.67074702  0.50000002  1
