# generated using pymatgen
data_Ti2CuS4
_symmetry_space_group_name_H-M   'P 1'
_cell_length_a   6.81023979
_cell_length_b   6.91166544
_cell_length_c   6.91166544
_cell_angle_alpha   61.01998520
_cell_angle_beta   60.48425293
_cell_angle_gamma   60.48425293
_symmetry_Int_Tables_number   1
_chemical_formula_structural   Ti2CuS4
_chemical_formula_sum   'Ti4 Cu2 S8'
_cell_volume   233.47398938
_cell_formula_units_Z   2
loop_
 _symmetry_equiv_pos_site_id
 _symmetry_equiv_pos_as_xyz
  1  'x, y, z'
loop_
 _atom_site_type_symbol
 _atom_site_label
 _atom_site_symmetry_multiplicity
 _atom_site_fract_x
 _atom_site_fract_y
 _atom_site_fract_z
 _atom_site_occupancy
  Ti  Ti0  1  0.50000001  0.50000002  -0.00000000  1
  Ti  Ti1  1  1.00000003  0.50000002  -0.00000002  1
  Ti  Ti2  1  -0.00000002  0.50000002  0.50000003  1
  Ti  Ti3  1  0.00000000  0.00000000  0.00000000  1
  Cu  Cu4  1  0.37526899  0.87473103  0.37473102  1
  Cu  Cu5  1  0.62473103  0.12526900  0.62526900  1
  S  S6  1  0.23666698  0.75722803  0.76943904  1
  S  S7  1  0.23666600  0.26944001  0.25722801  1
  S  S8  1  0.78041201  0.74758903  0.24758900  1
  S  S9  1  0.22440998  0.74758903  0.24758902  1
  S  S10  1  0.76333303  0.24277201  0.23056099  1
  S  S11  1  0.76333401  0.73056002  0.74277201  1
  S  S12  1  0.21958800  0.25241101  0.75241102  1
  S  S13  1  0.77559003  0.25241101  0.75241100  1
