# generated using pymatgen
data_Li5AlSi2P9
_symmetry_space_group_name_H-M   'P 1'
_cell_length_a   6.65721607
_cell_length_b   6.65721607
_cell_length_c   6.65721560
_cell_angle_alpha   60.96425247
_cell_angle_beta   60.96425247
_cell_angle_gamma   60.96425629
_symmetry_Int_Tables_number   1
_chemical_formula_structural   Li5AlSi2P9
_chemical_formula_sum   'Li5 Al1 Si2 P9'
_cell_volume   213.15568791
_cell_formula_units_Z   1
loop_
 _symmetry_equiv_pos_site_id
 _symmetry_equiv_pos_as_xyz
  1  'x, y, z'
loop_
 _atom_site_type_symbol
 _atom_site_label
 _atom_site_symmetry_multiplicity
 _atom_site_fract_x
 _atom_site_fract_y
 _atom_site_fract_z
 _atom_site_occupancy
  Li  Li0  1  0.73686199  0.26313799  0.49999999  1
  Li  Li1  1  0.26313802  0.49999998  0.73686200  1
  Li  Li2  1  0.50000002  0.73686197  0.26313798  1
  Li  Li3  1  0.77513100  0.48590698  0.99510000  1
  Li  Li4  1  0.48590703  0.99509996  0.77513098  1
  Si  Si5  1  0.61781201  0.61781198  0.61781199  1
  Si  Si6  1  0.38218801  0.38218799  0.38218799  1
  P  P7  1  0.00000000  0.00000000  0.00000000  1
  Al  Al8  1  0.51409300  0.22486899  0.00489998  1
  P  P9  1  0.00490002  0.51409298  0.22486899  1
  P  P10  1  0.22486899  0.00490000  0.51409301  1
  P  P11  1  0.99510001  0.77513097  0.48590697  1
  P  P12  1  0.65403303  0.99999996  0.34596697  1
  P  P13  1  0.00000002  0.34596699  0.65403301  1
  P  P14  1  0.34596702  0.65403298  1.00000000  1
  P  P15  1  0.14369400  0.14369399  0.14369400  1
  P  P16  1  0.85630602  0.85630597  0.85630598  1
