# generated using pymatgen
data_CaRuO3
_symmetry_space_group_name_H-M   'P 1'
_cell_length_a   5.24099112
_cell_length_b   5.58143711
_cell_length_c   7.66584682
_cell_angle_alpha   90.00000000
_cell_angle_beta   90.00000000
_cell_angle_gamma   90.00000000
_symmetry_Int_Tables_number   1
_chemical_formula_structural   CaRuO3
_chemical_formula_sum   'Ca4 Ru4 O12'
_cell_volume   224.24336215
_cell_formula_units_Z   4
loop_
 _symmetry_equiv_pos_site_id
 _symmetry_equiv_pos_as_xyz
  1  'x, y, z'
loop_
 _atom_site_type_symbol
 _atom_site_label
 _atom_site_symmetry_multiplicity
 _atom_site_fract_x
 _atom_site_fract_y
 _atom_site_fract_z
 _atom_site_occupancy
  Ca  Ca0  1  0.02210900  0.92836698  0.75000002  1
  Ca  Ca1  1  0.52210899  0.57163299  0.25000001  1
  Ca  Ca2  1  0.47789099  0.42836699  0.75000002  1
  Ca  Ca3  1  0.97789098  0.07163300  0.25000001  1
  Ru  Ru4  1  -0.00000000  0.49999999  0.50000001  1
  Ru  Ru5  1  0.49999999  0.00000000  0.50000001  1
  Ru  Ru6  1  0.49999999  0.00000000  0.00000000  1
  Ru  Ru7  1  -0.00000000  0.49999999  0.00000000  1
  O  O8  1  0.68801898  0.30847899  0.43405501  1
  O  O9  1  0.18801900  0.19152100  0.56594501  1
  O  O10  1  0.81198098  0.80847898  0.06594500  1
  O  O11  1  0.31198099  0.69152099  0.93405502  1
  O  O12  1  0.31198099  0.69152099  0.56594501  1
  O  O13  1  0.81198098  0.80847898  0.43405501  1
  O  O14  1  0.18801900  0.19152100  0.93405502  1
  O  O15  1  0.68801898  0.30847899  0.06594500  1
  O  O16  1  0.12961200  0.44748899  0.25000001  1
  O  O17  1  0.62961199  0.05251100  0.75000002  1
  O  O18  1  0.37038799  0.94748898  0.25000001  1
  O  O19  1  0.87038798  0.55251099  0.75000002  1
