# generated using pymatgen
data_Ba2Cd2Se2O
_symmetry_space_group_name_H-M   'P 1'
_cell_length_a   5.22748995
_cell_length_b   5.22748995
_cell_length_c   9.47283459
_cell_angle_alpha   106.01685333
_cell_angle_beta   106.01685333
_cell_angle_gamma   90.00000000
_symmetry_Int_Tables_number   1
_chemical_formula_structural   Ba2Cd2Se2O
_chemical_formula_sum   'Ba2 Cd2 Se2 O1'
_cell_volume   238.33988832
_cell_formula_units_Z   1
loop_
 _symmetry_equiv_pos_site_id
 _symmetry_equiv_pos_as_xyz
  1  'x, y, z'
loop_
 _atom_site_type_symbol
 _atom_site_label
 _atom_site_symmetry_multiplicity
 _atom_site_fract_x
 _atom_site_fract_y
 _atom_site_fract_z
 _atom_site_occupancy
  Ba  Ba0  1  0.67593903  0.67593901  0.35187801  1
  Ba  Ba1  1  0.32406101  0.32406101  0.64812198  1
  Cd  Cd2  1  0.50000001  0.00000000  0.00000001  1
  Cd  Cd3  1  0.00000001  0.50000001  0.00000001  1
  O  O4  1  0.86432303  0.86432302  0.72864600  1
  Se  Se5  1  0.13567701  0.13567700  0.27135399  1
  Se  Se6  1  0.50000002  0.50000001  0.00000002  1
