# generated using pymatgen
data_Pr2Ge7
_symmetry_space_group_name_H-M   'P 1'
_cell_length_a   4.06163597
_cell_length_b   4.08531523
_cell_length_c   11.14971638
_cell_angle_alpha   90.00000000
_cell_angle_beta   100.49447632
_cell_angle_gamma   90.00000000
_symmetry_Int_Tables_number   1
_chemical_formula_structural   Pr2Ge7
_chemical_formula_sum   'Pr2 Ge7'
_cell_volume   181.91322370
_cell_formula_units_Z   1
loop_
 _symmetry_equiv_pos_site_id
 _symmetry_equiv_pos_as_xyz
  1  'x, y, z'
loop_
 _atom_site_type_symbol
 _atom_site_label
 _atom_site_symmetry_multiplicity
 _atom_site_fract_x
 _atom_site_fract_y
 _atom_site_fract_z
 _atom_site_occupancy
  Pr  Pr0  1  0.77781300  0.49999997  0.55562498  1
  Pr  Pr1  1  0.11704900  0.49999997  0.23409700  1
  Ge  Ge2  1  0.49306000  0.49999997  0.98611898  1
  Ge  Ge3  1  0.37878300  0.49999997  0.75756599  1
  Ge  Ge4  1  0.99207500  0.00000000  0.98414998  1
  Ge  Ge5  1  0.87754500  0.00000000  0.75508998  1
  Ge  Ge6  1  0.67011300  0.00000000  0.34022599  1
  Ge  Ge7  1  0.24086000  0.00000000  0.48171999  1
  Ge  Ge8  1  0.55970300  0.00000000  0.11940699  1
