# generated using pymatgen
data_Hf6Al5CoRu4
_symmetry_space_group_name_H-M   'P 1'
_cell_length_a   5.25028419
_cell_length_b   7.92632389
_cell_length_c   7.92632389
_cell_angle_alpha   83.70262909
_cell_angle_beta   70.65880585
_cell_angle_gamma   70.65880585
_symmetry_Int_Tables_number   1
_chemical_formula_structural   Hf6Al5CoRu4
_chemical_formula_sum   'Hf6 Al5 Co1 Ru4'
_cell_volume   293.67590601
_cell_formula_units_Z   1
loop_
 _symmetry_equiv_pos_site_id
 _symmetry_equiv_pos_as_xyz
  1  'x, y, z'
loop_
 _atom_site_type_symbol
 _atom_site_label
 _atom_site_symmetry_multiplicity
 _atom_site_fract_x
 _atom_site_fract_y
 _atom_site_fract_z
 _atom_site_occupancy
  Hf  Hf0  1  0.42437798  0.29221399  0.85902899  1
  Hf  Hf1  1  0.28340799  0.14097100  0.29221300  1
  Hf  Hf2  1  0.71659197  0.85902898  0.70778701  1
  Hf  Hf3  1  0.92437896  0.85902898  0.29221302  1
  Al  Al4  1  0.24999999  0.99999998  0.00000002  1
  Hf  Hf5  1  0.21659299  0.70778598  0.85902900  1
  Hf  Hf6  1  0.57562198  0.70778598  0.14097102  1
  Co  Co7  1  0.74999997  0.99999998  0.00000003  1
  Al  Al8  1  0.78340697  0.29221399  0.14097101  1
  Al  Al9  1  0.07562100  0.14097100  0.70778699  1
  Al  Al10  1  0.24999999  0.49999999  0.50000000  1
  Al  Al11  1  0.74999997  0.49999999  0.50000001  1
  Ru  Ru12  1  0.16276399  0.49999999  0.17447201  1
  Ru  Ru13  1  0.66276397  0.17447200  0.50000000  1
  Ru  Ru14  1  0.83723597  0.49999999  0.82552800  1
  Ru  Ru15  1  0.33723599  0.82552798  0.50000001  1
