# generated using pymatgen
data_Mn2Ni4P3
_symmetry_space_group_name_H-M   'P 1'
_cell_length_a   3.21756506
_cell_length_b   6.00870419
_cell_length_c   6.00870466
_cell_angle_alpha   120.00000000
_cell_angle_beta   90.00000000
_cell_angle_gamma   90.00000000
_symmetry_Int_Tables_number   1
_chemical_formula_structural   Mn2Ni4P3
_chemical_formula_sum   'Mn2 Ni4 P3'
_cell_volume   100.60501981
_cell_formula_units_Z   1
loop_
 _symmetry_equiv_pos_site_id
 _symmetry_equiv_pos_as_xyz
  1  'x, y, z'
loop_
 _atom_site_type_symbol
 _atom_site_label
 _atom_site_symmetry_multiplicity
 _atom_site_fract_x
 _atom_site_fract_y
 _atom_site_fract_z
 _atom_site_occupancy
  Mn  Mn0  1  0.49999999  0.58888100  0.00000004  1
  Mn  Mn1  1  0.49999999  0.41111900  0.41111902  1
  Ni  Ni2  1  0.49999999  0.00000000  0.58888099  1
  Ni  Ni3  1  -0.00000000  0.23870700  0.00000002  1
  Ni  Ni4  1  0.99999998  0.76129300  0.76129304  1
  Ni  Ni5  1  0.99999998  0.00000000  0.23870700  1
  P  P6  1  0.99999998  0.33333333  0.66666668  1
  P  P7  1  -0.00000000  0.66666667  0.33333337  1
  P  P8  1  0.49999999  0.00000000  -0.00000000  1
