# generated using pymatgen
data_NaLiHO3
_symmetry_space_group_name_H-M   'P 1'
_cell_length_a   4.87140131
_cell_length_b   4.87140131
_cell_length_c   4.87140131
_cell_angle_alpha   84.91034698
_cell_angle_beta   62.89369965
_cell_angle_gamma   117.10630035
_symmetry_Int_Tables_number   1
_chemical_formula_structural   NaLiHO3
_chemical_formula_sum   'Na1 Li1 H1 O3'
_cell_volume   84.95480525
_cell_formula_units_Z   1
loop_
 _symmetry_equiv_pos_site_id
 _symmetry_equiv_pos_as_xyz
  1  'x, y, z'
loop_
 _atom_site_type_symbol
 _atom_site_label
 _atom_site_symmetry_multiplicity
 _atom_site_fract_x
 _atom_site_fract_y
 _atom_site_fract_z
 _atom_site_occupancy
  Na  Na0  1  0.00000000  0.49999999  0.49999998  1
  Li  Li1  1  0.00000000  0.00000000  0.00000000  1
  O  O2  1  0.33053499  0.29534099  0.70465898  1
  H  H3  1  0.00000001  0.70465898  0.96480596  1
  O  O4  1  0.00000000  0.03519400  0.29534099  1
  O  O5  1  0.66946499  0.96480598  0.03519399  1
