# generated using pymatgen
data_Ce2Ga3
_symmetry_space_group_name_H-M   'P 1'
_cell_length_a   4.50394201
_cell_length_b   5.74909735
_cell_length_c   5.74909735
_cell_angle_alpha   62.28238678
_cell_angle_beta   66.93914795
_cell_angle_gamma   66.93914795
_symmetry_Int_Tables_number   1
_chemical_formula_structural   Ce2Ga3
_chemical_formula_sum   'Ce2 Ga3'
_cell_volume   117.17163677
_cell_formula_units_Z   1
loop_
 _symmetry_equiv_pos_site_id
 _symmetry_equiv_pos_as_xyz
  1  'x, y, z'
loop_
 _atom_site_type_symbol
 _atom_site_label
 _atom_site_symmetry_multiplicity
 _atom_site_fract_x
 _atom_site_fract_y
 _atom_site_fract_z
 _atom_site_occupancy
  Ce  Ce0  1  0.20124701  0.29875301  0.29875302  1
  Ce  Ce1  1  0.79875302  0.70124702  0.70124706  1
  Ga  Ga2  1  0.00000000  0.00000000  0.00000000  1
  Ga  Ga3  1  0.50000003  0.72846702  0.27153303  1
  Ga  Ga4  1  0.50000000  0.27153301  0.72846705  1
