# generated using pymatgen
data_ScFe2
_symmetry_space_group_name_H-M   'P 1'
_cell_length_a   4.93524361
_cell_length_b   4.93524361
_cell_length_c   4.93524361
_cell_angle_alpha   61.26899338
_cell_angle_beta   61.26899338
_cell_angle_gamma   61.26900482
_symmetry_Int_Tables_number   1
_chemical_formula_structural   ScFe2
_chemical_formula_sum   'Sc2 Fe4'
_cell_volume   87.42354030
_cell_formula_units_Z   2
loop_
 _symmetry_equiv_pos_site_id
 _symmetry_equiv_pos_as_xyz
  1  'x, y, z'
loop_
 _atom_site_type_symbol
 _atom_site_label
 _atom_site_symmetry_multiplicity
 _atom_site_fract_x
 _atom_site_fract_y
 _atom_site_fract_z
 _atom_site_occupancy
  Sc  Sc0  1  0.37020401  0.37020400  0.37020398  1
  Sc  Sc1  1  0.62979602  0.62979601  0.62979597  1
  Fe  Fe2  1  0.00000000  0.00000000  0.00000000  1
  Fe  Fe3  1  0.50000001  0.00000000  1.00000000  1
  Fe  Fe4  1  0.00000001  0.50000001  -0.00000002  1
  Fe  Fe5  1  0.00000000  0.00000000  0.50000000  1
