# generated using pymatgen
data_Tm2CdIr
_symmetry_space_group_name_H-M   'P 1'
_cell_length_a   6.23512411
_cell_length_b   7.16136503
_cell_length_c   9.03086376
_cell_angle_alpha   90.00000000
_cell_angle_beta   90.00000000
_cell_angle_gamma   90.00000000
_symmetry_Int_Tables_number   1
_chemical_formula_structural   Tm2CdIr
_chemical_formula_sum   'Tm8 Cd4 Ir4'
_cell_volume   403.24612672
_cell_formula_units_Z   4
loop_
 _symmetry_equiv_pos_site_id
 _symmetry_equiv_pos_as_xyz
  1  'x, y, z'
loop_
 _atom_site_type_symbol
 _atom_site_label
 _atom_site_symmetry_multiplicity
 _atom_site_fract_x
 _atom_site_fract_y
 _atom_site_fract_z
 _atom_site_occupancy
  Tm  Tm0  1  0.32897399  0.67670500  0.06220800  1
  Tm  Tm1  1  0.17102600  0.17670500  0.43779201  1
  Tm  Tm2  1  0.67102599  0.32329500  0.56220801  1
  Tm  Tm3  1  0.82897399  0.82329500  0.93779202  1
  Tm  Tm4  1  0.67102599  0.32329500  0.93779202  1
  Tm  Tm5  1  0.82897399  0.82329500  0.56220801  1
  Tm  Tm6  1  0.32897399  0.67670500  0.43779201  1
  Tm  Tm7  1  0.17102600  0.17670500  0.06220800  1
  Cd  Cd8  1  0.86767098  0.53498600  0.25000001  1
  Cd  Cd9  1  0.63232899  0.03498600  0.25000001  1
  Cd  Cd10  1  0.13232900  0.46501400  0.75000002  1
  Cd  Cd11  1  0.36767099  0.96501400  0.75000002  1
  Ir  Ir12  1  0.04545600  0.88249300  0.25000001  1
  Ir  Ir13  1  0.45454399  0.38249300  0.25000001  1
  Ir  Ir14  1  0.95454398  0.11750700  0.75000002  1
  Ir  Ir15  1  0.54545599  0.61750700  0.75000002  1
