# generated using pymatgen
data_KCuO2
_symmetry_space_group_name_H-M   'P 1'
_cell_length_a   6.23959780
_cell_length_b   7.02714157
_cell_length_c   8.33028316
_cell_angle_alpha   90.00000000
_cell_angle_beta   90.00000000
_cell_angle_gamma   116.35708618
_symmetry_Int_Tables_number   1
_chemical_formula_structural   KCuO2
_chemical_formula_sum   'K4 Cu4 O8'
_cell_volume   327.28391299
_cell_formula_units_Z   4
loop_
 _symmetry_equiv_pos_site_id
 _symmetry_equiv_pos_as_xyz
  1  'x, y, z'
loop_
 _atom_site_type_symbol
 _atom_site_label
 _atom_site_symmetry_multiplicity
 _atom_site_fract_x
 _atom_site_fract_y
 _atom_site_fract_z
 _atom_site_occupancy
  K  K0  1  0.16134602  0.32269201  0.56938699  1
  K  K1  1  0.83865405  0.67730802  0.43061299  1
  K  K2  1  0.33865404  0.67730802  0.06938700  1
  K  K3  1  0.66134603  0.32269201  0.93061298  1
  Cu  Cu4  1  0.45265705  0.90531503  0.64710199  1
  Cu  Cu5  1  0.54734302  0.09468500  0.35289799  1
  Cu  Cu6  1  0.04734300  0.09468500  0.14710200  1
  Cu  Cu7  1  0.95265706  0.90531503  0.85289798  1
  O  O8  1  0.09670801  0.19341601  0.92678798  1
  O  O9  1  0.90329206  0.80658403  0.07321200  1
  O  O10  1  0.40329204  0.80658403  0.42678799  1
  O  O11  1  0.59670803  0.19341601  0.57321199  1
  O  O12  1  0.16496104  0.82992203  0.74999999  1
  O  O13  1  0.33503902  0.17007801  0.25000000  1
  O  O14  1  0.83503903  0.17007801  0.25000000  1
  O  O15  1  0.66496105  0.82992203  0.74999999  1
