# generated using pymatgen
data_Sm2Sn4Pd3
_symmetry_space_group_name_H-M   'P 1'
_cell_length_a   4.46229887
_cell_length_b   7.32429218
_cell_length_c   7.32429218
_cell_angle_alpha   120.00000000
_cell_angle_beta   90.00000000
_cell_angle_gamma   90.00000000
_symmetry_Int_Tables_number   1
_chemical_formula_structural   Sm2Sn4Pd3
_chemical_formula_sum   'Sm2 Sn4 Pd3'
_cell_volume   207.31017021
_cell_formula_units_Z   1
loop_
 _symmetry_equiv_pos_site_id
 _symmetry_equiv_pos_as_xyz
  1  'x, y, z'
loop_
 _atom_site_type_symbol
 _atom_site_label
 _atom_site_symmetry_multiplicity
 _atom_site_fract_x
 _atom_site_fract_y
 _atom_site_fract_z
 _atom_site_occupancy
  Sm  Sm0  1  0.00000000  0.00000000  0.43213999  1
  Sm  Sm1  1  -0.00000000  0.43213999  0.00000000  1
  Sn  Sn2  1  1.00000003  0.56785999  0.56785999  1
  Sn  Sn3  1  0.50000001  0.75333498  0.00000000  1
  Sn  Sn4  1  0.50000001  0.24666499  0.24666500  1
  Sn  Sn5  1  0.50000001  0.00000000  0.75333499  1
  Pd  Pd6  1  0.50000001  0.66666665  0.33333333  1
  Pd  Pd7  1  0.00000000  0.00000000  0.00000000  1
  Pd  Pd8  1  0.50000001  0.33333333  0.66666666  1
