# generated using pymatgen
data_DyGaCu
_symmetry_space_group_name_H-M   'P 1'
_cell_length_a   3.33111191
_cell_length_b   7.95913982
_cell_length_c   7.95913982
_cell_angle_alpha   120.00000000
_cell_angle_beta   90.00000000
_cell_angle_gamma   90.00000000
_symmetry_Int_Tables_number   1
_chemical_formula_structural   DyGaCu
_chemical_formula_sum   'Dy3 Ga3 Cu3'
_cell_volume   182.74778565
_cell_formula_units_Z   3
loop_
 _symmetry_equiv_pos_site_id
 _symmetry_equiv_pos_as_xyz
  1  'x, y, z'
loop_
 _atom_site_type_symbol
 _atom_site_label
 _atom_site_symmetry_multiplicity
 _atom_site_fract_x
 _atom_site_fract_y
 _atom_site_fract_z
 _atom_site_occupancy
  Dy  Dy0  1  -0.00000000  0.40152500  0.40152498  1
  Dy  Dy1  1  -0.00000000  0.59847500  0.99999996  1
  Dy  Dy2  1  1.00000003  0.00000000  0.59847499  1
  Ga  Ga3  1  0.50000001  0.74975001  0.74974996  1
  Ga  Ga4  1  0.50000001  0.25025000  0.99999997  1
  Ga  Ga5  1  0.50000001  0.00000000  0.25024999  1
  Cu  Cu6  1  0.50000001  0.33333334  0.66666664  1
  Cu  Cu7  1  0.50000001  0.66666667  0.33333330  1
  Cu  Cu8  1  0.00000000  0.00000000  0.00000000  1
