# generated using pymatgen
data_NaCuO2
_symmetry_space_group_name_H-M   'P 1'
_cell_length_a   3.64135599
_cell_length_b   7.87623215
_cell_length_c   8.37028313
_cell_angle_alpha   90.00000000
_cell_angle_beta   102.56323242
_cell_angle_gamma   90.00000000
_symmetry_Int_Tables_number   1
_chemical_formula_structural   NaCuO2
_chemical_formula_sum   'Na4 Cu4 O8'
_cell_volume   234.31321041
_cell_formula_units_Z   4
loop_
 _symmetry_equiv_pos_site_id
 _symmetry_equiv_pos_as_xyz
  1  'x, y, z'
loop_
 _atom_site_type_symbol
 _atom_site_label
 _atom_site_symmetry_multiplicity
 _atom_site_fract_x
 _atom_site_fract_y
 _atom_site_fract_z
 _atom_site_occupancy
  Na  Na0  1  0.33246400  0.49999999  0.66492803  1
  Na  Na1  1  0.33267100  0.99999998  0.66534203  1
  Na  Na2  1  0.66838501  0.74838899  0.33677003  1
  Na  Na3  1  0.66838501  0.25161100  0.33677003  1
  Cu  Cu4  1  0.06260000  0.00000000  0.12520001  1
  Cu  Cu5  1  0.93799501  0.74916299  0.87599005  1
  Cu  Cu6  1  0.93799501  0.25083700  0.87599005  1
  Cu  Cu7  1  0.06157200  0.49999999  0.12314401  1
  O  O8  1  0.94441801  0.49999999  0.88883605  1
  O  O9  1  0.94448901  0.99999998  0.88897905  1
  O  O10  1  0.05463700  0.74781299  0.10927400  1
  O  O11  1  0.05463700  0.25218700  0.10927400  1
  O  O12  1  0.17893700  0.49999999  0.35787402  1
  O  O13  1  0.17990700  0.99999998  0.35981402  1
  O  O14  1  0.82045301  0.75017999  0.64090604  1
  O  O15  1  0.82045301  0.24982000  0.64090604  1
