# generated using pymatgen
data_Li6VF8
_symmetry_space_group_name_H-M   'P 1'
_cell_length_a   6.12722301
_cell_length_b   6.18796682
_cell_length_c   6.18796682
_cell_angle_alpha   119.54888916
_cell_angle_beta   90.00000000
_cell_angle_gamma   90.00000000
_symmetry_Int_Tables_number   1
_chemical_formula_structural   Li6VF8
_chemical_formula_sum   'Li6 V1 F8'
_cell_volume   204.10166506
_cell_formula_units_Z   1
loop_
 _symmetry_equiv_pos_site_id
 _symmetry_equiv_pos_as_xyz
  1  'x, y, z'
loop_
 _atom_site_type_symbol
 _atom_site_label
 _atom_site_symmetry_multiplicity
 _atom_site_fract_x
 _atom_site_fract_y
 _atom_site_fract_z
 _atom_site_occupancy
  Li  Li0  1  0.74325300  0.00000000  0.50000001  1
  Li  Li1  1  0.50000000  0.00000000  -0.00000000  1
  Li  Li2  1  0.25674700  0.50000002  1.00000005  1
  Li  Li3  1  0.75297100  0.50000002  1.00000005  1
  Li  Li4  1  0.50000000  0.50000002  0.50000003  1
  Li  Li5  1  0.24702900  0.00000000  0.50000001  1
  V  V6  1  0.00000000  0.00000000  0.00000000  1
  F  F7  1  0.74272500  0.25622801  0.19384702  1
  F  F8  1  0.74272500  0.74377203  0.80615305  1
  F  F9  1  -0.00000000  0.79549704  0.20450304  1
  F  F10  1  -0.00000000  0.20450301  0.79549703  1
  F  F11  1  0.50000000  0.28588501  0.71411503  1
  F  F12  1  0.50000000  0.71411503  0.28588504  1
  F  F13  1  0.25727500  0.19384701  0.25622801  1
  F  F14  1  0.25727500  0.80615304  0.74377205  1
