# generated using pymatgen
data_CaYb3(Zn3Au)2
_symmetry_space_group_name_H-M   'P 1'
_cell_length_a   4.60156393
_cell_length_b   4.60156441
_cell_length_c   16.63145447
_cell_angle_alpha   90.00000000
_cell_angle_beta   90.00000000
_cell_angle_gamma   119.99999237
_symmetry_Int_Tables_number   1
_chemical_formula_structural   CaYb3(Zn3Au)2
_chemical_formula_sum   'Ca1 Yb3 Zn6 Au2'
_cell_volume   304.98035215
_cell_formula_units_Z   1
loop_
 _symmetry_equiv_pos_site_id
 _symmetry_equiv_pos_as_xyz
  1  'x, y, z'
loop_
 _atom_site_type_symbol
 _atom_site_label
 _atom_site_symmetry_multiplicity
 _atom_site_fract_x
 _atom_site_fract_y
 _atom_site_fract_z
 _atom_site_occupancy
  Yb  Yb0  1  0.00000000  0.00000000  0.50000002  1
  Yb  Yb1  1  0.00000000  0.00000000  0.00000000  1
  Yb  Yb2  1  0.00000000  0.00000000  0.75000002  1
  Ca  Ca3  1  0.00000000  0.00000000  0.25000001  1
  Zn  Zn4  1  0.66666665  0.33333334  0.65511702  1
  Zn  Zn5  1  0.33333329  0.66666667  0.34488301  1
  Zn  Zn6  1  0.33333329  0.66666667  0.15511700  1
  Zn  Zn7  1  0.66666665  0.33333334  0.84488303  1
  Zn  Zn8  1  0.66666665  0.33333334  0.11574700  1
  Zn  Zn9  1  0.33333329  0.66666667  0.88425303  1
  Au  Au10  1  0.33333329  0.66666667  0.61574702  1
  Au  Au11  1  0.66666665  0.33333334  0.38425301  1
