# generated using pymatgen
data_MnSi2
_symmetry_space_group_name_H-M   'P 1'
_cell_length_a   4.08476782
_cell_length_b   4.08476830
_cell_length_c   7.58739424
_cell_angle_alpha   90.00000000
_cell_angle_beta   90.00000000
_cell_angle_gamma   120.00000000
_symmetry_Int_Tables_number   1
_chemical_formula_structural   MnSi2
_chemical_formula_sum   'Mn3 Si6'
_cell_volume   109.63723760
_cell_formula_units_Z   3
loop_
 _symmetry_equiv_pos_site_id
 _symmetry_equiv_pos_as_xyz
  1  'x, y, z'
loop_
 _atom_site_type_symbol
 _atom_site_label
 _atom_site_symmetry_multiplicity
 _atom_site_fract_x
 _atom_site_fract_y
 _atom_site_fract_z
 _atom_site_occupancy
  Mn  Mn0  1  0.66666670  0.33333332  0.84513797  1
  Mn  Mn1  1  0.33333336  0.66666664  0.15486200  1
  Si  Si2  1  0.66666670  0.33333332  0.50424198  1
  Mn  Mn3  1  0.33333336  0.66666664  0.49575798  1
  Si  Si4  1  0.00000000  0.00000000  0.66952998  1
  Si  Si5  1  0.00000000  0.00000000  0.33046999  1
  Si  Si6  1  0.00000000  0.00000000  0.00000000  1
  Si  Si7  1  0.66666670  0.33333332  0.19129499  1
  Si  Si8  1  0.33333336  0.66666664  0.80870497  1
