# generated using pymatgen
data_Eu(CuGe)2
_symmetry_space_group_name_H-M   'P 1'
_cell_length_a   4.43018007
_cell_length_b   4.43018007
_cell_length_c   6.07296801
_cell_angle_alpha   111.39194489
_cell_angle_beta   111.39194489
_cell_angle_gamma   90.00000000
_symmetry_Int_Tables_number   1
_chemical_formula_structural   Eu(CuGe)2
_chemical_formula_sum   'Eu1 Cu2 Ge2'
_cell_volume   102.11002277
_cell_formula_units_Z   1
loop_
 _symmetry_equiv_pos_site_id
 _symmetry_equiv_pos_as_xyz
  1  'x, y, z'
loop_
 _atom_site_type_symbol
 _atom_site_label
 _atom_site_symmetry_multiplicity
 _atom_site_fract_x
 _atom_site_fract_y
 _atom_site_fract_z
 _atom_site_occupancy
  Eu  Eu0  1  0.00000000  0.00000000  0.00000000  1
  Cu  Cu1  1  0.25000000  0.74999999  0.50000000  1
  Cu  Cu2  1  0.74999999  0.25000000  0.50000000  1
  Ge  Ge3  1  0.63616200  0.63616199  0.27232401  1
  Ge  Ge4  1  0.36383800  0.36383800  0.72767600  1
