# generated using pymatgen
data_Mn4Si5Ni3
_symmetry_space_group_name_H-M   'P 1'
_cell_length_a   3.69636512
_cell_length_b   4.99862385
_cell_length_c   7.06064415
_cell_angle_alpha   90.00000000
_cell_angle_beta   90.00000000
_cell_angle_gamma   90.00000000
_symmetry_Int_Tables_number   1
_chemical_formula_structural   Mn4Si5Ni3
_chemical_formula_sum   'Mn4 Si5 Ni3'
_cell_volume   130.45767793
_cell_formula_units_Z   1
loop_
 _symmetry_equiv_pos_site_id
 _symmetry_equiv_pos_as_xyz
  1  'x, y, z'
loop_
 _atom_site_type_symbol
 _atom_site_label
 _atom_site_symmetry_multiplicity
 _atom_site_fract_x
 _atom_site_fract_y
 _atom_site_fract_z
 _atom_site_occupancy
  Mn  Mn0  1  0.74999998  0.96249603  0.71023498  1
  Mn  Mn1  1  0.74999998  0.46249601  0.78976498  1
  Mn  Mn2  1  0.24999999  0.03750400  0.28976499  1
  Mn  Mn3  1  0.24999999  0.53750402  0.21023500  1
  Si  Si4  1  0.74999998  0.79250002  0.39058299  1
  Si  Si5  1  0.74999998  0.29250001  0.10941700  1
  Si  Si6  1  0.24999999  0.20750001  0.60941699  1
  Ni  Ni7  1  0.24999999  0.70750002  0.89058298  1
  Si  Si8  1  0.74999998  0.82929803  0.06474500  1
  Ni  Ni9  1  0.74999998  0.32929801  0.43525499  1
  Ni  Ni10  1  0.24999999  0.17070201  0.93525498  1
  Si  Si11  1  0.24999999  0.67070202  0.56474499  1
