# generated using pymatgen
data_LiGaRe
_symmetry_space_group_name_H-M   'P 1'
_cell_length_a   2.77355409
_cell_length_b   2.77355409
_cell_length_c   5.33792782
_cell_angle_alpha   105.05800629
_cell_angle_beta   105.05800629
_cell_angle_gamma   90.00000000
_symmetry_Int_Tables_number   1
_chemical_formula_structural   LiGaRe
_chemical_formula_sum   'Li1 Ga1 Re1'
_cell_volume   38.19063224
_cell_formula_units_Z   1
loop_
 _symmetry_equiv_pos_site_id
 _symmetry_equiv_pos_as_xyz
  1  'x, y, z'
loop_
 _atom_site_type_symbol
 _atom_site_label
 _atom_site_symmetry_multiplicity
 _atom_site_fract_x
 _atom_site_fract_y
 _atom_site_fract_z
 _atom_site_occupancy
  Li  Li0  1  0.00000000  0.00000000  0.00000000  1
  Ga  Ga1  1  0.35665897  0.35665898  0.71331799  1
  Re  Re2  1  0.64334095  0.64334097  0.28668196  1
