# generated using pymatgen
data_Zn
_symmetry_space_group_name_H-M   'P 1'
_cell_length_a   3.83308601
_cell_length_b   3.83308601
_cell_length_c   4.86389256
_cell_angle_alpha   113.20578766
_cell_angle_beta   113.20578766
_cell_angle_gamma   90.00000000
_symmetry_Int_Tables_number   1
_chemical_formula_structural   Zn
_chemical_formula_sum   Zn4
_cell_volume   59.33894297
_cell_formula_units_Z   4
loop_
 _symmetry_equiv_pos_site_id
 _symmetry_equiv_pos_as_xyz
  1  'x, y, z'
loop_
 _atom_site_type_symbol
 _atom_site_label
 _atom_site_symmetry_multiplicity
 _atom_site_fract_x
 _atom_site_fract_y
 _atom_site_fract_z
 _atom_site_occupancy
  Zn  Zn0  1  0.74999997  0.24999999  0.49999997  1
  Zn  Zn1  1  0.24999995  0.74999997  0.49999996  1
  Zn  Zn2  1  0.49999996  0.49999998  -0.00000005  1
  Zn  Zn3  1  0.00000000  0.00000000  0.00000000  1
