# generated using pymatgen
data_TmAlSi4
_symmetry_space_group_name_H-M   'P 1'
_cell_length_a   4.19817686
_cell_length_b   5.17917585
_cell_length_c   5.17917585
_cell_angle_alpha   118.37022400
_cell_angle_beta   90.00000000
_cell_angle_gamma   90.00000000
_symmetry_Int_Tables_number   1
_chemical_formula_structural   TmAlSi4
_chemical_formula_sum   'Tm1 Al1 Si4'
_cell_volume   99.08620754
_cell_formula_units_Z   1
loop_
 _symmetry_equiv_pos_site_id
 _symmetry_equiv_pos_as_xyz
  1  'x, y, z'
loop_
 _atom_site_type_symbol
 _atom_site_label
 _atom_site_symmetry_multiplicity
 _atom_site_fract_x
 _atom_site_fract_y
 _atom_site_fract_z
 _atom_site_occupancy
  Tm  Tm0  1  -0.00000000  0.50000001  0.50000002  1
  Al  Al1  1  0.50000002  0.00000000  -0.00000000  1
  Si  Si2  1  -0.00000000  0.83362901  0.16637104  1
  Si  Si3  1  -0.00000000  0.16637100  0.83362900  1
  Si  Si4  1  0.50000002  0.50000001  0.00000003  1
  Si  Si5  1  0.50000002  0.00000000  0.49999999  1
