# generated using pymatgen
data_Pr2Ge6Pd
_symmetry_space_group_name_H-M   'P 1'
_cell_length_a   4.09645987
_cell_length_b   4.12504196
_cell_length_c   11.22775555
_cell_angle_alpha   90.00000000
_cell_angle_beta   100.51107788
_cell_angle_gamma   90.00000000
_symmetry_Int_Tables_number   1
_chemical_formula_structural   Pr2Ge6Pd
_chemical_formula_sum   'Pr2 Ge6 Pd1'
_cell_volume   186.54369510
_cell_formula_units_Z   1
loop_
 _symmetry_equiv_pos_site_id
 _symmetry_equiv_pos_as_xyz
  1  'x, y, z'
loop_
 _atom_site_type_symbol
 _atom_site_label
 _atom_site_symmetry_multiplicity
 _atom_site_fract_x
 _atom_site_fract_y
 _atom_site_fract_z
 _atom_site_occupancy
  Pr  Pr0  1  0.77794803  0.50000000  0.55589601  1
  Pr  Pr1  1  0.11660100  0.50000000  0.23320200  1
  Ge  Ge2  1  0.49354902  0.50000000  0.98709901  1
  Ge  Ge3  1  0.37988401  0.50000000  0.75976700  1
  Ge  Ge4  1  0.99273204  0.00000000  0.98546501  1
  Ge  Ge5  1  0.87880203  0.00000000  0.75760401  1
  Ge  Ge6  1  0.66929603  0.00000000  0.33859101  1
  Ge  Ge7  1  0.23934201  0.00000000  0.47868500  1
  Pd  Pd8  1  0.55884502  0.00000000  0.11769001  1
