# generated using pymatgen
data_YbGe3
_symmetry_space_group_name_H-M   'P 1'
_cell_length_a   4.36751604
_cell_length_b   8.80042839
_cell_length_c   9.56144238
_cell_angle_alpha   117.40026855
_cell_angle_beta   103.20242310
_cell_angle_gamma   90.00000000
_symmetry_Int_Tables_number   1
_chemical_formula_structural   YbGe3
_chemical_formula_sum   'Yb4 Ge12'
_cell_volume   315.29364431
_cell_formula_units_Z   4
loop_
 _symmetry_equiv_pos_site_id
 _symmetry_equiv_pos_as_xyz
  1  'x, y, z'
loop_
 _atom_site_type_symbol
 _atom_site_label
 _atom_site_symmetry_multiplicity
 _atom_site_fract_x
 _atom_site_fract_y
 _atom_site_fract_z
 _atom_site_occupancy
  Yb  Yb0  1  -0.00000002  0.26216298  -0.00000001  1
  Yb  Yb1  1  -0.00000006  0.73783695  -0.00000004  1
  Yb  Yb2  1  0.20272194  0.70272195  0.40544397  1
  Yb  Yb3  1  0.79727796  0.29727798  0.59455599  1
  Ge  Ge4  1  0.57400298  0.07400299  0.14800599  1
  Ge  Ge5  1  0.42599691  0.92599694  0.85199397  1
  Ge  Ge6  1  0.57417894  0.57417896  0.14835796  1
  Ge  Ge7  1  0.42582096  0.42582097  0.85164200  1
  Ge  Ge8  1  0.80092493  0.65051395  0.60184997  1
  Ge  Ge9  1  0.19907497  0.34948598  0.39814999  1
  Ge  Ge10  1  0.80092490  0.95133593  0.60184995  1
  Ge  Ge11  1  0.19907499  0.04866400  0.39815001  1
  Ge  Ge12  1  0.64831095  0.39818097  0.29662197  1
  Ge  Ge13  1  0.35168894  0.60181896  0.70337799  1
  Ge  Ge14  1  0.64831091  0.89844094  0.29662195  1
  Ge  Ge15  1  0.35168898  0.10155899  0.70337801  1
