# generated using pymatgen
data_LaMg(Ni3S4)2
_symmetry_space_group_name_H-M   'P 1'
_cell_length_a   6.69654608
_cell_length_b   6.69654608
_cell_length_c   6.69654608
_cell_angle_alpha   90.00000000
_cell_angle_beta   90.00000000
_cell_angle_gamma   90.00000000
_symmetry_Int_Tables_number   1
_chemical_formula_structural   LaMg(Ni3S4)2
_chemical_formula_sum   'La1 Mg1 Ni6 S8'
_cell_volume   300.29810003
_cell_formula_units_Z   1
loop_
 _symmetry_equiv_pos_site_id
 _symmetry_equiv_pos_as_xyz
  1  'x, y, z'
loop_
 _atom_site_type_symbol
 _atom_site_label
 _atom_site_symmetry_multiplicity
 _atom_site_fract_x
 _atom_site_fract_y
 _atom_site_fract_z
 _atom_site_occupancy
  La  La0  1  0.49999999  0.49999999  0.49999999  1
  Mg  Mg1  1  0.00000000  0.00000000  0.00000000  1
  Ni  Ni2  1  0.49999999  0.00000000  0.74999999  1
  Ni  Ni3  1  -0.00000000  0.25000000  0.49999999  1
  Ni  Ni4  1  0.74999999  0.49999999  0.00000000  1
  Ni  Ni5  1  0.49999999  0.00000000  0.25000000  1
  Ni  Ni6  1  -0.00000000  0.74999999  0.49999999  1
  Ni  Ni7  1  0.25000000  0.49999999  0.00000000  1
  S  S8  1  0.74999999  0.25000000  0.74999999  1
  S  S9  1  0.25000000  0.74999999  0.25000000  1
  S  S10  1  0.74999999  0.74999999  0.25000000  1
  S  S11  1  0.25000000  0.25000000  0.74999999  1
  S  S12  1  0.25000000  0.74999999  0.74999999  1
  S  S13  1  0.74999999  0.25000000  0.25000000  1
  S  S14  1  0.25000000  0.25000000  0.25000000  1
  S  S15  1  0.74999999  0.74999999  0.74999999  1
