# generated using pymatgen
data_Yb5Cd3Pd4
_symmetry_space_group_name_H-M   'P 1'
_cell_length_a   4.43619490
_cell_length_b   7.22995281
_cell_length_c   8.84048176
_cell_angle_alpha   90.00000000
_cell_angle_beta   90.00000000
_cell_angle_gamma   90.00000000
_symmetry_Int_Tables_number   1
_chemical_formula_structural   Yb5Cd3Pd4
_chemical_formula_sum   'Yb5 Cd3 Pd4'
_cell_volume   283.54501282
_cell_formula_units_Z   1
loop_
 _symmetry_equiv_pos_site_id
 _symmetry_equiv_pos_as_xyz
  1  'x, y, z'
loop_
 _atom_site_type_symbol
 _atom_site_label
 _atom_site_symmetry_multiplicity
 _atom_site_fract_x
 _atom_site_fract_y
 _atom_site_fract_z
 _atom_site_occupancy
  Yb  Yb0  1  0.75000002  0.95280402  0.68131502  1
  Yb  Yb1  1  0.25000001  0.54719601  0.18131500  1
  Yb  Yb2  1  0.75000002  0.45280401  0.81868502  1
  Yb  Yb3  1  0.25000001  0.04719600  0.31868501  1
  Cd  Cd4  1  0.25000001  0.14271100  0.94391703  1
  Yb  Yb5  1  0.25000001  0.64271102  0.55608302  1
  Cd  Cd6  1  0.75000002  0.85728902  0.05608300  1
  Cd  Cd7  1  0.75000002  0.35728901  0.44391701  1
  Pd  Pd8  1  0.25000001  0.24099101  0.63130102  1
  Pd  Pd9  1  0.25000001  0.74099102  0.86869902  1
  Pd  Pd10  1  0.75000002  0.25900901  0.13130100  1
  Pd  Pd11  1  0.75000002  0.75900902  0.36869901  1
