# generated using pymatgen
data_Li2Co4O7
_symmetry_space_group_name_H-M   'P 1'
_cell_length_a   4.94176245
_cell_length_b   5.81651783
_cell_length_c   6.21560478
_cell_angle_alpha   62.10216904
_cell_angle_beta   72.59786987
_cell_angle_gamma   90.00000000
_symmetry_Int_Tables_number   1
_chemical_formula_structural   Li2Co4O7
_chemical_formula_sum   'Li2 Co4 O7'
_cell_volume   148.58128054
_cell_formula_units_Z   1
loop_
 _symmetry_equiv_pos_site_id
 _symmetry_equiv_pos_as_xyz
  1  'x, y, z'
loop_
 _atom_site_type_symbol
 _atom_site_label
 _atom_site_symmetry_multiplicity
 _atom_site_fract_x
 _atom_site_fract_y
 _atom_site_fract_z
 _atom_site_occupancy
  Li  Li0  1  0.33084298  0.27629100  0.44741803  1
  Li  Li1  1  0.66915696  0.72370901  0.55258206  1
  Co  Co2  1  0.49999999  0.00000000  0.00000002  1
  Co  Co3  1  -0.00000003  0.74404401  0.00000003  1
  Co  Co4  1  -0.00000001  0.25595600  0.00000001  1
  Co  Co5  1  0.96269496  0.60301201  0.79397608  1
  O  O6  1  0.03730498  0.39698800  0.20602402  1
  O  O7  1  0.90395798  0.09645600  0.80708806  1
  O  O8  1  0.09604196  0.90354401  0.19291204  1
  O  O9  1  0.61219798  0.12147800  0.19591703  1
  O  O10  1  0.61219796  0.68260501  0.19591706  1
  O  O11  1  0.38780198  0.31739500  0.80408304  1
  O  O12  1  0.38780195  0.87852201  0.80408306  1
