# generated using pymatgen
data_Li5MnCoO11
_symmetry_space_group_name_H-M   'P 1'
_cell_length_a   4.69251823
_cell_length_b   5.69916630
_cell_length_c   7.84135246
_cell_angle_alpha   91.46677399
_cell_angle_beta   89.66696930
_cell_angle_gamma   89.63385773
_symmetry_Int_Tables_number   1
_chemical_formula_structural   Li5MnCoO11
_chemical_formula_sum   'Li5 Mn1 Co1 O11'
_cell_volume   209.62801416
_cell_formula_units_Z   1
loop_
 _symmetry_equiv_pos_site_id
 _symmetry_equiv_pos_as_xyz
  1  'x, y, z'
loop_
 _atom_site_type_symbol
 _atom_site_label
 _atom_site_symmetry_multiplicity
 _atom_site_fract_x
 _atom_site_fract_y
 _atom_site_fract_z
 _atom_site_occupancy
  Li  Li0  1  0.49095501  0.48616601  0.99864399  1
  Li  Li1  1  0.46583699  0.17553700  0.67042498  1
  Li  Li2  1  0.50933604  0.83120101  0.32991600  1
  Li  Li3  1  0.01805302  0.32235500  0.34991801  1
  Li  Li4  1  0.01461805  0.65115501  0.66786501  1
  Mn  Mn5  1  0.01813500  0.02066500  0.98647199  1
  Co  Co6  1  0.20613202  0.36132700  0.57472800  1
  O  O7  1  0.29417200  0.20529000  0.88925199  1
  O  O8  1  0.19564499  0.02877100  0.22776999  1
  O  O9  1  0.19512904  0.71147201  0.90253001  1
  O  O10  1  0.30655502  0.53255801  0.23026500  1
  O  O11  1  0.29939105  0.86555401  0.56105101  1
  O  O12  1  0.68110998  0.13656800  0.44425698  1
  O  O13  1  0.69804800  0.47083501  0.77221598  1
  O  O14  1  0.70642303  0.80292601  0.09165000  1
  O  O15  1  0.78297303  0.97565801  0.76293199  1
  O  O16  1  0.80528298  0.29287300  0.10696098  1
  O  O17  1  0.81220401  0.62908501  0.43314699  1
