# generated using pymatgen
data_Li2AsO7
_symmetry_space_group_name_H-M   'P 1'
_cell_length_a   5.37204313
_cell_length_b   5.40331459
_cell_length_c   10.27904892
_cell_angle_alpha   94.52253723
_cell_angle_beta   95.77404785
_cell_angle_gamma   119.77367401
_symmetry_Int_Tables_number   1
_chemical_formula_structural   Li2AsO7
_chemical_formula_sum   'Li4 As2 O14'
_cell_volume   254.78548006
_cell_formula_units_Z   2
loop_
 _symmetry_equiv_pos_site_id
 _symmetry_equiv_pos_as_xyz
  1  'x, y, z'
loop_
 _atom_site_type_symbol
 _atom_site_label
 _atom_site_symmetry_multiplicity
 _atom_site_fract_x
 _atom_site_fract_y
 _atom_site_fract_z
 _atom_site_occupancy
  Li  Li0  1  0.93813199  0.93870000  0.81322905  1
  Li  Li1  1  0.44802699  0.44822000  0.34098102  1
  Li  Li2  1  0.78129698  0.11639700  0.34313302  1
  Li  Li3  1  0.11558600  0.77450700  0.33992702  1
  As  As4  1  0.53038399  0.20114000  0.61400702  1
  As  As5  1  0.20378100  0.53955600  0.61916502  1
  O  O6  1  0.35635700  0.68997700  0.06687003  1
  O  O7  1  0.69008599  0.35654200  0.06702203  1
  O  O8  1  0.47574699  0.14395000  0.43850202  1
  O  O9  1  0.15114900  0.48870500  0.45393902  1
  O  O10  1  0.50506899  0.00472700  0.00987501  1
  O  O11  1  0.00226800  0.50532000  0.00784001  1
  O  O12  1  0.41169100  0.73994300  0.22741403  1
  O  O13  1  0.74929499  0.41137600  0.22750003  1
  O  O14  1  0.37954600  0.87975400  0.67917704  1
  O  O15  1  0.89912398  0.39046900  0.67602204  1
  O  O16  1  0.38811699  0.40006400  0.67938502  1
  O  O17  1  0.50122099  0.50279000  0.00852902  1
  O  O18  1  0.08560400  0.08329800  0.24837301  1
  O  O19  1  0.80751699  0.80456400  0.43910904  1
