# generated using pymatgen
data_LuCo3
_symmetry_space_group_name_H-M   'P 1'
_cell_length_a   4.88407660
_cell_length_b   4.88407660
_cell_length_c   8.34153461
_cell_angle_alpha   72.97695160
_cell_angle_beta   72.97695160
_cell_angle_gamma   59.99999237
_symmetry_Int_Tables_number   1
_chemical_formula_structural   LuCo3
_chemical_formula_sum   'Lu3 Co9'
_cell_volume   162.17762126
_cell_formula_units_Z   3
loop_
 _symmetry_equiv_pos_site_id
 _symmetry_equiv_pos_as_xyz
  1  'x, y, z'
loop_
 _atom_site_type_symbol
 _atom_site_label
 _atom_site_symmetry_multiplicity
 _atom_site_fract_x
 _atom_site_fract_y
 _atom_site_fract_z
 _atom_site_occupancy
  Lu  Lu0  1  0.00000000  0.00000000  0.00000000  1
  Lu  Lu1  1  0.85553994  0.85553999  0.43338004  1
  Lu  Lu2  1  0.14445999  0.14446000  0.56662003  1
  Co  Co3  1  0.91716395  0.41356499  0.25570603  1
  Co  Co4  1  0.58643496  0.58643499  0.74429404  1
  Co  Co5  1  0.66666662  0.66666666  0.00000002  1
  Co  Co6  1  0.41356495  0.91716398  0.25570603  1
  Co  Co7  1  0.58643498  0.08283600  0.74429404  1
  Co  Co8  1  0.33333331  0.33333333  0.00000001  1
  Co  Co9  1  0.49999996  0.49999999  0.50000003  1
  Co  Co10  1  0.41356497  0.41356499  0.25570602  1
  Co  Co11  1  0.08283598  0.58643499  0.74429404  1
