# generated using pymatgen
data_Li5Au3
_symmetry_space_group_name_H-M   'P 1'
_cell_length_a   4.62500811
_cell_length_b   4.62500858
_cell_length_c   8.34800816
_cell_angle_alpha   90.00000000
_cell_angle_beta   90.00000000
_cell_angle_gamma   120.00000000
_symmetry_Int_Tables_number   1
_chemical_formula_structural   Li5Au3
_chemical_formula_sum   'Li5 Au3'
_cell_volume   154.64594532
_cell_formula_units_Z   1
loop_
 _symmetry_equiv_pos_site_id
 _symmetry_equiv_pos_as_xyz
  1  'x, y, z'
loop_
 _atom_site_type_symbol
 _atom_site_label
 _atom_site_symmetry_multiplicity
 _atom_site_fract_x
 _atom_site_fract_y
 _atom_site_fract_z
 _atom_site_occupancy
  Li  Li0  1  0.33333337  0.66666668  0.57714099  1
  Li  Li1  1  0.66666668  0.33333334  0.07714100  1
  Li  Li2  1  0.33333337  0.66666668  0.92285898  1
  Li  Li3  1  0.00000000  0.00000000  0.25000000  1
  Li  Li4  1  0.00000000  0.00000000  0.74999999  1
  Au  Au5  1  0.66666668  0.33333334  0.42285899  1
  Au  Au6  1  0.33333337  0.66666668  0.25000000  1
  Au  Au7  1  0.66666668  0.33333334  0.74999999  1
