# generated using pymatgen
data_Nb2SiRu
_symmetry_space_group_name_H-M   'P 1'
_cell_length_a   4.92586613
_cell_length_b   4.92586613
_cell_length_c   4.92586613
_cell_angle_alpha   90.00000000
_cell_angle_beta   90.00000000
_cell_angle_gamma   90.00000000
_symmetry_Int_Tables_number   1
_chemical_formula_structural   Nb2SiRu
_chemical_formula_sum   'Nb4 Si2 Ru2'
_cell_volume   119.52198957
_cell_formula_units_Z   2
loop_
 _symmetry_equiv_pos_site_id
 _symmetry_equiv_pos_as_xyz
  1  'x, y, z'
loop_
 _atom_site_type_symbol
 _atom_site_label
 _atom_site_symmetry_multiplicity
 _atom_site_fract_x
 _atom_site_fract_y
 _atom_site_fract_z
 _atom_site_occupancy
  Nb  Nb0  1  0.16298400  0.33701599  0.66298398  1
  Nb  Nb1  1  0.33701599  0.66298398  0.16298400  1
  Nb  Nb2  1  0.66298398  0.16298400  0.33701599  1
  Nb  Nb3  1  0.83701598  0.83701598  0.83701598  1
  Si  Si4  1  0.87340798  0.62659198  0.37340799  1
  Ru  Ru5  1  0.62659198  0.37340799  0.87340798  1
  Ru  Ru6  1  0.37340799  0.87340798  0.62659198  1
  Si  Si7  1  0.12659200  0.12659200  0.12659200  1
