# generated using pymatgen
data_BaEu(CO4)2
_symmetry_space_group_name_H-M   'P 1'
_cell_length_a   4.72771406
_cell_length_b   4.72771406
_cell_length_c   6.67324495
_cell_angle_alpha   90.00000000
_cell_angle_beta   90.00000000
_cell_angle_gamma   90.00000000
_symmetry_Int_Tables_number   1
_chemical_formula_structural   BaEu(CO4)2
_chemical_formula_sum   'Ba1 Eu1 C2 O8'
_cell_volume   149.15556812
_cell_formula_units_Z   1
loop_
 _symmetry_equiv_pos_site_id
 _symmetry_equiv_pos_as_xyz
  1  'x, y, z'
loop_
 _atom_site_type_symbol
 _atom_site_label
 _atom_site_symmetry_multiplicity
 _atom_site_fract_x
 _atom_site_fract_y
 _atom_site_fract_z
 _atom_site_occupancy
  Eu  Eu0  1  0.00000000  0.00000000  0.00000000  1
  Ba  Ba1  1  0.49999999  0.49999999  0.50000000  1
  C  C2  1  0.49999999  0.49999999  0.00000000  1
  C  C3  1  0.00000000  0.00000000  0.50000000  1
  O  O4  1  0.78817299  0.00000000  0.39281600  1
  O  O5  1  0.00000000  0.21182700  0.60718400  1
  O  O6  1  0.21182700  0.00000000  0.39281600  1
  O  O7  1  0.28817300  0.49999999  0.10718400  1
  O  O8  1  0.49999999  0.28817300  0.89281601  1
  O  O9  1  0.49999999  0.71182699  0.89281601  1
  O  O10  1  0.71182699  0.49999999  0.10718400  1
  O  O11  1  0.00000000  0.78817299  0.60718400  1
