# generated using pymatgen
data_Be7Cr
_symmetry_space_group_name_H-M   'P 1'
_cell_length_a   3.72252011
_cell_length_b   3.72252107
_cell_length_c   6.68810701
_cell_angle_alpha   90.00000000
_cell_angle_beta   90.00000000
_cell_angle_gamma   119.99999237
_symmetry_Int_Tables_number   1
_chemical_formula_structural   Be7Cr
_chemical_formula_sum   'Be7 Cr1'
_cell_volume   80.26165223
_cell_formula_units_Z   1
loop_
 _symmetry_equiv_pos_site_id
 _symmetry_equiv_pos_as_xyz
  1  'x, y, z'
loop_
 _atom_site_type_symbol
 _atom_site_label
 _atom_site_symmetry_multiplicity
 _atom_site_fract_x
 _atom_site_fract_y
 _atom_site_fract_z
 _atom_site_occupancy
  Be  Be0  1  0.33333334  0.66666665  0.25000000  1
  Be  Be1  1  0.66666665  0.33333333  0.75000000  1
  Be  Be2  1  0.66666665  0.33333333  0.09429600  1
  Be  Be3  1  0.33333334  0.66666665  0.59429600  1
  Be  Be4  1  0.00000000  0.00000000  0.75000000  1
  Be  Be5  1  0.00000000  0.00000000  0.25000000  1
  Cr  Cr6  1  0.66666665  0.33333333  0.40570400  1
  Be  Be7  1  0.33333334  0.66666665  0.90570400  1
