# generated using pymatgen
data_ZrMn2NbV4
_symmetry_space_group_name_H-M   'P 1'
_cell_length_a   4.29428577
_cell_length_b   4.29428577
_cell_length_c   7.43165874
_cell_angle_alpha   73.20678711
_cell_angle_beta   73.20678711
_cell_angle_gamma   60.00000381
_symmetry_Int_Tables_number   1
_chemical_formula_structural   ZrMn2NbV4
_chemical_formula_sum   'Zr1 Mn2 Nb1 V4'
_cell_volume   111.88613186
_cell_formula_units_Z   1
loop_
 _symmetry_equiv_pos_site_id
 _symmetry_equiv_pos_as_xyz
  1  'x, y, z'
loop_
 _atom_site_type_symbol
 _atom_site_label
 _atom_site_symmetry_multiplicity
 _atom_site_fract_x
 _atom_site_fract_y
 _atom_site_fract_z
 _atom_site_occupancy
  Mn  Mn0  1  0.50000001  0.50000000  0.50000002  1
  Zr  Zr1  1  0.00000000  0.00000000  0.00000000  1
  Mn  Mn2  1  0.62470302  0.62470300  0.12589103  1
  V  V3  1  0.12546900  0.12546900  0.62359300  1
  V  V4  1  0.87453102  0.87453100  0.37640704  1
  V  V5  1  0.37529701  0.37529700  0.87410901  1
  Nb  Nb6  1  0.25037801  0.25037800  0.24886601  1
  V  V7  1  0.74962202  0.74962200  0.75113403  1
