# generated using pymatgen
data_Li3Ti(CoO6)2
_symmetry_space_group_name_H-M   'P 1'
_cell_length_a   5.32185507
_cell_length_b   7.19785166
_cell_length_c   7.19785166
_cell_angle_alpha   76.85381317
_cell_angle_beta   70.53814697
_cell_angle_gamma   70.53814697
_symmetry_Int_Tables_number   1
_chemical_formula_structural   Li3Ti(CoO6)2
_chemical_formula_sum   'Li3 Ti1 Co2 O12'
_cell_volume   243.00188214
_cell_formula_units_Z   1
loop_
 _symmetry_equiv_pos_site_id
 _symmetry_equiv_pos_as_xyz
  1  'x, y, z'
loop_
 _atom_site_type_symbol
 _atom_site_label
 _atom_site_symmetry_multiplicity
 _atom_site_fract_x
 _atom_site_fract_y
 _atom_site_fract_z
 _atom_site_occupancy
  Li  Li0  1  0.49999999  0.18912900  0.81087097  1
  Li  Li1  1  0.99999994  0.81157400  0.18842598  1
  Li  Li2  1  0.20012799  0.18345800  0.34886199  1
  Ti  Ti3  1  0.79987195  0.65113800  0.81654197  1
  Co  Co4  1  0.30424593  0.81142000  0.64950800  1
  Co  Co5  1  0.69575398  0.35049200  0.18857997  1
  O  O6  1  0.09903698  0.17855300  0.10144000  1
  O  O7  1  0.90096293  0.89856000  0.82144697  1
  O  O8  1  0.40448793  0.82009700  0.90007000  1
  O  O9  1  0.59551200  0.09993000  0.17990297  1
  O  O10  1  0.79034599  0.27778200  0.44391396  1
  O  O11  1  0.20965395  0.55608600  0.72221800  1
  O  O12  1  0.71748994  0.71996800  0.55922598  1
  O  O13  1  0.28250996  0.44077400  0.28003200  1
  O  O14  1  0.72160397  0.40329500  0.88490397  1
  O  O15  1  0.27839599  0.11509600  0.59670498  1
  O  O16  1  0.77783396  0.60470400  0.11205498  1
  O  O17  1  0.22216592  0.88794500  0.39529601  1
