# generated using pymatgen
data_LiMnO2
_symmetry_space_group_name_H-M   'P 1'
_cell_length_a   6.04265356
_cell_length_b   6.04265356
_cell_length_c   6.08389187
_cell_angle_alpha   90.37983704
_cell_angle_beta   119.76355743
_cell_angle_gamma   119.57191467
_symmetry_Int_Tables_number   1
_chemical_formula_structural   LiMnO2
_chemical_formula_sum   'Li4 Mn4 O8'
_cell_volume   158.13169655
_cell_formula_units_Z   4
loop_
 _symmetry_equiv_pos_site_id
 _symmetry_equiv_pos_as_xyz
  1  'x, y, z'
loop_
 _atom_site_type_symbol
 _atom_site_label
 _atom_site_symmetry_multiplicity
 _atom_site_fract_x
 _atom_site_fract_y
 _atom_site_fract_z
 _atom_site_occupancy
  Li  Li0  1  0.49999997  0.49999998  0.50000000  1
  Li  Li1  1  0.00000000  0.00000000  0.50000000  1
  Li  Li2  1  0.49999999  0.00000000  0.50000001  1
  Li  Li3  1  0.49999997  0.49999998  -0.00000000  1
  Mn  Mn4  1  0.00000000  0.00000000  0.00000000  1
  Mn  Mn5  1  0.49999999  0.00000000  1.00000001  1
  Mn  Mn6  1  0.99999996  0.49999998  1.00000000  1
  Mn  Mn7  1  -0.00000002  0.49999998  0.49999999  1
  O  O8  1  0.50750098  0.26633999  0.77384100  1
  O  O9  1  0.02462799  0.26518999  0.76579699  1
  O  O10  1  0.50060695  0.74116896  0.76579699  1
  O  O11  1  0.49249895  0.73365996  0.22615899  1
  O  O12  1  0.01195496  0.75008796  0.76204298  1
  O  O13  1  0.97537195  0.73480996  0.23420300  1
  O  O14  1  0.49939298  0.25883099  0.23420300  1
  O  O15  1  0.98804497  0.24991199  0.23795701  1
