# generated using pymatgen
data_PrSi2Rh
_symmetry_space_group_name_H-M   'P 1'
_cell_length_a   4.22261000
_cell_length_b   4.30169010
_cell_length_c   8.69763660
_cell_angle_alpha   104.31724548
_cell_angle_beta   90.00000000
_cell_angle_gamma   90.00000000
_symmetry_Int_Tables_number   1
_chemical_formula_structural   PrSi2Rh
_chemical_formula_sum   'Pr2 Si4 Rh2'
_cell_volume   153.08013519
_cell_formula_units_Z   2
loop_
 _symmetry_equiv_pos_site_id
 _symmetry_equiv_pos_as_xyz
  1  'x, y, z'
loop_
 _atom_site_type_symbol
 _atom_site_label
 _atom_site_symmetry_multiplicity
 _atom_site_fract_x
 _atom_site_fract_y
 _atom_site_fract_z
 _atom_site_occupancy
  Pr  Pr0  1  0.25000000  0.10596500  0.21193001  1
  Pr  Pr1  1  0.75000000  0.89403496  0.78807001  1
  Si  Si2  1  0.25000000  0.45998798  0.91997603  1
  Si  Si3  1  0.75000000  0.54001198  0.08002399  1
  Si  Si4  1  0.25000000  0.75024497  0.50049000  1
  Si  Si5  1  0.75000000  0.24975499  0.49951002  1
  Rh  Rh6  1  0.25000000  0.31936199  0.63872402  1
  Rh  Rh7  1  0.75000000  0.68063797  0.36127600  1
