# generated using pymatgen
data_Li13Ge7
_symmetry_space_group_name_H-M   'P 1'
_cell_length_a   5.27563190
_cell_length_b   8.67872334
_cell_length_c   8.67872334
_cell_angle_alpha   104.27256012
_cell_angle_beta   90.00000000
_cell_angle_gamma   90.00000000
_symmetry_Int_Tables_number   1
_chemical_formula_structural   Li13Ge7
_chemical_formula_sum   'Li13 Ge7'
_cell_volume   385.09684858
_cell_formula_units_Z   1
loop_
 _symmetry_equiv_pos_site_id
 _symmetry_equiv_pos_as_xyz
  1  'x, y, z'
loop_
 _atom_site_type_symbol
 _atom_site_label
 _atom_site_symmetry_multiplicity
 _atom_site_fract_x
 _atom_site_fract_y
 _atom_site_fract_z
 _atom_site_occupancy
  Li  Li0  1  0.25000000  0.22648601  0.32837901  1
  Li  Li1  1  0.50261401  0.39303301  0.60696701  1
  Li  Li2  1  0.75000001  0.77351402  0.67162101  1
  Li  Li3  1  0.75000001  0.63318801  0.91166502  1
  Li  Li4  1  0.25000000  0.91934302  0.33182601  1
  Li  Li5  1  0.75000001  0.08065700  0.66817401  1
  Li  Li6  1  0.25000000  0.66817401  0.08065700  1
  Li  Li7  1  0.25000000  0.99947202  0.00052800  1
  Li  Li8  1  0.25000000  0.36681201  0.08833500  1
  Li  Li9  1  0.75000001  0.08833500  0.36681201  1
  Li  Li10  1  0.99738602  0.39303301  0.60696701  1
  Li  Li11  1  0.75000001  0.78597102  0.21402900  1
  Li  Li12  1  0.75000001  0.32837901  0.22648601  1
  Ge  Ge13  1  0.25000000  0.21402900  0.78597102  1
  Ge  Ge14  1  0.00261400  0.60696701  0.39303301  1
  Ge  Ge15  1  0.75000001  0.33182601  0.91934302  1
  Ge  Ge16  1  0.75000001  0.00052800  0.99947202  1
  Ge  Ge17  1  0.25000000  0.67162102  0.77351402  1
  Ge  Ge18  1  0.49738601  0.60696701  0.39303301  1
  Ge  Ge19  1  0.25000000  0.91166502  0.63318801  1
