# generated using pymatgen
data_CaMn6CrO12
_symmetry_space_group_name_H-M   'P 1'
_cell_length_a   6.43700552
_cell_length_b   6.49743700
_cell_length_c   6.49852419
_cell_angle_alpha   70.32413483
_cell_angle_beta   70.70962524
_cell_angle_gamma   109.25611115
_symmetry_Int_Tables_number   1
_chemical_formula_structural   CaMn6CrO12
_chemical_formula_sum   'Ca1 Mn6 Cr1 O12'
_cell_volume   209.71745069
_cell_formula_units_Z   1
loop_
 _symmetry_equiv_pos_site_id
 _symmetry_equiv_pos_as_xyz
  1  'x, y, z'
loop_
 _atom_site_type_symbol
 _atom_site_label
 _atom_site_symmetry_multiplicity
 _atom_site_fract_x
 _atom_site_fract_y
 _atom_site_fract_z
 _atom_site_occupancy
  Ca  Ca0  1  0.00000100  0.00000300  0.99999897  1
  Mn  Mn1  1  0.50002594  0.50000997  0.99997600  1
  Mn  Mn2  1  0.99995693  0.49994597  0.50000202  1
  Mn  Mn3  1  0.49999890  0.99997493  0.50004305  1
  Mn  Mn4  1  0.49999490  0.99999593  0.00001407  1
  Mn  Mn5  1  0.00001200  0.00000300  0.49999398  1
  Mn  Mn6  1  0.49999394  0.50001697  0.49999002  1
  Cr  Cr7  1  0.00000396  0.50000597  0.99998900  1
  O  O8  1  0.29996198  0.11882599  0.19312900  1
  O  O9  1  0.30971095  0.49247297  0.81374601  1
  O  O10  1  0.69029194  0.50753397  0.18625103  1
  O  O11  1  0.70003891  0.88118394  0.80686603  1
  O  O12  1  0.18100694  0.68793895  0.11905004  1
  O  O13  1  0.81744192  0.69370395  0.49249403  1
  O  O14  1  0.18255397  0.30629798  0.50750500  1
  O  O15  1  0.81899095  0.31206398  0.88094500  1
  O  O16  1  0.49303597  0.19329899  0.68802899  1
  O  O17  1  0.12339293  0.81372595  0.69385203  1
  O  O18  1  0.87661096  0.18628299  0.30615000  1
  O  O19  1  0.50697392  0.80671395  0.31197604  1
