# generated using pymatgen
data_Li2CoO5
_symmetry_space_group_name_H-M   'P 1'
_cell_length_a   5.36911297
_cell_length_b   5.36910200
_cell_length_c   7.11775208
_cell_angle_alpha   112.14990997
_cell_angle_beta   112.14633179
_cell_angle_gamma   89.97810364
_symmetry_Int_Tables_number   1
_chemical_formula_structural   Li2CoO5
_chemical_formula_sum   'Li4 Co2 O10'
_cell_volume   173.60297649
_cell_formula_units_Z   2
loop_
 _symmetry_equiv_pos_site_id
 _symmetry_equiv_pos_as_xyz
  1  'x, y, z'
loop_
 _atom_site_type_symbol
 _atom_site_label
 _atom_site_symmetry_multiplicity
 _atom_site_fract_x
 _atom_site_fract_y
 _atom_site_fract_z
 _atom_site_occupancy
  Li  Li0  1  0.99999109  0.50002803  0.49998302  1
  Li  Li1  1  0.50005207  0.50001003  0.00002003  1
  Li  Li2  1  0.99997009  0.50001203  0.00002303  1
  Li  Li3  1  0.99998813  0.99995505  0.49997704  1
  Co  Co4  1  0.62506310  0.87492905  0.75000003  1
  Co  Co5  1  0.37493603  0.12507101  0.24999900  1
  O  O6  1  0.30602404  0.29913402  0.11216301  1
  O  O7  1  0.31324308  0.80612304  0.61235502  1
  O  O8  1  0.87529710  0.62470403  0.24999903  1
  O  O9  1  0.79915511  0.80604504  0.61219603  1
  O  O10  1  0.69388205  0.18676501  0.88764600  1
  O  O11  1  0.30609908  0.81321404  0.11231804  1
  O  O12  1  0.68677505  0.19389401  0.38767901  1
  O  O13  1  0.20086003  0.19397101  0.38783800  1
  O  O14  1  0.12470604  0.37529602  0.75000300  1
  O  O15  1  0.69395809  0.70084904  0.88780102  1
