# generated using pymatgen
data_YbCuGe3
_symmetry_space_group_name_H-M   'P 1'
_cell_length_a   4.11271000
_cell_length_b   4.11271000
_cell_length_c   5.86696339
_cell_angle_alpha   110.51773834
_cell_angle_beta   110.51773834
_cell_angle_gamma   90.00000000
_symmetry_Int_Tables_number   1
_chemical_formula_structural   YbCuGe3
_chemical_formula_sum   'Yb1 Cu1 Ge3'
_cell_volume   86.18715221
_cell_formula_units_Z   1
loop_
 _symmetry_equiv_pos_site_id
 _symmetry_equiv_pos_as_xyz
  1  'x, y, z'
loop_
 _atom_site_type_symbol
 _atom_site_label
 _atom_site_symmetry_multiplicity
 _atom_site_fract_x
 _atom_site_fract_y
 _atom_site_fract_z
 _atom_site_occupancy
  Yb  Yb0  1  0.00000000  0.00000000  0.00000000  1
  Cu  Cu1  1  0.62441803  0.62441801  0.24883604  1
  Ge  Ge2  1  0.37558202  0.37558201  0.75116404  1
  Ge  Ge3  1  0.75000002  0.25000000  0.50000004  1
  Ge  Ge4  1  0.25000002  0.75000001  0.50000004  1
