# generated using pymatgen
data_EuGeAu
_symmetry_space_group_name_H-M   'P 1'
_cell_length_a   4.66004419
_cell_length_b   7.54140997
_cell_length_c   8.15741158
_cell_angle_alpha   90.00000000
_cell_angle_beta   90.00000000
_cell_angle_gamma   90.00000000
_symmetry_Int_Tables_number   1
_chemical_formula_structural   EuGeAu
_chemical_formula_sum   'Eu4 Ge4 Au4'
_cell_volume   286.67839270
_cell_formula_units_Z   4
loop_
 _symmetry_equiv_pos_site_id
 _symmetry_equiv_pos_as_xyz
  1  'x, y, z'
loop_
 _atom_site_type_symbol
 _atom_site_label
 _atom_site_symmetry_multiplicity
 _atom_site_fract_x
 _atom_site_fract_y
 _atom_site_fract_z
 _atom_site_occupancy
  Eu  Eu0  1  0.74999997  0.48746400  0.80620004  1
  Eu  Eu1  1  0.24999999  0.01253600  0.30620002  1
  Eu  Eu2  1  0.74999997  0.98746400  0.69380004  1
  Eu  Eu3  1  0.24999999  0.51253600  0.19380001  1
  Ge  Ge4  1  0.24999999  0.67544200  0.58379103  1
  Ge  Ge5  1  0.24999999  0.17544200  0.91620905  1
  Ge  Ge6  1  0.74999997  0.32455800  0.41620902  1
  Ge  Ge7  1  0.74999997  0.82455800  0.08379100  1
  Au  Au8  1  0.24999999  0.79013200  0.90805505  1
  Au  Au9  1  0.24999999  0.29013200  0.59194503  1
  Au  Au10  1  0.74999997  0.70986800  0.40805502  1
  Au  Au11  1  0.74999997  0.20986800  0.09194500  1
