# generated using pymatgen
data_Sr2CdCuS3
_symmetry_space_group_name_H-M   'P 1'
_cell_length_a   5.01089191
_cell_length_b   5.01089191
_cell_length_c   8.69924259
_cell_angle_alpha   106.73870087
_cell_angle_beta   106.73870087
_cell_angle_gamma   90.00000000
_symmetry_Int_Tables_number   1
_chemical_formula_structural   Sr2CdCuS3
_chemical_formula_sum   'Sr2 Cd1 Cu1 S3'
_cell_volume   199.49015629
_cell_formula_units_Z   1
loop_
 _symmetry_equiv_pos_site_id
 _symmetry_equiv_pos_as_xyz
  1  'x, y, z'
loop_
 _atom_site_type_symbol
 _atom_site_label
 _atom_site_symmetry_multiplicity
 _atom_site_fract_x
 _atom_site_fract_y
 _atom_site_fract_z
 _atom_site_occupancy
  Sr  Sr0  1  0.64170903  0.64170902  0.28341802  1
  Sr  Sr1  1  0.35829102  0.35829101  0.71658198  1
  Cd  Cd2  1  0.00000000  0.00000000  0.00000000  1
  Cu  Cu3  1  0.50000001  0.00000000  0.00000001  1
  S  S4  1  0.00000001  0.50000002  0.00000001  1
  S  S5  1  0.83675904  0.83675903  0.67351800  1
  S  S6  1  0.16324101  0.16324100  0.32648199  1
