# generated using pymatgen
data_Eu4Sb3
_symmetry_space_group_name_H-M   'P 1'
_cell_length_a   8.63357353
_cell_length_b   8.63357353
_cell_length_c   8.63357353
_cell_angle_alpha   109.47122192
_cell_angle_beta   109.47122192
_cell_angle_gamma   109.47122192
_symmetry_Int_Tables_number   1
_chemical_formula_structural   Eu4Sb3
_chemical_formula_sum   'Eu8 Sb6'
_cell_volume   495.39299957
_cell_formula_units_Z   2
loop_
 _symmetry_equiv_pos_site_id
 _symmetry_equiv_pos_as_xyz
  1  'x, y, z'
loop_
 _atom_site_type_symbol
 _atom_site_label
 _atom_site_symmetry_multiplicity
 _atom_site_fract_x
 _atom_site_fract_y
 _atom_site_fract_z
 _atom_site_occupancy
  Eu  Eu0  1  0.00000003  0.50000002  0.64704703  1
  Eu  Eu1  1  0.35295303  0.35295301  0.85295303  1
  Eu  Eu2  1  0.50000001  0.14704701  0.50000002  1
  Eu  Eu3  1  0.14704706  1.00000004  1.00000006  1
  Eu  Eu4  1  0.85295306  0.85295303  0.35295307  1
  Eu  Eu5  1  0.00000003  0.50000002  0.14704703  1
  Eu  Eu6  1  0.50000005  0.64704703  0.50000005  1
  Eu  Eu7  1  0.64704707  1.00000004  1.00000007  1
  Sb  Sb8  1  0.87500001  0.12500000  0.75000003  1
  Sb  Sb9  1  0.62500003  0.37500001  0.25000004  1
  Sb  Sb10  1  0.12500002  0.25000001  0.37500002  1
  Sb  Sb11  1  0.37500005  0.75000003  0.12500005  1
  Sb  Sb12  1  0.75000005  0.62500002  0.87500005  1
  Sb  Sb13  1  0.25000006  0.87500003  0.62500005  1
