# generated using pymatgen
data_LuNiC2
_symmetry_space_group_name_H-M   'P 1'
_cell_length_a   3.35422206
_cell_length_b   3.35422206
_cell_length_c   7.31498384
_cell_angle_alpha   90.00000000
_cell_angle_beta   90.00000000
_cell_angle_gamma   90.00000000
_symmetry_Int_Tables_number   1
_chemical_formula_structural   LuNiC2
_chemical_formula_sum   'Lu2 Ni2 C4'
_cell_volume   82.29946137
_cell_formula_units_Z   2
loop_
 _symmetry_equiv_pos_site_id
 _symmetry_equiv_pos_as_xyz
  1  'x, y, z'
loop_
 _atom_site_type_symbol
 _atom_site_label
 _atom_site_symmetry_multiplicity
 _atom_site_fract_x
 _atom_site_fract_y
 _atom_site_fract_z
 _atom_site_occupancy
  Lu  Lu0  1  0.00000000  0.49999999  0.65165201  1
  Lu  Lu1  1  0.49999999  0.00000000  0.34834801  1
  Ni  Ni2  1  0.00000000  0.00000000  0.00000000  1
  Ni  Ni3  1  0.49999999  0.49999999  0.00000000  1
  C  C4  1  0.00000000  0.49999999  0.15651000  1
  C  C5  1  0.49999999  0.00000000  0.84349002  1
  C  C6  1  0.00000000  0.49999999  0.34989901  1
  C  C7  1  0.49999999  0.00000000  0.65010101  1
