# generated using pymatgen
data_Li2VSbO6
_symmetry_space_group_name_H-M   'P 1'
_cell_length_a   5.51790619
_cell_length_b   6.22886324
_cell_length_c   8.07051945
_cell_angle_alpha   95.29923248
_cell_angle_beta   91.94101715
_cell_angle_gamma   95.98252106
_symmetry_Int_Tables_number   1
_chemical_formula_structural   Li2VSbO6
_chemical_formula_sum   'Li4 V2 Sb2 O12'
_cell_volume   274.43111310
_cell_formula_units_Z   2
loop_
 _symmetry_equiv_pos_site_id
 _symmetry_equiv_pos_as_xyz
  1  'x, y, z'
loop_
 _atom_site_type_symbol
 _atom_site_label
 _atom_site_symmetry_multiplicity
 _atom_site_fract_x
 _atom_site_fract_y
 _atom_site_fract_z
 _atom_site_occupancy
  Li  Li0  1  0.46729992  0.98545797  0.77368997  1
  Li  Li1  1  0.99203394  0.40891199  0.77772796  1
  Li  Li2  1  0.47715992  0.99298797  0.27489198  1
  Li  Li3  1  0.00491598  0.37131399  0.29349699  1
  V  V4  1  0.01226894  0.98131397  0.98970197  1
  V  V5  1  0.49399795  0.49920198  0.50354498  1
  Sb  Sb6  1  0.94856597  0.00464300  0.51746097  1
  Sb  Sb7  1  0.53730395  0.50517998  0.94929896  1
  O  O8  1  0.32547797  0.22819599  0.39874698  1
  O  O9  1  0.11558999  0.05401500  0.77179197  1
  O  O10  1  0.31530593  0.89246297  0.04741899  1
  O  O11  1  0.22850395  0.61824498  0.39419198  1
  O  O12  1  0.82503093  0.67307798  0.87537596  1
  O  O13  1  0.33855895  0.53444298  0.74535297  1
  O  O14  1  0.76080594  0.52090498  0.27156498  1
  O  O15  1  0.11443397  0.33162099  0.09167600  1
  O  O16  1  0.90805895  0.31088399  0.54532797  1
  O  O17  1  0.66011296  0.24804399  0.87267196  1
  O  O18  1  0.85241696  0.08072800  0.27640398  1
  O  O19  1  0.62215392  0.89916697  0.55926097  1
