# generated using pymatgen
data_Hf5FeB5Ir9
_symmetry_space_group_name_H-M   'P 1'
_cell_length_a   6.23899603
_cell_length_b   6.94585514
_cell_length_c   6.94585514
_cell_angle_alpha   90.00000000
_cell_angle_beta   90.00000000
_cell_angle_gamma   90.00000000
_symmetry_Int_Tables_number   1
_chemical_formula_structural   Hf5FeB5Ir9
_chemical_formula_sum   'Hf5 Fe1 B5 Ir9'
_cell_volume   300.99976220
_cell_formula_units_Z   1
loop_
 _symmetry_equiv_pos_site_id
 _symmetry_equiv_pos_as_xyz
  1  'x, y, z'
loop_
 _atom_site_type_symbol
 _atom_site_label
 _atom_site_symmetry_multiplicity
 _atom_site_fract_x
 _atom_site_fract_y
 _atom_site_fract_z
 _atom_site_occupancy
  Hf  Hf0  1  0.00000000  0.17626200  0.17626200  1
  Hf  Hf1  1  0.50000000  0.67626199  0.32373799  1
  Hf  Hf2  1  0.50000000  0.32373799  0.67626199  1
  Hf  Hf3  1  0.00000000  0.82373798  0.82373798  1
  Hf  Hf4  1  0.00000000  0.65147799  0.34852199  1
  Fe  Fe5  1  0.50000000  0.84852198  0.84852198  1
  B  B6  1  0.50000000  0.15147800  0.15147800  1
  B  B7  1  0.00000000  0.34852199  0.65147799  1
  Ir  Ir8  1  0.25000000  0.49999999  -0.00000000  1
  Ir  Ir9  1  0.75000000  0.49999999  -0.00000000  1
  Ir  Ir10  1  0.25000000  0.00000000  0.49999999  1
  Ir  Ir11  1  0.75000000  0.00000000  0.49999999  1
  B  B12  1  0.27985700  0.37349599  0.37349599  1
  Ir  Ir13  1  0.77985700  0.87349598  0.12650400  1
  Ir  Ir14  1  0.77985700  0.12650400  0.87349598  1
  Ir  Ir15  1  0.27985700  0.62650399  0.62650399  1
  Ir  Ir16  1  0.22014300  0.12650400  0.87349598  1
  B  B17  1  0.22014300  0.87349598  0.12650400  1
  B  B18  1  0.72014300  0.37349599  0.37349599  1
  Ir  Ir19  1  0.72014300  0.62650399  0.62650399  1
