# generated using pymatgen
data_Sc3Ni9Sn
_symmetry_space_group_name_H-M   'P 1'
_cell_length_a   6.52342653
_cell_length_b   6.52342653
_cell_length_c   6.52342653
_cell_angle_alpha   109.47122192
_cell_angle_beta   109.47122192
_cell_angle_gamma   109.47122192
_symmetry_Int_Tables_number   1
_chemical_formula_structural   Sc3Ni9Sn
_chemical_formula_sum   'Sc3 Ni9 Sn1'
_cell_volume   213.70043963
_cell_formula_units_Z   1
loop_
 _symmetry_equiv_pos_site_id
 _symmetry_equiv_pos_as_xyz
  1  'x, y, z'
loop_
 _atom_site_type_symbol
 _atom_site_label
 _atom_site_symmetry_multiplicity
 _atom_site_fract_x
 _atom_site_fract_y
 _atom_site_fract_z
 _atom_site_occupancy
  Sc  Sc0  1  0.50445304  0.69197702  0.81247604  1
  Sc  Sc1  1  0.69197705  0.81247502  0.50445305  1
  Sc  Sc2  1  0.81247602  0.50445301  0.69197804  1
  Ni  Ni3  1  0.30802305  0.81247602  0.12049905  1
  Ni  Ni4  1  0.18752403  0.49554701  0.30802203  1
  Ni  Ni5  1  0.30802301  0.18752500  0.49554701  1
  Ni  Ni6  1  0.18752405  0.87950102  0.69197704  1
  Ni  Ni7  1  0.81247600  0.12049900  0.30802302  1
  Ni  Ni8  1  0.69197701  0.18752400  0.87950101  1
  Ni  Ni9  1  0.87950204  0.69197802  0.18752506  1
  Ni  Ni10  1  0.12049802  0.30802201  0.81247501  1
  Ni  Ni11  1  0.49554702  0.30802301  0.18752403  1
  Sn  Sn12  1  0.00000000  0.00000000  0.00000000  1
