# generated using pymatgen
data_Sr2EuSbO6
_symmetry_space_group_name_H-M   'P 1'
_cell_length_a   5.91311121
_cell_length_b   6.06726789
_cell_length_c   8.48064709
_cell_angle_alpha   89.91304779
_cell_angle_beta   89.45589447
_cell_angle_gamma   89.94841003
_symmetry_Int_Tables_number   1
_chemical_formula_structural   Sr2EuSbO6
_chemical_formula_sum   'Sr4 Eu2 Sb2 O12'
_cell_volume   304.24115100
_cell_formula_units_Z   2
loop_
 _symmetry_equiv_pos_site_id
 _symmetry_equiv_pos_as_xyz
  1  'x, y, z'
loop_
 _atom_site_type_symbol
 _atom_site_label
 _atom_site_symmetry_multiplicity
 _atom_site_fract_x
 _atom_site_fract_y
 _atom_site_fract_z
 _atom_site_occupancy
  Sr  Sr0  1  0.01219315  0.95301491  0.25147922  1
  Sr  Sr1  1  0.98780688  0.04698506  0.74852067  1
  Sr  Sr2  1  1.00000003  0.49999998  -0.00000006  1
  Sr  Sr3  1  0.50000002  0.00000000  0.49999996  1
  Eu  Eu4  1  0.48651243  0.45189830  0.24820849  1
  Eu  Eu5  1  0.51348759  0.54810166  0.75179140  1
  Sb  Sb6  1  0.50000002  0.00000000  0.99999994  1
  Sb  Sb7  1  1.00000003  0.49999998  0.49999992  1
  O  O8  1  0.77545548  0.81433816  0.94938745  1
  O  O9  1  0.72385095  0.31573270  0.55455463  1
  O  O10  1  0.22454455  0.18566180  0.05061244  1
  O  O11  1  0.27614908  0.68426727  0.44544526  1
  O  O12  1  0.67675883  0.27993040  0.94478289  1
  O  O13  1  0.82080165  0.77724907  0.55421551  1
  O  O14  1  0.32324120  0.72006957  0.05521700  1
  O  O15  1  0.17919837  0.22275089  0.44578438  1
  O  O16  1  0.59591389  0.03809993  0.22834692  1
  O  O17  1  0.89584236  0.53239890  0.27178190  1
  O  O18  1  0.40408614  0.96190004  0.77165297  1
  O  O19  1  0.10415767  0.46760106  0.72821799  1
