# generated using pymatgen
data_SrCa(Mg2Pd)2
_symmetry_space_group_name_H-M   'P 1'
_cell_length_a   4.32643986
_cell_length_b   5.54425907
_cell_length_c   8.64835072
_cell_angle_alpha   90.00000000
_cell_angle_beta   90.00000000
_cell_angle_gamma   112.96526337
_symmetry_Int_Tables_number   1
_chemical_formula_structural   SrCa(Mg2Pd)2
_chemical_formula_sum   'Sr1 Ca1 Mg4 Pd2'
_cell_volume   191.00521820
_cell_formula_units_Z   1
loop_
 _symmetry_equiv_pos_site_id
 _symmetry_equiv_pos_as_xyz
  1  'x, y, z'
loop_
 _atom_site_type_symbol
 _atom_site_label
 _atom_site_symmetry_multiplicity
 _atom_site_fract_x
 _atom_site_fract_y
 _atom_site_fract_z
 _atom_site_occupancy
  Sr  Sr0  1  0.93515007  0.87030003  0.75000002  1
  Ca  Ca1  1  0.06485001  0.12970000  0.25000001  1
  Mg  Mg2  1  0.35479704  0.70959403  0.45266701  1
  Mg  Mg3  1  0.64520303  0.29040601  0.54733302  1
  Mg  Mg4  1  0.35479704  0.70959403  0.04733300  1
  Mg  Mg5  1  0.64520303  0.29040601  0.95266703  1
  Pd  Pd6  1  0.77943905  0.55887802  0.25000001  1
  Pd  Pd7  1  0.22056103  0.44112202  0.75000002  1
