# generated using pymatgen
data_Mg3In5
_symmetry_space_group_name_H-M   'P 1'
_cell_length_a   4.66103888
_cell_length_b   6.47982407
_cell_length_c   6.47982407
_cell_angle_alpha   120.00000000
_cell_angle_beta   90.00000000
_cell_angle_gamma   90.00000000
_symmetry_Int_Tables_number   1
_chemical_formula_structural   Mg3In5
_chemical_formula_sum   'Mg3 In5'
_cell_volume   169.48832428
_cell_formula_units_Z   1
loop_
 _symmetry_equiv_pos_site_id
 _symmetry_equiv_pos_as_xyz
  1  'x, y, z'
loop_
 _atom_site_type_symbol
 _atom_site_label
 _atom_site_symmetry_multiplicity
 _atom_site_fract_x
 _atom_site_fract_y
 _atom_site_fract_z
 _atom_site_occupancy
  Mg  Mg0  1  0.75000002  0.66666665  0.33333331  1
  Mg  Mg1  1  0.25000001  0.33333333  0.66666664  1
  Mg  Mg2  1  0.75000002  0.14137500  0.85862497  1
  In  In3  1  0.25000001  0.85862498  0.71724996  1
  In  In4  1  0.25000001  0.28274999  0.14137499  1
  In  In5  1  0.75000002  0.71724999  0.85862496  1
  In  In6  1  0.75000002  0.14137500  0.28274999  1
  In  In7  1  0.25000001  0.85862498  0.14137498  1
