# generated using pymatgen
data_Ba3TiTlCrO9
_symmetry_space_group_name_H-M   'P 1'
_cell_length_a   5.97325802
_cell_length_b   5.97325802
_cell_length_c   7.36804581
_cell_angle_alpha   90.00000000
_cell_angle_beta   90.00000000
_cell_angle_gamma   120.00000000
_symmetry_Int_Tables_number   1
_chemical_formula_structural   Ba3TiTlCrO9
_chemical_formula_sum   'Ba3 Ti1 Tl1 Cr1 O9'
_cell_volume   227.66983795
_cell_formula_units_Z   1
loop_
 _symmetry_equiv_pos_site_id
 _symmetry_equiv_pos_as_xyz
  1  'x, y, z'
loop_
 _atom_site_type_symbol
 _atom_site_label
 _atom_site_symmetry_multiplicity
 _atom_site_fract_x
 _atom_site_fract_y
 _atom_site_fract_z
 _atom_site_occupancy
  Ba  Ba0  1  0.33333332  0.66666664  0.66767702  1
  Ba  Ba1  1  0.66666666  0.33333332  0.33232301  1
  Ba  Ba2  1  0.00000000  0.00000000  0.00000000  1
  Tl  Tl3  1  0.00000000  0.00000000  0.50000001  1
  Ti  Ti4  1  0.33333332  0.66666664  0.16831100  1
  Cr  Cr5  1  0.66666666  0.33333332  0.83168902  1
  O  O6  1  0.82275199  0.64550398  0.68683002  1
  O  O7  1  0.17724799  0.35449599  0.31317001  1
  O  O8  1  0.50000000  0.00000000  -0.00000000  1
  O  O9  1  0.99999999  0.49999998  -0.00000000  1
  O  O10  1  0.35449600  0.17724799  0.68683002  1
  O  O11  1  0.64550398  0.82275197  0.31317001  1
  O  O12  1  0.82275199  0.17724799  0.68683002  1
  O  O13  1  0.17724799  0.82275197  0.31317001  1
  O  O14  1  0.49999999  0.49999998  -0.00000000  1
