# generated using pymatgen
data_Al3ZnSi2
_symmetry_space_group_name_H-M   'P 1'
_cell_length_a   3.55334997
_cell_length_b   4.74493504
_cell_length_c   8.76049709
_cell_angle_alpha   90.00000000
_cell_angle_beta   90.00000000
_cell_angle_gamma   90.00000000
_symmetry_Int_Tables_number   1
_chemical_formula_structural   Al3ZnSi2
_chemical_formula_sum   'Al3 Zn1 Si2'
_cell_volume   147.70561463
_cell_formula_units_Z   1
loop_
 _symmetry_equiv_pos_site_id
 _symmetry_equiv_pos_as_xyz
  1  'x, y, z'
loop_
 _atom_site_type_symbol
 _atom_site_label
 _atom_site_symmetry_multiplicity
 _atom_site_fract_x
 _atom_site_fract_y
 _atom_site_fract_z
 _atom_site_occupancy
  Al  Al0  1  0.50000000  0.00000000  0.88238199  1
  Zn  Zn1  1  -0.00000000  0.50000000  0.11761800  1
  Si  Si2  1  0.50000000  0.50000000  0.93532099  1
  Al  Al3  1  0.00000000  0.00000000  0.06467900  1
  Si  Si4  1  0.00000000  0.00000000  0.67732199  1
  Al  Al5  1  0.50000000  0.50000000  0.32267800  1
