# generated using pymatgen
data_La2SbPtO3
_symmetry_space_group_name_H-M   'P 1'
_cell_length_a   3.65755391
_cell_length_b   3.65755391
_cell_length_c   8.75740719
_cell_angle_alpha   102.05358124
_cell_angle_beta   102.05358124
_cell_angle_gamma   90.00000000
_symmetry_Int_Tables_number   1
_chemical_formula_structural   La2SbPtO3
_chemical_formula_sum   'La2 Sb1 Pt1 O3'
_cell_volume   111.92853438
_cell_formula_units_Z   1
loop_
 _symmetry_equiv_pos_site_id
 _symmetry_equiv_pos_as_xyz
  1  'x, y, z'
loop_
 _atom_site_type_symbol
 _atom_site_label
 _atom_site_symmetry_multiplicity
 _atom_site_fract_x
 _atom_site_fract_y
 _atom_site_fract_z
 _atom_site_occupancy
  La  La0  1  0.82817203  0.82817202  0.65634400  1
  La  La1  1  0.17182801  0.17182800  0.34365599  1
  Sb  Sb2  1  0.00000000  0.00000000  0.00000000  1
  Pt  Pt3  1  0.58325702  0.58325702  0.16651401  1
  O  O4  1  0.41674302  0.41674301  0.83348598  1
  O  O5  1  0.69581503  0.69581502  0.39163000  1
  O  O6  1  0.30418501  0.30418501  0.60836999  1
