# generated using pymatgen
data_Tm2Al
_symmetry_space_group_name_H-M   'P 1'
_cell_length_a   4.72003365
_cell_length_b   4.72003365
_cell_length_c   4.72003365
_cell_angle_alpha   95.05973053
_cell_angle_beta   117.12303925
_cell_angle_gamma   117.12303925
_symmetry_Int_Tables_number   1
_chemical_formula_structural   Tm2Al
_chemical_formula_sum   'Tm2 Al1'
_cell_volume   77.26412921
_cell_formula_units_Z   1
loop_
 _symmetry_equiv_pos_site_id
 _symmetry_equiv_pos_as_xyz
  1  'x, y, z'
loop_
 _atom_site_type_symbol
 _atom_site_label
 _atom_site_symmetry_multiplicity
 _atom_site_fract_x
 _atom_site_fract_y
 _atom_site_fract_z
 _atom_site_occupancy
  Tm  Tm0  1  0.49999987  0.74999992  0.24999990  1
  Tm  Tm1  1  0.49999993  0.24999997  0.74999992  1
  Al  Al2  1  0.00000000  0.00000000  0.00000000  1
