# generated using pymatgen
data_KLiBHOsN3
_symmetry_space_group_name_H-M   'P 1'
_cell_length_a   6.00001049
_cell_length_b   6.00001049
_cell_length_c   6.00001049
_cell_angle_alpha   60.00000000
_cell_angle_beta   60.00000000
_cell_angle_gamma   60.00000000
_symmetry_Int_Tables_number   1
_chemical_formula_structural   KLiBHOsN3
_chemical_formula_sum   'K1 Li1 B1 Os1 H1 N3'
_cell_volume   152.73586586
_cell_formula_units_Z   1
loop_
 _symmetry_equiv_pos_site_id
 _symmetry_equiv_pos_as_xyz
  1  'x, y, z'
loop_
 _atom_site_type_symbol
 _atom_site_label
 _atom_site_symmetry_multiplicity
 _atom_site_fract_x
 _atom_site_fract_y
 _atom_site_fract_z
 _atom_site_occupancy
  K  K0  1  0.49999999  0.49999999  0.49999999  1
  Li  Li1  1  0.00000000  0.00000000  0.00000000  1
  B  B2  1  0.22706499  0.77293498  0.77293498  1
  Os  Os3  1  0.77293498  0.22706499  0.77293498  1
  N  N4  1  0.22706499  0.77293498  0.22706499  1
  N  N5  1  0.77293498  0.77293498  0.22706499  1
  H  H6  1  0.22706499  0.22706499  0.77293498  1
  N  N7  1  0.77293498  0.22706499  0.22706499  1
