# generated using pymatgen
data_HoCd3
_symmetry_space_group_name_H-M   'P 1'
_cell_length_a   5.17743206
_cell_length_b   6.60227394
_cell_length_c   6.60227489
_cell_angle_alpha   60.00000381
_cell_angle_beta   90.00000000
_cell_angle_gamma   90.00000000
_symmetry_Int_Tables_number   1
_chemical_formula_structural   HoCd3
_chemical_formula_sum   'Ho2 Cd6'
_cell_volume   195.44843620
_cell_formula_units_Z   2
loop_
 _symmetry_equiv_pos_site_id
 _symmetry_equiv_pos_as_xyz
  1  'x, y, z'
loop_
 _atom_site_type_symbol
 _atom_site_label
 _atom_site_symmetry_multiplicity
 _atom_site_fract_x
 _atom_site_fract_y
 _atom_site_fract_z
 _atom_site_occupancy
  Ho  Ho0  1  0.25000000  0.33333334  0.33333333  1
  Ho  Ho1  1  0.74999999  0.66666668  0.66666666  1
  Cd  Cd2  1  0.74999999  0.67336201  0.16331899  1
  Cd  Cd3  1  0.74999999  0.16331900  0.16331900  1
  Cd  Cd4  1  0.74999999  0.16331900  0.67336199  1
  Cd  Cd5  1  0.25000000  0.32663800  0.83668099  1
  Cd  Cd6  1  0.25000000  0.83668101  0.83668099  1
  Cd  Cd7  1  0.25000000  0.83668101  0.32663799  1
