# generated using pymatgen
data_Ti2Cr2O5
_symmetry_space_group_name_H-M   'P 1'
_cell_length_a   3.76698804
_cell_length_b   5.34244442
_cell_length_c   6.53019428
_cell_angle_alpha   70.39692688
_cell_angle_beta   73.23610687
_cell_angle_gamma   69.35646057
_symmetry_Int_Tables_number   1
_chemical_formula_structural   Ti2Cr2O5
_chemical_formula_sum   'Ti2 Cr2 O5'
_cell_volume   113.67502994
_cell_formula_units_Z   1
loop_
 _symmetry_equiv_pos_site_id
 _symmetry_equiv_pos_as_xyz
  1  'x, y, z'
loop_
 _atom_site_type_symbol
 _atom_site_label
 _atom_site_symmetry_multiplicity
 _atom_site_fract_x
 _atom_site_fract_y
 _atom_site_fract_z
 _atom_site_occupancy
  Ti  Ti0  1  0.00000000  0.00000000  0.00000000  1
  Ti  Ti1  1  0.17634800  0.25713999  0.39016399  1
  Cr  Cr2  1  0.82365198  0.74285998  0.60983598  1
  Cr  Cr3  1  0.72020998  0.15594700  0.40363300  1
  O  O4  1  0.27978999  0.84405298  0.59636697  1
  O  O5  1  0.35294299  0.19336099  0.10075300  1
  O  O6  1  0.97534098  0.35027999  0.69903799  1
  O  O7  1  0.02465900  0.64971998  0.30096197  1
  O  O8  1  0.64705698  0.80663898  0.89924697  1
