# generated using pymatgen
data_Ti5(CuS4)3
_symmetry_space_group_name_H-M   'P 1'
_cell_length_a   5.93561220
_cell_length_b   5.93561220
_cell_length_c   11.59406853
_cell_angle_alpha   90.00000000
_cell_angle_beta   90.00000000
_cell_angle_gamma   120.00000000
_symmetry_Int_Tables_number   1
_chemical_formula_structural   Ti5(CuS4)3
_chemical_formula_sum   'Ti5 Cu3 S12'
_cell_volume   353.75088294
_cell_formula_units_Z   1
loop_
 _symmetry_equiv_pos_site_id
 _symmetry_equiv_pos_as_xyz
  1  'x, y, z'
loop_
 _atom_site_type_symbol
 _atom_site_label
 _atom_site_symmetry_multiplicity
 _atom_site_fract_x
 _atom_site_fract_y
 _atom_site_fract_z
 _atom_site_occupancy
  Ti  Ti0  1  0.33333334  0.66666667  0.50089402  1
  Ti  Ti1  1  0.33333334  0.66666667  0.99910604  1
  Ti  Ti2  1  0.66666665  0.33333334  0.49910602  1
  Ti  Ti3  1  0.66666665  0.33333334  0.00089400  1
  Cu  Cu4  1  0.33333334  0.66666667  0.25000001  1
  Ti  Ti5  1  0.66666665  0.33333334  0.75000003  1
  Cu  Cu6  1  0.00000000  0.00000000  0.50000002  1
  Cu  Cu7  1  0.00000000  0.00000000  0.00000000  1
  S  S8  1  0.33177101  0.99787601  0.37554502  1
  S  S9  1  0.66610499  0.66822901  0.37554502  1
  S  S10  1  0.00212401  0.33389500  0.37554502  1
  S  S11  1  0.66610500  0.99787601  0.12445501  1
  S  S12  1  0.00212401  0.66822901  0.12445501  1
  S  S13  1  0.33177100  0.33389500  0.12445501  1
  S  S14  1  0.66822898  0.00212400  0.62445503  1
  S  S15  1  0.33389500  0.33177100  0.62445503  1
  S  S16  1  0.66822899  0.66610501  0.87554504  1
  S  S17  1  0.99787597  0.33177100  0.87554504  1
  S  S18  1  0.33389499  0.00212400  0.87554504  1
  S  S19  1  0.99787598  0.66610501  0.62445503  1
