# generated using pymatgen
data_LiTi3Cr4O12
_symmetry_space_group_name_H-M   'P 1'
_cell_length_a   6.42423058
_cell_length_b   6.44647408
_cell_length_c   6.44639492
_cell_angle_alpha   109.54899597
_cell_angle_beta   109.39821625
_cell_angle_gamma   109.39686584
_symmetry_Int_Tables_number   1
_chemical_formula_structural   LiTi3Cr4O12
_chemical_formula_sum   'Li1 Ti3 Cr4 O12'
_cell_volume   205.68850067
_cell_formula_units_Z   1
loop_
 _symmetry_equiv_pos_site_id
 _symmetry_equiv_pos_as_xyz
  1  'x, y, z'
loop_
 _atom_site_type_symbol
 _atom_site_label
 _atom_site_symmetry_multiplicity
 _atom_site_fract_x
 _atom_site_fract_y
 _atom_site_fract_z
 _atom_site_occupancy
  Li  Li0  1  0.99999688  0.99999894  0.99999790  1
  Ti  Ti1  1  0.00000100  0.00000100  0.50000101  1
  Cr  Cr2  1  -0.00000006  0.49999897  0.00000095  1
  Ti  Ti3  1  0.49999894  0.49999797  0.49999795  1
  Cr  Cr4  1  0.49999688  0.99999594  0.99999491  1
  Cr  Cr5  1  0.50000094  0.50000097  -0.00000006  1
  Cr  Cr6  1  0.99999694  0.49999997  0.50000094  1
  Ti  Ti7  1  0.50000100  0.00000200  0.49999900  1
  O  O8  1  0.83326696  0.31374798  0.14383896  1
  O  O9  1  0.16672992  0.68625396  0.85616194  1
  O  O10  1  0.83033392  0.68676796  0.51866293  1
  O  O11  1  0.31162994  0.48131297  0.16811295  1
  O  O12  1  0.48054698  0.16991899  0.31380198  1
  O  O13  1  0.14360290  0.83195195  0.31327792  1
  O  O14  1  0.68936090  0.85618195  0.16991391  1
  O  O15  1  0.51945590  0.83008095  0.68619892  1
  O  O16  1  0.16966396  0.31323398  0.48133597  1
  O  O17  1  0.68837094  0.51868897  0.83188595  1
  O  O18  1  0.85640098  0.16804799  0.68672698  1
  O  O19  1  0.31063798  0.14381699  0.83008599  1
