# generated using pymatgen
data_LaNi4
_symmetry_space_group_name_H-M   'P 1'
_cell_length_a   5.75780582
_cell_length_b   6.18380785
_cell_length_c   6.18380737
_cell_angle_alpha   120.00000000
_cell_angle_beta   90.00000000
_cell_angle_gamma   90.00000000
_symmetry_Int_Tables_number   1
_chemical_formula_structural   LaNi4
_chemical_formula_sum   'La2 Ni8'
_cell_volume   190.67755979
_cell_formula_units_Z   2
loop_
 _symmetry_equiv_pos_site_id
 _symmetry_equiv_pos_as_xyz
  1  'x, y, z'
loop_
 _atom_site_type_symbol
 _atom_site_label
 _atom_site_symmetry_multiplicity
 _atom_site_fract_x
 _atom_site_fract_y
 _atom_site_fract_z
 _atom_site_occupancy
  La  La0  1  0.75000002  0.33333333  0.66666663  1
  La  La1  1  0.25000001  0.66666666  0.33333328  1
  Ni  Ni2  1  0.50000002  0.00000000  -0.00000000  1
  Ni  Ni3  1  0.00000000  0.00000000  0.00000000  1
  Ni  Ni4  1  0.75000002  0.80801099  0.61602193  1
  Ni  Ni5  1  0.25000001  0.19198900  0.80800997  1
  Ni  Ni6  1  0.75000002  0.80801099  0.19198994  1
  Ni  Ni7  1  0.25000001  0.19198900  0.38397798  1
  Ni  Ni8  1  0.25000001  0.61602099  0.80800994  1
  Ni  Ni9  1  0.75000002  0.38397899  0.19198997  1
