# generated using pymatgen
data_Zr4Ni5Sn
_symmetry_space_group_name_H-M   'P 1'
_cell_length_a   3.30239391
_cell_length_b   7.22298813
_cell_length_c   7.22298813
_cell_angle_alpha   90.00000000
_cell_angle_beta   90.00000000
_cell_angle_gamma   90.00000000
_symmetry_Int_Tables_number   1
_chemical_formula_structural   Zr4Ni5Sn
_chemical_formula_sum   'Zr4 Ni5 Sn1'
_cell_volume   172.29103396
_cell_formula_units_Z   1
loop_
 _symmetry_equiv_pos_site_id
 _symmetry_equiv_pos_as_xyz
  1  'x, y, z'
loop_
 _atom_site_type_symbol
 _atom_site_label
 _atom_site_symmetry_multiplicity
 _atom_site_fract_x
 _atom_site_fract_y
 _atom_site_fract_z
 _atom_site_occupancy
  Zr  Zr0  1  0.50000001  0.66881399  0.16881400  1
  Zr  Zr1  1  0.50000001  0.16881400  0.33118599  1
  Zr  Zr2  1  0.50000001  0.83118599  0.66881399  1
  Zr  Zr3  1  0.50000001  0.33118599  0.83118599  1
  Ni  Ni4  1  0.00000000  0.00000000  0.00000000  1
  Ni  Ni5  1  0.00000000  0.49999999  0.49999999  1
  Ni  Ni6  1  0.00000000  0.37387899  0.12612100  1
  Ni  Ni7  1  1.00000003  0.12612100  0.62612099  1
  Sn  Sn8  1  0.00000000  0.62612099  0.87387898  1
  Ni  Ni9  1  0.00000000  0.87387898  0.37387899  1
