# generated using pymatgen
data_Dy2Ag3Ge
_symmetry_space_group_name_H-M   'P 1'
_cell_length_a   4.09493685
_cell_length_b   4.26044178
_cell_length_c   8.39192200
_cell_angle_alpha   104.70497131
_cell_angle_beta   90.00000000
_cell_angle_gamma   90.00000000
_symmetry_Int_Tables_number   1
_chemical_formula_structural   Dy2Ag3Ge
_chemical_formula_sum   'Dy2 Ag3 Ge1'
_cell_volume   141.61201542
_cell_formula_units_Z   1
loop_
 _symmetry_equiv_pos_site_id
 _symmetry_equiv_pos_as_xyz
  1  'x, y, z'
loop_
 _atom_site_type_symbol
 _atom_site_label
 _atom_site_symmetry_multiplicity
 _atom_site_fract_x
 _atom_site_fract_y
 _atom_site_fract_z
 _atom_site_occupancy
  Dy  Dy0  1  0.25000001  0.09388701  0.18777401  1
  Dy  Dy1  1  0.75000003  0.90611305  0.81222603  1
  Ag  Ag2  1  0.25000001  0.74399404  0.48798802  1
  Ag  Ag3  1  0.75000003  0.25600601  0.51201202  1
  Ag  Ag4  1  0.25000001  0.44510703  0.89021403  1
  Ge  Ge5  1  0.75000003  0.55489303  0.10978601  1
