# generated using pymatgen
data_Li2Cd2AgSn
_symmetry_space_group_name_H-M   'P 1'
_cell_length_a   4.89651585
_cell_length_b   4.89651489
_cell_length_c   5.72146416
_cell_angle_alpha   90.00000000
_cell_angle_beta   90.00000000
_cell_angle_gamma   120.00000763
_symmetry_Int_Tables_number   1
_chemical_formula_structural   Li2Cd2AgSn
_chemical_formula_sum   'Li2 Cd2 Ag1 Sn1'
_cell_volume   118.79879183
_cell_formula_units_Z   1
loop_
 _symmetry_equiv_pos_site_id
 _symmetry_equiv_pos_as_xyz
  1  'x, y, z'
loop_
 _atom_site_type_symbol
 _atom_site_label
 _atom_site_symmetry_multiplicity
 _atom_site_fract_x
 _atom_site_fract_y
 _atom_site_fract_z
 _atom_site_occupancy
  Li  Li0  1  0.00000000  0.00000000  0.00000000  1
  Li  Li1  1  0.00000000  0.00000000  0.49999999  1
  Cd  Cd2  1  0.33333335  0.66666667  0.74999998  1
  Cd  Cd3  1  0.66666669  0.33333334  0.24999999  1
  Ag  Ag4  1  0.66666669  0.33333334  0.74999998  1
  Sn  Sn5  1  0.33333335  0.66666667  0.24999999  1
