# generated using pymatgen
data_Li5TiVO11
_symmetry_space_group_name_H-M   'P 1'
_cell_length_a   4.76317310
_cell_length_b   4.76624680
_cell_length_c   9.23102760
_cell_angle_alpha   90.00000000
_cell_angle_beta   89.95201111
_cell_angle_gamma   90.00000000
_symmetry_Int_Tables_number   1
_chemical_formula_structural   Li5TiVO11
_chemical_formula_sum   'Li5 Ti1 V1 O11'
_cell_volume   209.56694794
_cell_formula_units_Z   1
loop_
 _symmetry_equiv_pos_site_id
 _symmetry_equiv_pos_as_xyz
  1  'x, y, z'
loop_
 _atom_site_type_symbol
 _atom_site_label
 _atom_site_symmetry_multiplicity
 _atom_site_fract_x
 _atom_site_fract_y
 _atom_site_fract_z
 _atom_site_occupancy
  Li  Li0  1  0.71279498  0.03765700  0.41661296  1
  Li  Li1  1  0.77896798  0.97338504  0.74933695  1
  Li  Li2  1  0.79736498  0.99340004  0.08416097  1
  Li  Li3  1  0.22103200  0.47338502  0.25066298  1
  Ti  Ti4  1  0.28720499  0.53765702  0.58338697  1
  Li  Li5  1  0.20263500  0.49340002  0.91583896  1
  V  V6  1  0.94475398  0.17708801  0.91341593  1
  O  O7  1  0.93184398  0.18821401  0.25391596  1
  O  O8  1  0.05524600  0.67708803  0.08658399  1
  O  O9  1  0.06815600  0.68821403  0.74608397  1
  O  O10  1  0.42938999  0.32644001  0.41729797  1
  O  O11  1  0.57060999  0.82644004  0.58270196  1
  O  O12  1  0.95012298  0.21054301  0.58299895  1
  O  O13  1  0.04987700  0.71054303  0.41700098  1
  O  O14  1  0.44284199  0.28838101  0.08135698  1
  O  O15  1  0.45676999  0.30489001  0.75134596  1
  O  O16  1  0.54322999  0.80489003  0.24865397  1
  O  O17  1  0.55715799  0.78838103  0.91864295  1
