# generated using pymatgen
data_EuP3
_symmetry_space_group_name_H-M   'P 1'
_cell_length_a   5.55503607
_cell_length_b   6.96498919
_cell_length_c   7.36034012
_cell_angle_alpha   90.00000000
_cell_angle_beta   90.00000000
_cell_angle_gamma   90.00000000
_symmetry_Int_Tables_number   1
_chemical_formula_structural   EuP3
_chemical_formula_sum   'Eu4 P12'
_cell_volume   284.77719821
_cell_formula_units_Z   4
loop_
 _symmetry_equiv_pos_site_id
 _symmetry_equiv_pos_as_xyz
  1  'x, y, z'
loop_
 _atom_site_type_symbol
 _atom_site_label
 _atom_site_symmetry_multiplicity
 _atom_site_fract_x
 _atom_site_fract_y
 _atom_site_fract_z
 _atom_site_occupancy
  Eu  Eu0  1  0.36228000  0.74999998  0.02778000  1
  Eu  Eu1  1  0.13772000  0.74999998  0.52777999  1
  Eu  Eu2  1  0.63771999  0.24999999  0.97221998  1
  Eu  Eu3  1  0.86227999  0.24999999  0.47221999  1
  P  P4  1  0.63877899  0.74999998  0.38032799  1
  P  P5  1  0.86122099  0.74999998  0.88032799  1
  P  P6  1  0.36122100  0.24999999  0.61967199  1
  P  P7  1  0.13877900  0.24999999  0.11967200  1
  P  P8  1  0.90809799  0.55058799  0.18115900  1
  P  P9  1  0.59190199  0.94941197  0.68115899  1
  P  P10  1  0.09190200  0.05058800  0.81884099  1
  P  P11  1  0.40809800  0.44941199  0.31884099  1
  P  P12  1  0.09190200  0.44941199  0.81884099  1
  P  P13  1  0.40809800  0.05058800  0.31884099  1
  P  P14  1  0.90809799  0.94941197  0.18115900  1
  P  P15  1  0.59190199  0.55058799  0.68115899  1
