# generated using pymatgen
data_TiGa3
_symmetry_space_group_name_H-M   'P 1'
_cell_length_a   3.93681002
_cell_length_b   3.93681002
_cell_length_c   7.82640314
_cell_angle_alpha   90.00000000
_cell_angle_beta   90.00000000
_cell_angle_gamma   90.00000000
_symmetry_Int_Tables_number   1
_chemical_formula_structural   TiGa3
_chemical_formula_sum   'Ti2 Ga6'
_cell_volume   121.29729861
_cell_formula_units_Z   2
loop_
 _symmetry_equiv_pos_site_id
 _symmetry_equiv_pos_as_xyz
  1  'x, y, z'
loop_
 _atom_site_type_symbol
 _atom_site_label
 _atom_site_symmetry_multiplicity
 _atom_site_fract_x
 _atom_site_fract_y
 _atom_site_fract_z
 _atom_site_occupancy
  Ti  Ti0  1  0.00000000  0.00000000  0.49999999  1
  Ti  Ti1  1  0.00000000  0.00000000  0.00000000  1
  Ga  Ga2  1  0.50000000  0.50000000  0.00000000  1
  Ga  Ga3  1  0.50000000  0.50000000  0.49999999  1
  Ga  Ga4  1  0.50000000  0.00000000  0.24819100  1
  Ga  Ga5  1  0.50000000  0.00000000  0.75180899  1
  Ga  Ga6  1  0.00000000  0.50000000  0.24819100  1
  Ga  Ga7  1  0.00000000  0.50000000  0.75180899  1
