# generated using pymatgen
data_La4Ge7
_symmetry_space_group_name_H-M   'P 1'
_cell_length_a   4.57171583
_cell_length_b   7.39997816
_cell_length_c   8.79485703
_cell_angle_alpha   114.87873840
_cell_angle_beta   105.06462860
_cell_angle_gamma   90.00000000
_symmetry_Int_Tables_number   1
_chemical_formula_structural   La4Ge7
_chemical_formula_sum   'La4 Ge7'
_cell_volume   258.60929386
_cell_formula_units_Z   1
loop_
 _symmetry_equiv_pos_site_id
 _symmetry_equiv_pos_as_xyz
  1  'x, y, z'
loop_
 _atom_site_type_symbol
 _atom_site_label
 _atom_site_symmetry_multiplicity
 _atom_site_fract_x
 _atom_site_fract_y
 _atom_site_fract_z
 _atom_site_occupancy
  La  La0  1  0.12659199  0.62659200  0.25318404  1
  La  La1  1  0.00000000  0.00000000  0.00000000  1
  La  La2  1  0.87340801  0.37340800  0.74681602  1
  La  La3  1  0.32807201  0.02632500  0.65614402  1
  Ge  Ge4  1  0.67192800  0.97367500  0.34385604  1
  Ge  Ge5  1  0.32807200  0.62981900  0.65614405  1
  Ge  Ge6  1  0.67192801  0.37018100  0.34385601  1
  Ge  Ge7  1  0.50000001  0.30277200  -0.00000000  1
  Ge  Ge8  1  0.50000000  0.69722800  0.00000002  1
  Ge  Ge9  1  0.78485401  0.78485400  0.56970804  1
  Ge  Ge10  1  0.21514600  0.21514600  0.43029202  1
