# generated using pymatgen
data_NaTiO2
_symmetry_space_group_name_H-M   'P 1'
_cell_length_a   3.18713498
_cell_length_b   5.41577816
_cell_length_c   10.59157944
_cell_angle_alpha   90.00000000
_cell_angle_beta   90.00000000
_cell_angle_gamma   90.00000000
_symmetry_Int_Tables_number   1
_chemical_formula_structural   NaTiO2
_chemical_formula_sum   'Na4 Ti4 O8'
_cell_volume   182.81930407
_cell_formula_units_Z   4
loop_
 _symmetry_equiv_pos_site_id
 _symmetry_equiv_pos_as_xyz
  1  'x, y, z'
loop_
 _atom_site_type_symbol
 _atom_site_label
 _atom_site_symmetry_multiplicity
 _atom_site_fract_x
 _atom_site_fract_y
 _atom_site_fract_z
 _atom_site_occupancy
  Na  Na0  1  0.25000000  0.58266398  0.85855796  1
  Na  Na1  1  0.75000000  0.41733599  0.14144199  1
  Na  Na2  1  0.75000000  0.91733597  0.35855799  1
  Na  Na3  1  0.25000000  0.08266400  0.64144197  1
  Ti  Ti4  1  0.25000000  0.91843797  0.09739700  1
  Ti  Ti5  1  0.75000000  0.08156200  0.90260296  1
  Ti  Ti6  1  0.75000000  0.58156198  0.59739698  1
  Ti  Ti7  1  0.25000000  0.41843799  0.40260298  1
  O  O8  1  0.25000000  0.66092798  0.24665699  1
  O  O9  1  0.75000000  0.33907199  0.75334297  1
  O  O10  1  0.75000000  0.83907198  0.74665697  1
  O  O11  1  0.25000000  0.16092800  0.25334299  1
  O  O12  1  0.25000000  0.72142698  0.51169298  1
  O  O13  1  0.75000000  0.27857299  0.48830698  1
  O  O14  1  0.75000000  0.77857298  0.01169300  1
  O  O15  1  0.25000000  0.22142699  0.98830696  1
