# generated using pymatgen
data_Li4HfNbO6
_symmetry_space_group_name_H-M   'P 1'
_cell_length_a   5.53121567
_cell_length_b   5.53121567
_cell_length_c   5.66549301
_cell_angle_alpha   100.46617889
_cell_angle_beta   100.46617889
_cell_angle_gamma   119.29266357
_symmetry_Int_Tables_number   1
_chemical_formula_structural   Li4HfNbO6
_chemical_formula_sum   'Li4 Hf1 Nb1 O6'
_cell_volume   141.06359694
_cell_formula_units_Z   1
loop_
 _symmetry_equiv_pos_site_id
 _symmetry_equiv_pos_as_xyz
  1  'x, y, z'
loop_
 _atom_site_type_symbol
 _atom_site_label
 _atom_site_symmetry_multiplicity
 _atom_site_fract_x
 _atom_site_fract_y
 _atom_site_fract_z
 _atom_site_occupancy
  Li  Li0  1  0.25672091  0.74519994  0.49430792  1
  Li  Li1  1  0.56504294  0.41257797  0.49619194  1
  Li  Li2  1  0.41257793  0.56504295  0.99619194  1
  Li  Li3  1  0.74519996  0.25672098  0.99430795  1
  Hf  Hf4  1  0.90030098  0.08110699  0.48948695  1
  Nb  Nb5  1  0.08110689  0.90030093  0.98948693  1
  O  O6  1  0.31217298  0.15524799  0.74063498  1
  O  O7  1  0.15524796  0.31217297  0.24063497  1
  O  O8  1  0.98930093  0.48863896  0.74256291  1
  O  O9  1  0.66908789  0.82219993  0.73461490  1
  O  O10  1  0.48863887  0.98930092  0.24256288  1
  O  O11  1  0.82219991  0.66908795  0.23461489  1
