# generated using pymatgen
data_Li2O2
_symmetry_space_group_name_H-M   'P 1'
_cell_length_a   5.02675676
_cell_length_b   5.81428242
_cell_length_c   6.53508425
_cell_angle_alpha   103.59336853
_cell_angle_beta   97.58287048
_cell_angle_gamma   107.32698059
_symmetry_Int_Tables_number   1
_chemical_formula_structural   Li2O2
_chemical_formula_sum   'Li10 O10'
_cell_volume   172.97697869
_cell_formula_units_Z   5
loop_
 _symmetry_equiv_pos_site_id
 _symmetry_equiv_pos_as_xyz
  1  'x, y, z'
loop_
 _atom_site_type_symbol
 _atom_site_label
 _atom_site_symmetry_multiplicity
 _atom_site_fract_x
 _atom_site_fract_y
 _atom_site_fract_z
 _atom_site_occupancy
  Li  Li0  1  0.50000007  0.50000000  0.00000002  1
  Li  Li1  1  0.10763306  0.70190800  0.19409803  1
  Li  Li2  1  0.89236707  0.29809200  0.80590199  1
  Li  Li3  1  0.29956702  0.09781000  0.60256698  1
  Li  Li4  1  0.70043311  0.90219000  0.39743303  1
  Li  Li5  1  0.50000002  0.00000000  -0.00000000  1
  Li  Li6  1  0.90594511  0.80469800  0.80515901  1
  Li  Li7  1  0.09405502  0.19530200  0.19484100  1
  Li  Li8  1  0.69656907  0.39204600  0.39431800  1
  Li  Li9  1  0.30343107  0.60795400  0.60568201  1
  O  O10  1  0.83096811  0.87129700  0.09218804  1
  O  O11  1  0.39027902  0.07497500  0.29987299  1
  O  O12  1  0.17469906  0.65733900  0.88083100  1
  O  O13  1  0.61796907  0.47577200  0.70441300  1
  O  O14  1  0.01086702  0.25635300  0.47978500  1
  O  O15  1  0.16903202  0.12870300  0.90781198  1
  O  O16  1  0.82530107  0.34266100  0.11916901  1
  O  O17  1  0.60972111  0.92502500  0.70012702  1
  O  O18  1  0.98913311  0.74364700  0.52021502  1
  O  O19  1  0.38203106  0.52422800  0.29558701  1
