# generated using pymatgen
data_YbB3OsC
_symmetry_space_group_name_H-M   'P 1'
_cell_length_a   3.80662799
_cell_length_b   3.80662799
_cell_length_c   5.83227491
_cell_angle_alpha   109.04687500
_cell_angle_beta   109.04687500
_cell_angle_gamma   90.00000000
_symmetry_Int_Tables_number   1
_chemical_formula_structural   YbB3OsC
_chemical_formula_sum   'Yb1 B3 Os1 C1'
_cell_volume   74.97334156
_cell_formula_units_Z   1
loop_
 _symmetry_equiv_pos_site_id
 _symmetry_equiv_pos_as_xyz
  1  'x, y, z'
loop_
 _atom_site_type_symbol
 _atom_site_label
 _atom_site_symmetry_multiplicity
 _atom_site_fract_x
 _atom_site_fract_y
 _atom_site_fract_z
 _atom_site_occupancy
  Yb  Yb0  1  0.00000000  0.00000000  0.00000000  1
  B  B1  1  0.35536700  0.35536700  0.71073402  1
  B  B2  1  0.64463300  0.64463300  0.28926600  1
  B  B3  1  0.25000000  0.75000000  0.50000001  1
  Os  Os4  1  0.75000000  0.25000000  0.50000001  1
  C  C5  1  0.50000000  0.50000000  -0.00000001  1
