# generated using pymatgen
data_HoIn7
_symmetry_space_group_name_H-M   'P 1'
_cell_length_a   5.47131681
_cell_length_b   6.86429405
_cell_length_c   6.86429405
_cell_angle_alpha   60.00000000
_cell_angle_beta   90.00000000
_cell_angle_gamma   90.00000000
_symmetry_Int_Tables_number   1
_chemical_formula_structural   HoIn7
_chemical_formula_sum   'Ho1 In7'
_cell_volume   223.26171366
_cell_formula_units_Z   1
loop_
 _symmetry_equiv_pos_site_id
 _symmetry_equiv_pos_as_xyz
  1  'x, y, z'
loop_
 _atom_site_type_symbol
 _atom_site_label
 _atom_site_symmetry_multiplicity
 _atom_site_fract_x
 _atom_site_fract_y
 _atom_site_fract_z
 _atom_site_occupancy
  Ho  Ho0  1  0.75000003  0.66328699  0.16835700  1
  In  In1  1  0.75000003  0.16835600  0.66328800  1
  In  In2  1  0.75000003  0.16835600  0.16835700  1
  In  In3  1  0.25000001  0.83164399  0.83164299  1
  In  In4  1  0.25000001  0.83164399  0.33671200  1
  In  In5  1  0.25000001  0.33671300  0.83164299  1
  In  In6  1  0.75000003  0.66666666  0.66666666  1
  In  In7  1  0.25000001  0.33333333  0.33333333  1
