# generated using pymatgen
data_EuSn2
_symmetry_space_group_name_H-M   'P 1'
_cell_length_a   5.20815182
_cell_length_b   6.66495180
_cell_length_c   9.65379906
_cell_angle_alpha   90.00000000
_cell_angle_beta   90.00000000
_cell_angle_gamma   90.00000000
_symmetry_Int_Tables_number   1
_chemical_formula_structural   EuSn2
_chemical_formula_sum   'Eu4 Sn8'
_cell_volume   335.10345324
_cell_formula_units_Z   4
loop_
 _symmetry_equiv_pos_site_id
 _symmetry_equiv_pos_as_xyz
  1  'x, y, z'
loop_
 _atom_site_type_symbol
 _atom_site_label
 _atom_site_symmetry_multiplicity
 _atom_site_fract_x
 _atom_site_fract_y
 _atom_site_fract_z
 _atom_site_occupancy
  Eu  Eu0  1  0.25000001  0.19208701  0.92517399  1
  Eu  Eu1  1  0.25000001  0.69208702  0.57482600  1
  Eu  Eu2  1  0.75000003  0.80791302  0.07482600  1
  Eu  Eu3  1  0.75000003  0.30791301  0.42517400  1
  Sn  Sn4  1  0.25000001  0.02557600  0.29274000  1
  Sn  Sn5  1  0.25000001  0.52557602  0.20726000  1
  Sn  Sn6  1  0.75000003  0.97442403  0.70726000  1
  Sn  Sn7  1  0.75000003  0.47442401  0.79274000  1
  Sn  Sn8  1  0.25000001  0.21007401  0.60166000  1
  Sn  Sn9  1  0.25000001  0.71007402  0.89833999  1
  Sn  Sn10  1  0.75000003  0.78992602  0.39834000  1
  Sn  Sn11  1  0.75000003  0.28992601  0.10166000  1
