# generated using pymatgen
data_Na2Be(MoAs2)2
_symmetry_space_group_name_H-M   'P 1'
_cell_length_a   3.90857506
_cell_length_b   7.36330605
_cell_length_c   7.36330700
_cell_angle_alpha   120.00000000
_cell_angle_beta   90.00000000
_cell_angle_gamma   90.00000000
_symmetry_Int_Tables_number   1
_chemical_formula_structural   Na2Be(MoAs2)2
_chemical_formula_sum   'Na2 Be1 Mo2 As4'
_cell_volume   183.52483726
_cell_formula_units_Z   1
loop_
 _symmetry_equiv_pos_site_id
 _symmetry_equiv_pos_as_xyz
  1  'x, y, z'
loop_
 _atom_site_type_symbol
 _atom_site_label
 _atom_site_symmetry_multiplicity
 _atom_site_fract_x
 _atom_site_fract_y
 _atom_site_fract_z
 _atom_site_occupancy
  Na  Na0  1  0.49999999  0.66666669  0.33333337  1
  Na  Na1  1  0.49999999  0.33333334  0.66666668  1
  Be  Be2  1  0.00000000  0.00000000  0.00000000  1
  As  As3  1  0.49999999  0.78779602  0.78779604  1
  As  As4  1  0.49999999  0.00000000  0.21220399  1
  As  As5  1  0.49999999  0.21220401  0.00000002  1
  As  As6  1  0.99999999  0.32521401  0.32521402  1
  Mo  Mo7  1  0.00000000  0.00000000  0.67478598  1
  Mo  Mo8  1  0.99999999  0.67478602  0.00000005  1
