# generated using pymatgen
data_Pr8Fe5SbRu6
_symmetry_space_group_name_H-M   'P 1'
_cell_length_a   8.38180828
_cell_length_b   8.38180828
_cell_length_c   8.38180828
_cell_angle_alpha   109.47122192
_cell_angle_beta   109.47122192
_cell_angle_gamma   109.47122192
_symmetry_Int_Tables_number   1
_chemical_formula_structural   Pr8Fe5SbRu6
_chemical_formula_sum   'Pr8 Fe5 Sb1 Ru6'
_cell_volume   453.30578053
_cell_formula_units_Z   1
loop_
 _symmetry_equiv_pos_site_id
 _symmetry_equiv_pos_as_xyz
  1  'x, y, z'
loop_
 _atom_site_type_symbol
 _atom_site_label
 _atom_site_symmetry_multiplicity
 _atom_site_fract_x
 _atom_site_fract_y
 _atom_site_fract_z
 _atom_site_occupancy
  Pr  Pr0  1  0.21032199  0.00000000  0.00000001  1
  Pr  Pr1  1  0.25000004  0.80684399  0.55684402  1
  Pr  Pr2  1  0.44315603  0.74999999  0.19315604  1
  Pr  Pr3  1  0.69315600  0.44315599  0.25000003  1
  Pr  Pr4  1  0.00000003  0.49999999  0.71032199  1
  Pr  Pr5  1  0.49999999  0.21032200  0.50000000  1
  Pr  Pr6  1  0.28967800  0.28967800  0.78967798  1
  Pr  Pr7  1  0.05684401  0.25000000  0.30684400  1
  Fe  Fe8  1  0.80684397  0.05684400  0.74999998  1
  Fe  Fe9  1  0.75000001  0.69315599  0.94315600  1
  Sb  Sb10  1  0.59671397  0.00000000  0.00000001  1
  Fe  Fe11  1  0.00000003  0.49999999  0.09671402  1
  Fe  Fe12  1  0.50000001  0.59671399  0.50000002  1
  Fe  Fe13  1  0.90328602  0.90328599  0.40328605  1
  Ru  Ru14  1  0.25000001  0.37392099  0.12392102  1
  Ru  Ru15  1  0.87607901  0.74999999  0.62607903  1
  Ru  Ru16  1  0.12607905  0.87607899  0.25000004  1
  Ru  Ru17  1  0.62392099  0.25000000  0.87392098  1
  Ru  Ru18  1  0.37392102  0.62392099  0.75000000  1
  Ru  Ru19  1  0.74999997  0.12607900  0.37607900  1
