# generated using pymatgen
data_CeSi2
_symmetry_space_group_name_H-M   'P 1'
_cell_length_a   3.83677411
_cell_length_b   4.29710817
_cell_length_c   7.58539820
_cell_angle_alpha   90.00000000
_cell_angle_beta   90.00000000
_cell_angle_gamma   90.00000000
_symmetry_Int_Tables_number   1
_chemical_formula_structural   CeSi2
_chemical_formula_sum   'Ce2 Si4'
_cell_volume   125.06071336
_cell_formula_units_Z   2
loop_
 _symmetry_equiv_pos_site_id
 _symmetry_equiv_pos_as_xyz
  1  'x, y, z'
loop_
 _atom_site_type_symbol
 _atom_site_label
 _atom_site_symmetry_multiplicity
 _atom_site_fract_x
 _atom_site_fract_y
 _atom_site_fract_z
 _atom_site_occupancy
  Ce  Ce0  1  0.00000000  0.49999998  0.02205400  1
  Ce  Ce1  1  0.00000000  0.00000000  0.48637999  1
  Si  Si2  1  0.49999999  0.00000000  0.83515598  1
  Si  Si3  1  0.49999999  0.00000000  0.17508700  1
  Si  Si4  1  0.49999999  0.49999998  0.65384598  1
  Si  Si5  1  0.49999999  0.49999998  0.32747599  1
