# generated using pymatgen
data_Ba2Sr(CoO2)3
_symmetry_space_group_name_H-M   'P 1'
_cell_length_a   4.01787186
_cell_length_b   4.01787186
_cell_length_c   11.40392208
_cell_angle_alpha   100.14627838
_cell_angle_beta   100.14627838
_cell_angle_gamma   90.00000000
_symmetry_Int_Tables_number   1
_chemical_formula_structural   Ba2Sr(CoO2)3
_chemical_formula_sum   'Ba2 Sr1 Co3 O6'
_cell_volume   178.29228183
_cell_formula_units_Z   1
loop_
 _symmetry_equiv_pos_site_id
 _symmetry_equiv_pos_as_xyz
  1  'x, y, z'
loop_
 _atom_site_type_symbol
 _atom_site_label
 _atom_site_symmetry_multiplicity
 _atom_site_fract_x
 _atom_site_fract_y
 _atom_site_fract_z
 _atom_site_occupancy
  Ba  Ba0  1  0.80683004  0.80683003  0.61366003  1
  Ba  Ba1  1  0.19317001  0.19317001  0.38634002  1
  Sr  Sr2  1  0.00000000  0.00000000  0.00000000  1
  Co  Co3  1  0.59606603  0.59606602  0.19213201  1
  Co  Co4  1  0.40393402  0.40393402  0.80786803  1
  Co  Co5  1  0.50000002  0.50000002  0.00000001  1
  O  O6  1  0.31908901  0.31908901  0.63817803  1
  O  O7  1  0.68091103  0.68091103  0.36182202  1
  O  O8  1  0.91261704  0.41261702  0.82523404  1
  O  O9  1  0.41261702  0.91261704  0.82523404  1
  O  O10  1  0.58738302  0.08738300  0.17476601  1
  O  O11  1  0.08738301  0.58738302  0.17476601  1
