# generated using pymatgen
data_EuBO3
_symmetry_space_group_name_H-M   'P 1'
_cell_length_a   6.37996578
_cell_length_b   6.58313322
_cell_length_c   6.59220839
_cell_angle_alpha   93.22435760
_cell_angle_beta   106.80096436
_cell_angle_gamma   106.13731384
_symmetry_Int_Tables_number   1
_chemical_formula_structural   EuBO3
_chemical_formula_sum   'Eu4 B4 O12'
_cell_volume   251.78772007
_cell_formula_units_Z   4
loop_
 _symmetry_equiv_pos_site_id
 _symmetry_equiv_pos_as_xyz
  1  'x, y, z'
loop_
 _atom_site_type_symbol
 _atom_site_label
 _atom_site_symmetry_multiplicity
 _atom_site_fract_x
 _atom_site_fract_y
 _atom_site_fract_z
 _atom_site_occupancy
  Eu  Eu0  1  0.44571304  0.81268002  0.22372806  1
  Eu  Eu1  1  0.55428703  0.18732000  0.77627203  1
  Eu  Eu2  1  0.03932501  0.26403701  0.33011202  1
  Eu  Eu3  1  0.96067506  0.73596302  0.66988806  1
  B  B4  1  0.48840003  0.27669801  0.26623603  1
  B  B5  1  0.51160004  0.72330202  0.73376406  1
  B  B6  1  0.97995806  0.75862202  0.22076406  1
  B  B7  1  0.02004201  0.24137801  0.77923602  1
  O  O8  1  0.38090404  0.79724002  0.83783306  1
  O  O9  1  0.61909603  0.20276000  0.16216702  1
  O  O10  1  0.03674303  0.77360902  0.03672205  1
  O  O11  1  0.96325704  0.22639101  0.96327804  1
  O  O12  1  0.61915105  0.86383702  0.61604507  1
  O  O13  1  0.38084902  0.13616300  0.38395502  1
  O  O14  1  0.91625805  0.35939101  0.63525804  1
  O  O15  1  0.08374202  0.64060902  0.36474204  1
  O  O16  1  0.55384604  0.53266401  0.74736405  1
  O  O17  1  0.44615403  0.46733601  0.25263604  1
  O  O18  1  0.14805901  0.12878600  0.71355102  1
  O  O19  1  0.85194106  0.87121402  0.28644907  1
