# generated using pymatgen
data_K3NaAgCl6
_symmetry_space_group_name_H-M   'P 1'
_cell_length_a   6.99628973
_cell_length_b   7.90252686
_cell_length_c   7.90252686
_cell_angle_alpha   68.00688934
_cell_angle_beta   71.94207001
_cell_angle_gamma   108.05792999
_symmetry_Int_Tables_number   1
_chemical_formula_structural   K3NaAgCl6
_chemical_formula_sum   'K3 Na1 Ag1 Cl6'
_cell_volume   337.19533115
_cell_formula_units_Z   1
loop_
 _symmetry_equiv_pos_site_id
 _symmetry_equiv_pos_as_xyz
  1  'x, y, z'
loop_
 _atom_site_type_symbol
 _atom_site_label
 _atom_site_symmetry_multiplicity
 _atom_site_fract_x
 _atom_site_fract_y
 _atom_site_fract_z
 _atom_site_occupancy
  K  K0  1  0.49999993  0.49999999  0.50000004  1
  K  K1  1  0.99999997  0.00000000  0.50000007  1
  K  K2  1  0.99999991  0.49999999  0.00000007  1
  Na  Na3  1  0.49999999  0.00000000  0.00000003  1
  Ag  Ag4  1  0.00000000  0.00000000  0.00000000  1
  Cl  Cl5  1  0.69343689  0.72239598  0.00722605  1
  Cl  Cl6  1  0.97072294  0.26915799  0.73084207  1
  Cl  Cl7  1  0.69343686  0.99277398  0.27760406  1
  Cl  Cl8  1  0.30656296  0.27760399  0.99277404  1
  Cl  Cl9  1  0.02927691  0.73084198  0.26915801  1
  Cl  Cl10  1  0.30656299  0.00722600  0.72239603  1
