# generated using pymatgen
data_YbGe2
_symmetry_space_group_name_H-M   'P 1'
_cell_length_a   4.25980616
_cell_length_b   4.25980663
_cell_length_c   15.33632565
_cell_angle_alpha   90.00000000
_cell_angle_beta   90.00000000
_cell_angle_gamma   119.99999237
_symmetry_Int_Tables_number   1
_chemical_formula_structural   YbGe2
_chemical_formula_sum   'Yb4 Ge8'
_cell_volume   241.00813887
_cell_formula_units_Z   4
loop_
 _symmetry_equiv_pos_site_id
 _symmetry_equiv_pos_as_xyz
  1  'x, y, z'
loop_
 _atom_site_type_symbol
 _atom_site_label
 _atom_site_symmetry_multiplicity
 _atom_site_fract_x
 _atom_site_fract_y
 _atom_site_fract_z
 _atom_site_occupancy
  Yb  Yb0  1  0.00000000  0.00000000  0.50000001  1
  Yb  Yb1  1  0.00000000  0.00000000  0.00000000  1
  Yb  Yb2  1  0.00000000  0.00000000  0.75000002  1
  Yb  Yb3  1  0.00000000  0.00000000  0.25000001  1
  Ge  Ge4  1  0.66666663  0.33333333  0.11507700  1
  Ge  Ge5  1  0.33333329  0.66666666  0.88492302  1
  Ge  Ge6  1  0.33333329  0.66666666  0.61507701  1
  Ge  Ge7  1  0.66666663  0.33333333  0.38492301  1
  Ge  Ge8  1  0.66666663  0.33333333  0.63570201  1
  Ge  Ge9  1  0.33333329  0.66666666  0.36429801  1
  Ge  Ge10  1  0.33333329  0.66666666  0.13570200  1
  Ge  Ge11  1  0.66666663  0.33333333  0.86429802  1
