# generated using pymatgen
data_Pm
_symmetry_space_group_name_H-M   'P 1'
_cell_length_a   5.67940283
_cell_length_b   7.19946194
_cell_length_c   7.19946194
_cell_angle_alpha   60.00000000
_cell_angle_beta   90.00000000
_cell_angle_gamma   90.00000000
_symmetry_Int_Tables_number   1
_chemical_formula_structural   Pm
_chemical_formula_sum   Pm8
_cell_volume   254.93730179
_cell_formula_units_Z   8
loop_
 _symmetry_equiv_pos_site_id
 _symmetry_equiv_pos_as_xyz
  1  'x, y, z'
loop_
 _atom_site_type_symbol
 _atom_site_label
 _atom_site_symmetry_multiplicity
 _atom_site_fract_x
 _atom_site_fract_y
 _atom_site_fract_z
 _atom_site_occupancy
  Pm  Pm0  1  0.75000002  0.66666667  0.66666667  1
  Pm  Pm1  1  0.25000001  0.33333334  0.33333334  1
  Pm  Pm2  1  0.25000001  0.83559001  0.32882000  1
  Pm  Pm3  1  0.25000001  0.83559001  0.83559101  1
  Pm  Pm4  1  0.25000001  0.32881900  0.83559101  1
  Pm  Pm5  1  0.75000002  0.16441000  0.67118001  1
  Pm  Pm6  1  0.75000002  0.16441000  0.16440900  1
  Pm  Pm7  1  0.75000002  0.67118101  0.16440900  1
