# generated using pymatgen
data_Li2MnO4
_symmetry_space_group_name_H-M   'P 1'
_cell_length_a   5.94515324
_cell_length_b   5.94515324
_cell_length_c   5.94515324
_cell_angle_alpha   60.07287598
_cell_angle_beta   60.07287598
_cell_angle_gamma   60.07288742
_symmetry_Int_Tables_number   1
_chemical_formula_structural   Li2MnO4
_chemical_formula_sum   'Li4 Mn2 O8'
_cell_volume   148.83012725
_cell_formula_units_Z   2
loop_
 _symmetry_equiv_pos_site_id
 _symmetry_equiv_pos_as_xyz
  1  'x, y, z'
loop_
 _atom_site_type_symbol
 _atom_site_label
 _atom_site_symmetry_multiplicity
 _atom_site_fract_x
 _atom_site_fract_y
 _atom_site_fract_z
 _atom_site_occupancy
  Li  Li0  1  0.12140200  0.12140200  0.12140199  1
  Li  Li1  1  0.87859802  0.87859803  0.87859795  1
  Li  Li2  1  0.50000000  1.00000003  0.49999996  1
  Li  Li3  1  -0.00000001  0.50000002  0.49999999  1
  Mn  Mn4  1  0.50000001  0.50000002  0.99999997  1
  Mn  Mn5  1  0.50000001  0.50000002  0.49999997  1
  O  O6  1  0.26053800  0.26053801  0.26053799  1
  O  O7  1  0.25797800  0.25797801  0.70789798  1
  O  O8  1  0.70789802  0.25797801  0.25797797  1
  O  O9  1  0.25797800  0.70789802  0.25797798  1
  O  O10  1  0.74202202  0.29210201  0.74202197  1
  O  O11  1  0.29210200  0.74202203  0.74202197  1
  O  O12  1  0.74202201  0.74202203  0.29210196  1
  O  O13  1  0.73946201  0.73946203  0.73946196  1
