# generated using pymatgen
data_Ba2YSn9
_symmetry_space_group_name_H-M   'P 1'
_cell_length_a   4.53922606
_cell_length_b   7.92681313
_cell_length_c   11.53464699
_cell_angle_alpha   90.00000000
_cell_angle_beta   90.00000000
_cell_angle_gamma   106.63782501
_symmetry_Int_Tables_number   1
_chemical_formula_structural   Ba2YSn9
_chemical_formula_sum   'Ba2 Y1 Sn9'
_cell_volume   397.65906115
_cell_formula_units_Z   1
loop_
 _symmetry_equiv_pos_site_id
 _symmetry_equiv_pos_as_xyz
  1  'x, y, z'
loop_
 _atom_site_type_symbol
 _atom_site_label
 _atom_site_symmetry_multiplicity
 _atom_site_fract_x
 _atom_site_fract_y
 _atom_site_fract_z
 _atom_site_occupancy
  Ba  Ba0  1  0.24376996  0.48753998  0.75000000  1
  Ba  Ba1  1  0.75622995  0.51245998  0.25000000  1
  Y  Y2  1  0.00000000  0.00000000  0.00000000  1
  Sn  Sn3  1  0.00000000  0.00000000  0.50000000  1
  Sn  Sn4  1  0.53130999  0.06262000  0.75000000  1
  Sn  Sn5  1  0.46868993  0.93737996  0.25000000  1
  Sn  Sn6  1  0.36188694  0.72377397  0.05071700  1
  Sn  Sn7  1  0.91990393  0.83980797  0.75000000  1
  Sn  Sn8  1  0.63811297  0.27622599  0.55071700  1
  Sn  Sn9  1  0.63811297  0.27622599  0.94928300  1
  Sn  Sn10  1  0.36188694  0.72377397  0.44928300  1
  Sn  Sn11  1  0.08009599  0.16019199  0.25000000  1
