# generated using pymatgen
data_EuZnAu
_symmetry_space_group_name_H-M   'P 1'
_cell_length_a   4.74822378
_cell_length_b   4.74822426
_cell_length_c   7.43560696
_cell_angle_alpha   90.00000000
_cell_angle_beta   90.00000000
_cell_angle_gamma   120.00000000
_symmetry_Int_Tables_number   1
_chemical_formula_structural   EuZnAu
_chemical_formula_sum   'Eu2 Zn2 Au2'
_cell_volume   145.18089123
_cell_formula_units_Z   2
loop_
 _symmetry_equiv_pos_site_id
 _symmetry_equiv_pos_as_xyz
  1  'x, y, z'
loop_
 _atom_site_type_symbol
 _atom_site_label
 _atom_site_symmetry_multiplicity
 _atom_site_fract_x
 _atom_site_fract_y
 _atom_site_fract_z
 _atom_site_occupancy
  Eu  Eu0  1  0.00000000  0.00000000  0.00071300  1
  Eu  Eu1  1  0.00000000  0.00000000  0.50071300  1
  Zn  Zn2  1  0.33333338  0.66666669  0.68937200  1
  Zn  Zn3  1  0.66666671  0.33333335  0.18937200  1
  Au  Au4  1  0.33333338  0.66666669  0.28091500  1
  Au  Au5  1  0.66666671  0.33333335  0.78091500  1
