# generated using pymatgen
data_KNa2Ag5
_symmetry_space_group_name_H-M   'P 1'
_cell_length_a   3.74699092
_cell_length_b   9.70714760
_cell_length_c   9.70714855
_cell_angle_alpha   120.00000000
_cell_angle_beta   90.00000000
_cell_angle_gamma   90.00000000
_symmetry_Int_Tables_number   1
_chemical_formula_structural   KNa2Ag5
_chemical_formula_sum   'K1 Na2 Ag5'
_cell_volume   305.77120256
_cell_formula_units_Z   1
loop_
 _symmetry_equiv_pos_site_id
 _symmetry_equiv_pos_as_xyz
  1  'x, y, z'
loop_
 _atom_site_type_symbol
 _atom_site_label
 _atom_site_symmetry_multiplicity
 _atom_site_fract_x
 _atom_site_fract_y
 _atom_site_fract_z
 _atom_site_occupancy
  K  K0  1  0.75000002  0.33333335  0.66666665  1
  Na  Na1  1  0.25000001  0.66666670  0.33333333  1
  Na  Na2  1  0.25000001  0.21360801  0.42721599  1
  Ag  Ag3  1  0.25000001  0.57278503  0.78639298  1
  Ag  Ag4  1  0.25000001  0.21360801  0.78639297  1
  Ag  Ag5  1  0.75000002  0.78639204  0.57278399  1
  Ag  Ag6  1  0.75000002  0.42721502  0.21360700  1
  Ag  Ag7  1  0.75000002  0.78639204  0.21360700  1
