# generated using pymatgen
data_Li2Eu2Fe(CoP2)5
_symmetry_space_group_name_H-M   'P 1'
_cell_length_a   5.73361254
_cell_length_b   8.09626007
_cell_length_c   8.09626007
_cell_angle_alpha   93.46900940
_cell_angle_beta   109.71198273
_cell_angle_gamma   109.71198273
_symmetry_Int_Tables_number   1
_chemical_formula_structural   Li2Eu2Fe(CoP2)5
_chemical_formula_sum   'Li2 Eu2 Fe1 Co5 P10'
_cell_volume   326.57426050
_cell_formula_units_Z   1
loop_
 _symmetry_equiv_pos_site_id
 _symmetry_equiv_pos_as_xyz
  1  'x, y, z'
loop_
 _atom_site_type_symbol
 _atom_site_label
 _atom_site_symmetry_multiplicity
 _atom_site_fract_x
 _atom_site_fract_y
 _atom_site_fract_z
 _atom_site_occupancy
  Eu  Eu0  1  0.23284209  0.87148897  0.59286599  1
  Eu  Eu1  1  0.26715805  0.40713399  0.12851101  1
  Li  Li2  1  0.76715805  0.12851100  0.40713400  1
  Li  Li3  1  0.73284209  0.59286598  0.87148899  1
  Co  Co4  1  0.38272504  0.26075499  0.54217499  1
  Fe  Fe5  1  0.11727505  0.45782498  0.73924497  1
  Co  Co6  1  0.61727510  0.73924498  0.45782501  1
  Co  Co7  1  0.88272510  0.54217498  0.26075503  1
  Co  Co8  1  0.25000001  0.00217700  0.99782295  1
  Co  Co9  1  0.75000013  0.99782297  0.00217704  1
  P  P10  1  0.25000006  0.50755498  0.49244499  1
  P  P11  1  0.75000008  0.49244498  0.50755501  1
  P  P12  1  0.17191202  0.07732200  0.26157499  1
  P  P13  1  0.32808808  0.73842498  0.92267797  1
  P  P14  1  0.82808813  0.92267797  0.73842500  1
  P  P15  1  0.67191206  0.26157499  0.07732202  1
  P  P16  1  0.25000003  0.21483099  0.78516897  1
  P  P17  1  0.75000011  0.78516897  0.21483103  1
  P  P18  1  0.25000008  0.77415597  0.22584401  1
  P  P19  1  0.75000006  0.22584399  0.77415599  1
