# generated using pymatgen
data_Dy3Si10Ru
_symmetry_space_group_name_H-M   'P 1'
_cell_length_a   4.03263807
_cell_length_b   8.01058960
_cell_length_c   8.24297905
_cell_angle_alpha   71.35101318
_cell_angle_beta   75.84118652
_cell_angle_gamma   75.42147064
_symmetry_Int_Tables_number   1
_chemical_formula_structural   Dy3Si10Ru
_chemical_formula_sum   'Dy3 Si10 Ru1'
_cell_volume   240.23283051
_cell_formula_units_Z   1
loop_
 _symmetry_equiv_pos_site_id
 _symmetry_equiv_pos_as_xyz
  1  'x, y, z'
loop_
 _atom_site_type_symbol
 _atom_site_label
 _atom_site_symmetry_multiplicity
 _atom_site_fract_x
 _atom_site_fract_y
 _atom_site_fract_z
 _atom_site_occupancy
  Dy  Dy0  1  0.68051295  0.81640998  0.82256405  1
  Dy  Dy1  1  0.31948699  0.18359000  0.17743601  1
  Dy  Dy2  1  -0.00000002  0.49999999  0.50000003  1
  Si  Si3  1  0.34074097  0.56450299  0.75401504  1
  Si  Si4  1  0.65925897  0.43549699  0.24598502  1
  Si  Si5  1  0.10560499  0.10919300  0.67959703  1
  Si  Si6  1  0.89439494  0.89080698  0.32040303  1
  Si  Si7  1  0.69471798  0.13986000  0.47070403  1
  Si  Si8  1  0.50923896  0.76497198  0.21655003  1
  Si  Si9  1  0.16797097  0.58579599  0.07826201  1
  Si  Si10  1  0.30528196  0.86013998  0.52929604  1
  Si  Si11  1  0.83202896  0.41420399  0.92173805  1
  Si  Si12  1  0.00000000  0.00000000  0.00000000  1
  Ru  Ru13  1  0.49076098  0.23502799  0.78345004  1
