# generated using pymatgen
data_URu
_symmetry_space_group_name_H-M   'P 1'
_cell_length_a   3.91189909
_cell_length_b   4.32852221
_cell_length_c   5.76170397
_cell_angle_alpha   67.93682861
_cell_angle_beta   90.00000000
_cell_angle_gamma   90.00000000
_symmetry_Int_Tables_number   1
_chemical_formula_structural   URu
_chemical_formula_sum   'U2 Ru2'
_cell_volume   90.41704868
_cell_formula_units_Z   2
loop_
 _symmetry_equiv_pos_site_id
 _symmetry_equiv_pos_as_xyz
  1  'x, y, z'
loop_
 _atom_site_type_symbol
 _atom_site_label
 _atom_site_symmetry_multiplicity
 _atom_site_fract_x
 _atom_site_fract_y
 _atom_site_fract_z
 _atom_site_occupancy
  U  U0  1  0.49999999  0.13827399  0.72345201  1
  U  U1  1  0.00000000  0.86024096  0.27951800  1
  Ru  Ru2  1  0.99999998  0.58099397  0.83801201  1
  Ru  Ru3  1  0.49999999  0.42049098  0.15901800  1
