# generated using pymatgen
data_SmZnSn
_symmetry_space_group_name_H-M   'P 1'
_cell_length_a   4.59300804
_cell_length_b   4.59300852
_cell_length_c   8.18448353
_cell_angle_alpha   90.00000000
_cell_angle_beta   90.00000000
_cell_angle_gamma   120.00000000
_symmetry_Int_Tables_number   1
_chemical_formula_structural   SmZnSn
_chemical_formula_sum   'Sm2 Zn2 Sn2'
_cell_volume   149.52588010
_cell_formula_units_Z   2
loop_
 _symmetry_equiv_pos_site_id
 _symmetry_equiv_pos_as_xyz
  1  'x, y, z'
loop_
 _atom_site_type_symbol
 _atom_site_label
 _atom_site_symmetry_multiplicity
 _atom_site_fract_x
 _atom_site_fract_y
 _atom_site_fract_z
 _atom_site_occupancy
  Sm  Sm0  1  0.00000000  0.00000000  0.25073101  1
  Sm  Sm1  1  0.00000000  0.00000000  0.75073104  1
  Zn  Zn2  1  0.33333336  0.66666666  0.01299700  1
  Zn  Zn3  1  0.66666668  0.33333333  0.51299703  1
  Sn  Sn4  1  0.33333336  0.66666666  0.46227203  1
  Sn  Sn5  1  0.66666668  0.33333333  0.96227206  1
