# generated using pymatgen
data_Hf3Al3Fe2
_symmetry_space_group_name_H-M   'P 1'
_cell_length_a   2.96407604
_cell_length_b   4.62122107
_cell_length_c   9.13069344
_cell_angle_alpha   91.73869324
_cell_angle_beta   90.00000000
_cell_angle_gamma   90.00000000
_symmetry_Int_Tables_number   1
_chemical_formula_structural   Hf3Al3Fe2
_chemical_formula_sum   'Hf3 Al3 Fe2'
_cell_volume   125.01146678
_cell_formula_units_Z   1
loop_
 _symmetry_equiv_pos_site_id
 _symmetry_equiv_pos_as_xyz
  1  'x, y, z'
loop_
 _atom_site_type_symbol
 _atom_site_label
 _atom_site_symmetry_multiplicity
 _atom_site_fract_x
 _atom_site_fract_y
 _atom_site_fract_z
 _atom_site_occupancy
  Hf  Hf0  1  0.99999999  0.69135699  0.88344103  1
  Hf  Hf1  1  0.99999999  0.30864300  0.11655900  1
  Hf  Hf2  1  0.99999999  0.18540300  0.60991402  1
  Al  Al3  1  0.99999999  0.81459699  0.39008601  1
  Fe  Fe4  1  0.49999999  0.68624299  0.63232602  1
  Al  Al5  1  0.49999999  0.31375700  0.36767401  1
  Al  Al6  1  0.49999999  0.18875100  0.86118203  1
  Fe  Fe7  1  0.49999999  0.81124899  0.13881800  1
