# generated using pymatgen
data_La2Ge4Au
_symmetry_space_group_name_H-M   'P 1'
_cell_length_a   4.34724283
_cell_length_b   4.34724283
_cell_length_c   9.32800579
_cell_angle_alpha   90.00000000
_cell_angle_beta   90.00000000
_cell_angle_gamma   90.00000000
_symmetry_Int_Tables_number   1
_chemical_formula_structural   La2Ge4Au
_chemical_formula_sum   'La2 Ge4 Au1'
_cell_volume   176.28550625
_cell_formula_units_Z   1
loop_
 _symmetry_equiv_pos_site_id
 _symmetry_equiv_pos_as_xyz
  1  'x, y, z'
loop_
 _atom_site_type_symbol
 _atom_site_label
 _atom_site_symmetry_multiplicity
 _atom_site_fract_x
 _atom_site_fract_y
 _atom_site_fract_z
 _atom_site_occupancy
  La  La0  1  0.50000002  0.00000000  0.23648701  1
  La  La1  1  0.00000000  0.50000002  0.76351302  1
  Ge  Ge2  1  0.50000002  0.50000002  0.00000000  1
  Ge  Ge3  1  0.50000002  0.50000002  0.50000001  1
  Ge  Ge4  1  0.00000000  0.00000000  0.50000001  1
  Au  Au5  1  0.50000002  0.00000000  0.87082202  1
  Ge  Ge6  1  0.00000000  0.50000002  0.12917800  1
