# generated using pymatgen
data_LiCoO2
_symmetry_space_group_name_H-M   'P 1'
_cell_length_a   5.60309505
_cell_length_b   5.65848207
_cell_length_c   6.15493488
_cell_angle_alpha   62.63416290
_cell_angle_beta   64.84767914
_cell_angle_gamma   90.00000000
_symmetry_Int_Tables_number   1
_chemical_formula_structural   LiCoO2
_chemical_formula_sum   'Li4 Co4 O8'
_cell_volume   152.16793899
_cell_formula_units_Z   4
loop_
 _symmetry_equiv_pos_site_id
 _symmetry_equiv_pos_as_xyz
  1  'x, y, z'
loop_
 _atom_site_type_symbol
 _atom_site_label
 _atom_site_symmetry_multiplicity
 _atom_site_fract_x
 _atom_site_fract_y
 _atom_site_fract_z
 _atom_site_occupancy
  Li  Li0  1  0.99999998  0.50000000  0.50000001  1
  Li  Li1  1  0.49999999  0.00000000  0.00000000  1
  Li  Li2  1  0.99999998  0.00000000  0.50000002  1
  Li  Li3  1  0.99999998  0.50000000  -0.00000001  1
  Co  Co4  1  0.49999999  0.50000000  -0.00000001  1
  Co  Co5  1  0.00000000  0.00000000  0.00000000  1
  Co  Co6  1  0.49999999  0.50000000  0.50000001  1
  Co  Co7  1  0.49999999  0.00000000  0.50000002  1
  O  O8  1  0.24655700  0.71162700  0.57674600  1
  O  O9  1  0.76935798  0.29608400  0.93580702  1
  O  O10  1  0.76935799  0.76810900  0.93580701  1
  O  O11  1  0.23938400  0.20057700  0.59884601  1
  O  O12  1  0.76061599  0.79942300  0.40115400  1
  O  O13  1  0.23064200  0.23189100  0.06419300  1
  O  O14  1  0.23064200  0.70391600  0.06419299  1
  O  O15  1  0.75344298  0.28837300  0.42325401  1
