# generated using pymatgen
data_SrCaTiCoO6
_symmetry_space_group_name_H-M   'P 1'
_cell_length_a   5.57817602
_cell_length_b   5.70745611
_cell_length_c   7.88699245
_cell_angle_alpha   89.99839020
_cell_angle_beta   90.78645325
_cell_angle_gamma   89.99709320
_symmetry_Int_Tables_number   1
_chemical_formula_structural   SrCaTiCoO6
_chemical_formula_sum   'Sr2 Ca2 Ti2 Co2 O12'
_cell_volume   251.07606066
_cell_formula_units_Z   2
loop_
 _symmetry_equiv_pos_site_id
 _symmetry_equiv_pos_as_xyz
  1  'x, y, z'
loop_
 _atom_site_type_symbol
 _atom_site_label
 _atom_site_symmetry_multiplicity
 _atom_site_fract_x
 _atom_site_fract_y
 _atom_site_fract_z
 _atom_site_occupancy
  Sr  Sr0  1  0.51533401  0.54929999  0.74827602  1
  Sr  Sr1  1  0.01535102  0.95062198  0.24828201  1
  Ca  Ca2  1  0.98658200  0.04295200  0.75257703  1
  Ca  Ca3  1  0.48648601  0.45703299  0.25256202  1
  Ti  Ti4  1  0.49977102  0.99968298  0.49951402  1
  Ti  Ti5  1  0.99975001  0.50031699  0.99945803  1
  Co  Co6  1  0.50007702  0.99947498  0.00059103  1
  Co  Co7  1  0.00003501  0.50053299  0.50053800  1
  O  O8  1  0.91273101  0.52791499  0.24760204  1
  O  O9  1  0.41293502  0.97221898  0.74757202  1
  O  O10  1  0.79987202  0.78376398  0.94887403  1
  O  O11  1  0.29987802  0.71625299  0.44889101  1
  O  O12  1  0.79110402  0.79055698  0.54526903  1
  O  O13  1  0.29107502  0.70944699  0.04525202  1
  O  O14  1  0.70400601  0.29398599  0.95257102  1
  O  O15  1  0.20405800  0.20597600  0.45257201  1
  O  O16  1  0.69592501  0.28751499  0.55249102  1
  O  O17  1  0.19581900  0.21244500  0.05245601  1
  O  O18  1  0.59461500  0.02355600  0.25232002  1
  O  O19  1  0.09459601  0.47645099  0.75233000  1
