# generated using pymatgen
data_Pr2GaGe3
_symmetry_space_group_name_H-M   'P 1'
_cell_length_a   4.13381577
_cell_length_b   4.15088606
_cell_length_c   8.21926212
_cell_angle_alpha   104.62606812
_cell_angle_beta   104.56459045
_cell_angle_gamma   90.00000000
_symmetry_Int_Tables_number   1
_chemical_formula_structural   Pr2GaGe3
_chemical_formula_sum   'Pr2 Ga1 Ge3'
_cell_volume   131.77473654
_cell_formula_units_Z   1
loop_
 _symmetry_equiv_pos_site_id
 _symmetry_equiv_pos_as_xyz
  1  'x, y, z'
loop_
 _atom_site_type_symbol
 _atom_site_label
 _atom_site_symmetry_multiplicity
 _atom_site_fract_x
 _atom_site_fract_y
 _atom_site_fract_z
 _atom_site_occupancy
  Pr  Pr0  1  0.62051604  0.37051599  0.24103201  1
  Pr  Pr1  1  0.37948402  0.62948399  0.75896802  1
  Ga  Ga2  1  0.03646900  0.78646898  0.07293799  1
  Ge  Ge3  1  0.96353106  0.21353100  0.92706204  1
  Ge  Ge4  1  0.20045101  0.95045098  0.40090200  1
  Ge  Ge5  1  0.79954905  0.04954900  0.59909803  1
