# generated using pymatgen
data_CaAc3In4
_symmetry_space_group_name_H-M   'P 1'
_cell_length_a   5.78831196
_cell_length_b   7.29127407
_cell_length_c   7.29127359
_cell_angle_alpha   120.00000000
_cell_angle_beta   90.00000000
_cell_angle_gamma   90.00000000
_symmetry_Int_Tables_number   1
_chemical_formula_structural   CaAc3In4
_chemical_formula_sum   'Ca1 Ac3 In4'
_cell_volume   266.49519247
_cell_formula_units_Z   1
loop_
 _symmetry_equiv_pos_site_id
 _symmetry_equiv_pos_as_xyz
  1  'x, y, z'
loop_
 _atom_site_type_symbol
 _atom_site_label
 _atom_site_symmetry_multiplicity
 _atom_site_fract_x
 _atom_site_fract_y
 _atom_site_fract_z
 _atom_site_occupancy
  Ac  Ac0  1  0.75000001  0.83323998  0.16675997  1
  Ac  Ac1  1  0.75000001  0.33351999  0.16675999  1
  Ca  Ca2  1  0.75000001  0.83323998  0.66647996  1
  Ac  Ac3  1  0.25000000  0.16676000  0.83323999  1
  In  In4  1  0.25000000  0.66647998  0.83323997  1
  In  In5  1  0.25000000  0.16676000  0.33351999  1
  In  In6  1  0.25000000  0.66666665  0.33333330  1
  In  In7  1  0.75000001  0.33333332  0.66666665  1
