# generated using pymatgen
data_SmCo8Ir5
_symmetry_space_group_name_H-M   'P 1'
_cell_length_a   3.72967196
_cell_length_b   7.25171614
_cell_length_c   7.25171614
_cell_angle_alpha   90.00000000
_cell_angle_beta   90.00000000
_cell_angle_gamma   90.00000000
_symmetry_Int_Tables_number   1
_chemical_formula_structural   SmCo8Ir5
_chemical_formula_sum   'Sm1 Co8 Ir5'
_cell_volume   196.13370223
_cell_formula_units_Z   1
loop_
 _symmetry_equiv_pos_site_id
 _symmetry_equiv_pos_as_xyz
  1  'x, y, z'
loop_
 _atom_site_type_symbol
 _atom_site_label
 _atom_site_symmetry_multiplicity
 _atom_site_fract_x
 _atom_site_fract_y
 _atom_site_fract_z
 _atom_site_occupancy
  Sm  Sm0  1  0.00000000  0.00000000  0.00000000  1
  Co  Co1  1  0.50000001  0.49999999  0.49999999  1
  Co  Co2  1  0.00000000  0.58309699  0.14448900  1
  Co  Co3  1  0.00000000  0.41690299  0.85551098  1
  Co  Co4  1  0.50000001  0.64448899  0.91690298  1
  Co  Co5  1  0.50000001  0.08309700  0.35551099  1
  Co  Co6  1  0.50000001  0.35551099  0.08309700  1
  Co  Co7  1  0.50000001  0.91690298  0.64448899  1
  Ir  Ir8  1  0.00000000  0.14448900  0.58309699  1
  Co  Co9  1  0.00000000  0.85551098  0.41690299  1
  Ir  Ir10  1  1.00000001  0.27867399  0.27867399  1
  Ir  Ir11  1  0.00000000  0.72132599  0.72132599  1
  Ir  Ir12  1  0.50000001  0.77867399  0.22132600  1
  Ir  Ir13  1  0.50000001  0.22132600  0.77867399  1
