# generated using pymatgen
data_SrLiTeS
_symmetry_space_group_name_H-M   'P 1'
_cell_length_a   4.26123571
_cell_length_b   4.26123571
_cell_length_c   8.39825916
_cell_angle_alpha   75.30358124
_cell_angle_beta   75.30358124
_cell_angle_gamma   60.00000763
_symmetry_Int_Tables_number   1
_chemical_formula_structural   SrLiTeS
_chemical_formula_sum   'Sr1 Li1 Te1 S1'
_cell_volume   126.27219482
_cell_formula_units_Z   1
loop_
 _symmetry_equiv_pos_site_id
 _symmetry_equiv_pos_as_xyz
  1  'x, y, z'
loop_
 _atom_site_type_symbol
 _atom_site_label
 _atom_site_symmetry_multiplicity
 _atom_site_fract_x
 _atom_site_fract_y
 _atom_site_fract_z
 _atom_site_occupancy
  Sr  Sr0  1  0.00000000  0.00000000  0.00000000  1
  Li  Li1  1  0.49999997  0.49999997  0.49999999  1
  Te  Te2  1  0.77213895  0.77213896  0.68358299  1
  S  S3  1  0.22786098  0.22786099  0.31641699  1
