# generated using pymatgen
data_BaSrLaNbO6
_symmetry_space_group_name_H-M   'P 1'
_cell_length_a   6.07616568
_cell_length_b   6.12107277
_cell_length_c   8.59255505
_cell_angle_alpha   89.73078918
_cell_angle_beta   90.86769867
_cell_angle_gamma   89.75532532
_symmetry_Int_Tables_number   1
_chemical_formula_structural   BaSrLaNbO6
_chemical_formula_sum   'Ba2 Sr2 La2 Nb2 O12'
_cell_volume   319.53672575
_cell_formula_units_Z   2
loop_
 _symmetry_equiv_pos_site_id
 _symmetry_equiv_pos_as_xyz
  1  'x, y, z'
loop_
 _atom_site_type_symbol
 _atom_site_label
 _atom_site_symmetry_multiplicity
 _atom_site_fract_x
 _atom_site_fract_y
 _atom_site_fract_z
 _atom_site_occupancy
  Ba  Ba0  1  0.49030444  0.53570770  0.75176793  1
  Ba  Ba1  1  0.50969556  0.46429226  0.24823206  1
  Sr  Sr2  1  0.00950519  0.04164963  0.74711880  1
  Sr  Sr3  1  0.99049481  0.95835034  0.25288119  1
  La  La4  1  0.00000000  0.49999998  -0.00000001  1
  La  La5  1  0.50000000  0.00000000  0.50000000  1
  Nb  Nb6  1  0.50000000  0.00000000  -0.00000001  1
  Nb  Nb7  1  0.00000000  0.49999998  0.50000000  1
  O  O8  1  0.76844853  0.18676497  0.04423372  1
  O  O9  1  0.73627369  0.69214592  0.46552009  1
  O  O10  1  0.23155147  0.81323499  0.95576626  1
  O  O11  1  0.26372631  0.30785405  0.53447989  1
  O  O12  1  0.69519260  0.73447322  0.04596580  1
  O  O13  1  0.81422565  0.22463627  0.45432751  1
  O  O14  1  0.30480740  0.26552674  0.95403418  1
  O  O15  1  0.18577435  0.77536369  0.54567247  1
  O  O16  1  0.58919947  0.99424099  0.77493172  1
  O  O17  1  0.92608899  0.47424822  0.72654900  1
  O  O18  1  0.41080053  0.00575898  0.22506827  1
  O  O19  1  0.07391101  0.52575174  0.27345098  1
