# generated using pymatgen
data_Tm(Co2Si)2
_symmetry_space_group_name_H-M   'P 1'
_cell_length_a   3.60095310
_cell_length_b   7.05684280
_cell_length_c   7.05684280
_cell_angle_alpha   90.00000000
_cell_angle_beta   90.00000000
_cell_angle_gamma   90.00000000
_symmetry_Int_Tables_number   1
_chemical_formula_structural   Tm(Co2Si)2
_chemical_formula_sum   'Tm2 Co8 Si4'
_cell_volume   179.32397286
_cell_formula_units_Z   2
loop_
 _symmetry_equiv_pos_site_id
 _symmetry_equiv_pos_as_xyz
  1  'x, y, z'
loop_
 _atom_site_type_symbol
 _atom_site_label
 _atom_site_symmetry_multiplicity
 _atom_site_fract_x
 _atom_site_fract_y
 _atom_site_fract_z
 _atom_site_occupancy
  Tm  Tm0  1  -0.00000000  0.50000001  0.50000001  1
  Tm  Tm1  1  0.49999999  0.00000000  0.00000000  1
  Co  Co2  1  0.49999999  0.58617202  0.16296000  1
  Co  Co3  1  0.49999999  0.41382801  0.83704002  1
  Co  Co4  1  0.99999997  0.08617200  0.33704001  1
  Co  Co5  1  0.99999997  0.91382803  0.66296002  1
  Co  Co6  1  0.49999999  0.16296000  0.58617202  1
  Co  Co7  1  0.49999999  0.83704002  0.41382801  1
  Co  Co8  1  0.99999997  0.33704001  0.08617200  1
  Co  Co9  1  0.99999997  0.66296002  0.91382803  1
  Si  Si10  1  0.49999999  0.71922402  0.71922402  1
  Si  Si11  1  0.49999999  0.28077601  0.28077601  1
  Si  Si12  1  0.99999997  0.21922401  0.78077602  1
  Si  Si13  1  -0.00000000  0.78077602  0.21922401  1
