# generated using pymatgen
data_KVS3
_symmetry_space_group_name_H-M   'P 1'
_cell_length_a   6.07622480
_cell_length_b   7.12508202
_cell_length_c   7.12508202
_cell_angle_alpha   120.00000000
_cell_angle_beta   90.00000000
_cell_angle_gamma   90.00000000
_symmetry_Int_Tables_number   1
_chemical_formula_structural   KVS3
_chemical_formula_sum   'K2 V2 S6'
_cell_volume   267.14324715
_cell_formula_units_Z   2
loop_
 _symmetry_equiv_pos_site_id
 _symmetry_equiv_pos_as_xyz
  1  'x, y, z'
loop_
 _atom_site_type_symbol
 _atom_site_label
 _atom_site_symmetry_multiplicity
 _atom_site_fract_x
 _atom_site_fract_y
 _atom_site_fract_z
 _atom_site_occupancy
  K  K0  1  0.75709802  0.66666667  0.33333333  1
  K  K1  1  0.24290201  0.33333333  0.66666666  1
  V  V2  1  0.00000000  0.00000000  0.00000000  1
  V  V3  1  0.50000002  0.00000000  -0.00000000  1
  S  S4  1  0.73223402  0.15697100  0.31394200  1
  S  S5  1  0.26776601  0.84302900  0.68605800  1
  S  S6  1  0.73223402  0.15697100  0.84302900  1
  S  S7  1  0.26776601  0.84302900  0.15697100  1
  S  S8  1  0.73223402  0.68605800  0.84302900  1
  S  S9  1  0.26776601  0.31394200  0.15697100  1
