# generated using pymatgen
data_Li2TiO3
_symmetry_space_group_name_H-M   'P 1'
_cell_length_a   5.27085161
_cell_length_b   5.30099010
_cell_length_c   5.30099010
_cell_angle_alpha   60.23469543
_cell_angle_beta   79.97735596
_cell_angle_gamma   100.02264404
_symmetry_Int_Tables_number   1
_chemical_formula_structural   Li2TiO3
_chemical_formula_sum   'Li4 Ti2 O6'
_cell_volume   120.59090846
_cell_formula_units_Z   2
loop_
 _symmetry_equiv_pos_site_id
 _symmetry_equiv_pos_as_xyz
  1  'x, y, z'
loop_
 _atom_site_type_symbol
 _atom_site_label
 _atom_site_symmetry_multiplicity
 _atom_site_fract_x
 _atom_site_fract_y
 _atom_site_fract_z
 _atom_site_occupancy
  Li  Li0  1  0.50000000  0.17010100  0.17010100  1
  Li  Li1  1  0.49999999  0.82989902  0.82989899  1
  Li  Li2  1  0.50000000  0.50000001  0.50000000  1
  Li  Li3  1  -0.00000000  0.33340401  0.33340400  1
  Ti  Ti4  1  -0.00000001  0.66659602  0.66659599  1
  Ti  Ti5  1  0.00000000  0.00000000  0.00000000  1
  O  O6  1  0.76441599  0.92129202  0.39252899  1
  O  O7  1  0.22851599  0.76473002  0.23526999  1
  O  O8  1  0.23558400  0.07870800  0.60747101  1
  O  O9  1  0.76441600  0.60747101  0.07870799  1
  O  O10  1  0.77148400  0.23527001  0.76473001  1
  O  O11  1  0.23558400  0.39252901  0.92129200  1
