# generated using pymatgen
data_LiLuMgCu2Ag
_symmetry_space_group_name_H-M   'P 1'
_cell_length_a   5.08229828
_cell_length_b   5.08229828
_cell_length_c   5.64451361
_cell_angle_alpha   63.24360275
_cell_angle_beta   63.24360275
_cell_angle_gamma   59.99999619
_symmetry_Int_Tables_number   1
_chemical_formula_structural   LiLuMgCu2Ag
_chemical_formula_sum   'Li1 Lu1 Mg1 Cu2 Ag1'
_cell_volume   107.86191285
_cell_formula_units_Z   1
loop_
 _symmetry_equiv_pos_site_id
 _symmetry_equiv_pos_as_xyz
  1  'x, y, z'
loop_
 _atom_site_type_symbol
 _atom_site_label
 _atom_site_symmetry_multiplicity
 _atom_site_fract_x
 _atom_site_fract_y
 _atom_site_fract_z
 _atom_site_occupancy
  Li  Li0  1  0.50000001  0.50000000  0.50000003  1
  Lu  Lu1  1  0.66615101  1.00000001  1.00000005  1
  Mg  Mg2  1  0.33384901  0.66615100  0.00000002  1
  Ag  Ag3  1  0.00000000  0.33384900  0.00000001  1
  Cu  Cu4  1  0.83277901  0.83277900  0.50166304  1
  Cu  Cu5  1  0.16722100  0.16722100  0.49833702  1
