# generated using pymatgen
data_Sc2Si3
_symmetry_space_group_name_H-M   'P 1'
_cell_length_a   5.47034597
_cell_length_b   5.47034597
_cell_length_c   7.36408424
_cell_angle_alpha   100.88389587
_cell_angle_beta   100.88389587
_cell_angle_gamma   119.44770813
_symmetry_Int_Tables_number   1
_chemical_formula_structural   Sc2Si3
_chemical_formula_sum   'Sc4 Si6'
_cell_volume   177.93114590
_cell_formula_units_Z   2
loop_
 _symmetry_equiv_pos_site_id
 _symmetry_equiv_pos_as_xyz
  1  'x, y, z'
loop_
 _atom_site_type_symbol
 _atom_site_label
 _atom_site_symmetry_multiplicity
 _atom_site_fract_x
 _atom_site_fract_y
 _atom_site_fract_z
 _atom_site_occupancy
  Sc  Sc0  1  0.37599897  0.51118398  0.39537998  1
  Sc  Sc1  1  0.11580395  0.98061896  0.60461997  1
  Sc  Sc2  1  0.76118398  0.12599899  0.89537999  1
  Sc  Sc3  1  0.23061895  0.86580396  0.10461996  1
  Si  Si4  1  0.62310798  0.12310799  0.49999999  1
  Si  Si5  1  0.37310798  0.37310798  -0.00000003  1
  Si  Si6  1  0.80303094  0.94133196  0.22927394  1
  Si  Si7  1  0.71205696  0.57375698  0.77072497  1
  Si  Si8  1  0.19133197  0.55303098  0.72927499  1
  Si  Si9  1  0.82375696  0.46205698  0.27072596  1
