# generated using pymatgen
data_Tm(CoGe)2
_symmetry_space_group_name_H-M   'P 1'
_cell_length_a   4.18764400
_cell_length_b   4.18764400
_cell_length_c   5.62776232
_cell_angle_alpha   111.84224701
_cell_angle_beta   111.84224701
_cell_angle_gamma   90.00000000
_symmetry_Int_Tables_number   1
_chemical_formula_structural   Tm(CoGe)2
_chemical_formula_sum   'Tm1 Co2 Ge2'
_cell_volume   83.92487078
_cell_formula_units_Z   1
loop_
 _symmetry_equiv_pos_site_id
 _symmetry_equiv_pos_as_xyz
  1  'x, y, z'
loop_
 _atom_site_type_symbol
 _atom_site_label
 _atom_site_symmetry_multiplicity
 _atom_site_fract_x
 _atom_site_fract_y
 _atom_site_fract_z
 _atom_site_occupancy
  Tm  Tm0  1  0.00000000  0.00000000  0.00000000  1
  Co  Co1  1  0.63197603  0.63197601  0.26395205  1
  Co  Co2  1  0.36802402  0.36802401  0.73604803  1
  Ge  Ge3  1  0.75000002  0.25000001  0.50000003  1
  Ge  Ge4  1  0.25000003  0.75000002  0.50000004  1
