# generated using pymatgen
data_HfSi
_symmetry_space_group_name_H-M   'P 1'
_cell_length_a   6.67152023
_cell_length_b   7.67795753
_cell_length_c   6.67152023
_cell_angle_alpha   115.75089264
_cell_angle_beta   90.00000000
_cell_angle_gamma   115.75089264
_symmetry_Int_Tables_number   1
_chemical_formula_structural   HfSi
_chemical_formula_sum   'Hf8 Si8'
_cell_volume   269.62589385
_cell_formula_units_Z   8
loop_
 _symmetry_equiv_pos_site_id
 _symmetry_equiv_pos_as_xyz
  1  'x, y, z'
loop_
 _atom_site_type_symbol
 _atom_site_label
 _atom_site_symmetry_multiplicity
 _atom_site_fract_x
 _atom_site_fract_y
 _atom_site_fract_z
 _atom_site_occupancy
  Hf  Hf0  1  0.99380097  0.30877101  0.49380098  1
  Hf  Hf1  1  0.49380098  0.30877201  0.31497099  1
  Hf  Hf2  1  0.81496997  0.30877001  0.99379997  1
  Hf  Hf3  1  0.50619899  0.69122801  0.68502898  1
  Hf  Hf4  1  0.31496999  0.30877101  0.81496997  1
  Hf  Hf5  1  0.00619900  0.69122901  0.50619899  1
  Hf  Hf6  1  0.68502998  0.69122901  0.18503000  1
  Hf  Hf7  1  0.18503000  0.69123001  0.00620000  1
  Si  Si8  1  0.49999998  0.00000000  0.49999998  1
  Si  Si9  1  0.00000000  0.00000000  0.00000000  1
  Si  Si10  1  0.86364297  0.00000100  0.63635798  1
  Si  Si11  1  0.36364299  1.00000002  0.86364298  1
  Si  Si12  1  0.63635698  0.00000000  0.13635700  1
  Si  Si13  1  0.13635700  0.99999902  0.36364199  1
  Si  Si14  1  0.24999999  0.50000001  0.24999999  1
  Si  Si15  1  0.74999998  0.50000001  0.74999998  1
