# generated using pymatgen
data_CaCoO3
_symmetry_space_group_name_H-M   'P 1'
_cell_length_a   5.44905519
_cell_length_b   5.83971214
_cell_length_c   7.56413317
_cell_angle_alpha   90.00000000
_cell_angle_beta   89.67671967
_cell_angle_gamma   90.00000000
_symmetry_Int_Tables_number   1
_chemical_formula_structural   CaCoO3
_chemical_formula_sum   'Ca4 Co4 O12'
_cell_volume   240.69379803
_cell_formula_units_Z   4
loop_
 _symmetry_equiv_pos_site_id
 _symmetry_equiv_pos_as_xyz
  1  'x, y, z'
loop_
 _atom_site_type_symbol
 _atom_site_label
 _atom_site_symmetry_multiplicity
 _atom_site_fract_x
 _atom_site_fract_y
 _atom_site_fract_z
 _atom_site_occupancy
  Ca  Ca0  1  0.48278698  0.92850098  0.24948801  1
  Ca  Ca1  1  0.01721300  0.42850099  0.25051201  1
  Ca  Ca2  1  0.51721298  0.07149900  0.75051203  1
  Ca  Ca3  1  0.98278696  0.57149899  0.74948803  1
  Co  Co4  1  0.49999998  0.49999999  0.50000002  1
  Co  Co5  1  0.00000000  0.00000000  0.00000000  1
  Co  Co6  1  0.49999998  0.49999999  0.00000000  1
  Co  Co7  1  -0.00000000  0.00000000  0.50000002  1
  O  O8  1  0.60512098  0.53556299  0.24843501  1
  O  O9  1  0.89487897  0.03556300  0.25156501  1
  O  O10  1  0.39487899  0.46443699  0.75156503  1
  O  O11  1  0.10512100  0.96443698  0.74843502  1
  O  O12  1  0.29226299  0.17836600  0.05218100  1
  O  O13  1  0.20773699  0.67836598  0.44781902  1
  O  O14  1  0.68195198  0.79088798  0.55496602  1
  O  O15  1  0.81804797  0.29088799  0.94503403  1
  O  O16  1  0.70773697  0.82163398  0.94781903  1
  O  O17  1  0.79226297  0.32163399  0.55218102  1
  O  O18  1  0.31804799  0.20911199  0.44503402  1
  O  O19  1  0.18195199  0.70911198  0.05496600  1
