# generated using pymatgen
data_Sc3Sn
_symmetry_space_group_name_H-M   'P 1'
_cell_length_a   3.20867610
_cell_length_b   5.28901196
_cell_length_c   6.12398052
_cell_angle_alpha   115.58362579
_cell_angle_beta   105.18736267
_cell_angle_gamma   90.00000000
_symmetry_Int_Tables_number   1
_chemical_formula_structural   Sc3Sn
_chemical_formula_sum   'Sc3 Sn1'
_cell_volume   89.69767167
_cell_formula_units_Z   1
loop_
 _symmetry_equiv_pos_site_id
 _symmetry_equiv_pos_as_xyz
  1  'x, y, z'
loop_
 _atom_site_type_symbol
 _atom_site_label
 _atom_site_symmetry_multiplicity
 _atom_site_fract_x
 _atom_site_fract_y
 _atom_site_fract_z
 _atom_site_occupancy
  Sc  Sc0  1  0.00000000  0.66395402  0.00000002  1
  Sc  Sc1  1  0.49999998  0.16848200  0.00000000  1
  Sc  Sc2  1  0.74839597  0.74884502  0.49679201  1
  Sn  Sn3  1  0.25160399  0.25205301  0.50320799  1
