# generated using pymatgen
data_MgSn2
_symmetry_space_group_name_H-M   'P 1'
_cell_length_a   3.43591809
_cell_length_b   6.09242010
_cell_length_c   8.10995674
_cell_angle_alpha   110.41366577
_cell_angle_beta   90.00000000
_cell_angle_gamma   106.37859344
_symmetry_Int_Tables_number   1
_chemical_formula_structural   MgSn2
_chemical_formula_sum   'Mg2 Sn4'
_cell_volume   151.73214844
_cell_formula_units_Z   2
loop_
 _symmetry_equiv_pos_site_id
 _symmetry_equiv_pos_as_xyz
  1  'x, y, z'
loop_
 _atom_site_type_symbol
 _atom_site_label
 _atom_site_symmetry_multiplicity
 _atom_site_fract_x
 _atom_site_fract_y
 _atom_site_fract_z
 _atom_site_occupancy
  Mg  Mg0  1  0.97305398  0.94610798  0.69923000  1
  Mg  Mg1  1  0.02694600  0.05389200  0.30077001  1
  Sn  Sn2  1  0.68734498  0.37468999  0.63300202  1
  Sn  Sn3  1  0.35938399  0.71876799  0.96711002  1
  Sn  Sn4  1  0.64061598  0.28123200  0.03288999  1
  Sn  Sn5  1  0.31265499  0.62530999  0.36699799  1
