# generated using pymatgen
data_La4(Sb2Ru)5
_symmetry_space_group_name_H-M   'P 1'
_cell_length_a   8.84683895
_cell_length_b   8.84683895
_cell_length_c   8.84683895
_cell_angle_alpha   109.47122192
_cell_angle_beta   109.47122192
_cell_angle_gamma   109.47122192
_symmetry_Int_Tables_number   1
_chemical_formula_structural   La4(Sb2Ru)5
_chemical_formula_sum   'La4 Sb10 Ru5'
_cell_volume   533.01870856
_cell_formula_units_Z   1
loop_
 _symmetry_equiv_pos_site_id
 _symmetry_equiv_pos_as_xyz
  1  'x, y, z'
loop_
 _atom_site_type_symbol
 _atom_site_label
 _atom_site_symmetry_multiplicity
 _atom_site_fract_x
 _atom_site_fract_y
 _atom_site_fract_z
 _atom_site_occupancy
  La  La0  1  0.50172803  0.18971301  0.31201503  1
  La  La1  1  0.49827207  0.81028706  0.68798508  1
  La  La2  1  0.12230106  0.81028606  0.31201406  1
  La  La3  1  0.87769904  0.18971401  0.68798605  1
  Sb  Sb4  1  0.18971305  0.68798505  0.87769807  1
  Sb  Sb5  1  0.81028705  0.31201502  0.12230204  1
  Sb  Sb6  1  0.81028707  0.68798605  0.49827207  1
  Sb  Sb7  1  0.18971303  0.31201402  0.50172804  1
  Sb  Sb8  1  0.31201502  0.12230201  0.81028704  1
  Sb  Sb9  1  0.68798508  0.87769806  0.18971307  1
  Sb  Sb10  1  0.68798506  0.49827203  0.81028607  1
  Sb  Sb11  1  0.31201504  0.50172803  0.18971404  1
  Ru  Ru12  1  0.50000007  0.87926806  0.37926807  1
  Sb  Sb13  1  0.50000003  0.12073201  0.62073204  1
  Ru  Ru14  1  0.12073204  0.62073204  0.50000005  1
  Ru  Ru15  1  0.87926806  0.37926803  0.50000006  1
  Ru  Ru16  1  0.62073205  0.50000003  0.12073205  1
  Ru  Ru17  1  0.37926805  0.50000003  0.87926806  1
  Sb  Sb18  1  0.00000000  0.00000000  0.00000000  1
