# generated using pymatgen
data_Eu4Si3P5
_symmetry_space_group_name_H-M   'P 1'
_cell_length_a   3.97644997
_cell_length_b   7.37766314
_cell_length_c   9.56251717
_cell_angle_alpha   89.51457214
_cell_angle_beta   90.00000000
_cell_angle_gamma   90.00000000
_symmetry_Int_Tables_number   1
_chemical_formula_structural   Eu4Si3P5
_chemical_formula_sum   'Eu4 Si3 P5'
_cell_volume   280.52462114
_cell_formula_units_Z   1
loop_
 _symmetry_equiv_pos_site_id
 _symmetry_equiv_pos_as_xyz
  1  'x, y, z'
loop_
 _atom_site_type_symbol
 _atom_site_label
 _atom_site_symmetry_multiplicity
 _atom_site_fract_x
 _atom_site_fract_y
 _atom_site_fract_z
 _atom_site_occupancy
  Eu  Eu0  1  0.00000000  0.75805699  0.65945202  1
  Eu  Eu1  1  0.00000000  0.26441600  0.83186001  1
  Eu  Eu2  1  0.50000000  0.24152200  0.34284801  1
  Eu  Eu3  1  0.50000000  0.73966699  0.16466002  1
  Si  Si4  1  -0.00000000  0.36808099  0.54642801  1
  Si  Si5  1  0.00000000  0.43455899  0.15034301  1
  Si  Si6  1  0.00000000  0.93248598  0.35397603  1
  P  P7  1  0.50000000  0.56711099  0.84896902  1
  P  P8  1  0.50000000  0.07700400  0.64242400  1
  P  P9  1  -0.00000000  0.86936798  0.95241103  1
  P  P10  1  0.50000000  0.61356799  0.45990602  1
  P  P11  1  0.50000000  0.13415800  0.04672300  1
