# generated using pymatgen
data_Mg5Ag4
_symmetry_space_group_name_H-M   'P 1'
_cell_length_a   6.38243008
_cell_length_b   8.46428967
_cell_length_c   8.46428967
_cell_angle_alpha   60.00000000
_cell_angle_beta   90.00000000
_cell_angle_gamma   90.00000000
_symmetry_Int_Tables_number   1
_chemical_formula_structural   Mg5Ag4
_chemical_formula_sum   'Mg10 Ag8'
_cell_volume   396.00232159
_cell_formula_units_Z   2
loop_
 _symmetry_equiv_pos_site_id
 _symmetry_equiv_pos_as_xyz
  1  'x, y, z'
loop_
 _atom_site_type_symbol
 _atom_site_label
 _atom_site_symmetry_multiplicity
 _atom_site_fract_x
 _atom_site_fract_y
 _atom_site_fract_z
 _atom_site_occupancy
  Mg  Mg0  1  0.99999999  0.66666668  0.66666670  1
  Mg  Mg1  1  0.99999999  0.33333334  0.33333335  1
  Mg  Mg2  1  0.49999999  0.33333334  0.33333335  1
  Mg  Mg3  1  0.49999999  0.66666668  0.66666670  1
  Mg  Mg4  1  0.25000000  0.22399700  0.00000000  1
  Mg  Mg5  1  0.25000000  0.00000000  0.77600303  1
  Mg  Mg6  1  0.25000000  0.77600301  0.22399702  1
  Mg  Mg7  1  0.74999999  0.77600301  0.00000001  1
  Mg  Mg8  1  0.74999999  0.00000000  0.22399701  1
  Mg  Mg9  1  0.74999999  0.22399700  0.77600303  1
  Ag  Ag10  1  0.25000000  0.59283301  0.00000001  1
  Ag  Ag11  1  0.25000000  0.00000000  0.40716702  1
  Ag  Ag12  1  0.25000000  0.40716701  0.59283303  1
  Ag  Ag13  1  0.74999999  0.40716701  0.00000000  1
  Ag  Ag14  1  0.74999999  0.00000000  0.59283302  1
  Ag  Ag15  1  0.74999999  0.59283301  0.40716702  1
  Ag  Ag16  1  0.00000000  0.00000000  0.00000000  1
  Ag  Ag17  1  0.49999999  0.00000000  -0.00000000  1
