# generated using pymatgen
data_HoSi2
_symmetry_space_group_name_H-M   'P 1'
_cell_length_a   4.15721178
_cell_length_b   5.44891548
_cell_length_c   5.85328913
_cell_angle_alpha   76.84376526
_cell_angle_beta   69.19934845
_cell_angle_gamma   67.57514191
_symmetry_Int_Tables_number   1
_chemical_formula_structural   HoSi2
_chemical_formula_sum   'Ho2 Si4'
_cell_volume   113.92231863
_cell_formula_units_Z   2
loop_
 _symmetry_equiv_pos_site_id
 _symmetry_equiv_pos_as_xyz
  1  'x, y, z'
loop_
 _atom_site_type_symbol
 _atom_site_label
 _atom_site_symmetry_multiplicity
 _atom_site_fract_x
 _atom_site_fract_y
 _atom_site_fract_z
 _atom_site_occupancy
  Ho  Ho0  1  0.43791503  0.31369201  0.81047800  1
  Ho  Ho1  1  0.56208506  0.68630802  0.18952201  1
  Si  Si2  1  0.81416707  0.77398902  0.59767701  1
  Si  Si3  1  0.18583302  0.22601101  0.40232300  1
  Si  Si4  1  0.13876604  0.91129803  0.81117000  1
  Si  Si5  1  0.86123404  0.08870200  0.18883001  1
