# generated using pymatgen
data_Li4NiHO6
_symmetry_space_group_name_H-M   'P 1'
_cell_length_a   4.90778780
_cell_length_b   5.25148392
_cell_length_c   5.77871990
_cell_angle_alpha   90.00000000
_cell_angle_beta   90.00000000
_cell_angle_gamma   89.62733459
_symmetry_Int_Tables_number   1
_chemical_formula_structural   Li4NiHO6
_chemical_formula_sum   'Li4 Ni1 H1 O6'
_cell_volume   148.93277254
_cell_formula_units_Z   1
loop_
 _symmetry_equiv_pos_site_id
 _symmetry_equiv_pos_as_xyz
  1  'x, y, z'
loop_
 _atom_site_type_symbol
 _atom_site_label
 _atom_site_symmetry_multiplicity
 _atom_site_fract_x
 _atom_site_fract_y
 _atom_site_fract_z
 _atom_site_occupancy
  Li  Li0  1  0.00000003  0.50000002  0.18025400  1
  Li  Li1  1  0.50000005  0.50000002  0.67816501  1
  Li  Li2  1  0.50000002  0.00000000  0.32481901  1
  Li  Li3  1  0.00000000  0.00000000  0.82877801  1
  Ni  Ni4  1  0.77439608  0.67132702  0.89115202  1
  O  O5  1  0.77325104  0.17479801  0.10656900  1
  O  O6  1  0.72141408  0.67050102  0.39138901  1
  H  H7  1  0.72800304  0.17130801  0.60488101  1
  O  O8  1  0.27199707  0.82869203  0.60488101  1
  O  O9  1  0.27858603  0.32949901  0.39138901  1
  O  O10  1  0.22560403  0.32867301  0.89115202  1
  O  O11  1  0.22674907  0.82520203  0.10656900  1
