# generated using pymatgen
data_Na2CaO3
_symmetry_space_group_name_H-M   'P 1'
_cell_length_a   3.87837434
_cell_length_b   3.87837434
_cell_length_c   12.74175835
_cell_angle_alpha   81.24604797
_cell_angle_beta   81.24604797
_cell_angle_gamma   59.99999237
_symmetry_Int_Tables_number   1
_chemical_formula_structural   Na2CaO3
_chemical_formula_sum   'Na4 Ca2 O6'
_cell_volume   163.39829181
_cell_formula_units_Z   2
loop_
 _symmetry_equiv_pos_site_id
 _symmetry_equiv_pos_as_xyz
  1  'x, y, z'
loop_
 _atom_site_type_symbol
 _atom_site_label
 _atom_site_symmetry_multiplicity
 _atom_site_fract_x
 _atom_site_fract_y
 _atom_site_fract_z
 _atom_site_occupancy
  Na  Na0  1  0.24998600  0.24998601  0.25004201  1
  Na  Na1  1  0.50000000  0.50000001  0.50000002  1
  Na  Na2  1  0.75001400  0.75001402  0.74995802  1
  Na  Na3  1  0.00000000  0.00000000  0.00000000  1
  Ca  Ca4  1  0.81161300  0.81161302  0.56516102  1
  Ca  Ca5  1  0.05708300  0.05708300  0.82875102  1
  O  O6  1  0.31593500  0.31593501  0.05219500  1
  O  O7  1  0.56481000  0.56481001  0.30557001  1
  O  O8  1  0.43519000  0.43519001  0.69443002  1
  O  O9  1  0.68406500  0.68406502  0.94780503  1
  O  O10  1  0.94291700  0.94291702  0.17124901  1
  O  O11  1  0.18838700  0.18838700  0.43483901  1
