# generated using pymatgen
data_Eu4(GeS)3
_symmetry_space_group_name_H-M   'P 1'
_cell_length_a   4.07097578
_cell_length_b   4.07097626
_cell_length_c   18.22854233
_cell_angle_alpha   90.00000000
_cell_angle_beta   90.00000000
_cell_angle_gamma   120.00000000
_symmetry_Int_Tables_number   1
_chemical_formula_structural   Eu4(GeS)3
_chemical_formula_sum   'Eu4 Ge3 S3'
_cell_volume   261.62525273
_cell_formula_units_Z   1
loop_
 _symmetry_equiv_pos_site_id
 _symmetry_equiv_pos_as_xyz
  1  'x, y, z'
loop_
 _atom_site_type_symbol
 _atom_site_label
 _atom_site_symmetry_multiplicity
 _atom_site_fract_x
 _atom_site_fract_y
 _atom_site_fract_z
 _atom_site_occupancy
  Eu  Eu0  1  0.00000000  0.00000000  0.89433403  1
  Eu  Eu1  1  0.00000000  0.00000000  0.39433401  1
  Eu  Eu2  1  0.00000000  0.00000000  0.10566600  1
  Eu  Eu3  1  0.00000000  0.00000000  0.60566602  1
  Ge  Ge4  1  0.33333339  0.66666669  0.00179300  1
  Ge  Ge5  1  0.66666672  0.33333335  0.50179302  1
  S  S6  1  0.66666672  0.33333335  0.99820704  1
  Ge  Ge7  1  0.33333339  0.66666669  0.49820702  1
  S  S8  1  0.33333339  0.66666669  0.75000003  1
  S  S9  1  0.66666672  0.33333335  0.25000001  1
