# generated using pymatgen
data_Sr2Li7N3
_symmetry_space_group_name_H-M   'P 1'
_cell_length_a   4.95273590
_cell_length_b   5.35742092
_cell_length_c   9.42952728
_cell_angle_alpha   90.00000000
_cell_angle_beta   90.00000000
_cell_angle_gamma   102.21745300
_symmetry_Int_Tables_number   1
_chemical_formula_structural   Sr2Li7N3
_chemical_formula_sum   'Sr2 Li7 N3'
_cell_volume   244.53534157
_cell_formula_units_Z   1
loop_
 _symmetry_equiv_pos_site_id
 _symmetry_equiv_pos_as_xyz
  1  'x, y, z'
loop_
 _atom_site_type_symbol
 _atom_site_label
 _atom_site_symmetry_multiplicity
 _atom_site_fract_x
 _atom_site_fract_y
 _atom_site_fract_z
 _atom_site_occupancy
  Sr  Sr0  1  0.00408099  0.34673598  0.74999998  1
  Sr  Sr1  1  0.99591900  0.65326397  0.24999999  1
  Li  Li2  1  0.27589398  0.89309896  0.74999998  1
  Li  Li3  1  0.72410601  0.10690099  0.24999999  1
  Li  Li4  1  0.61618499  0.95543296  0.59262998  1
  Li  Li5  1  0.38381501  0.04456700  0.09263000  1
  Li  Li6  1  0.38381501  0.04456700  0.40736999  1
  Li  Li7  1  0.61618499  0.95543296  0.90736997  1
  Li  Li8  1  0.71426800  0.59501697  0.52872798  1
  N  N9  1  0.28573199  0.40498298  0.02872800  1
  N  N10  1  0.28573199  0.40498298  0.47127199  1
  N  N11  1  0.71426800  0.59501697  0.97127197  1
