# generated using pymatgen
data_Dy2Ni7
_symmetry_space_group_name_H-M   'P 1'
_cell_length_a   5.19423819
_cell_length_b   6.90389919
_cell_length_c   7.35912609
_cell_angle_alpha   90.00000000
_cell_angle_beta   110.66548920
_cell_angle_gamma   90.00000000
_symmetry_Int_Tables_number   1
_chemical_formula_structural   Dy2Ni7
_chemical_formula_sum   'Dy4 Ni14'
_cell_volume   246.92161562
_cell_formula_units_Z   2
loop_
 _symmetry_equiv_pos_site_id
 _symmetry_equiv_pos_as_xyz
  1  'x, y, z'
loop_
 _atom_site_type_symbol
 _atom_site_label
 _atom_site_symmetry_multiplicity
 _atom_site_fract_x
 _atom_site_fract_y
 _atom_site_fract_z
 _atom_site_occupancy
  Dy  Dy0  1  0.10443700  0.59839698  0.20887400  1
  Dy  Dy1  1  0.89556297  0.40160299  0.79112598  1
  Dy  Dy2  1  0.39556299  0.09839700  0.79112598  1
  Dy  Dy3  1  0.60443698  0.90160297  0.20887399  1
  Ni  Ni4  1  0.81152297  0.24999999  0.12304600  1
  Ni  Ni5  1  0.68847697  0.74999998  0.87695398  1
  Ni  Ni6  1  0.18847699  0.74999998  0.87695398  1
  Ni  Ni7  1  0.31152299  0.24999999  0.12304600  1
  Ni  Ni8  1  0.18246499  0.97687197  0.36492999  1
  Ni  Ni9  1  0.81753497  0.02312800  0.63506999  1
  Ni  Ni10  1  0.31753499  0.47687199  0.63506999  1
  Ni  Ni11  1  0.68246497  0.52312799  0.36492999  1
  Ni  Ni12  1  0.00000000  0.00000000  0.00000000  1
  Ni  Ni13  1  0.49999998  0.49999999  0.99999998  1
  Ni  Ni14  1  0.97710096  0.24999999  0.45420199  1
  Ni  Ni15  1  0.52289898  0.74999998  0.54579799  1
  Ni  Ni16  1  0.02289900  0.74999998  0.54579799  1
  Ni  Ni17  1  0.47710098  0.24999999  0.45420199  1
