# generated using pymatgen
data_DyCo5
_symmetry_space_group_name_H-M   'P 1'
_cell_length_a   3.03207207
_cell_length_b   4.87416792
_cell_length_c   4.87416840
_cell_angle_alpha   119.99999237
_cell_angle_beta   90.00000000
_cell_angle_gamma   90.00000000
_symmetry_Int_Tables_number   1
_chemical_formula_structural   DyCo5
_chemical_formula_sum   'Dy1 Co5'
_cell_volume   62.38371028
_cell_formula_units_Z   1
loop_
 _symmetry_equiv_pos_site_id
 _symmetry_equiv_pos_as_xyz
  1  'x, y, z'
loop_
 _atom_site_type_symbol
 _atom_site_label
 _atom_site_symmetry_multiplicity
 _atom_site_fract_x
 _atom_site_fract_y
 _atom_site_fract_z
 _atom_site_occupancy
  Dy  Dy0  1  0.00000000  0.00000000  0.00000000  1
  Co  Co1  1  0.49999999  0.49999999  1.00000001  1
  Co  Co2  1  0.49999999  0.49999999  0.49999998  1
  Co  Co3  1  0.49999999  0.00000000  0.50000002  1
  Co  Co4  1  -0.00000000  0.33333333  0.66666667  1
  Co  Co5  1  0.99999998  0.66666665  0.33333330  1
