# generated using pymatgen
data_Ac2ZnIn
_symmetry_space_group_name_H-M   'P 1'
_cell_length_a   5.58770466
_cell_length_b   5.58770466
_cell_length_c   5.58770466
_cell_angle_alpha   60.00000000
_cell_angle_beta   60.00000000
_cell_angle_gamma   60.00000000
_symmetry_Int_Tables_number   1
_chemical_formula_structural   Ac2ZnIn
_chemical_formula_sum   'Ac2 Zn1 In1'
_cell_volume   123.36311629
_cell_formula_units_Z   1
loop_
 _symmetry_equiv_pos_site_id
 _symmetry_equiv_pos_as_xyz
  1  'x, y, z'
loop_
 _atom_site_type_symbol
 _atom_site_label
 _atom_site_symmetry_multiplicity
 _atom_site_fract_x
 _atom_site_fract_y
 _atom_site_fract_z
 _atom_site_occupancy
  Ac  Ac0  1  0.00000000  0.00000000  0.00000000  1
  Ac  Ac1  1  0.75000003  0.75000003  0.75000003  1
  Zn  Zn2  1  0.25000001  0.25000001  0.25000001  1
  In  In3  1  0.50000002  0.50000002  0.50000002  1
