# generated using pymatgen
data_Ti4AlN7
_symmetry_space_group_name_H-M   'P 1'
_cell_length_a   4.62975883
_cell_length_b   4.88610506
_cell_length_c   5.70027494
_cell_angle_alpha   90.00000000
_cell_angle_beta   90.00000000
_cell_angle_gamma   90.00000000
_symmetry_Int_Tables_number   1
_chemical_formula_structural   Ti4AlN7
_chemical_formula_sum   'Ti4 Al1 N7'
_cell_volume   128.94870166
_cell_formula_units_Z   1
loop_
 _symmetry_equiv_pos_site_id
 _symmetry_equiv_pos_as_xyz
  1  'x, y, z'
loop_
 _atom_site_type_symbol
 _atom_site_label
 _atom_site_symmetry_multiplicity
 _atom_site_fract_x
 _atom_site_fract_y
 _atom_site_fract_z
 _atom_site_occupancy
  Ti  Ti0  1  0.25000001  0.49999999  0.60752601  1
  Ti  Ti1  1  0.75000003  0.00000000  0.89247401  1
  Ti  Ti2  1  0.75000003  0.49999999  0.39247400  1
  Ti  Ti3  1  0.25000001  0.00000000  0.10752600  1
  Al  Al4  1  0.59136202  0.24253900  0.64039001  1
  N  N5  1  0.09136200  0.25746100  0.85961001  1
  N  N6  1  0.40863801  0.74253899  0.85961001  1
  N  N7  1  0.90863803  0.75746099  0.64039001  1
  N  N8  1  0.09136200  0.24253900  0.35961000  1
  N  N9  1  0.59136202  0.25746100  0.14039000  1
  N  N10  1  0.90863803  0.74253899  0.14039000  1
  N  N11  1  0.40863801  0.75746099  0.35961000  1
