# generated using pymatgen
data_Li5Ni3O4
_symmetry_space_group_name_H-M   'P 1'
_cell_length_a   3.92887998
_cell_length_b   6.32392788
_cell_length_c   6.32392788
_cell_angle_alpha   84.46263885
_cell_angle_beta   71.90243530
_cell_angle_gamma   71.90243530
_symmetry_Int_Tables_number   1
_chemical_formula_structural   Li5Ni3O4
_chemical_formula_sum   'Li5 Ni3 O4'
_cell_volume   141.96237707
_cell_formula_units_Z   1
loop_
 _symmetry_equiv_pos_site_id
 _symmetry_equiv_pos_as_xyz
  1  'x, y, z'
loop_
 _atom_site_type_symbol
 _atom_site_label
 _atom_site_symmetry_multiplicity
 _atom_site_fract_x
 _atom_site_fract_y
 _atom_site_fract_z
 _atom_site_occupancy
  Li  Li0  1  1.00000004  0.65147901  0.34852098  1
  Li  Li1  1  1.00000002  0.34852101  0.65147901  1
  Li  Li2  1  0.34852104  0.65147901  0.65147898  1
  Li  Li3  1  0.65147902  0.34852101  0.34852099  1
  Li  Li4  1  0.65756004  0.68488101  0.99999999  1
  Ni  Ni5  1  0.34244102  0.31511901  -0.00000002  1
  Ni  Ni6  1  0.65756000  0.00000000  0.68488103  1
  Ni  Ni7  1  0.34244100  0.00000000  0.31511901  1
  O  O8  1  0.50000002  0.31038501  0.68961500  1
  O  O9  1  0.50000004  0.68961501  0.31038497  1
  O  O10  1  0.18961502  0.31038501  0.31038499  1
  O  O11  1  0.81038504  0.68961501  0.68961498  1
