# generated using pymatgen
data_EuCoGe3
_symmetry_space_group_name_H-M   'P 1'
_cell_length_a   4.22939014
_cell_length_b   4.22939014
_cell_length_c   6.10483932
_cell_angle_alpha   110.26706696
_cell_angle_beta   110.26706696
_cell_angle_gamma   90.00000000
_symmetry_Int_Tables_number   1
_chemical_formula_structural   EuCoGe3
_chemical_formula_sum   'Eu1 Co1 Ge3'
_cell_volume   95.20109389
_cell_formula_units_Z   1
loop_
 _symmetry_equiv_pos_site_id
 _symmetry_equiv_pos_as_xyz
  1  'x, y, z'
loop_
 _atom_site_type_symbol
 _atom_site_label
 _atom_site_symmetry_multiplicity
 _atom_site_fract_x
 _atom_site_fract_y
 _atom_site_fract_z
 _atom_site_occupancy
  Eu  Eu0  1  0.00000000  0.00000000  0.00000000  1
  Co  Co1  1  0.36642299  0.36642299  0.73284603  1
  Ge  Ge2  1  0.63357699  0.63357698  0.26715402  1
  Ge  Ge3  1  0.74999998  0.24999999  0.50000002  1
  Ge  Ge4  1  0.25000000  0.74999998  0.50000003  1
