# generated using pymatgen
data_MgCdPd2
_symmetry_space_group_name_H-M   'P 1'
_cell_length_a   4.10547495
_cell_length_b   4.10547495
_cell_length_c   20.48827553
_cell_angle_alpha   90.00000000
_cell_angle_beta   90.00000000
_cell_angle_gamma   90.00000000
_symmetry_Int_Tables_number   1
_chemical_formula_structural   MgCdPd2
_chemical_formula_sum   'Mg5 Cd5 Pd10'
_cell_volume   345.32833830
_cell_formula_units_Z   5
loop_
 _symmetry_equiv_pos_site_id
 _symmetry_equiv_pos_as_xyz
  1  'x, y, z'
loop_
 _atom_site_type_symbol
 _atom_site_label
 _atom_site_symmetry_multiplicity
 _atom_site_fract_x
 _atom_site_fract_y
 _atom_site_fract_z
 _atom_site_occupancy
  Mg  Mg0  1  0.00000000  0.00000000  0.20054199  1
  Mg  Mg1  1  0.00000000  0.00000000  0.39995899  1
  Mg  Mg2  1  0.00000000  0.00000000  0.60004098  1
  Mg  Mg3  1  0.00000000  0.00000000  0.79945798  1
  Mg  Mg4  1  0.50000001  0.50000001  0.00000000  1
  Cd  Cd5  1  0.50000001  0.50000001  0.19957199  1
  Cd  Cd6  1  0.50000001  0.50000001  0.39998699  1
  Cd  Cd7  1  0.50000001  0.50000001  0.60001298  1
  Cd  Cd8  1  0.50000001  0.50000001  0.80042798  1
  Pd  Pd9  1  0.50000001  0.00000000  0.10019700  1
  Pd  Pd10  1  0.50000001  0.00000000  0.30019899  1
  Cd  Cd11  1  0.50000001  0.00000000  0.49999999  1
  Pd  Pd12  1  0.50000001  0.00000000  0.69980098  1
  Pd  Pd13  1  0.50000001  0.00000000  0.89980298  1
  Pd  Pd14  1  0.00000000  0.50000001  0.10019700  1
  Pd  Pd15  1  0.00000000  0.50000001  0.30019899  1
  Pd  Pd16  1  0.00000000  0.50000001  0.49999999  1
  Pd  Pd17  1  0.00000000  0.50000001  0.69980098  1
  Pd  Pd18  1  0.00000000  0.50000001  0.89980298  1
  Pd  Pd19  1  0.00000000  0.00000000  0.00000000  1
