# generated using pymatgen
data_LiMnO2
_symmetry_space_group_name_H-M   'P 1'
_cell_length_a   5.10062695
_cell_length_b   5.11077785
_cell_length_c   5.87826633
_cell_angle_alpha   90.10517883
_cell_angle_beta   106.67186737
_cell_angle_gamma   99.52520752
_symmetry_Int_Tables_number   1
_chemical_formula_structural   LiMnO2
_chemical_formula_sum   'Li4 Mn4 O8'
_cell_volume   144.57296401
_cell_formula_units_Z   4
loop_
 _symmetry_equiv_pos_site_id
 _symmetry_equiv_pos_as_xyz
  1  'x, y, z'
loop_
 _atom_site_type_symbol
 _atom_site_label
 _atom_site_symmetry_multiplicity
 _atom_site_fract_x
 _atom_site_fract_y
 _atom_site_fract_z
 _atom_site_occupancy
  Li  Li0  1  0.49471203  0.74803200  0.87168700  1
  Li  Li1  1  0.50528801  0.25196800  0.12831299  1
  Li  Li2  1  0.50029503  0.74602100  0.37764399  1
  Li  Li3  1  0.49970501  0.25397900  0.62235600  1
  Mn  Mn4  1  0.00000002  0.50000000  -0.00000001  1
  Mn  Mn5  1  0.99843505  0.99733300  0.25207098  1
  Mn  Mn6  1  0.00156500  0.00266700  0.74792901  1
  Mn  Mn7  1  0.00000002  0.50000000  0.50000000  1
  O  O8  1  0.22327104  0.86999400  0.05406598  1
  O  O9  1  0.77672901  0.13000600  0.94593401  1
  O  O10  1  0.22279202  0.36913300  0.30402400  1
  O  O11  1  0.77136303  0.63544100  0.18658099  1
  O  O12  1  0.23022104  0.88191200  0.55521999  1
  O  O13  1  0.76977901  0.11808800  0.44478000  1
  O  O14  1  0.22863702  0.36455900  0.81341900  1
  O  O15  1  0.77720803  0.63086700  0.69597599  1
