# generated using pymatgen
data_SrLi2YAsO9
_symmetry_space_group_name_H-M   'P 1'
_cell_length_a   3.96872997
_cell_length_b   3.96872997
_cell_length_c   12.93976116
_cell_angle_alpha   98.82135010
_cell_angle_beta   98.82135010
_cell_angle_gamma   90.00000000
_symmetry_Int_Tables_number   1
_chemical_formula_structural   SrLi2YAsO9
_chemical_formula_sum   'Sr1 Li2 Y1 As1 O9'
_cell_volume   198.96095241
_cell_formula_units_Z   1
loop_
 _symmetry_equiv_pos_site_id
 _symmetry_equiv_pos_as_xyz
  1  'x, y, z'
loop_
 _atom_site_type_symbol
 _atom_site_label
 _atom_site_symmetry_multiplicity
 _atom_site_fract_x
 _atom_site_fract_y
 _atom_site_fract_z
 _atom_site_occupancy
  Sr  Sr0  1  0.00000000  0.00000000  0.00000000  1
  Li  Li1  1  0.41199700  0.41199700  0.82399402  1
  Li  Li2  1  0.58800301  0.58800300  0.17600601  1
  Y  Y3  1  0.20134300  0.20134300  0.40268601  1
  As  As4  1  0.79865701  0.79865701  0.59731402  1
  O  O5  1  0.08079400  0.58079400  0.16158800  1
  O  O6  1  0.58079400  0.08079400  0.16158800  1
  O  O7  1  0.91920601  0.41920600  0.83841202  1
  O  O8  1  0.41920600  0.91920601  0.83841202  1
  O  O9  1  0.75000001  0.25000000  0.50000001  1
  O  O10  1  0.50000000  0.50000000  0.00000000  1
  O  O11  1  0.33720400  0.33720400  0.67440802  1
  O  O12  1  0.66279601  0.66279601  0.32559201  1
  O  O13  1  0.25000000  0.75000001  0.50000001  1
