# generated using pymatgen
data_Eu4Sb3
_symmetry_space_group_name_H-M   'P 1'
_cell_length_a   8.59491062
_cell_length_b   8.59491062
_cell_length_c   8.59491062
_cell_angle_alpha   109.47122192
_cell_angle_beta   109.47122192
_cell_angle_gamma   109.47122192
_symmetry_Int_Tables_number   1
_chemical_formula_structural   Eu4Sb3
_chemical_formula_sum   'Eu8 Sb6'
_cell_volume   488.76734545
_cell_formula_units_Z   2
loop_
 _symmetry_equiv_pos_site_id
 _symmetry_equiv_pos_as_xyz
  1  'x, y, z'
loop_
 _atom_site_type_symbol
 _atom_site_label
 _atom_site_symmetry_multiplicity
 _atom_site_fract_x
 _atom_site_fract_y
 _atom_site_fract_z
 _atom_site_occupancy
  Eu  Eu0  1  0.64257305  0.64257303  0.14257305  1
  Eu  Eu1  1  0.14257301  0.14257301  0.64257302  1
  Eu  Eu2  1  0.35742707  1.00000005  1.00000007  1
  Eu  Eu3  1  0.50000006  0.85742704  0.50000006  1
  Eu  Eu4  1  0.85742701  0.00000000  1.00000003  1
  Eu  Eu5  1  0.00000003  0.50000002  0.85742703  1
  Eu  Eu6  1  0.50000003  0.35742702  0.50000004  1
  Eu  Eu7  1  0.00000003  0.50000002  0.35742703  1
  Sb  Sb8  1  0.12500006  0.87500004  0.25000005  1
  Sb  Sb9  1  0.25000003  0.37500002  0.12500003  1
  Sb  Sb10  1  0.75000002  0.12500001  0.37500003  1
  Sb  Sb11  1  0.37500005  0.62500003  0.75000005  1
  Sb  Sb12  1  0.87500006  0.75000004  0.62500007  1
  Sb  Sb13  1  0.62500003  0.25000001  0.87500004  1
