# generated using pymatgen
data_U(ReC)2
_symmetry_space_group_name_H-M   'P 1'
_cell_length_a   3.84785795
_cell_length_b   5.58062124
_cell_length_c   6.76024818
_cell_angle_alpha   90.00000000
_cell_angle_beta   90.00000000
_cell_angle_gamma   110.16664124
_symmetry_Int_Tables_number   1
_chemical_formula_structural   U(ReC)2
_chemical_formula_sum   'U2 Re4 C4'
_cell_volume   136.26622239
_cell_formula_units_Z   2
loop_
 _symmetry_equiv_pos_site_id
 _symmetry_equiv_pos_as_xyz
  1  'x, y, z'
loop_
 _atom_site_type_symbol
 _atom_site_label
 _atom_site_symmetry_multiplicity
 _atom_site_fract_x
 _atom_site_fract_y
 _atom_site_fract_z
 _atom_site_occupancy
  U  U0  1  0.44724695  0.89449398  0.74999998  1
  U  U1  1  0.55275300  0.10550600  0.24999999  1
  Re  Re2  1  0.16548698  0.33097399  0.93640097  1
  Re  Re3  1  0.83451297  0.66902598  0.06359900  1
  Re  Re4  1  0.83451297  0.66902598  0.43640099  1
  Re  Re5  1  0.16548698  0.33097399  0.56359898  1
  C  C6  1  0.72849498  0.45698999  0.74999998  1
  C  C7  1  0.27150497  0.54300999  0.24999999  1
  C  C8  1  0.00000000  0.00000000  0.00000000  1
  C  C9  1  0.00000000  0.00000000  0.49999999  1
