# generated using pymatgen
data_Mg3Cu4S7
_symmetry_space_group_name_H-M   'P 1'
_cell_length_a   7.49846315
_cell_length_b   7.49846315
_cell_length_c   7.49846315
_cell_angle_alpha   60.00000000
_cell_angle_beta   60.00000000
_cell_angle_gamma   60.00000000
_symmetry_Int_Tables_number   1
_chemical_formula_structural   Mg3Cu4S7
_chemical_formula_sum   'Mg3 Cu4 S7'
_cell_volume   298.12732784
_cell_formula_units_Z   1
loop_
 _symmetry_equiv_pos_site_id
 _symmetry_equiv_pos_as_xyz
  1  'x, y, z'
loop_
 _atom_site_type_symbol
 _atom_site_label
 _atom_site_symmetry_multiplicity
 _atom_site_fract_x
 _atom_site_fract_y
 _atom_site_fract_z
 _atom_site_occupancy
  Mg  Mg0  1  0.37499999  0.87499998  0.87499998  1
  Mg  Mg1  1  0.87499998  0.37499999  0.87499998  1
  Mg  Mg2  1  0.87499998  0.87499998  0.87499998  1
  Cu  Cu3  1  0.87499998  0.87499998  0.37499999  1
  Cu  Cu4  1  0.49999999  0.49999999  0.49999999  1
  Cu  Cu5  1  0.24999999  0.24999999  0.24999999  1
  Cu  Cu6  1  0.12071600  0.62642798  0.62642798  1
  S  S7  1  0.62642898  0.12071500  0.62642798  1
  S  S8  1  0.62642898  0.62642798  0.62642798  1
  S  S9  1  0.62642898  0.62642798  0.12071500  1
  S  S10  1  0.62928398  0.12357200  0.12357200  1
  S  S11  1  0.12357100  0.62928498  0.12357200  1
  S  S12  1  0.12357100  0.12357200  0.12357200  1
  S  S13  1  0.12357100  0.12357200  0.62928498  1
