# generated using pymatgen
data_Sr2Ca2LaO7
_symmetry_space_group_name_H-M   'P 1'
_cell_length_a   4.90548086
_cell_length_b   5.29574060
_cell_length_c   9.32544231
_cell_angle_alpha   90.00000000
_cell_angle_beta   90.00000000
_cell_angle_gamma   102.42788696
_symmetry_Int_Tables_number   1
_chemical_formula_structural   Sr2Ca2LaO7
_chemical_formula_sum   'Sr2 Ca2 La1 O7'
_cell_volume   236.58110844
_cell_formula_units_Z   1
loop_
 _symmetry_equiv_pos_site_id
 _symmetry_equiv_pos_as_xyz
  1  'x, y, z'
loop_
 _atom_site_type_symbol
 _atom_site_label
 _atom_site_symmetry_multiplicity
 _atom_site_fract_x
 _atom_site_fract_y
 _atom_site_fract_z
 _atom_site_occupancy
  Sr  Sr0  1  0.00182399  0.34692200  0.74999997  1
  Sr  Sr1  1  0.99817601  0.65307801  0.24999999  1
  O  O2  1  0.26918299  0.88989501  0.74999997  1
  Ca  Ca3  1  0.73081702  0.11010500  0.24999999  1
  Ca  Ca4  1  0.61697699  0.95757601  0.59380498  1
  La  La5  1  0.38302301  0.04242400  0.09380500  1
  O  O6  1  0.38302301  0.04242400  0.40619499  1
  O  O7  1  0.61697699  0.95757601  0.90619497  1
  O  O8  1  0.71787201  0.59432701  0.52818198  1
  O  O9  1  0.28212800  0.40567300  0.02818200  1
  O  O10  1  0.28212800  0.40567300  0.47181798  1
  O  O11  1  0.71787201  0.59432701  0.97181797  1
