# generated using pymatgen
data_CaYbZn2
_symmetry_space_group_name_H-M   'P 1'
_cell_length_a   5.10473394
_cell_length_b   5.26682615
_cell_length_c   5.10473299
_cell_angle_alpha   118.98703766
_cell_angle_beta   90.00000763
_cell_angle_gamma   118.98704529
_symmetry_Int_Tables_number   1
_chemical_formula_structural   CaYbZn2
_chemical_formula_sum   'Ca1 Yb1 Zn2'
_cell_volume   99.94407808
_cell_formula_units_Z   1
loop_
 _symmetry_equiv_pos_site_id
 _symmetry_equiv_pos_as_xyz
  1  'x, y, z'
loop_
 _atom_site_type_symbol
 _atom_site_label
 _atom_site_symmetry_multiplicity
 _atom_site_fract_x
 _atom_site_fract_y
 _atom_site_fract_z
 _atom_site_occupancy
  Ca  Ca0  1  0.24999996  0.49999996  0.74999994  1
  Yb  Yb1  1  0.74999996  0.49999996  0.24999991  1
  Zn  Zn2  1  0.50000001  0.00000000  0.49999997  1
  Zn  Zn3  1  0.00000000  0.00000000  0.00000000  1
