# generated using pymatgen
data_Yb2Ge3Au
_symmetry_space_group_name_H-M   'P 1'
_cell_length_a   4.71991396
_cell_length_b   4.71991444
_cell_length_c   7.39423609
_cell_angle_alpha   90.00000000
_cell_angle_beta   90.00000000
_cell_angle_gamma   120.00000000
_symmetry_Int_Tables_number   1
_chemical_formula_structural   Yb2Ge3Au
_chemical_formula_sum   'Yb2 Ge3 Au1'
_cell_volume   142.65669298
_cell_formula_units_Z   1
loop_
 _symmetry_equiv_pos_site_id
 _symmetry_equiv_pos_as_xyz
  1  'x, y, z'
loop_
 _atom_site_type_symbol
 _atom_site_label
 _atom_site_symmetry_multiplicity
 _atom_site_fract_x
 _atom_site_fract_y
 _atom_site_fract_z
 _atom_site_occupancy
  Yb  Yb0  1  0.66666670  0.33333335  0.27601500  1
  Yb  Yb1  1  0.66666670  0.33333335  0.73604599  1
  Ge  Ge2  1  0.33333338  0.66666670  0.51758099  1
  Ge  Ge3  1  0.33333338  0.66666670  0.94778599  1
  Ge  Ge4  1  0.00000000  0.00000000  0.06469500  1
  Au  Au5  1  0.00000000  0.00000000  0.45787699  1
