# generated using pymatgen
data_Li2NO
_symmetry_space_group_name_H-M   'P 1'
_cell_length_a   2.82247591
_cell_length_b   2.99559426
_cell_length_c   5.06252766
_cell_angle_alpha   93.50942993
_cell_angle_beta   90.00000000
_cell_angle_gamma   118.10601807
_symmetry_Int_Tables_number   1
_chemical_formula_structural   Li2NO
_chemical_formula_sum   'Li2 N1 O1'
_cell_volume   37.66509450
_cell_formula_units_Z   1
loop_
 _symmetry_equiv_pos_site_id
 _symmetry_equiv_pos_as_xyz
  1  'x, y, z'
loop_
 _atom_site_type_symbol
 _atom_site_label
 _atom_site_symmetry_multiplicity
 _atom_site_fract_x
 _atom_site_fract_y
 _atom_site_fract_z
 _atom_site_occupancy
  Li  Li0  1  0.66098603  0.32197201  0.59554103  1
  Li  Li1  1  0.99648805  0.99297602  0.02838902  1
  N  N2  1  0.35160903  0.70321801  0.80346504  1
  O  O3  1  0.65931403  0.31862801  0.22180401  1
