# generated using pymatgen
data_Sr4Fe5O9
_symmetry_space_group_name_H-M   'P 1'
_cell_length_a   5.53712368
_cell_length_b   6.74038458
_cell_length_c   6.74038458
_cell_angle_alpha   75.89123535
_cell_angle_beta   88.39479828
_cell_angle_gamma   88.39479828
_symmetry_Int_Tables_number   1
_chemical_formula_structural   Sr4Fe5O9
_chemical_formula_sum   'Sr4 Fe5 O9'
_cell_volume   243.82438746
_cell_formula_units_Z   1
loop_
 _symmetry_equiv_pos_site_id
 _symmetry_equiv_pos_as_xyz
  1  'x, y, z'
loop_
 _atom_site_type_symbol
 _atom_site_label
 _atom_site_symmetry_multiplicity
 _atom_site_fract_x
 _atom_site_fract_y
 _atom_site_fract_z
 _atom_site_occupancy
  Sr  Sr0  1  0.45521796  0.97837603  0.25358997  1
  Sr  Sr1  1  0.54478198  0.02162400  0.74641000  1
  Sr  Sr2  1  0.24999998  0.39933701  0.60066300  1
  Sr  Sr3  1  0.74999996  0.60066302  0.39933698  1
  Fe  Fe4  1  0.95521796  0.25359001  0.97837600  1
  Fe  Fe5  1  0.04478198  0.74641002  0.02162398  1
  Fe  Fe6  1  0.08780198  0.82328502  0.58549999  1
  Fe  Fe7  1  0.91219796  0.17671501  0.41449999  1
  Fe  Fe8  1  0.41219798  0.41450001  0.17671499  1
  O  O9  1  0.58780196  0.58550002  0.82328499  1
  O  O10  1  0.97921194  0.94157303  0.30262296  1
  O  O11  1  0.91820395  0.58885602  0.73631098  1
  O  O12  1  0.52078796  0.69737702  0.05842697  1
  O  O13  1  0.41820397  0.73631102  0.58885599  1
  O  O14  1  0.47921198  0.30262301  0.94157300  1
  O  O15  1  0.58179597  0.26368901  0.41114399  1
  O  O16  1  0.02078800  0.05842700  0.69737701  1
  O  O17  1  0.08179599  0.41114401  0.26368899  1
