# generated using pymatgen
data_Li2CaEuSi5P7
_symmetry_space_group_name_H-M   'P 1'
_cell_length_a   3.90872407
_cell_length_b   3.90872407
_cell_length_c   17.98260498
_cell_angle_alpha   90.00000000
_cell_angle_beta   90.00000000
_cell_angle_gamma   90.00000000
_symmetry_Int_Tables_number   1
_chemical_formula_structural   Li2CaEuSi5P7
_chemical_formula_sum   'Li2 Ca1 Eu1 Si5 P7'
_cell_volume   274.74046608
_cell_formula_units_Z   1
loop_
 _symmetry_equiv_pos_site_id
 _symmetry_equiv_pos_as_xyz
  1  'x, y, z'
loop_
 _atom_site_type_symbol
 _atom_site_label
 _atom_site_symmetry_multiplicity
 _atom_site_fract_x
 _atom_site_fract_y
 _atom_site_fract_z
 _atom_site_occupancy
  Ca  Ca0  1  0.49999999  0.00000000  0.62575000  1
  Li  Li1  1  0.49999999  0.00000000  0.07021200  1
  Li  Li2  1  0.00000000  0.49999999  0.92978800  1
  Eu  Eu3  1  0.00000000  0.49999999  0.37425000  1
  Si  Si4  1  0.00000000  0.00000000  0.76893800  1
  Si  Si5  1  0.49999999  0.49999999  0.76893800  1
  Si  Si6  1  0.00000000  0.00000000  0.23106200  1
  Si  Si7  1  0.49999999  0.49999999  0.23106200  1
  Si  Si8  1  0.00000000  0.49999999  0.14858600  1
  P  P9  1  0.00000000  0.49999999  0.67699800  1
  P  P10  1  0.49999999  0.00000000  0.32300200  1
  P  P11  1  0.49999999  0.00000000  0.85141400  1
  P  P12  1  0.49999999  0.49999999  0.50000000  1
  P  P13  1  0.00000000  0.00000000  0.50000000  1
  P  P14  1  0.49999999  0.49999999  -0.00000000  1
  P  P15  1  0.00000000  0.00000000  0.00000000  1
