# generated using pymatgen
data_Eu7Ir(OsN3)3
_symmetry_space_group_name_H-M   'P 1'
_cell_length_a   5.16647291
_cell_length_b   6.71507406
_cell_length_c   10.02502728
_cell_angle_alpha   90.00000000
_cell_angle_beta   90.00000000
_cell_angle_gamma   90.00000000
_symmetry_Int_Tables_number   1
_chemical_formula_structural   Eu7Ir(OsN3)3
_chemical_formula_sum   'Eu7 Ir1 Os3 N9'
_cell_volume   347.80075991
_cell_formula_units_Z   1
loop_
 _symmetry_equiv_pos_site_id
 _symmetry_equiv_pos_as_xyz
  1  'x, y, z'
loop_
 _atom_site_type_symbol
 _atom_site_label
 _atom_site_symmetry_multiplicity
 _atom_site_fract_x
 _atom_site_fract_y
 _atom_site_fract_z
 _atom_site_occupancy
  Eu  Eu0  1  0.25000000  0.69373199  0.54396699  1
  Eu  Eu1  1  0.75000001  0.30626800  0.45603299  1
  Eu  Eu2  1  0.75000001  0.80626799  0.04396700  1
  Eu  Eu3  1  0.25000000  0.19373200  0.95603297  1
  Eu  Eu4  1  0.25000000  0.53043800  0.22337399  1
  Eu  Eu5  1  0.75000001  0.46956200  0.77662598  1
  Eu  Eu6  1  0.75000001  0.96956199  0.72337398  1
  Ir  Ir7  1  0.25000000  0.03043800  0.27662599  1
  Os  Os8  1  0.25000000  0.74450799  0.85105398  1
  N  N9  1  0.75000001  0.25549200  0.14894600  1
  Os  Os10  1  0.75000001  0.75549199  0.35105399  1
  Os  Os11  1  0.25000000  0.24450800  0.64894598  1
  N  N12  1  0.25000000  0.47720400  0.76609098  1
  N  N13  1  0.75000001  0.52279600  0.23390899  1
  N  N14  1  0.75000001  0.02279600  0.26609099  1
  N  N15  1  0.25000000  0.97720399  0.73390898  1
  N  N16  1  0.25000000  0.80290099  0.03208000  1
  N  N17  1  0.75000001  0.19709900  0.96791997  1
  N  N18  1  0.75000001  0.69709899  0.53207999  1
  N  N19  1  0.25000000  0.30290100  0.46791999  1
