# generated using pymatgen
data_Ti3Fe7Mo2
_symmetry_space_group_name_H-M   'P 1'
_cell_length_a   5.18902493
_cell_length_b   5.18902493
_cell_length_c   6.98653984
_cell_angle_alpha   68.20055389
_cell_angle_beta   68.20055389
_cell_angle_gamma   59.99998856
_symmetry_Int_Tables_number   1
_chemical_formula_structural   Ti3Fe7Mo2
_chemical_formula_sum   'Ti3 Fe7 Mo2'
_cell_volume   147.17775455
_cell_formula_units_Z   1
loop_
 _symmetry_equiv_pos_site_id
 _symmetry_equiv_pos_as_xyz
  1  'x, y, z'
loop_
 _atom_site_type_symbol
 _atom_site_label
 _atom_site_symmetry_multiplicity
 _atom_site_fract_x
 _atom_site_fract_y
 _atom_site_fract_z
 _atom_site_occupancy
  Ti  Ti0  1  0.21917399  0.21917400  0.34247800  1
  Ti  Ti1  1  0.78285398  0.78285399  0.65143800  1
  Ti  Ti2  1  0.99970698  0.99970699  0.00087901  1
  Fe  Fe3  1  0.50592599  0.50592600  0.99432100  1
  Fe  Fe4  1  0.99382698  0.50592600  0.99432100  1
  Fe  Fe5  1  0.50592598  0.99382699  0.99432100  1
  Fe  Fe6  1  0.28224999  0.75913599  0.67636400  1
  Fe  Fe7  1  0.28224999  0.28225000  0.67636400  1
  Mo  Mo8  1  0.75913599  0.28225000  0.67636400  1
  Fe  Fe9  1  0.71632499  0.23630100  0.33104900  1
  Fe  Fe10  1  0.71632498  0.71632499  0.33104900  1
  Mo  Mo11  1  0.23630099  0.71632499  0.33104900  1
