# generated using pymatgen
data_Li3Re(AsO3)4
_symmetry_space_group_name_H-M   'P 1'
_cell_length_a   5.50017262
_cell_length_b   6.93790007
_cell_length_c   6.93793583
_cell_angle_alpha   83.01702118
_cell_angle_beta   79.24153137
_cell_angle_gamma   79.24201202
_symmetry_Int_Tables_number   1
_chemical_formula_structural   Li3Re(AsO3)4
_chemical_formula_sum   'Li3 Re1 As4 O12'
_cell_volume   254.49051528
_cell_formula_units_Z   1
loop_
 _symmetry_equiv_pos_site_id
 _symmetry_equiv_pos_as_xyz
  1  'x, y, z'
loop_
 _atom_site_type_symbol
 _atom_site_label
 _atom_site_symmetry_multiplicity
 _atom_site_fract_x
 _atom_site_fract_y
 _atom_site_fract_z
 _atom_site_occupancy
  Li  Li0  1  0.74999699  0.30175800  0.69824002  1
  Li  Li1  1  0.25000298  0.69825401  0.30175702  1
  Li  Li2  1  0.24999900  0.08756400  0.91243402  1
  Re  Re3  1  0.74999497  0.91248001  0.08752003  1
  As  As4  1  0.77259299  0.38573600  0.18915701  1
  As  As5  1  0.72740997  0.81084401  0.61426503  1
  As  As6  1  0.22742898  0.61427301  0.81082403  1
  As  As7  1  0.27257299  0.18917600  0.38572301  1
  O  O8  1  0.52334099  0.32514700  0.39174202  1
  O  O9  1  0.97665998  0.60825901  0.67485603  1
  O  O10  1  0.47673598  0.67475801  0.60822203  1
  O  O11  1  0.02326499  0.39178101  0.32524302  1
  O  O12  1  0.15142700  0.10936400  0.62459502  1
  O  O13  1  0.34856999  0.37540000  0.89064003  1
  O  O14  1  0.84862697  0.89065501  0.37540603  1
  O  O15  1  0.65137898  0.62459201  0.10933802  1
  O  O16  1  0.85897400  0.20716000  0.01964600  1
  O  O17  1  0.64102097  0.98036001  0.79283704  1
  O  O18  1  0.14103597  0.79281401  0.98037104  1
  O  O19  1  0.35896600  0.01962600  0.20718300  1
