# generated using pymatgen
data_Tm2AlSi2
_symmetry_space_group_name_H-M   'P 1'
_cell_length_a   4.27923203
_cell_length_b   5.38551903
_cell_length_c   5.45064592
_cell_angle_alpha   119.60552216
_cell_angle_beta   113.11286163
_cell_angle_gamma   90.00000000
_symmetry_Int_Tables_number   1
_chemical_formula_structural   Tm2AlSi2
_chemical_formula_sum   'Tm2 Al1 Si2'
_cell_volume   97.45067337
_cell_formula_units_Z   1
loop_
 _symmetry_equiv_pos_site_id
 _symmetry_equiv_pos_as_xyz
  1  'x, y, z'
loop_
 _atom_site_type_symbol
 _atom_site_label
 _atom_site_symmetry_multiplicity
 _atom_site_fract_x
 _atom_site_fract_y
 _atom_site_fract_z
 _atom_site_occupancy
  Tm  Tm0  1  0.20079703  0.70079801  0.40159504  1
  Tm  Tm1  1  0.79920302  0.29920200  0.59840505  1
  Al  Al2  1  0.00000000  0.00000000  0.00000000  1
  Si  Si3  1  0.50000001  0.26378000  0.00000002  1
  Si  Si4  1  0.50000003  0.73622001  0.00000004  1
