# generated using pymatgen
data_Na2Co2O5
_symmetry_space_group_name_H-M   'P 1'
_cell_length_a   5.46643305
_cell_length_b   6.63821077
_cell_length_c   6.99738169
_cell_angle_alpha   112.28640747
_cell_angle_beta   90.00000000
_cell_angle_gamma   90.00000000
_symmetry_Int_Tables_number   1
_chemical_formula_structural   Na2Co2O5
_chemical_formula_sum   'Na4 Co4 O10'
_cell_volume   234.94870868
_cell_formula_units_Z   2
loop_
 _symmetry_equiv_pos_site_id
 _symmetry_equiv_pos_as_xyz
  1  'x, y, z'
loop_
 _atom_site_type_symbol
 _atom_site_label
 _atom_site_symmetry_multiplicity
 _atom_site_fract_x
 _atom_site_fract_y
 _atom_site_fract_z
 _atom_site_occupancy
  Na  Na0  1  0.74999999  0.15870300  0.37351298  1
  Na  Na1  1  0.25000000  0.36484000  0.10162098  1
  Na  Na2  1  0.25000000  0.84129701  0.62648694  1
  Na  Na3  1  0.74999999  0.63516001  0.89837895  1
  Co  Co4  1  0.74999999  0.14819200  0.88076298  1
  Co  Co5  1  0.25000000  0.85180801  0.11923694  1
  Co  Co6  1  0.25000000  0.34526300  0.66471697  1
  Co  Co7  1  0.74999999  0.65473701  0.33528295  1
  O  O8  1  0.49294500  0.22357000  0.71128197  1
  O  O9  1  0.74999999  0.66280601  0.57088195  1
  O  O10  1  0.25000000  0.59577901  0.84161695  1
  O  O11  1  0.25000000  0.33719400  0.42911797  1
  O  O12  1  0.74999999  0.40422100  0.15838297  1
  O  O13  1  0.99294499  0.77643001  0.28871795  1
  O  O14  1  0.00705500  0.22357000  0.71128197  1
  O  O15  1  0.50705500  0.77643001  0.28871795  1
  O  O16  1  0.00000000  0.00000000  0.00000000  1
  O  O17  1  0.50000000  0.00000000  -0.00000000  1
