# generated using pymatgen
data_SrAlSn3
_symmetry_space_group_name_H-M   'P 1'
_cell_length_a   5.71394587
_cell_length_b   5.71715450
_cell_length_c   5.71715450
_cell_angle_alpha   89.92649841
_cell_angle_beta   90.09161377
_cell_angle_gamma   89.90838623
_symmetry_Int_Tables_number   1
_chemical_formula_structural   SrAlSn3
_chemical_formula_sum   'Sr1 Al1 Sn3'
_cell_volume   186.76457773
_cell_formula_units_Z   1
loop_
 _symmetry_equiv_pos_site_id
 _symmetry_equiv_pos_as_xyz
  1  'x, y, z'
loop_
 _atom_site_type_symbol
 _atom_site_label
 _atom_site_symmetry_multiplicity
 _atom_site_fract_x
 _atom_site_fract_y
 _atom_site_fract_z
 _atom_site_occupancy
  Sr  Sr0  1  0.00112699  0.99478603  0.00521398  1
  Al  Al1  1  0.51426697  0.49589301  0.50410701  1
  Sn  Sn2  1  0.51653097  0.49439301  0.00380100  1
  Sn  Sn3  1  0.01515799  0.50790701  0.49209300  1
  Sn  Sn4  1  0.51653097  0.99619903  0.50560700  1
