# generated using pymatgen
data_LiCaCuS3
_symmetry_space_group_name_H-M   'P 1'
_cell_length_a   3.87761211
_cell_length_b   6.59251499
_cell_length_c   10.27721882
_cell_angle_alpha   90.00000000
_cell_angle_beta   90.00000000
_cell_angle_gamma   107.10309601
_symmetry_Int_Tables_number   1
_chemical_formula_structural   LiCaCuS3
_chemical_formula_sum   'Li2 Ca2 Cu2 S6'
_cell_volume   251.10058533
_cell_formula_units_Z   2
loop_
 _symmetry_equiv_pos_site_id
 _symmetry_equiv_pos_as_xyz
  1  'x, y, z'
loop_
 _atom_site_type_symbol
 _atom_site_label
 _atom_site_symmetry_multiplicity
 _atom_site_fract_x
 _atom_site_fract_y
 _atom_site_fract_z
 _atom_site_occupancy
  Li  Li0  1  0.00000000  0.00000000  0.00000000  1
  Li  Li1  1  0.00000000  0.00000000  0.50000001  1
  Ca  Ca2  1  0.74777694  0.49555400  0.75000001  1
  Ca  Ca3  1  0.25222296  0.50444600  0.25000000  1
  Cu  Cu4  1  0.47132492  0.94265000  0.75000001  1
  Cu  Cu5  1  0.52867498  0.05735000  0.25000000  1
  S  S6  1  0.35327294  0.70654600  0.92139502  1
  S  S7  1  0.64672696  0.29345400  0.07860500  1
  S  S8  1  0.64672696  0.29345400  0.42139501  1
  S  S9  1  0.35327294  0.70654600  0.57860501  1
  S  S10  1  0.07625699  0.15251400  0.75000001  1
  S  S11  1  0.92374291  0.84748600  0.25000000  1
