# generated using pymatgen
data_BaSr3(CoO3)4
_symmetry_space_group_name_H-M   'P 1'
_cell_length_a   5.65398073
_cell_length_b   6.94419956
_cell_length_c   6.94449377
_cell_angle_alpha   71.04487610
_cell_angle_beta   89.93352509
_cell_angle_gamma   89.93720245
_symmetry_Int_Tables_number   1
_chemical_formula_structural   BaSr3(CoO3)4
_chemical_formula_sum   'Ba1 Sr3 Co4 O12'
_cell_volume   257.87172961
_cell_formula_units_Z   1
loop_
 _symmetry_equiv_pos_site_id
 _symmetry_equiv_pos_as_xyz
  1  'x, y, z'
loop_
 _atom_site_type_symbol
 _atom_site_label
 _atom_site_symmetry_multiplicity
 _atom_site_fract_x
 _atom_site_fract_y
 _atom_site_fract_z
 _atom_site_occupancy
  Ba  Ba0  1  0.49666596  0.75017500  0.25166897  1
  Sr  Sr1  1  0.49674498  0.25167600  0.75019901  1
  Sr  Sr2  1  0.00157000  0.00135800  0.49522501  1
  Sr  Sr3  1  0.00155699  0.49522300  0.00137598  1
  Co  Co4  1  0.99737695  0.49850100  0.49850600  1
  Co  Co5  1  0.99940594  0.99958601  0.99960399  1
  Co  Co6  1  0.50058298  0.25005300  0.25006500  1
  Co  Co7  1  0.50033796  0.75044200  0.75044199  1
  O  O8  1  0.00255998  0.74156300  0.26136597  1
  O  O9  1  0.00250299  0.26137200  0.74156201  1
  O  O10  1  0.49873696  0.99509901  0.50402797  1
  O  O11  1  0.49884797  0.50407700  0.99515901  1
  O  O12  1  0.25170599  0.12661900  0.12640200  1
  O  O13  1  0.25577197  0.62667400  0.62659999  1
  O  O14  1  0.75468197  0.37664300  0.37673700  1
  O  O15  1  0.74089795  0.87093901  0.87106899  1
  O  O16  1  0.24916798  0.37811100  0.37809699  1
  O  O17  1  0.24557097  0.87512701  0.87508198  1
  O  O18  1  0.75297997  0.12317400  0.12325400  1
  O  O19  1  0.75233596  0.62358800  0.62355999  1
