# generated using pymatgen
data_SrNd2Co2O7
_symmetry_space_group_name_H-M   'P 1'
_cell_length_a   3.78348398
_cell_length_b   3.78348398
_cell_length_c   10.67459393
_cell_angle_alpha   100.20782471
_cell_angle_beta   100.20782471
_cell_angle_gamma   90.00000000
_symmetry_Int_Tables_number   1
_chemical_formula_structural   SrNd2Co2O7
_chemical_formula_sum   'Sr1 Nd2 Co2 O7'
_cell_volume   147.92726634
_cell_formula_units_Z   1
loop_
 _symmetry_equiv_pos_site_id
 _symmetry_equiv_pos_as_xyz
  1  'x, y, z'
loop_
 _atom_site_type_symbol
 _atom_site_label
 _atom_site_symmetry_multiplicity
 _atom_site_fract_x
 _atom_site_fract_y
 _atom_site_fract_z
 _atom_site_occupancy
  Sr  Sr0  1  0.50000001  0.50000001  0.00000001  1
  Nd  Nd1  1  0.68046402  0.68046401  0.36092800  1
  Nd  Nd2  1  0.31953601  0.31953600  0.63907199  1
  Co  Co3  1  0.91011202  0.91011201  0.82022399  1
  Co  Co4  1  0.08988800  0.08988800  0.17977600  1
  O  O5  1  0.90033701  0.40033700  0.80067399  1
  O  O6  1  0.40033702  0.90033701  0.80067399  1
  O  O7  1  0.09966301  0.59966301  0.19932600  1
  O  O8  1  0.59966301  0.09966300  0.19932600  1
  O  O9  1  0.79849602  0.79849601  0.59699200  1
  O  O10  1  0.20150400  0.20150400  0.40300799  1
  O  O11  1  0.00000000  0.00000000  0.00000000  1
