# generated using pymatgen
data_SmTmRu4
_symmetry_space_group_name_H-M   'P 1'
_cell_length_a   5.42114019
_cell_length_b   5.42114019
_cell_length_c   5.42114019
_cell_angle_alpha   60.00000000
_cell_angle_beta   60.00000000
_cell_angle_gamma   60.00000000
_symmetry_Int_Tables_number   1
_chemical_formula_structural   SmTmRu4
_chemical_formula_sum   'Sm1 Tm1 Ru4'
_cell_volume   112.65667206
_cell_formula_units_Z   1
loop_
 _symmetry_equiv_pos_site_id
 _symmetry_equiv_pos_as_xyz
  1  'x, y, z'
loop_
 _atom_site_type_symbol
 _atom_site_label
 _atom_site_symmetry_multiplicity
 _atom_site_fract_x
 _atom_site_fract_y
 _atom_site_fract_z
 _atom_site_occupancy
  Tm  Tm0  1  0.00000000  0.00000000  0.00000000  1
  Sm  Sm1  1  0.75000000  0.75000000  0.75000000  1
  Ru  Ru2  1  0.87500000  0.37500000  0.37500000  1
  Ru  Ru3  1  0.37500000  0.37500000  0.87500000  1
  Ru  Ru4  1  0.37500000  0.37500000  0.37500000  1
  Ru  Ru5  1  0.37500000  0.87500000  0.37500000  1
