# generated using pymatgen
data_La2CuSiAs2
_symmetry_space_group_name_H-M   'P 1'
_cell_length_a   4.08262587
_cell_length_b   4.08262539
_cell_length_c   9.33010769
_cell_angle_alpha   90.00000000
_cell_angle_beta   90.00000000
_cell_angle_gamma   120.00000763
_symmetry_Int_Tables_number   1
_chemical_formula_structural   La2CuSiAs2
_chemical_formula_sum   'La2 Cu1 Si1 As2'
_cell_volume   134.67791043
_cell_formula_units_Z   1
loop_
 _symmetry_equiv_pos_site_id
 _symmetry_equiv_pos_as_xyz
  1  'x, y, z'
loop_
 _atom_site_type_symbol
 _atom_site_label
 _atom_site_symmetry_multiplicity
 _atom_site_fract_x
 _atom_site_fract_y
 _atom_site_fract_z
 _atom_site_occupancy
  La  La0  1  0.66666670  0.33333333  0.76087703  1
  La  La1  1  0.66666670  0.33333333  0.23912301  1
  Cu  Cu2  1  0.33333337  0.66666666  0.50000002  1
  Si  Si3  1  0.00000000  0.00000000  0.00000000  1
  As  As4  1  0.00000000  0.00000000  0.50000002  1
  As  As5  1  0.33333337  0.66666666  1.00000003  1
