# generated using pymatgen
data_LiBeGaTc
_symmetry_space_group_name_H-M   'P 1'
_cell_length_a   4.05451250
_cell_length_b   4.05451345
_cell_length_c   4.05451298
_cell_angle_alpha   60.00000000
_cell_angle_beta   59.99999619
_cell_angle_gamma   60.00000000
_symmetry_Int_Tables_number   1
_chemical_formula_structural   LiBeGaTc
_chemical_formula_sum   'Li1 Be1 Ga1 Tc1'
_cell_volume   47.13039441
_cell_formula_units_Z   1
loop_
 _symmetry_equiv_pos_site_id
 _symmetry_equiv_pos_as_xyz
  1  'x, y, z'
loop_
 _atom_site_type_symbol
 _atom_site_label
 _atom_site_symmetry_multiplicity
 _atom_site_fract_x
 _atom_site_fract_y
 _atom_site_fract_z
 _atom_site_occupancy
  Li  Li0  1  0.00000000  0.00000000  0.00000000  1
  Be  Be1  1  0.25000001  0.24999999  0.25000000  1
  Ga  Ga2  1  0.50000001  0.49999997  0.50000001  1
  Tc  Tc3  1  0.75000002  0.74999996  0.75000001  1
