# generated using pymatgen
data_Na2ZrSi3C7
_symmetry_space_group_name_H-M   'P 1'
_cell_length_a   5.09890890
_cell_length_b   5.09890938
_cell_length_c   7.87833786
_cell_angle_alpha   90.00000000
_cell_angle_beta   90.00000000
_cell_angle_gamma   120.00000000
_symmetry_Int_Tables_number   1
_chemical_formula_structural   Na2ZrSi3C7
_chemical_formula_sum   'Na2 Zr1 Si3 C7'
_cell_volume   177.38617920
_cell_formula_units_Z   1
loop_
 _symmetry_equiv_pos_site_id
 _symmetry_equiv_pos_as_xyz
  1  'x, y, z'
loop_
 _atom_site_type_symbol
 _atom_site_label
 _atom_site_symmetry_multiplicity
 _atom_site_fract_x
 _atom_site_fract_y
 _atom_site_fract_z
 _atom_site_occupancy
  Na  Na0  1  0.00000000  0.00000000  0.00000000  1
  Na  Na1  1  0.50000001  0.00000000  0.25091400  1
  Zr  Zr2  1  0.49999998  0.50000000  0.25091400  1
  Si  Si3  1  -0.00000003  0.50000000  0.25091400  1
  Si  Si4  1  0.50000001  0.00000000  0.74908601  1
  Si  Si5  1  0.49999998  0.50000000  0.74908601  1
  C  C6  1  -0.00000003  0.50000000  0.74908601  1
  C  C7  1  0.33333330  0.66666666  1.00000002  1
  C  C8  1  0.66666666  0.33333333  -0.00000000  1
  C  C9  1  0.33333330  0.66666666  0.50000001  1
  C  C10  1  0.66666666  0.33333333  0.50000001  1
  C  C11  1  0.00000000  0.00000000  0.34488801  1
  C  C12  1  0.00000000  0.00000000  0.65511201  1
