# generated using pymatgen
data_CuSe
_symmetry_space_group_name_H-M   'P 1'
_cell_length_a   5.60204601
_cell_length_b   5.61999989
_cell_length_c   6.73706913
_cell_angle_alpha   114.65133667
_cell_angle_beta   114.26316071
_cell_angle_gamma   90.00000000
_symmetry_Int_Tables_number   1
_chemical_formula_structural   CuSe
_chemical_formula_sum   'Cu4 Se4'
_cell_volume   171.94623545
_cell_formula_units_Z   4
loop_
 _symmetry_equiv_pos_site_id
 _symmetry_equiv_pos_as_xyz
  1  'x, y, z'
loop_
 _atom_site_type_symbol
 _atom_site_label
 _atom_site_symmetry_multiplicity
 _atom_site_fract_x
 _atom_site_fract_y
 _atom_site_fract_z
 _atom_site_occupancy
  Cu  Cu0  1  0.73974000  0.25485400  0.49421497  1
  Cu  Cu1  1  0.01026000  0.01063900  0.00578500  1
  Cu  Cu2  1  0.25475698  0.74001700  0.49434495  1
  Cu  Cu3  1  0.49524299  0.49567200  0.00565497  1
  Se  Se4  1  0.87499998  0.85923100  0.24999994  1
  Se  Se5  1  0.13782598  0.62407600  0.74987995  1
  Se  Se6  1  0.61217400  0.12419600  0.75011997  1
  Se  Se7  1  0.37499999  0.39131500  0.24999997  1
