# generated using pymatgen
data_TiCu
_symmetry_space_group_name_H-M   'P 1'
_cell_length_a   3.46961403
_cell_length_b   3.46961403
_cell_length_c   6.35971880
_cell_angle_alpha   105.82978821
_cell_angle_beta   105.82978821
_cell_angle_gamma   90.00000000
_symmetry_Int_Tables_number   1
_chemical_formula_structural   TiCu
_chemical_formula_sum   'Ti2 Cu2'
_cell_volume   70.63360381
_cell_formula_units_Z   2
loop_
 _symmetry_equiv_pos_site_id
 _symmetry_equiv_pos_as_xyz
  1  'x, y, z'
loop_
 _atom_site_type_symbol
 _atom_site_label
 _atom_site_symmetry_multiplicity
 _atom_site_fract_x
 _atom_site_fract_y
 _atom_site_fract_z
 _atom_site_occupancy
  Ti  Ti0  1  0.49993600  0.99993599  0.99987198  1
  Ti  Ti1  1  0.74993600  0.74993600  0.49987200  1
  Cu  Cu2  1  0.91776400  0.41776400  0.83552799  1
  Cu  Cu3  1  0.16776400  0.16776400  0.33552799  1
