# generated using pymatgen
data_Ti3Co7
_symmetry_space_group_name_H-M   'P 1'
_cell_length_a   3.08425999
_cell_length_b   9.32826805
_cell_length_c   9.32826805
_cell_angle_alpha   90.00000000
_cell_angle_beta   90.00000000
_cell_angle_gamma   90.00000000
_symmetry_Int_Tables_number   1
_chemical_formula_structural   Ti3Co7
_chemical_formula_sum   'Ti6 Co14'
_cell_volume   268.38177080
_cell_formula_units_Z   2
loop_
 _symmetry_equiv_pos_site_id
 _symmetry_equiv_pos_as_xyz
  1  'x, y, z'
loop_
 _atom_site_type_symbol
 _atom_site_label
 _atom_site_symmetry_multiplicity
 _atom_site_fract_x
 _atom_site_fract_y
 _atom_site_fract_z
 _atom_site_occupancy
  Ti  Ti0  1  -0.00000000  0.82476600  0.32476600  1
  Ti  Ti1  1  0.00000000  0.32476600  0.17523400  1
  Ti  Ti2  1  0.00000000  0.67523400  0.82476600  1
  Ti  Ti3  1  -0.00000000  0.17523400  0.67523400  1
  Ti  Ti4  1  0.00000000  0.00000000  0.00000000  1
  Ti  Ti5  1  -0.00000000  0.50000000  0.50000000  1
  Co  Co6  1  -0.00000000  0.62430600  0.12430600  1
  Co  Co7  1  -0.00000000  0.12430600  0.37569400  1
  Co  Co8  1  1.00000000  0.87569400  0.62430600  1
  Co  Co9  1  -0.00000000  0.37569400  0.87569400  1
  Co  Co10  1  0.50000000  0.07065500  0.21584900  1
  Co  Co11  1  0.50000000  0.21584900  0.92934499  1
  Co  Co12  1  0.50000000  0.78415100  0.07065500  1
  Co  Co13  1  0.50000000  0.92934499  0.78415100  1
  Co  Co14  1  0.50000000  0.42934500  0.71584900  1
  Co  Co15  1  0.50000000  0.57065500  0.28415100  1
  Co  Co16  1  0.50000000  0.71584900  0.57065500  1
  Co  Co17  1  0.50000000  0.28415100  0.42934500  1
  Co  Co18  1  0.50000000  0.50000000  0.00000000  1
  Co  Co19  1  0.50000000  0.00000000  0.50000000  1
