# generated using pymatgen
data_LaZnSn
_symmetry_space_group_name_H-M   'P 1'
_cell_length_a   4.73560905
_cell_length_b   4.73560905
_cell_length_c   7.65764189
_cell_angle_alpha   90.00000000
_cell_angle_beta   90.00000000
_cell_angle_gamma   90.00000000
_symmetry_Int_Tables_number   1
_chemical_formula_structural   LaZnSn
_chemical_formula_sum   'La2 Zn2 Sn2'
_cell_volume   171.73022427
_cell_formula_units_Z   2
loop_
 _symmetry_equiv_pos_site_id
 _symmetry_equiv_pos_as_xyz
  1  'x, y, z'
loop_
 _atom_site_type_symbol
 _atom_site_label
 _atom_site_symmetry_multiplicity
 _atom_site_fract_x
 _atom_site_fract_y
 _atom_site_fract_z
 _atom_site_occupancy
  La  La0  1  0.00000000  0.49999999  0.35085201  1
  La  La1  1  0.49999999  0.00000000  0.64914801  1
  Zn  Zn2  1  0.00000000  0.00000000  0.00000000  1
  Zn  Zn3  1  0.49999999  0.49999999  0.00000000  1
  Sn  Sn4  1  0.49999999  0.00000000  0.20618300  1
  Sn  Sn5  1  0.00000000  0.49999999  0.79381701  1
