# generated using pymatgen
data_LiTiPtO5
_symmetry_space_group_name_H-M   'P 1'
_cell_length_a   5.22066402
_cell_length_b   5.22066402
_cell_length_c   5.49673223
_cell_angle_alpha   61.64794540
_cell_angle_beta   61.64794540
_cell_angle_gamma   60.00000000
_symmetry_Int_Tables_number   1
_chemical_formula_structural   LiTiPtO5
_chemical_formula_sum   'Li1 Ti1 Pt1 O5'
_cell_volume   108.49785005
_cell_formula_units_Z   1
loop_
 _symmetry_equiv_pos_site_id
 _symmetry_equiv_pos_as_xyz
  1  'x, y, z'
loop_
 _atom_site_type_symbol
 _atom_site_label
 _atom_site_symmetry_multiplicity
 _atom_site_fract_x
 _atom_site_fract_y
 _atom_site_fract_z
 _atom_site_occupancy
  Ti  Ti0  1  0.50000005  0.50000001  0.49999997  1
  Li  Li1  1  0.00000000  0.00000000  0.00000000  1
  Pt  Pt2  1  0.64522804  0.23905800  0.24104497  1
  O  O3  1  0.23905806  0.87466901  0.24104495  1
  O  O4  1  0.12533103  0.35477201  0.75895499  1
  O  O5  1  0.87466907  0.64522801  0.24104495  1
  O  O6  1  0.76094203  0.12533100  0.75895498  1
  O  O7  1  0.35477206  0.76094201  0.75895496  1
