# generated using pymatgen
data_La2Sn5Pt
_symmetry_space_group_name_H-M   'P 1'
_cell_length_a   4.66525078
_cell_length_b   6.37400007
_cell_length_c   6.69409704
_cell_angle_alpha   90.00000000
_cell_angle_beta   90.00000000
_cell_angle_gamma   90.00000000
_symmetry_Int_Tables_number   1
_chemical_formula_structural   La2Sn5Pt
_chemical_formula_sum   'La2 Sn5 Pt1'
_cell_volume   199.05773677
_cell_formula_units_Z   1
loop_
 _symmetry_equiv_pos_site_id
 _symmetry_equiv_pos_as_xyz
  1  'x, y, z'
loop_
 _atom_site_type_symbol
 _atom_site_label
 _atom_site_symmetry_multiplicity
 _atom_site_fract_x
 _atom_site_fract_y
 _atom_site_fract_z
 _atom_site_occupancy
  La  La0  1  0.00000000  0.90633199  0.00000000  1
  La  La1  1  0.50000002  0.09366800  0.50000000  1
  Sn  Sn2  1  0.00000000  0.41156300  0.79866199  1
  Sn  Sn3  1  0.50000002  0.58843699  0.70133800  1
  Sn  Sn4  1  0.50000002  0.58843699  0.29866200  1
  Sn  Sn5  1  0.00000000  0.41156300  0.20133800  1
  Sn  Sn6  1  0.50000002  0.30655200  0.00000000  1
  Pt  Pt7  1  0.00000000  0.69344799  0.50000000  1
