# generated using pymatgen
data_LaTiS3
_symmetry_space_group_name_H-M   'P 1'
_cell_length_a   6.38836718
_cell_length_b   6.45121288
_cell_length_c   9.05257893
_cell_angle_alpha   90.00000000
_cell_angle_beta   90.00000000
_cell_angle_gamma   90.00000000
_symmetry_Int_Tables_number   1
_chemical_formula_structural   LaTiS3
_chemical_formula_sum   'La4 Ti4 S12'
_cell_volume   373.08137003
_cell_formula_units_Z   4
loop_
 _symmetry_equiv_pos_site_id
 _symmetry_equiv_pos_as_xyz
  1  'x, y, z'
loop_
 _atom_site_type_symbol
 _atom_site_label
 _atom_site_symmetry_multiplicity
 _atom_site_fract_x
 _atom_site_fract_y
 _atom_site_fract_z
 _atom_site_occupancy
  La  La0  1  0.51100399  0.53244101  0.25000000  1
  La  La1  1  0.98899597  0.03244100  0.25000000  1
  La  La2  1  0.48899599  0.46755901  0.75000001  1
  La  La3  1  0.01100400  0.96755902  0.75000001  1
  Ti  Ti4  1  0.00000000  0.50000001  -0.00000000  1
  Ti  Ti5  1  0.49999999  0.00000000  0.50000000  1
  Ti  Ti6  1  0.00000000  0.50000001  0.50000000  1
  Ti  Ti7  1  0.49999999  0.00000000  0.00000000  1
  S  S8  1  0.40869199  0.96977002  0.25000000  1
  S  S9  1  0.09130800  0.46977001  0.25000000  1
  S  S10  1  0.59130798  0.03023000  0.75000001  1
  S  S11  1  0.90869197  0.53023001  0.75000001  1
  S  S12  1  0.78453398  0.78502501  0.05001000  1
  S  S13  1  0.71546598  0.28502501  0.44999000  1
  S  S14  1  0.21546599  0.21497500  0.55001000  1
  S  S15  1  0.28453399  0.71497501  0.94999001  1
  S  S16  1  0.21546599  0.21497500  0.94999001  1
  S  S17  1  0.28453399  0.71497501  0.55001000  1
  S  S18  1  0.78453398  0.78502501  0.44999000  1
  S  S19  1  0.71546598  0.28502501  0.05001000  1
