# generated using pymatgen
data_TmScTi4O6
_symmetry_space_group_name_H-M   'P 1'
_cell_length_a   3.07510209
_cell_length_b   3.07510257
_cell_length_c   17.73591232
_cell_angle_alpha   90.00000000
_cell_angle_beta   90.00000000
_cell_angle_gamma   119.99999237
_symmetry_Int_Tables_number   1
_chemical_formula_structural   TmScTi4O6
_chemical_formula_sum   'Tm1 Sc1 Ti4 O6'
_cell_volume   145.24571966
_cell_formula_units_Z   1
loop_
 _symmetry_equiv_pos_site_id
 _symmetry_equiv_pos_as_xyz
  1  'x, y, z'
loop_
 _atom_site_type_symbol
 _atom_site_label
 _atom_site_symmetry_multiplicity
 _atom_site_fract_x
 _atom_site_fract_y
 _atom_site_fract_z
 _atom_site_occupancy
  Tm  Tm0  1  0.00000000  0.00000000  0.50000002  1
  Sc  Sc1  1  0.00000000  0.00000000  0.00000000  1
  Ti  Ti2  1  0.33333329  0.66666663  0.63489102  1
  Ti  Ti3  1  0.66666663  0.33333332  0.36510901  1
  Ti  Ti4  1  0.66666663  0.33333332  0.13489101  1
  Ti  Ti5  1  0.33333329  0.66666663  0.86510903  1
  O  O6  1  0.00000000  0.00000000  0.75000003  1
  O  O7  1  0.00000000  0.00000000  0.25000001  1
  O  O8  1  0.33333329  0.66666663  0.07229400  1
  O  O9  1  0.66666663  0.33333332  0.92770604  1
  O  O10  1  0.66666663  0.33333332  0.57229402  1
  O  O11  1  0.33333329  0.66666663  0.42770602  1
