# generated using pymatgen
data_Eu(CdAu)2
_symmetry_space_group_name_H-M   'P 1'
_cell_length_a   4.79721403
_cell_length_b   4.79721403
_cell_length_c   7.90558577
_cell_angle_alpha   90.00000000
_cell_angle_beta   90.00000000
_cell_angle_gamma   120.00000000
_symmetry_Int_Tables_number   1
_chemical_formula_structural   Eu(CdAu)2
_chemical_formula_sum   'Eu1 Cd2 Au2'
_cell_volume   157.55887704
_cell_formula_units_Z   1
loop_
 _symmetry_equiv_pos_site_id
 _symmetry_equiv_pos_as_xyz
  1  'x, y, z'
loop_
 _atom_site_type_symbol
 _atom_site_label
 _atom_site_symmetry_multiplicity
 _atom_site_fract_x
 _atom_site_fract_y
 _atom_site_fract_z
 _atom_site_occupancy
  Eu  Eu0  1  0.00000000  0.00000000  0.00000000  1
  Cd  Cd1  1  0.66666665  0.33333332  0.36782301  1
  Cd  Cd2  1  0.33333332  0.66666663  0.63217702  1
  Au  Au3  1  0.66666665  0.33333332  0.75019102  1
  Au  Au4  1  0.33333332  0.66666663  0.24980901  1
