# generated using pymatgen
data_Yb2MgAlSi3
_symmetry_space_group_name_H-M   'P 1'
_cell_length_a   4.40642023
_cell_length_b   6.82810307
_cell_length_c   9.51475716
_cell_angle_alpha   90.00000000
_cell_angle_beta   103.38876343
_cell_angle_gamma   90.00000000
_symmetry_Int_Tables_number   1
_chemical_formula_structural   Yb2MgAlSi3
_chemical_formula_sum   'Yb4 Mg2 Al2 Si6'
_cell_volume   278.49459035
_cell_formula_units_Z   2
loop_
 _symmetry_equiv_pos_site_id
 _symmetry_equiv_pos_as_xyz
  1  'x, y, z'
loop_
 _atom_site_type_symbol
 _atom_site_label
 _atom_site_symmetry_multiplicity
 _atom_site_fract_x
 _atom_site_fract_y
 _atom_site_fract_z
 _atom_site_occupancy
  Yb  Yb0  1  0.18845299  0.06067900  0.37690598  1
  Yb  Yb1  1  0.18845299  0.43932100  0.37690598  1
  Mg  Mg2  1  0.81154695  0.93932099  0.62309396  1
  Mg  Mg3  1  0.81154695  0.56067899  0.62309396  1
  Yb  Yb4  1  0.34199698  0.25000000  0.68399396  1
  Yb  Yb5  1  0.65800296  0.74999999  0.31600597  1
  Al  Al6  1  0.55254797  0.25000000  0.10509599  1
  Al  Al7  1  0.44745197  0.74999999  0.89490395  1
  Si  Si8  1  0.71967596  0.25000000  0.43935197  1
  Si  Si9  1  0.28032398  0.74999999  0.56064797  1
  Si  Si10  1  0.05809500  0.92542099  0.11618999  1
  Si  Si11  1  0.94190494  0.07457900  0.88380994  1
  Si  Si12  1  0.94190494  0.42542100  0.88380994  1
  Si  Si13  1  0.05809500  0.57457899  0.11618999  1
