# generated using pymatgen
data_Ba4In2Cu3S11
_symmetry_space_group_name_H-M   'P 1'
_cell_length_a   4.11940002
_cell_length_b   9.21228313
_cell_length_c   15.31262970
_cell_angle_alpha   90.00000000
_cell_angle_beta   90.00000000
_cell_angle_gamma   90.00000000
_symmetry_Int_Tables_number   1
_chemical_formula_structural   Ba4In2Cu3S11
_chemical_formula_sum   'Ba4 In2 Cu3 S11'
_cell_volume   581.10019982
_cell_formula_units_Z   1
loop_
 _symmetry_equiv_pos_site_id
 _symmetry_equiv_pos_as_xyz
  1  'x, y, z'
loop_
 _atom_site_type_symbol
 _atom_site_label
 _atom_site_symmetry_multiplicity
 _atom_site_fract_x
 _atom_site_fract_y
 _atom_site_fract_z
 _atom_site_occupancy
  Ba  Ba0  1  0.75000000  0.56970999  0.17416200  1
  Ba  Ba1  1  0.25000000  0.43028999  0.82583802  1
  Ba  Ba2  1  0.75000000  0.06971000  0.32583801  1
  Ba  Ba3  1  0.25000000  0.93028999  0.67416201  1
  In  In4  1  0.75000000  0.83508399  0.94410502  1
  In  In5  1  0.25000000  0.16491600  0.05589500  1
  Cu  Cu6  1  0.75000000  0.33508400  0.55589501  1
  Cu  Cu7  1  0.25000000  0.66491599  0.44410501  1
  Cu  Cu8  1  0.75000000  0.97639399  0.09759600  1
  S  S9  1  0.75000000  0.32628000  0.99623202  1
  S  S10  1  0.25000000  0.17372000  0.49623201  1
  S  S11  1  0.75000000  0.82627999  0.50376801  1
  S  S12  1  0.25000000  0.78167399  0.29352201  1
  S  S13  1  0.75000000  0.21832600  0.70647801  1
  S  S14  1  0.25000000  0.28167400  0.20647800  1
  S  S15  1  0.25000000  0.02360600  0.90240402  1
  S  S16  1  0.75000000  0.47639299  0.40240401  1
  S  S17  1  0.25000000  0.52360599  0.59759601  1
  S  S18  1  0.75000000  0.71832599  0.79352202  1
  S  S19  1  0.25000000  0.67371999  0.00376800  1
