# generated using pymatgen
data_UCoSi2
_symmetry_space_group_name_H-M   'P 1'
_cell_length_a   3.60761690
_cell_length_b   3.60761690
_cell_length_c   8.96856117
_cell_angle_alpha   90.00000000
_cell_angle_beta   90.00000000
_cell_angle_gamma   90.00000000
_symmetry_Int_Tables_number   1
_chemical_formula_structural   UCoSi2
_chemical_formula_sum   'U2 Co2 Si4'
_cell_volume   116.72492418
_cell_formula_units_Z   2
loop_
 _symmetry_equiv_pos_site_id
 _symmetry_equiv_pos_as_xyz
  1  'x, y, z'
loop_
 _atom_site_type_symbol
 _atom_site_label
 _atom_site_symmetry_multiplicity
 _atom_site_fract_x
 _atom_site_fract_y
 _atom_site_fract_z
 _atom_site_occupancy
  U  U0  1  0.00000000  0.50000001  0.77036499  1
  U  U1  1  0.50000001  0.00000000  0.22963500  1
  Co  Co2  1  0.50000001  0.50000001  0.49999999  1
  Co  Co3  1  0.00000000  0.00000000  0.49999999  1
  Si  Si4  1  0.50000001  0.50000001  -0.00000000  1
  Si  Si5  1  0.00000000  0.00000000  0.00000000  1
  Si  Si6  1  0.00000000  0.50000001  0.34493299  1
  Si  Si7  1  0.50000001  0.00000000  0.65506699  1
