# generated using pymatgen
data_Na3AgS6
_symmetry_space_group_name_H-M   'P 1'
_cell_length_a   6.70658827
_cell_length_b   6.71024656
_cell_length_c   6.71563864
_cell_angle_alpha   103.19561005
_cell_angle_beta   102.83910370
_cell_angle_gamma   102.81475830
_symmetry_Int_Tables_number   1
_chemical_formula_structural   Na3AgS6
_chemical_formula_sum   'Na3 Ag1 S6'
_cell_volume   274.80920400
_cell_formula_units_Z   1
loop_
 _symmetry_equiv_pos_site_id
 _symmetry_equiv_pos_as_xyz
  1  'x, y, z'
loop_
 _atom_site_type_symbol
 _atom_site_label
 _atom_site_symmetry_multiplicity
 _atom_site_fract_x
 _atom_site_fract_y
 _atom_site_fract_z
 _atom_site_occupancy
  Na  Na0  1  0.50000000  0.00000000  0.00000000  1
  Na  Na1  1  0.00000000  0.50000001  -0.00000003  1
  Na  Na2  1  0.00000000  0.00000000  0.50000001  1
  Ag  Ag3  1  0.00000000  0.00000000  0.00000000  1
  S  S4  1  0.21658801  0.95425302  0.22084096  1
  S  S5  1  0.78341200  0.04574700  0.77915901  1
  S  S6  1  0.21174500  0.21978200  0.94651300  1
  S  S7  1  0.78825501  0.78021801  0.05348697  1
  S  S8  1  0.92863400  0.21061300  0.20829200  1
  S  S9  1  0.07136601  0.78938701  0.79170797  1
