# generated using pymatgen
data_Ba2YScO6
_symmetry_space_group_name_H-M   'P 1'
_cell_length_a   6.20402956
_cell_length_b   6.20402956
_cell_length_c   6.20402956
_cell_angle_alpha   60.00000381
_cell_angle_beta   60.00000381
_cell_angle_gamma   60.00000381
_symmetry_Int_Tables_number   1
_chemical_formula_structural   Ba2YScO6
_chemical_formula_sum   'Ba2 Y1 Sc1 O6'
_cell_volume   168.85215780
_cell_formula_units_Z   1
loop_
 _symmetry_equiv_pos_site_id
 _symmetry_equiv_pos_as_xyz
  1  'x, y, z'
loop_
 _atom_site_type_symbol
 _atom_site_label
 _atom_site_symmetry_multiplicity
 _atom_site_fract_x
 _atom_site_fract_y
 _atom_site_fract_z
 _atom_site_occupancy
  Ba  Ba0  1  0.75000003  0.74999997  0.74999998  1
  Ba  Ba1  1  0.25000001  0.24999999  0.24999999  1
  Y  Y2  1  0.00000000  0.00000000  0.00000000  1
  Sc  Sc3  1  0.50000002  0.49999998  0.49999999  1
  O  O4  1  0.22484903  0.77515097  0.77515100  1
  O  O5  1  0.77515103  0.77515097  0.22484899  1
  O  O6  1  0.77515101  0.22484899  0.22484898  1
  O  O7  1  0.22484903  0.77515097  0.22484901  1
  O  O8  1  0.77515101  0.22484899  0.77515097  1
  O  O9  1  0.22484901  0.22484899  0.77515099  1
