# generated using pymatgen
data_EuCO3
_symmetry_space_group_name_H-M   'P 1'
_cell_length_a   4.29852915
_cell_length_b   6.78895712
_cell_length_c   8.86876488
_cell_angle_alpha   90.00000000
_cell_angle_beta   90.00000000
_cell_angle_gamma   90.00000000
_symmetry_Int_Tables_number   1
_chemical_formula_structural   EuCO3
_chemical_formula_sum   'Eu4 C4 O12'
_cell_volume   258.81299764
_cell_formula_units_Z   4
loop_
 _symmetry_equiv_pos_site_id
 _symmetry_equiv_pos_as_xyz
  1  'x, y, z'
loop_
 _atom_site_type_symbol
 _atom_site_label
 _atom_site_symmetry_multiplicity
 _atom_site_fract_x
 _atom_site_fract_y
 _atom_site_fract_z
 _atom_site_occupancy
  Eu  Eu0  1  0.49999998  0.49999999  -0.00000000  1
  Eu  Eu1  1  0.00000000  0.00000000  0.00000000  1
  Eu  Eu2  1  0.00000000  0.00000000  0.50000001  1
  Eu  Eu3  1  0.49999998  0.49999999  0.50000001  1
  C  C4  1  0.43283999  0.86919798  0.25000000  1
  C  C5  1  0.93284097  0.63080199  0.75000001  1
  C  C6  1  0.06715900  0.36919799  0.25000000  1
  C  C7  1  0.56715998  0.13080200  0.75000001  1
  O  O8  1  0.55999698  0.82628299  0.10891400  1
  O  O9  1  0.55999698  0.82628299  0.39108601  1
  O  O10  1  0.65375498  0.53046499  0.75000001  1
  O  O11  1  0.84624497  0.03046500  0.75000001  1
  O  O12  1  0.05999600  0.67371699  0.60891401  1
  O  O13  1  0.05999600  0.67371699  0.89108601  1
  O  O14  1  0.94000397  0.32628299  0.39108601  1
  O  O15  1  0.94000397  0.32628299  0.10891400  1
  O  O16  1  0.15375499  0.96953498  0.25000000  1
  O  O17  1  0.34624499  0.46953499  0.25000000  1
  O  O18  1  0.44000298  0.17371700  0.89108601  1
  O  O19  1  0.44000298  0.17371700  0.60891401  1
