# generated using pymatgen
data_Hf2Ga
_symmetry_space_group_name_H-M   'P 1'
_cell_length_a   3.04755592
_cell_length_b   4.91434383
_cell_length_c   7.69785929
_cell_angle_alpha   89.92528534
_cell_angle_beta   101.41700745
_cell_angle_gamma   90.00000000
_symmetry_Int_Tables_number   1
_chemical_formula_structural   Hf2Ga
_chemical_formula_sum   'Hf4 Ga2'
_cell_volume   113.00743693
_cell_formula_units_Z   2
loop_
 _symmetry_equiv_pos_site_id
 _symmetry_equiv_pos_as_xyz
  1  'x, y, z'
loop_
 _atom_site_type_symbol
 _atom_site_label
 _atom_site_symmetry_multiplicity
 _atom_site_fract_x
 _atom_site_fract_y
 _atom_site_fract_z
 _atom_site_occupancy
  Hf  Hf0  1  0.16864601  0.50021798  0.33729201  1
  Hf  Hf1  1  0.83135403  0.49978198  0.66270803  1
  Hf  Hf2  1  0.50000002  0.49999998  0.00000001  1
  Hf  Hf3  1  0.00000000  0.00000000  0.00000000  1
  Ga  Ga4  1  0.32442001  0.99965896  0.64884102  1
  Ga  Ga5  1  0.67558002  0.00034100  0.35115902  1
