# generated using pymatgen
data_Li6VO11
_symmetry_space_group_name_H-M   'P 1'
_cell_length_a   4.72883320
_cell_length_b   5.59231186
_cell_length_c   7.72880697
_cell_angle_alpha   84.65772247
_cell_angle_beta   87.09152222
_cell_angle_gamma   86.41116333
_symmetry_Int_Tables_number   1
_chemical_formula_structural   Li6VO11
_chemical_formula_sum   'Li6 V1 O11'
_cell_volume   202.89470718
_cell_formula_units_Z   1
loop_
 _symmetry_equiv_pos_site_id
 _symmetry_equiv_pos_as_xyz
  1  'x, y, z'
loop_
 _atom_site_type_symbol
 _atom_site_label
 _atom_site_symmetry_multiplicity
 _atom_site_fract_x
 _atom_site_fract_y
 _atom_site_fract_z
 _atom_site_occupancy
  Li  Li0  1  0.46692701  0.48359600  0.99283799  1
  Li  Li1  1  0.50749503  0.82636599  0.67015902  1
  Li  Li2  1  0.53879999  0.18020100  0.33044299  1
  Li  Li3  1  0.98707998  0.34883300  0.67278999  1
  Li  Li4  1  0.98387000  0.65211899  0.33295301  1
  Li  Li5  1  0.01494000  0.01029400  0.99930298  1
  V  V6  1  0.81881999  0.37620000  0.44865100  1
  O  O7  1  0.69697598  0.20434200  0.09375400  1
  O  O8  1  0.68432800  0.53555700  0.77451200  1
  O  O9  1  0.69664902  0.87044799  0.43743202  1
  O  O10  1  0.31065901  0.45917300  0.23067101  1
  O  O11  1  0.30087603  0.79338699  0.89668201  1
  O  O12  1  0.19127501  0.29258600  0.89002199  1
  O  O13  1  0.80326697  0.03859700  0.75991097  1
  O  O14  1  0.80308501  0.71275499  0.08908502  1
  O  O15  1  0.30498000  0.13416300  0.56610999  1
  O  O16  1  0.20343803  0.63316399  0.57097901  1
  O  O17  1  0.18653305  0.94821799  0.24370404  1
