# generated using pymatgen
data_Eu(TlPb)2
_symmetry_space_group_name_H-M   'P 1'
_cell_length_a   8.13435650
_cell_length_b   8.13435650
_cell_length_c   8.13435650
_cell_angle_alpha   70.58214569
_cell_angle_beta   70.58214569
_cell_angle_gamma   70.58213806
_symmetry_Int_Tables_number   1
_chemical_formula_structural   Eu(TlPb)2
_chemical_formula_sum   'Eu3 Tl6 Pb6'
_cell_volume   463.60221531
_cell_formula_units_Z   3
loop_
 _symmetry_equiv_pos_site_id
 _symmetry_equiv_pos_as_xyz
  1  'x, y, z'
loop_
 _atom_site_type_symbol
 _atom_site_label
 _atom_site_symmetry_multiplicity
 _atom_site_fract_x
 _atom_site_fract_y
 _atom_site_fract_z
 _atom_site_occupancy
  Eu  Eu0  1  0.00000000  0.00000000  0.00000000  1
  Eu  Eu1  1  0.79786702  0.79786700  0.79786713  1
  Tl  Tl2  1  0.20213301  0.20213300  0.20213303  1
  Eu  Eu3  1  0.33956202  0.59966000  0.84067609  1
  Tl  Tl4  1  0.84067601  0.33956200  0.59966010  1
  Tl  Tl5  1  0.59966002  0.84067600  0.33956210  1
  Tl  Tl6  1  0.66043801  0.40034000  0.15932407  1
  Tl  Tl7  1  0.15932402  0.66043800  0.40034006  1
  Tl  Tl8  1  0.40034001  0.15932400  0.66043806  1
  Pb  Pb9  1  0.15851702  0.95691600  0.59132009  1
  Pb  Pb10  1  0.59132001  0.15851700  0.95691608  1
  Pb  Pb11  1  0.95691602  0.59132000  0.15851710  1
  Pb  Pb12  1  0.84148300  0.04308400  0.40868007  1
  Pb  Pb13  1  0.40868002  0.84148300  0.04308408  1
  Pb  Pb14  1  0.04308401  0.40868000  0.84148306  1
