# generated using pymatgen
data_LiCa3Bi3O13
_symmetry_space_group_name_H-M   'P 1'
_cell_length_a   5.40296412
_cell_length_b   5.78652191
_cell_length_c   7.71216869
_cell_angle_alpha   90.00000000
_cell_angle_beta   90.51692963
_cell_angle_gamma   90.00000000
_symmetry_Int_Tables_number   1
_chemical_formula_structural   LiCa3Bi3O13
_chemical_formula_sum   'Li1 Ca3 Bi3 O13'
_cell_volume   241.10628418
_cell_formula_units_Z   1
loop_
 _symmetry_equiv_pos_site_id
 _symmetry_equiv_pos_as_xyz
  1  'x, y, z'
loop_
 _atom_site_type_symbol
 _atom_site_label
 _atom_site_symmetry_multiplicity
 _atom_site_fract_x
 _atom_site_fract_y
 _atom_site_fract_z
 _atom_site_occupancy
  Ca  Ca0  1  0.49999999  0.50000001  0.00000001  1
  Li  Li1  1  0.00000000  0.00000000  0.50000001  1
  Ca  Ca2  1  0.51773399  0.92530601  0.24852402  1
  Ca  Ca3  1  0.48226599  0.07469400  0.75147603  1
  Bi  Bi4  1  0.98226598  0.42530601  0.25147602  1
  Bi  Bi5  1  0.01773400  0.57469401  0.74852402  1
  Bi  Bi6  1  0.49999999  0.50000001  0.50000002  1
  O  O7  1  0.00000000  0.00000000  0.00000000  1
  O  O8  1  0.67842699  0.20892100  0.44319602  1
  O  O9  1  0.32157299  0.79107901  0.55680402  1
  O  O10  1  0.82157298  0.70892101  0.05680402  1
  O  O11  1  0.17842700  0.29107900  0.94319603  1
  O  O12  1  0.39404299  0.53514201  0.25573001  1
  O  O13  1  0.60595699  0.46485801  0.74427003  1
  O  O14  1  0.10595700  0.03514200  0.24427001  1
  O  O15  1  0.89404298  0.96485801  0.75573003  1
  O  O16  1  0.79931198  0.68268301  0.44863402  1
  O  O17  1  0.20068800  0.31731700  0.55136602  1
  O  O18  1  0.70068799  0.18268300  0.05136601  1
  O  O19  1  0.29931199  0.81731701  0.94863403  1
