# generated using pymatgen
data_Li8VO7
_symmetry_space_group_name_H-M   'P 1'
_cell_length_a   5.75183105
_cell_length_b   5.75192785
_cell_length_c   6.11743116
_cell_angle_alpha   63.66245270
_cell_angle_beta   63.66266632
_cell_angle_gamma   88.38734436
_symmetry_Int_Tables_number   1
_chemical_formula_structural   Li8VO7
_chemical_formula_sum   'Li8 V1 O7'
_cell_volume   158.92739189
_cell_formula_units_Z   1
loop_
 _symmetry_equiv_pos_site_id
 _symmetry_equiv_pos_as_xyz
  1  'x, y, z'
loop_
 _atom_site_type_symbol
 _atom_site_label
 _atom_site_symmetry_multiplicity
 _atom_site_fract_x
 _atom_site_fract_y
 _atom_site_fract_z
 _atom_site_occupancy
  Li  Li0  1  0.49999103  0.50000098  0.49999497  1
  Li  Li1  1  0.00001800  0.00000300  0.99999497  1
  Li  Li2  1  0.44695402  0.05304800  0.75000397  1
  Li  Li3  1  0.55303305  0.94696897  0.25000796  1
  Li  Li4  1  0.00009700  0.00001200  0.49994798  1
  Li  Li5  1  0.50009703  0.50012898  0.99986795  1
  Li  Li6  1  0.99996005  0.49996598  0.50004896  1
  Li  Li7  1  0.99998705  0.49995598  0.00002898  1
  V  V8  1  0.23132903  0.71267398  0.02715298  1
  O  O9  1  0.78732603  0.26863399  0.47289597  1
  O  O10  1  0.21271503  0.73131898  0.52716196  1
  O  O11  1  0.76865503  0.28728299  0.97285195  1
  O  O12  1  0.22726601  0.23369899  0.51784397  1
  O  O13  1  0.73373404  0.72727598  0.01784197  1
  O  O14  1  0.26612102  0.27279599  0.98217396  1
  O  O15  1  0.77271705  0.76623498  0.48217996  1
