# generated using pymatgen
data_Tm2Co2MoN7
_symmetry_space_group_name_H-M   'P 1'
_cell_length_a   5.30327511
_cell_length_b   5.38765097
_cell_length_c   5.38765097
_cell_angle_alpha   90.00000000
_cell_angle_beta   90.00000000
_cell_angle_gamma   90.00000000
_symmetry_Int_Tables_number   1
_chemical_formula_structural   Tm2Co2MoN7
_chemical_formula_sum   'Tm2 Co2 Mo1 N7'
_cell_volume   153.93701543
_cell_formula_units_Z   1
loop_
 _symmetry_equiv_pos_site_id
 _symmetry_equiv_pos_as_xyz
  1  'x, y, z'
loop_
 _atom_site_type_symbol
 _atom_site_label
 _atom_site_symmetry_multiplicity
 _atom_site_fract_x
 _atom_site_fract_y
 _atom_site_fract_z
 _atom_site_occupancy
  Tm  Tm0  1  0.00000000  0.00000000  0.00000000  1
  Tm  Tm1  1  0.00000000  0.50000000  0.50000000  1
  Co  Co2  1  0.49999999  0.50000000  0.00000000  1
  Mo  Mo3  1  0.49999999  0.00000000  0.50000000  1
  Co  Co4  1  0.74483298  0.71370200  0.78629800  1
  N  N5  1  0.74483298  0.78629800  0.28629800  1
  N  N6  1  0.74483298  0.28629800  0.21370200  1
  N  N7  1  0.74483298  0.21370200  0.71370200  1
  N  N8  1  0.25516699  0.71370200  0.21370200  1
  N  N9  1  0.25516699  0.78629800  0.71370200  1
  N  N10  1  0.25516699  0.28629800  0.78629800  1
  N  N11  1  0.25516699  0.21370200  0.28629800  1
