# generated using pymatgen
data_Zr2Ta3(SiC2)3
_symmetry_space_group_name_H-M   'P 1'
_cell_length_a   3.82150793
_cell_length_b   5.52485609
_cell_length_c   10.33852100
_cell_angle_alpha   105.49757385
_cell_angle_beta   100.65057373
_cell_angle_gamma   90.00000000
_symmetry_Int_Tables_number   1
_chemical_formula_structural   Zr2Ta3(SiC2)3
_chemical_formula_sum   'Zr2 Ta3 Si3 C6'
_cell_volume   206.43891176
_cell_formula_units_Z   1
loop_
 _symmetry_equiv_pos_site_id
 _symmetry_equiv_pos_as_xyz
  1  'x, y, z'
loop_
 _atom_site_type_symbol
 _atom_site_label
 _atom_site_symmetry_multiplicity
 _atom_site_fract_x
 _atom_site_fract_y
 _atom_site_fract_z
 _atom_site_occupancy
  Zr  Zr0  1  0.80138801  0.79769198  0.60277598  1
  Zr  Zr1  1  0.60574101  0.59464798  0.21148199  1
  Ta  Ta2  1  0.39425900  0.38316599  0.78851799  1
  Ta  Ta3  1  0.19861300  0.19491700  0.39722499  1
  Ta  Ta4  1  -0.00000000  0.04879400  -0.00000000  1
  Si  Si5  1  0.69651600  0.93942798  0.39303198  1
  Si  Si6  1  0.08274399  0.83047998  0.16548798  1
  Si  Si7  1  0.91725601  0.66499198  0.83451198  1
  C  C8  1  0.70228301  0.44638599  0.40456599  1
  C  C9  1  0.30348400  0.54639599  0.60696799  1
  C  C10  1  0.10457600  0.35699199  0.20915199  1
  C  C11  1  0.50000001  0.25644699  -0.00000000  1
  C  C12  1  0.29771601  0.04181900  0.59543300  1
  C  C13  1  0.89542402  0.14784000  0.79084799  1
