# generated using pymatgen
data_Na2Cu2H5O3
_symmetry_space_group_name_H-M   'P 1'
_cell_length_a   5.40015411
_cell_length_b   5.40015411
_cell_length_c   7.36992788
_cell_angle_alpha   111.49155426
_cell_angle_beta   111.49155426
_cell_angle_gamma   90.00000000
_symmetry_Int_Tables_number   1
_chemical_formula_structural   Na2Cu2H5O3
_chemical_formula_sum   'Na2 Cu2 H5 O3'
_cell_volume   183.82262277
_cell_formula_units_Z   1
loop_
 _symmetry_equiv_pos_site_id
 _symmetry_equiv_pos_as_xyz
  1  'x, y, z'
loop_
 _atom_site_type_symbol
 _atom_site_label
 _atom_site_symmetry_multiplicity
 _atom_site_fract_x
 _atom_site_fract_y
 _atom_site_fract_z
 _atom_site_occupancy
  Na  Na0  1  0.74999997  0.24999999  0.49999999  1
  Na  Na1  1  0.00000000  0.00000000  0.00000000  1
  Cu  Cu2  1  0.24999998  0.74999998  0.49999999  1
  Cu  Cu3  1  0.49999998  0.49999998  -0.00000002  1
  H  H4  1  0.55343797  0.91899997  0.64594198  1
  H  H5  1  0.09250498  0.72694298  0.64594399  1
  H  H6  1  0.66900097  0.34250499  0.14594298  1
  H  H7  1  0.47694197  0.80343797  0.14594298  1
  H  H8  1  0.19656199  0.33099999  0.85405800  1
  O  O9  1  0.65749497  0.52305698  0.85405599  1
  O  O10  1  0.08099898  0.90749497  0.35405698  1
  O  O11  1  0.27305798  0.44656199  0.35405699  1
