# generated using pymatgen
data_TmAlCu
_symmetry_space_group_name_H-M   'P 1'
_cell_length_a   3.82544208
_cell_length_b   4.32805204
_cell_length_c   4.32805109
_cell_angle_alpha   120.00000763
_cell_angle_beta   90.00000000
_cell_angle_gamma   90.00000000
_symmetry_Int_Tables_number   1
_chemical_formula_structural   TmAlCu
_chemical_formula_sum   'Tm1 Al1 Cu1'
_cell_volume   62.05790094
_cell_formula_units_Z   1
loop_
 _symmetry_equiv_pos_site_id
 _symmetry_equiv_pos_as_xyz
  1  'x, y, z'
loop_
 _atom_site_type_symbol
 _atom_site_label
 _atom_site_symmetry_multiplicity
 _atom_site_fract_x
 _atom_site_fract_y
 _atom_site_fract_z
 _atom_site_occupancy
  Tm  Tm0  1  0.00000000  0.00000000  0.00000000  1
  Cu  Cu1  1  0.49999999  0.66666667  0.33333335  1
  Al  Al2  1  0.49999999  0.33333333  0.66666668  1
