# generated using pymatgen
data_Eu(CoGe)2
_symmetry_space_group_name_H-M   'P 1'
_cell_length_a   3.78010988
_cell_length_b   3.78010988
_cell_length_c   7.33668900
_cell_angle_alpha   104.92870331
_cell_angle_beta   104.92870331
_cell_angle_gamma   90.00000000
_symmetry_Int_Tables_number   1
_chemical_formula_structural   Eu(CoGe)2
_chemical_formula_sum   'Eu1 Co2 Ge2'
_cell_volume   97.63047217
_cell_formula_units_Z   1
loop_
 _symmetry_equiv_pos_site_id
 _symmetry_equiv_pos_as_xyz
  1  'x, y, z'
loop_
 _atom_site_type_symbol
 _atom_site_label
 _atom_site_symmetry_multiplicity
 _atom_site_fract_x
 _atom_site_fract_y
 _atom_site_fract_z
 _atom_site_occupancy
  Eu  Eu0  1  0.00000000  0.00000000  0.00000000  1
  Co  Co1  1  0.75000002  0.25000001  0.49999998  1
  Co  Co2  1  0.25000000  0.75000002  0.49999998  1
  Ge  Ge3  1  0.64754901  0.64754902  0.29509798  1
  Ge  Ge4  1  0.35245101  0.35245101  0.70490197  1
