# generated using pymatgen
data_Ba2Cu2O5
_symmetry_space_group_name_H-M   'P 1'
_cell_length_a   5.48680830
_cell_length_b   5.53107071
_cell_length_c   9.12673378
_cell_angle_alpha   107.37814331
_cell_angle_beta   107.23065948
_cell_angle_gamma   90.81941986
_symmetry_Int_Tables_number   1
_chemical_formula_structural   Ba2Cu2O5
_chemical_formula_sum   'Ba4 Cu4 O10'
_cell_volume   250.86133789
_cell_formula_units_Z   2
loop_
 _symmetry_equiv_pos_site_id
 _symmetry_equiv_pos_as_xyz
  1  'x, y, z'
loop_
 _atom_site_type_symbol
 _atom_site_label
 _atom_site_symmetry_multiplicity
 _atom_site_fract_x
 _atom_site_fract_y
 _atom_site_fract_z
 _atom_site_occupancy
  Ba  Ba0  1  0.87515498  0.40294898  0.77661698  1
  Ba  Ba1  1  0.12484796  0.59706397  0.22340099  1
  Ba  Ba2  1  0.40152794  0.87371196  0.77661998  1
  Ba  Ba3  1  0.59857900  0.12639699  0.22340499  1
  Cu  Cu4  1  0.00004693  0.99996896  0.99998798  1
  Cu  Cu5  1  0.49986097  0.49986298  0.99974198  1
  Cu  Cu6  1  0.17968799  0.18519199  0.50003499  1
  Cu  Cu7  1  0.82024295  0.81480297  0.50001697  1
  O  O8  1  0.24403398  0.24407999  0.98808199  1
  O  O9  1  0.75597495  0.75589397  0.01184397  1
  O  O10  1  0.25180195  0.75174397  0.00347798  1
  O  O11  1  0.74821599  0.24817199  0.99644899  1
  O  O12  1  0.82396800  0.16552699  0.50003898  1
  O  O13  1  0.17605394  0.83455596  0.50003598  1
  O  O14  1  0.37149698  0.38368998  0.70728499  1
  O  O15  1  0.62848896  0.61634397  0.29287598  1
  O  O16  1  0.83568695  0.82353897  0.70723497  1
  O  O17  1  0.16432799  0.17650499  0.29285299  1
