# generated using pymatgen
data_HfSi2
_symmetry_space_group_name_H-M   'P 1'
_cell_length_a   6.51340580
_cell_length_b   7.44236326
_cell_length_c   7.33353615
_cell_angle_alpha   119.51745605
_cell_angle_beta   90.00000000
_cell_angle_gamma   115.95021057
_symmetry_Int_Tables_number   1
_chemical_formula_structural   HfSi2
_chemical_formula_sum   'Hf6 Si12'
_cell_volume   267.39513590
_cell_formula_units_Z   6
loop_
 _symmetry_equiv_pos_site_id
 _symmetry_equiv_pos_as_xyz
  1  'x, y, z'
loop_
 _atom_site_type_symbol
 _atom_site_label
 _atom_site_symmetry_multiplicity
 _atom_site_fract_x
 _atom_site_fract_y
 _atom_site_fract_z
 _atom_site_occupancy
  Hf  Hf0  1  0.51037707  0.60671705  0.55335904  1
  Hf  Hf1  1  0.90366106  0.39328403  0.44664202  1
  Hf  Hf2  1  0.94300007  0.43804703  0.96902302  1
  Hf  Hf3  1  0.50495206  0.56195204  0.03097605  1
  Hf  Hf4  1  0.08516200  0.00361800  0.75180899  1
  Hf  Hf5  1  0.08152442  0.99636241  0.24817141  1
  Si  Si6  1  0.52755702  0.05578600  0.77789299  1
  Si  Si7  1  0.47177109  0.94421407  0.22210707  1
  Si  Si8  1  0.83732908  0.66722205  0.33762105  1
  Si  Si9  1  0.17010703  0.33277803  0.66237901  1
  Si  Si10  1  0.83732908  0.66722205  0.82960104  1
  Si  Si11  1  0.17010703  0.33277803  0.17039902  1
  Si  Si12  1  0.75008202  0.00000000  0.49999999  1
  Si  Si13  1  0.75008211  1.00000008  1.00000006  1
  Si  Si14  1  0.50319004  0.24901002  0.15571302  1
  Si  Si15  1  0.25418007  0.75099006  0.84428704  1
  Si  Si16  1  0.50319004  0.24901002  0.59329701  1
  Si  Si17  1  0.25418007  0.75099006  0.40670305  1
