# generated using pymatgen
data_BaLa2CuO5
_symmetry_space_group_name_H-M   'P 1'
_cell_length_a   6.70554399
_cell_length_b   7.31131506
_cell_length_c   6.70554399
_cell_angle_alpha   117.29506683
_cell_angle_beta   90.00000000
_cell_angle_gamma   117.29506683
_symmetry_Int_Tables_number   1
_chemical_formula_structural   BaLa2CuO5
_chemical_formula_sum   'Ba2 La4 Cu2 O10'
_cell_volume   250.24237043
_cell_formula_units_Z   2
loop_
 _symmetry_equiv_pos_site_id
 _symmetry_equiv_pos_as_xyz
  1  'x, y, z'
loop_
 _atom_site_type_symbol
 _atom_site_label
 _atom_site_symmetry_multiplicity
 _atom_site_fract_x
 _atom_site_fract_y
 _atom_site_fract_z
 _atom_site_occupancy
  Ba  Ba0  1  0.24999999  0.49999998  0.24999999  1
  Ba  Ba1  1  0.74999999  0.49999998  0.74999999  1
  La  La2  1  0.82176700  0.00000000  0.67823300  1
  La  La3  1  0.17823300  0.00000000  0.32176700  1
  La  La4  1  0.32176700  0.00000000  0.82176700  1
  La  La5  1  0.67823300  0.00000000  0.17823300  1
  Cu  Cu6  1  0.24999999  0.49999998  0.74999999  1
  Cu  Cu7  1  0.74999999  0.49999998  0.24999999  1
  O  O8  1  0.00000000  0.00000000  0.00000000  1
  O  O9  1  0.50000000  0.00000000  0.50000000  1
  O  O10  1  0.20745398  0.70226097  0.99480698  1
  O  O11  1  0.49480698  0.70226097  0.70745398  1
  O  O12  1  0.70745398  0.70226097  0.20745398  1
  O  O13  1  0.99480698  0.70226097  0.49480698  1
  O  O14  1  0.79254599  0.29773899  0.00519299  1
  O  O15  1  0.50519299  0.29773899  0.29254599  1
  O  O16  1  0.29254599  0.29773899  0.79254599  1
  O  O17  1  0.00519299  0.29773899  0.50519299  1
