# generated using pymatgen
data_Tm3Pd4
_symmetry_space_group_name_H-M   'P 1'
_cell_length_a   5.86158848
_cell_length_b   8.18333530
_cell_length_c   8.18333530
_cell_angle_alpha   114.48718262
_cell_angle_beta   103.81343079
_cell_angle_gamma   103.81343079
_symmetry_Int_Tables_number   1
_chemical_formula_structural   Tm3Pd4
_chemical_formula_sum   'Tm6 Pd8'
_cell_volume   320.56432902
_cell_formula_units_Z   2
loop_
 _symmetry_equiv_pos_site_id
 _symmetry_equiv_pos_as_xyz
  1  'x, y, z'
loop_
 _atom_site_type_symbol
 _atom_site_label
 _atom_site_symmetry_multiplicity
 _atom_site_fract_x
 _atom_site_fract_y
 _atom_site_fract_z
 _atom_site_occupancy
  Tm  Tm0  1  0.27897583  0.87485891  0.25198388  1
  Tm  Tm1  1  0.40411693  0.37712496  0.12514093  1
  Tm  Tm2  1  0.02699185  0.74801592  0.62287490  1
  Tm  Tm3  1  0.72102399  0.12514099  0.74801593  1
  Tm  Tm4  1  0.59588289  0.62287493  0.87485888  1
  Tm  Tm5  1  0.97300797  0.25198397  0.37712491  1
  Pd  Pd6  1  0.00000000  0.00000000  0.00000000  1
  Pd  Pd7  1  0.50000001  0.00000000  -0.00000002  1
  Pd  Pd8  1  0.55250994  0.32993996  0.49359592  1
  Pd  Pd9  1  0.22256997  0.16365598  0.67005995  1
  Pd  Pd10  1  0.05891390  0.50640395  0.83634392  1
  Pd  Pd11  1  0.44748987  0.67005993  0.50640389  1
  Pd  Pd12  1  0.77742985  0.83634391  0.32993985  1
  Pd  Pd13  1  0.94108592  0.49359595  0.16365589  1
