# generated using pymatgen
data_LiTi5O3
_symmetry_space_group_name_H-M   'P 1'
_cell_length_a   5.05737591
_cell_length_b   5.11233854
_cell_length_c   5.11233854
_cell_angle_alpha   73.49344635
_cell_angle_beta   61.42033768
_cell_angle_gamma   61.42033386
_symmetry_Int_Tables_number   1
_chemical_formula_structural   LiTi5O3
_chemical_formula_sum   'Li1 Ti5 O3'
_cell_volume   101.66840620
_cell_formula_units_Z   1
loop_
 _symmetry_equiv_pos_site_id
 _symmetry_equiv_pos_as_xyz
  1  'x, y, z'
loop_
 _atom_site_type_symbol
 _atom_site_label
 _atom_site_symmetry_multiplicity
 _atom_site_fract_x
 _atom_site_fract_y
 _atom_site_fract_z
 _atom_site_occupancy
  Li  Li0  1  0.49552998  0.80370601  0.80370601  1
  Ti  Ti1  1  0.84209797  0.33333334  0.82039301  1
  Ti  Ti2  1  0.15059999  0.23329700  0.69961700  1
  Ti  Ti3  1  0.15059999  0.69961701  0.23329701  1
  Ti  Ti4  1  0.84209796  0.82039301  0.33333335  1
  Ti  Ti5  1  0.83801697  0.25582200  0.25582201  1
  O  O6  1  0.15371299  0.74122501  0.74122501  1
  O  O7  1  0.14205899  0.15254900  0.15254900  1
  O  O8  1  0.84361796  0.86479502  0.86479501  1
