# generated using pymatgen
data_Nb(Co2Si)2
_symmetry_space_group_name_H-M   'P 1'
_cell_length_a   3.63502097
_cell_length_b   6.88698578
_cell_length_c   6.88698578
_cell_angle_alpha   90.00000000
_cell_angle_beta   90.00000000
_cell_angle_gamma   90.00000000
_symmetry_Int_Tables_number   1
_chemical_formula_structural   Nb(Co2Si)2
_chemical_formula_sum   'Nb2 Co8 Si4'
_cell_volume   172.41112796
_cell_formula_units_Z   2
loop_
 _symmetry_equiv_pos_site_id
 _symmetry_equiv_pos_as_xyz
  1  'x, y, z'
loop_
 _atom_site_type_symbol
 _atom_site_label
 _atom_site_symmetry_multiplicity
 _atom_site_fract_x
 _atom_site_fract_y
 _atom_site_fract_z
 _atom_site_occupancy
  Nb  Nb0  1  1.00000001  0.50000002  0.50000002  1
  Nb  Nb1  1  0.50000000  0.00000000  -0.00000000  1
  Co  Co2  1  0.50000000  0.58654302  0.15814901  1
  Co  Co3  1  0.50000000  0.41345701  0.84185103  1
  Co  Co4  1  1.00000001  0.08654300  0.34185101  1
  Co  Co5  1  1.00000001  0.91345703  0.65814902  1
  Co  Co6  1  0.50000000  0.15814901  0.58654302  1
  Co  Co7  1  0.50000000  0.84185103  0.41345701  1
  Co  Co8  1  1.00000001  0.34185101  0.08654300  1
  Co  Co9  1  1.00000001  0.65814902  0.91345703  1
  Si  Si10  1  0.50000000  0.71700802  0.71700802  1
  Si  Si11  1  0.50000000  0.28299201  0.28299201  1
  Si  Si12  1  1.00000001  0.21700801  0.78299203  1
  Si  Si13  1  1.00000001  0.78299203  0.21700801  1
