# generated using pymatgen
data_PmTl3
_symmetry_space_group_name_H-M   'P 1'
_cell_length_a   6.05717087
_cell_length_b   7.37972212
_cell_length_c   7.37972212
_cell_angle_alpha   60.00000000
_cell_angle_beta   90.00000000
_cell_angle_gamma   90.00000000
_symmetry_Int_Tables_number   1
_chemical_formula_structural   PmTl3
_chemical_formula_sum   'Pm2 Tl6'
_cell_volume   285.68041915
_cell_formula_units_Z   2
loop_
 _symmetry_equiv_pos_site_id
 _symmetry_equiv_pos_as_xyz
  1  'x, y, z'
loop_
 _atom_site_type_symbol
 _atom_site_label
 _atom_site_symmetry_multiplicity
 _atom_site_fract_x
 _atom_site_fract_y
 _atom_site_fract_z
 _atom_site_occupancy
  Pm  Pm0  1  0.25000001  0.33333333  0.33333333  1
  Pm  Pm1  1  0.75000002  0.66666666  0.66666666  1
  Tl  Tl2  1  0.75000002  0.66449100  0.16775399  1
  Tl  Tl3  1  0.75000002  0.16775500  0.16775400  1
  Tl  Tl4  1  0.75000002  0.16775500  0.66449001  1
  Tl  Tl5  1  0.25000001  0.33550900  0.83224601  1
  Tl  Tl6  1  0.25000001  0.83224500  0.83224600  1
  Tl  Tl7  1  0.25000001  0.83224500  0.33550999  1
