# generated using pymatgen
data_ScNb5Ge7
_symmetry_space_group_name_H-M   'P 1'
_cell_length_a   5.17223692
_cell_length_b   5.17223597
_cell_length_c   8.13901234
_cell_angle_alpha   90.00000000
_cell_angle_beta   90.00000000
_cell_angle_gamma   119.99999237
_symmetry_Int_Tables_number   1
_chemical_formula_structural   ScNb5Ge7
_chemical_formula_sum   'Sc1 Nb5 Ge7'
_cell_volume   188.56414302
_cell_formula_units_Z   1
loop_
 _symmetry_equiv_pos_site_id
 _symmetry_equiv_pos_as_xyz
  1  'x, y, z'
loop_
 _atom_site_type_symbol
 _atom_site_label
 _atom_site_symmetry_multiplicity
 _atom_site_fract_x
 _atom_site_fract_y
 _atom_site_fract_z
 _atom_site_occupancy
  Sc  Sc0  1  0.00000000  0.00000000  0.00000000  1
  Nb  Nb1  1  0.49999997  0.50000002  0.74947097  1
  Nb  Nb2  1  0.49999998  0.00000000  0.74947097  1
  Nb  Nb3  1  0.99999995  0.50000002  0.74947097  1
  Nb  Nb4  1  0.49999997  0.50000002  0.25052899  1
  Nb  Nb5  1  0.49999998  0.00000000  0.25052899  1
  Ge  Ge6  1  0.99999995  0.50000002  0.25052899  1
  Ge  Ge7  1  0.00000000  0.00000000  0.34366799  1
  Ge  Ge8  1  0.66666663  0.33333335  -0.00000000  1
  Ge  Ge9  1  0.33333331  0.66666669  -0.00000000  1
  Ge  Ge10  1  0.66666663  0.33333335  0.49999998  1
  Ge  Ge11  1  0.33333331  0.66666669  0.49999998  1
  Ge  Ge12  1  0.00000000  0.00000000  0.65633197  1
