# generated using pymatgen
data_PrGe2
_symmetry_space_group_name_H-M   'P 1'
_cell_length_a   4.29910421
_cell_length_b   4.29910421
_cell_length_c   8.17121696
_cell_angle_alpha   105.25193787
_cell_angle_beta   105.25193787
_cell_angle_gamma   90.00000000
_symmetry_Int_Tables_number   1
_chemical_formula_structural   PrGe2
_chemical_formula_sum   'Pr2 Ge4'
_cell_volume   140.18263826
_cell_formula_units_Z   2
loop_
 _symmetry_equiv_pos_site_id
 _symmetry_equiv_pos_as_xyz
  1  'x, y, z'
loop_
 _atom_site_type_symbol
 _atom_site_label
 _atom_site_symmetry_multiplicity
 _atom_site_fract_x
 _atom_site_fract_y
 _atom_site_fract_z
 _atom_site_occupancy
  Pr  Pr0  1  0.74991296  0.24991299  0.49982601  1
  Pr  Pr1  1  0.99991293  0.99991294  0.99982601  1
  Ge  Ge2  1  0.16913698  0.66913696  0.33827400  1
  Ge  Ge3  1  0.41913697  0.41913698  0.83827402  1
  Ge  Ge4  1  0.33494997  0.83494995  0.66990001  1
  Ge  Ge5  1  0.58494996  0.58494997  0.16989999  1
