# generated using pymatgen
data_Li3VO5
_symmetry_space_group_name_H-M   'P 1'
_cell_length_a   4.54696417
_cell_length_b   5.45334625
_cell_length_c   7.53652191
_cell_angle_alpha   86.42265320
_cell_angle_beta   89.95481873
_cell_angle_gamma   89.89016724
_symmetry_Int_Tables_number   1
_chemical_formula_structural   Li3VO5
_chemical_formula_sum   'Li6 V2 O10'
_cell_volume   186.51235995
_cell_formula_units_Z   2
loop_
 _symmetry_equiv_pos_site_id
 _symmetry_equiv_pos_as_xyz
  1  'x, y, z'
loop_
 _atom_site_type_symbol
 _atom_site_label
 _atom_site_symmetry_multiplicity
 _atom_site_fract_x
 _atom_site_fract_y
 _atom_site_fract_z
 _atom_site_occupancy
  Li  Li0  1  0.50204201  0.48921298  0.00053901  1
  Li  Li1  1  0.52585503  0.84200196  0.66215001  1
  Li  Li2  1  0.49531399  0.16678999  0.33702600  1
  Li  Li3  1  0.99224198  0.32375899  0.66905900  1
  Li  Li4  1  0.98999600  0.66366797  0.32130101  1
  Li  Li5  1  0.98823196  0.01304800  0.01004000  1
  V  V6  1  0.80620099  0.37057198  0.43377300  1
  V  V7  1  0.81015397  0.03688800  0.77469299  1
  O  O8  1  0.80582401  0.70502397  0.09774902  1
  O  O9  1  0.69011599  0.20096999  0.10695800  1
  O  O10  1  0.69515700  0.53883598  0.76694800  1
  O  O11  1  0.69924302  0.87153796  0.43180202  1
  O  O12  1  0.30838800  0.12855499  0.56695500  1
  O  O13  1  0.30713301  0.46155598  0.23149501  1
  O  O14  1  0.19713405  0.95781196  0.23055702  1
  O  O15  1  0.19088301  0.29493299  0.89923300  1
  O  O16  1  0.30058403  0.80157596  0.89564801  1
  O  O17  1  0.19550003  0.63326397  0.56407301  1
