# generated using pymatgen
data_Ti2CuSe4
_symmetry_space_group_name_H-M   'P 1'
_cell_length_a   7.53400898
_cell_length_b   7.53400898
_cell_length_c   7.53400898
_cell_angle_alpha   60.00000000
_cell_angle_beta   60.00000000
_cell_angle_gamma   60.00000000
_symmetry_Int_Tables_number   1
_chemical_formula_structural   Ti2CuSe4
_chemical_formula_sum   'Ti4 Cu2 Se8'
_cell_volume   302.38719936
_cell_formula_units_Z   2
loop_
 _symmetry_equiv_pos_site_id
 _symmetry_equiv_pos_as_xyz
  1  'x, y, z'
loop_
 _atom_site_type_symbol
 _atom_site_label
 _atom_site_symmetry_multiplicity
 _atom_site_fract_x
 _atom_site_fract_y
 _atom_site_fract_z
 _atom_site_occupancy
  Ti  Ti0  1  0.38147101  0.38147101  0.38147101  1
  Ti  Ti1  1  0.38147101  0.85558703  0.38147101  1
  Ti  Ti2  1  0.00000000  0.00000000  0.00000000  1
  Ti  Ti3  1  0.38147101  0.38147101  0.85558703  1
  Cu  Cu4  1  0.85558703  0.38147101  0.38147101  1
  Cu  Cu5  1  0.75000002  0.75000002  0.75000002  1
  Se  Se6  1  0.13430900  0.13430800  0.13430800  1
  Se  Se7  1  0.62382402  0.62382402  0.62382402  1
  Se  Se8  1  0.62382402  0.12852800  0.62382402  1
  Se  Se9  1  0.13430900  0.59707502  0.13430800  1
  Se  Se10  1  0.62382402  0.62382402  0.12852800  1
  Se  Se11  1  0.13430900  0.13430800  0.59707502  1
  Se  Se12  1  0.12852800  0.62382402  0.62382402  1
  Se  Se13  1  0.59707602  0.13430800  0.13430800  1
