# generated using pymatgen
data_LuCo4Ru
_symmetry_space_group_name_H-M   'P 1'
_cell_length_a   4.97844601
_cell_length_b   4.97844601
_cell_length_c   4.97844601
_cell_angle_alpha   60.00000000
_cell_angle_beta   60.00000000
_cell_angle_gamma   60.00000000
_symmetry_Int_Tables_number   1
_chemical_formula_structural   LuCo4Ru
_chemical_formula_sum   'Lu1 Co4 Ru1'
_cell_volume   87.25019502
_cell_formula_units_Z   1
loop_
 _symmetry_equiv_pos_site_id
 _symmetry_equiv_pos_as_xyz
  1  'x, y, z'
loop_
 _atom_site_type_symbol
 _atom_site_label
 _atom_site_symmetry_multiplicity
 _atom_site_fract_x
 _atom_site_fract_y
 _atom_site_fract_z
 _atom_site_occupancy
  Lu  Lu0  1  0.75000001  0.75000001  0.75000001  1
  Co  Co1  1  0.87735802  0.37421401  0.37421401  1
  Co  Co2  1  0.37421301  0.87735902  0.37421401  1
  Co  Co3  1  0.37421301  0.37421401  0.37421401  1
  Co  Co4  1  0.37421301  0.37421401  0.87735902  1
  Ru  Ru5  1  0.00000000  0.00000000  0.00000000  1
