# generated using pymatgen
data_Ca4CoO3
_symmetry_space_group_name_H-M   'P 1'
_cell_length_a   6.84495783
_cell_length_b   6.84495783
_cell_length_c   7.03218603
_cell_angle_alpha   90.00000000
_cell_angle_beta   90.00000000
_cell_angle_gamma   90.00000000
_symmetry_Int_Tables_number   1
_chemical_formula_structural   Ca4CoO3
_chemical_formula_sum   'Ca8 Co2 O6'
_cell_volume   329.48216025
_cell_formula_units_Z   2
loop_
 _symmetry_equiv_pos_site_id
 _symmetry_equiv_pos_as_xyz
  1  'x, y, z'
loop_
 _atom_site_type_symbol
 _atom_site_label
 _atom_site_symmetry_multiplicity
 _atom_site_fract_x
 _atom_site_fract_y
 _atom_site_fract_z
 _atom_site_occupancy
  Ca  Ca0  1  0.52992701  0.73902902  0.00000000  1
  Ca  Ca1  1  0.26097101  0.52992701  0.50000000  1
  Ca  Ca2  1  0.73902902  0.47007301  0.50000000  1
  Ca  Ca3  1  0.47007301  0.26097101  0.00000000  1
  Ca  Ca4  1  0.50000001  0.00000000  0.50000000  1
  Ca  Ca5  1  0.00000000  0.50000001  0.00000000  1
  Ca  Ca6  1  0.00000000  0.00000000  0.75000000  1
  Ca  Ca7  1  0.00000000  0.00000000  0.25000000  1
  Co  Co8  1  0.19431500  0.30738501  0.77189100  1
  Co  Co9  1  0.69261502  0.19431500  0.27189100  1
  O  O10  1  0.30738501  0.80568502  0.27189100  1
  O  O11  1  0.80568502  0.69261502  0.77189100  1
  O  O12  1  0.80568502  0.69261502  0.22810900  1
  O  O13  1  0.30738501  0.80568502  0.72810900  1
  O  O14  1  0.69261502  0.19431500  0.72810900  1
  O  O15  1  0.19431500  0.30738501  0.22810900  1
