# generated using pymatgen
data_TmCo5
_symmetry_space_group_name_H-M   'P 1'
_cell_length_a   4.07280302
_cell_length_b   8.70205402
_cell_length_c   8.70205307
_cell_angle_alpha   120.00000000
_cell_angle_beta   90.00000000
_cell_angle_gamma   90.00000000
_symmetry_Int_Tables_number   1
_chemical_formula_structural   TmCo5
_chemical_formula_sum   'Tm3 Co15'
_cell_volume   267.09609616
_cell_formula_units_Z   3
loop_
 _symmetry_equiv_pos_site_id
 _symmetry_equiv_pos_as_xyz
  1  'x, y, z'
loop_
 _atom_site_type_symbol
 _atom_site_label
 _atom_site_symmetry_multiplicity
 _atom_site_fract_x
 _atom_site_fract_y
 _atom_site_fract_z
 _atom_site_occupancy
  Tm  Tm0  1  0.50000000  0.33333332  0.66666666  1
  Tm  Tm1  1  0.50000000  0.66666665  0.33333330  1
  Tm  Tm2  1  0.00000000  0.00000000  0.00000000  1
  Co  Co3  1  -0.00000000  0.51561198  -0.00000003  1
  Co  Co4  1  -0.00000000  0.48438799  0.48438799  1
  Co  Co5  1  -0.00000000  0.99999997  0.51561196  1
  Co  Co6  1  0.50000000  0.27225799  -0.00000001  1
  Co  Co7  1  0.50000000  0.72774198  0.72774198  1
  Co  Co8  1  0.50000000  0.00000000  0.27225801  1
  Co  Co9  1  -0.00000000  0.17758499  0.37229100  1
  Co  Co10  1  -0.00000000  0.19470599  0.82241501  1
  Co  Co11  1  -0.00000000  0.62770898  0.80529398  1
  Co  Co12  1  -0.00000000  0.80529398  0.62770897  1
  Co  Co13  1  -0.00000000  0.37229099  0.17758498  1
  Co  Co14  1  -0.00000000  0.82241497  0.19470596  1
  Co  Co15  1  0.50000000  0.70485098  -0.00000004  1
  Co  Co16  1  0.50000000  0.29514899  0.29514899  1
  Co  Co17  1  0.50000000  0.99999997  0.70485096  1
