# generated using pymatgen
data_Tm(CoGe)2
_symmetry_space_group_name_H-M   'P 1'
_cell_length_a   3.96437597
_cell_length_b   3.96437597
_cell_length_c   5.79599047
_cell_angle_alpha   109.99834442
_cell_angle_beta   109.99834442
_cell_angle_gamma   90.00000000
_symmetry_Int_Tables_number   1
_chemical_formula_structural   Tm(CoGe)2
_chemical_formula_sum   'Tm1 Co2 Ge2'
_cell_volume   79.72872989
_cell_formula_units_Z   1
loop_
 _symmetry_equiv_pos_site_id
 _symmetry_equiv_pos_as_xyz
  1  'x, y, z'
loop_
 _atom_site_type_symbol
 _atom_site_label
 _atom_site_symmetry_multiplicity
 _atom_site_fract_x
 _atom_site_fract_y
 _atom_site_fract_z
 _atom_site_occupancy
  Tm  Tm0  1  0.00000000  0.00000000  0.00000000  1
  Co  Co1  1  0.75000002  0.25000001  0.50000005  1
  Co  Co2  1  0.25000003  0.75000002  0.50000005  1
  Ge  Ge3  1  0.62803403  0.62803401  0.25606805  1
  Ge  Ge4  1  0.37196602  0.37196601  0.74393205  1
