# generated using pymatgen
data_Ti2S3
_symmetry_space_group_name_H-M   'P 1'
_cell_length_a   5.73974991
_cell_length_b   5.73975039
_cell_length_c   11.94226265
_cell_angle_alpha   90.00000000
_cell_angle_beta   90.00000000
_cell_angle_gamma   120.00000000
_symmetry_Int_Tables_number   1
_chemical_formula_structural   Ti2S3
_chemical_formula_sum   'Ti8 S12'
_cell_volume   340.72439250
_cell_formula_units_Z   4
loop_
 _symmetry_equiv_pos_site_id
 _symmetry_equiv_pos_as_xyz
  1  'x, y, z'
loop_
 _atom_site_type_symbol
 _atom_site_label
 _atom_site_symmetry_multiplicity
 _atom_site_fract_x
 _atom_site_fract_y
 _atom_site_fract_z
 _atom_site_occupancy
  Ti  Ti0  1  0.00000000  0.00000000  0.00000000  1
  Ti  Ti1  1  0.00000000  0.00000000  0.50000001  1
  Ti  Ti2  1  0.66666670  0.33333336  0.49601501  1
  Ti  Ti3  1  0.33333339  0.66666671  0.99601503  1
  Ti  Ti4  1  0.33333339  0.66666671  0.50398501  1
  Ti  Ti5  1  0.66666670  0.33333336  0.00398500  1
  Ti  Ti6  1  0.66666670  0.33333336  0.75000002  1
  Ti  Ti7  1  0.33333339  0.66666671  0.25000001  1
  S  S8  1  0.66831406  0.66436405  0.86666103  1
  S  S9  1  0.99605004  0.33168502  0.86666103  1
  S  S10  1  0.33168603  0.33563602  0.36666101  1
  S  S11  1  0.00395002  0.33563602  0.13333900  1
  S  S12  1  0.33563501  0.00394900  0.86666103  1
  S  S13  1  0.00395005  0.66831505  0.36666101  1
  S  S14  1  0.66436506  0.66831505  0.13333900  1
  S  S15  1  0.99605006  0.66436405  0.63333902  1
  S  S16  1  0.66436508  0.99605107  0.36666101  1
  S  S17  1  0.33563503  0.33168502  0.63333902  1
  S  S18  1  0.33168607  0.99605107  0.13333900  1
  S  S19  1  0.66831401  0.00394900  0.63333902  1
