# generated using pymatgen
data_YbSi2
_symmetry_space_group_name_H-M   'P 1'
_cell_length_a   4.41053581
_cell_length_b   7.05890322
_cell_length_c   7.62689686
_cell_angle_alpha   90.00000000
_cell_angle_beta   90.00000000
_cell_angle_gamma   90.00000000
_symmetry_Int_Tables_number   1
_chemical_formula_structural   YbSi2
_chemical_formula_sum   'Yb4 Si8'
_cell_volume   237.45233987
_cell_formula_units_Z   4
loop_
 _symmetry_equiv_pos_site_id
 _symmetry_equiv_pos_as_xyz
  1  'x, y, z'
loop_
 _atom_site_type_symbol
 _atom_site_label
 _atom_site_symmetry_multiplicity
 _atom_site_fract_x
 _atom_site_fract_y
 _atom_site_fract_z
 _atom_site_occupancy
  Yb  Yb0  1  0.25000001  0.98381297  0.80163201  1
  Yb  Yb1  1  0.25000001  0.48381299  0.69836801  1
  Yb  Yb2  1  0.75000003  0.01618700  0.19836800  1
  Yb  Yb3  1  0.75000003  0.51618698  0.30163201  1
  Si  Si4  1  0.25000001  0.82074497  0.41938801  1
  Si  Si5  1  0.25000001  0.32074499  0.08061200  1
  Si  Si6  1  0.75000003  0.17925499  0.58061201  1
  Si  Si7  1  0.75000003  0.67925498  0.91938802  1
  Si  Si8  1  0.25000001  0.21121499  0.40634001  1
  Si  Si9  1  0.25000001  0.71121498  0.09366000  1
  Si  Si10  1  0.75000003  0.78878498  0.59366001  1
  Si  Si11  1  0.75000003  0.28878499  0.90634002  1
