# generated using pymatgen
data_CaLu(CoO3)2
_symmetry_space_group_name_H-M   'P 1'
_cell_length_a   5.33584023
_cell_length_b   5.56066513
_cell_length_c   7.63754606
_cell_angle_alpha   90.00000000
_cell_angle_beta   90.00000000
_cell_angle_gamma   90.00000000
_symmetry_Int_Tables_number   1
_chemical_formula_structural   CaLu(CoO3)2
_chemical_formula_sum   'Ca2 Lu2 Co4 O12'
_cell_volume   226.61225968
_cell_formula_units_Z   2
loop_
 _symmetry_equiv_pos_site_id
 _symmetry_equiv_pos_as_xyz
  1  'x, y, z'
loop_
 _atom_site_type_symbol
 _atom_site_label
 _atom_site_symmetry_multiplicity
 _atom_site_fract_x
 _atom_site_fract_y
 _atom_site_fract_z
 _atom_site_occupancy
  Ca  Ca0  1  0.48922698  0.19794000  0.00000000  1
  Ca  Ca1  1  0.98922696  0.80205998  0.50000000  1
  Lu  Lu2  1  0.01794100  0.68234998  0.00000000  1
  Lu  Lu3  1  0.51794098  0.31764999  0.50000000  1
  Co  Co4  1  0.00099700  0.24432299  0.74965399  1
  Co  Co5  1  0.00099700  0.24432299  0.25034600  1
  Co  Co6  1  0.50099698  0.75567698  0.24965400  1
  Co  Co7  1  0.50099698  0.75567698  0.75034599  1
  O  O8  1  0.10794100  0.22376099  0.50000000  1
  O  O9  1  0.19388599  0.94250098  0.80299099  1
  O  O10  1  0.19388599  0.94250098  0.19700900  1
  O  O11  1  0.28951699  0.45865799  0.79770499  1
  O  O12  1  0.28951699  0.45865799  0.20229500  1
  O  O13  1  0.41590698  0.71760998  0.50000000  1
  O  O14  1  0.60794097  0.77623898  0.00000000  1
  O  O15  1  0.69388597  0.05749900  0.30299100  1
  O  O16  1  0.69388597  0.05749900  0.69700899  1
  O  O17  1  0.78951697  0.54134199  0.70229499  1
  O  O18  1  0.78951697  0.54134199  0.29770500  1
  O  O19  1  0.91590696  0.28238999  -0.00000000  1
