# generated using pymatgen
data_Tm2FeSi5
_symmetry_space_group_name_H-M   'P 1'
_cell_length_a   3.85383296
_cell_length_b   5.31724262
_cell_length_c   12.85682869
_cell_angle_alpha   90.00000000
_cell_angle_beta   90.00000000
_cell_angle_gamma   111.24705505
_symmetry_Int_Tables_number   1
_chemical_formula_structural   Tm2FeSi5
_chemical_formula_sum   'Tm4 Fe2 Si10'
_cell_volume   245.55087191
_cell_formula_units_Z   2
loop_
 _symmetry_equiv_pos_site_id
 _symmetry_equiv_pos_as_xyz
  1  'x, y, z'
loop_
 _atom_site_type_symbol
 _atom_site_label
 _atom_site_symmetry_multiplicity
 _atom_site_fract_x
 _atom_site_fract_y
 _atom_site_fract_z
 _atom_site_occupancy
  Tm  Tm0  1  0.07796801  0.15593500  0.38664301  1
  Tm  Tm1  1  0.92203207  0.84406500  0.61335701  1
  Tm  Tm2  1  0.07796801  0.15593500  0.11335700  1
  Tm  Tm3  1  0.92203207  0.84406500  0.88664302  1
  Si  Si4  1  0.36316505  0.72633000  0.25000001  1
  Fe  Fe5  1  0.63683502  0.27367000  0.75000002  1
  Fe  Fe6  1  0.21972303  0.43944600  0.91847302  1
  Si  Si7  1  0.78027705  0.56055400  0.08152700  1
  Si  Si8  1  0.21972303  0.43944600  0.58152701  1
  Si  Si9  1  0.78027705  0.56055400  0.41847301  1
  Si  Si10  1  0.38834906  0.77669800  0.45756501  1
  Si  Si11  1  0.61165102  0.22330200  0.54243501  1
  Si  Si12  1  0.38834906  0.77669800  0.04243500  1
  Si  Si13  1  0.61165102  0.22330200  0.95756502  1
  Si  Si14  1  0.66356103  0.32712200  0.25000001  1
  Si  Si15  1  0.33643905  0.67287800  0.75000002  1
