# generated using pymatgen
data_SrAg2
_symmetry_space_group_name_H-M   'P 1'
_cell_length_a   5.10837412
_cell_length_b   6.32780695
_cell_length_c   6.32780695
_cell_angle_alpha   77.27598572
_cell_angle_beta   66.19376373
_cell_angle_gamma   66.19376373
_symmetry_Int_Tables_number   1
_chemical_formula_structural   SrAg2
_chemical_formula_sum   'Sr2 Ag4'
_cell_volume   170.81677174
_cell_formula_units_Z   2
loop_
 _symmetry_equiv_pos_site_id
 _symmetry_equiv_pos_as_xyz
  1  'x, y, z'
loop_
 _atom_site_type_symbol
 _atom_site_label
 _atom_site_symmetry_multiplicity
 _atom_site_fract_x
 _atom_site_fract_y
 _atom_site_fract_z
 _atom_site_occupancy
  Sr  Sr0  1  0.95109202  0.79890797  0.29890796  1
  Sr  Sr1  1  0.04890801  0.20109199  0.70109196  1
  Ag  Ag2  1  0.66499300  0.39106398  0.27894998  1
  Ag  Ag3  1  0.33500700  0.22104999  0.10893599  1
  Ag  Ag4  1  0.33500703  0.60893597  0.72104995  1
  Ag  Ag5  1  0.66499303  0.77894997  0.89106394  1
