# generated using pymatgen
data_LiEuAlAgRuW
_symmetry_space_group_name_H-M   'P 1'
_cell_length_a   5.47621298
_cell_length_b   5.47621298
_cell_length_c   5.47621298
_cell_angle_alpha   89.26415253
_cell_angle_beta   60.06714630
_cell_angle_gamma   119.22054291
_symmetry_Int_Tables_number   1
_chemical_formula_structural   LiEuAlAgRuW
_chemical_formula_sum   'Li1 Eu1 Al1 Ag1 Ru1 W1'
_cell_volume   116.85207503
_cell_formula_units_Z   1
loop_
 _symmetry_equiv_pos_site_id
 _symmetry_equiv_pos_as_xyz
  1  'x, y, z'
loop_
 _atom_site_type_symbol
 _atom_site_label
 _atom_site_symmetry_multiplicity
 _atom_site_fract_x
 _atom_site_fract_y
 _atom_site_fract_z
 _atom_site_occupancy
  Eu  Eu0  1  1.00000000  0.99405602  0.00594408  1
  Li  Li1  1  0.75077101  0.37663301  0.37413805  1
  Al  Al2  1  0.24922899  0.87509102  0.37413807  1
  Ag  Ag3  1  0.24887000  0.37662101  0.37450904  1
  Ru  Ru4  1  0.75113001  0.37662101  0.87224906  1
  W  W5  1  0.49999999  0.75097801  0.74902208  1
