# generated using pymatgen
data_LaAl2Si4Ir
_symmetry_space_group_name_H-M   'P 1'
_cell_length_a   4.05360603
_cell_length_b   4.05360603
_cell_length_c   10.05035782
_cell_angle_alpha   90.00000000
_cell_angle_beta   90.00000000
_cell_angle_gamma   90.00000000
_symmetry_Int_Tables_number   1
_chemical_formula_structural   LaAl2Si4Ir
_chemical_formula_sum   'La1 Al2 Si4 Ir1'
_cell_volume   165.14468440
_cell_formula_units_Z   1
loop_
 _symmetry_equiv_pos_site_id
 _symmetry_equiv_pos_as_xyz
  1  'x, y, z'
loop_
 _atom_site_type_symbol
 _atom_site_label
 _atom_site_symmetry_multiplicity
 _atom_site_fract_x
 _atom_site_fract_y
 _atom_site_fract_z
 _atom_site_occupancy
  La  La0  1  0.00000000  0.00000000  0.50000001  1
  Al  Al1  1  0.00000000  0.50000000  0.84660202  1
  Al  Al2  1  0.50000000  0.00000000  0.84660202  1
  Si  Si3  1  0.00000000  0.50000000  0.15339800  1
  Si  Si4  1  0.50000000  0.00000000  0.15339800  1
  Si  Si5  1  0.00000000  0.00000000  0.00000000  1
  Ir  Ir6  1  0.50000000  0.50000000  0.71271301  1
  Si  Si7  1  0.50000000  0.50000000  0.28728701  1
