# generated using pymatgen
data_Li2VO6
_symmetry_space_group_name_H-M   'P 1'
_cell_length_a   4.99874544
_cell_length_b   5.13009071
_cell_length_c   5.44705153
_cell_angle_alpha   92.96372223
_cell_angle_beta   114.56747437
_cell_angle_gamma   118.71653748
_symmetry_Int_Tables_number   1
_chemical_formula_structural   Li2VO6
_chemical_formula_sum   'Li2 V1 O6'
_cell_volume   105.73201402
_cell_formula_units_Z   1
loop_
 _symmetry_equiv_pos_site_id
 _symmetry_equiv_pos_as_xyz
  1  'x, y, z'
loop_
 _atom_site_type_symbol
 _atom_site_label
 _atom_site_symmetry_multiplicity
 _atom_site_fract_x
 _atom_site_fract_y
 _atom_site_fract_z
 _atom_site_occupancy
  Li  Li0  1  0.32387001  0.65272499  0.94371505  1
  Li  Li1  1  0.72673699  0.86639498  0.55472703  1
  V  V2  1  0.65706697  0.31005299  0.02251498  1
  O  O3  1  0.51156500  0.58229599  0.75824503  1
  O  O4  1  0.19222103  0.93087498  0.78238907  1
  O  O5  1  0.85272696  0.26562999  0.79781900  1
  O  O6  1  0.73320296  0.04789800  0.23662197  1
  O  O7  1  0.54841599  0.48757899  0.23371801  1
  O  O8  1  0.17870202  0.70268299  0.25839104  1
