# generated using pymatgen
data_NbP3O8
_symmetry_space_group_name_H-M   'P 1'
_cell_length_a   5.06647682
_cell_length_b   5.08370209
_cell_length_c   7.04176712
_cell_angle_alpha   90.00000000
_cell_angle_beta   90.00000000
_cell_angle_gamma   90.00000000
_symmetry_Int_Tables_number   1
_chemical_formula_structural   NbP3O8
_chemical_formula_sum   'Nb1 P3 O8'
_cell_volume   181.37098468
_cell_formula_units_Z   1
loop_
 _symmetry_equiv_pos_site_id
 _symmetry_equiv_pos_as_xyz
  1  'x, y, z'
loop_
 _atom_site_type_symbol
 _atom_site_label
 _atom_site_symmetry_multiplicity
 _atom_site_fract_x
 _atom_site_fract_y
 _atom_site_fract_z
 _atom_site_occupancy
  Nb  Nb0  1  0.99956504  0.04535500  0.62482299  1
  P  P1  1  0.49956502  0.45464499  0.12482300  1
  P  P2  1  0.49956502  0.95464498  0.37517699  1
  P  P3  1  0.99956504  0.54535499  0.87517699  1
  O  O4  1  0.44751002  0.65605999  0.30078499  1
  O  O5  1  0.94751003  0.34393999  0.69921499  1
  O  O6  1  0.44751002  0.15606000  0.19921500  1
  O  O7  1  0.30293501  0.51578199  0.94794998  1
  O  O8  1  0.80293503  0.98421798  0.44794999  1
  O  O9  1  0.94751003  0.84393999  0.80078499  1
  O  O10  1  0.30293501  0.01578200  0.55204999  1
  O  O11  1  0.80293503  0.48421799  0.05205000  1
