# generated using pymatgen
data_Eu4MgTi3O8
_symmetry_space_group_name_H-M   'P 1'
_cell_length_a   3.41601110
_cell_length_b   5.71835423
_cell_length_c   10.81560707
_cell_angle_alpha   90.00000000
_cell_angle_beta   90.00000000
_cell_angle_gamma   90.00000000
_symmetry_Int_Tables_number   1
_chemical_formula_structural   Eu4MgTi3O8
_chemical_formula_sum   'Eu4 Mg1 Ti3 O8'
_cell_volume   211.27165189
_cell_formula_units_Z   1
loop_
 _symmetry_equiv_pos_site_id
 _symmetry_equiv_pos_as_xyz
  1  'x, y, z'
loop_
 _atom_site_type_symbol
 _atom_site_label
 _atom_site_symmetry_multiplicity
 _atom_site_fract_x
 _atom_site_fract_y
 _atom_site_fract_z
 _atom_site_occupancy
  Eu  Eu0  1  0.24999999  0.08552600  0.86257899  1
  Eu  Eu1  1  0.24999999  0.58552598  0.63742100  1
  Eu  Eu2  1  0.74999998  0.91447396  0.13742100  1
  Eu  Eu3  1  0.74999998  0.41447398  0.36257900  1
  Mg  Mg4  1  0.24999999  0.40353998  0.10925600  1
  Ti  Ti5  1  0.24999999  0.90353996  0.39074400  1
  Ti  Ti6  1  0.74999998  0.59645998  0.89074399  1
  Ti  Ti7  1  0.74999998  0.09646000  0.60925600  1
  O  O8  1  0.24999999  0.15940099  0.24714100  1
  O  O9  1  0.24999999  0.65940097  0.25285900  1
  O  O10  1  0.74999998  0.84059897  0.75285900  1
  O  O11  1  0.74999998  0.34059899  0.74714100  1
  O  O12  1  0.24999999  0.72113297  0.98331099  1
  O  O13  1  0.24999999  0.22113299  0.51668900  1
  O  O14  1  0.74999998  0.27886699  0.01668900  1
  O  O15  1  0.74999998  0.77886697  0.48331100  1
