# generated using pymatgen
data_Hf5Sn3
_symmetry_space_group_name_H-M   'P 1'
_cell_length_a   5.56439018
_cell_length_b   8.26079178
_cell_length_c   8.26079178
_cell_angle_alpha   83.48686218
_cell_angle_beta   70.31826019
_cell_angle_gamma   70.31826019
_symmetry_Int_Tables_number   1
_chemical_formula_structural   Hf5Sn3
_chemical_formula_sum   'Hf10 Sn6'
_cell_volume   336.64600640
_cell_formula_units_Z   2
loop_
 _symmetry_equiv_pos_site_id
 _symmetry_equiv_pos_as_xyz
  1  'x, y, z'
loop_
 _atom_site_type_symbol
 _atom_site_label
 _atom_site_symmetry_multiplicity
 _atom_site_fract_x
 _atom_site_fract_y
 _atom_site_fract_z
 _atom_site_occupancy
  Hf  Hf0  1  0.22402603  0.85863396  0.70852995  1
  Hf  Hf1  1  0.79118898  0.14136599  0.29146999  1
  Hf  Hf2  1  0.27597500  0.29146999  0.14136599  1
  Hf  Hf3  1  0.70881000  0.70852997  0.85863395  1
  Hf  Hf4  1  0.08266003  0.70852997  0.14136597  1
  Hf  Hf5  1  0.93255498  0.29146999  0.85863397  1
  Hf  Hf6  1  0.56744398  0.14136599  0.70852997  1
  Hf  Hf7  1  0.41734102  0.85863396  0.29146997  1
  Hf  Hf8  1  0.74999999  0.49999998  0.49999997  1
  Hf  Hf9  1  0.25000001  0.49999998  0.49999997  1
  Sn  Sn10  1  0.24999999  0.00000000  0.00000000  1
  Sn  Sn11  1  0.83510900  0.82978196  0.49999997  1
  Sn  Sn12  1  0.16489100  0.17021799  0.49999998  1
  Sn  Sn13  1  0.66489100  0.49999998  0.17021799  1
  Sn  Sn14  1  0.33510901  0.49999998  0.82978195  1
  Sn  Sn15  1  0.74999997  0.00000000  0.00000001  1
