# generated using pymatgen
data_BeCuRu2
_symmetry_space_group_name_H-M   'P 1'
_cell_length_a   4.17196512
_cell_length_b   4.17196512
_cell_length_c   4.17196512
_cell_angle_alpha   60.00000000
_cell_angle_beta   60.00000000
_cell_angle_gamma   60.00000000
_symmetry_Int_Tables_number   1
_chemical_formula_structural   BeCuRu2
_chemical_formula_sum   'Be1 Cu1 Ru2'
_cell_volume   51.34604645
_cell_formula_units_Z   1
loop_
 _symmetry_equiv_pos_site_id
 _symmetry_equiv_pos_as_xyz
  1  'x, y, z'
loop_
 _atom_site_type_symbol
 _atom_site_label
 _atom_site_symmetry_multiplicity
 _atom_site_fract_x
 _atom_site_fract_y
 _atom_site_fract_z
 _atom_site_occupancy
  Be  Be0  1  0.00000000  0.00000000  0.00000000  1
  Cu  Cu1  1  0.50000003  0.50000003  0.50000003  1
  Ru  Ru2  1  0.74999704  0.75000104  0.75000104  1
  Ru  Ru3  1  0.24999701  0.25000101  0.25000101  1
