# generated using pymatgen
data_Dy2MnCo9
_symmetry_space_group_name_H-M   'P 1'
_cell_length_a   4.84793520
_cell_length_b   4.84793520
_cell_length_c   8.47427368
_cell_angle_alpha   73.37907410
_cell_angle_beta   73.37907410
_cell_angle_gamma   60.00000763
_symmetry_Int_Tables_number   1
_chemical_formula_structural   Dy2MnCo9
_chemical_formula_sum   'Dy2 Mn1 Co9'
_cell_volume   162.80342426
_cell_formula_units_Z   1
loop_
 _symmetry_equiv_pos_site_id
 _symmetry_equiv_pos_as_xyz
  1  'x, y, z'
loop_
 _atom_site_type_symbol
 _atom_site_label
 _atom_site_symmetry_multiplicity
 _atom_site_fract_x
 _atom_site_fract_y
 _atom_site_fract_z
 _atom_site_occupancy
  Dy  Dy0  1  0.86047398  0.86047403  0.41857806  1
  Dy  Dy1  1  0.13709500  0.13709501  0.58871501  1
  Mn  Mn2  1  0.00024300  0.00024300  0.99927100  1
  Co  Co3  1  0.41983197  0.91868703  0.24164905  1
  Co  Co4  1  0.41983199  0.41983202  0.24164903  1
  Co  Co5  1  0.91868700  0.41983202  0.24164905  1
  Co  Co6  1  0.58026501  0.08315000  0.75632002  1
  Co  Co7  1  0.58026498  0.58026502  0.75632004  1
  Co  Co8  1  0.08314998  0.58026502  0.75632002  1
  Co  Co9  1  0.66679398  0.66679303  0.99961905  1
  Co  Co10  1  0.33362499  0.33362501  0.99912502  1
  Co  Co11  1  0.49973799  0.49973702  0.50078704  1
