# generated using pymatgen
data_SrBiBr3
_symmetry_space_group_name_H-M   'P 1'
_cell_length_a   7.65122986
_cell_length_b   7.72951174
_cell_length_c   7.78642035
_cell_angle_alpha   75.91646576
_cell_angle_beta   69.03049469
_cell_angle_gamma   88.82535553
_symmetry_Int_Tables_number   1
_chemical_formula_structural   SrBiBr3
_chemical_formula_sum   'Sr2 Bi2 Br6'
_cell_volume   415.93987523
_cell_formula_units_Z   2
loop_
 _symmetry_equiv_pos_site_id
 _symmetry_equiv_pos_as_xyz
  1  'x, y, z'
loop_
 _atom_site_type_symbol
 _atom_site_label
 _atom_site_symmetry_multiplicity
 _atom_site_fract_x
 _atom_site_fract_y
 _atom_site_fract_z
 _atom_site_occupancy
  Sr  Sr0  1  -0.00000002  0.49999999  -0.00000002  1
  Sr  Sr1  1  0.50000000  0.00000000  0.00000001  1
  Bi  Bi2  1  1.00000000  0.00000000  0.50000002  1
  Bi  Bi3  1  0.00000000  0.00000000  0.00000000  1
  Br  Br4  1  0.93110799  0.19534200  0.82104202  1
  Br  Br5  1  0.06889196  0.80465798  0.17895798  1
  Br  Br6  1  0.19775799  0.21501300  0.12020200  1
  Br  Br7  1  0.80224197  0.78498698  0.87979799  1
  Br  Br8  1  0.22043096  0.95359698  0.78814898  1
  Br  Br9  1  0.77956900  0.04640300  0.21185101  1
