# generated using pymatgen
data_EuZn2Au3
_symmetry_space_group_name_H-M   'P 1'
_cell_length_a   4.43608713
_cell_length_b   5.36991024
_cell_length_c   5.36990976
_cell_angle_alpha   120.00000000
_cell_angle_beta   90.00000000
_cell_angle_gamma   90.00000000
_symmetry_Int_Tables_number   1
_chemical_formula_structural   EuZn2Au3
_chemical_formula_sum   'Eu1 Zn2 Au3'
_cell_volume   110.78085525
_cell_formula_units_Z   1
loop_
 _symmetry_equiv_pos_site_id
 _symmetry_equiv_pos_as_xyz
  1  'x, y, z'
loop_
 _atom_site_type_symbol
 _atom_site_label
 _atom_site_symmetry_multiplicity
 _atom_site_fract_x
 _atom_site_fract_y
 _atom_site_fract_z
 _atom_site_occupancy
  Eu  Eu0  1  0.00000000  0.00000000  0.00000000  1
  Zn  Zn1  1  0.99999997  0.33333331  0.66666663  1
  Zn  Zn2  1  0.49999999  0.50067197  0.49932696  1
  Au  Au3  1  0.49999999  0.99865493  0.49932693  1
  Au  Au4  1  0.49999999  0.50067197  0.00134397  1
  Au  Au5  1  -0.00000000  0.66666662  0.33333329  1
