# generated using pymatgen
data_Li7Ti2NiO10
_symmetry_space_group_name_H-M   'P 1'
_cell_length_a   4.33269882
_cell_length_b   5.07492876
_cell_length_c   9.59739017
_cell_angle_alpha   92.34835815
_cell_angle_beta   90.01160431
_cell_angle_gamma   115.15653229
_symmetry_Int_Tables_number   1
_chemical_formula_structural   Li7Ti2NiO10
_chemical_formula_sum   'Li7 Ti2 Ni1 O10'
_cell_volume   190.81597595
_cell_formula_units_Z   1
loop_
 _symmetry_equiv_pos_site_id
 _symmetry_equiv_pos_as_xyz
  1  'x, y, z'
loop_
 _atom_site_type_symbol
 _atom_site_label
 _atom_site_symmetry_multiplicity
 _atom_site_fract_x
 _atom_site_fract_y
 _atom_site_fract_z
 _atom_site_occupancy
  Li  Li0  1  0.30700702  0.10534800  0.90121003  1
  Li  Li1  1  0.69299310  0.89465204  0.09879000  1
  Li  Li2  1  0.09510706  0.69478403  0.29834401  1
  Li  Li3  1  0.90489306  0.30521601  0.70165601  1
  Li  Li4  1  0.35649704  0.28842001  0.19412000  1
  Li  Li5  1  0.64350308  0.71158003  0.80588002  1
  Li  Li6  1  0.00000004  0.50000002  -0.00000000  1
  Ti  Ti7  1  0.50000006  0.50000002  0.50000001  1
  Ti  Ti8  1  0.20833208  0.91744404  0.60566902  1
  Ni  Ni9  1  0.79166804  0.08255600  0.39433100  1
  O  O10  1  0.50000006  0.50000002  -0.00000001  1
  O  O11  1  0.78287104  0.07486400  0.89853902  1
  O  O12  1  0.21712908  0.92513604  0.10146100  1
  O  O13  1  0.59350008  0.67558303  0.29103800  1
  O  O14  1  0.92288906  0.29803701  0.19537500  1
  O  O15  1  0.30586202  0.10470100  0.37833901  1
  O  O16  1  0.00000004  0.50000002  0.50000002  1
  O  O17  1  0.40650004  0.32441701  0.70896202  1
  O  O18  1  0.69413810  0.89529904  0.62166101  1
  O  O19  1  0.07711106  0.70196303  0.80462502  1
