# generated using pymatgen
data_Pr2Ge6Pd
_symmetry_space_group_name_H-M   'P 1'
_cell_length_a   4.06436205
_cell_length_b   4.10305786
_cell_length_c   11.19142437
_cell_angle_alpha   90.00000000
_cell_angle_beta   100.46202087
_cell_angle_gamma   90.00000000
_symmetry_Int_Tables_number   1
_chemical_formula_structural   Pr2Ge6Pd
_chemical_formula_sum   'Pr2 Ge6 Pd1'
_cell_volume   183.52903113
_cell_formula_units_Z   1
loop_
 _symmetry_equiv_pos_site_id
 _symmetry_equiv_pos_as_xyz
  1  'x, y, z'
loop_
 _atom_site_type_symbol
 _atom_site_label
 _atom_site_symmetry_multiplicity
 _atom_site_fract_x
 _atom_site_fract_y
 _atom_site_fract_z
 _atom_site_occupancy
  Pr  Pr0  1  0.77735098  0.50000002  0.55470197  1
  Pr  Pr1  1  0.11778600  0.50000002  0.23557199  1
  Ge  Ge2  1  0.49294899  0.50000002  0.98589696  1
  Ge  Ge3  1  0.37928899  0.50000002  0.75857897  1
  Ge  Ge4  1  0.99224998  0.00000000  0.98449895  1
  Ge  Ge5  1  0.87790298  0.00000000  0.75580596  1
  Ge  Ge6  1  0.66967199  0.00000000  0.33934298  1
  Ge  Ge7  1  0.24099099  0.00000000  0.48198298  1
  Pd  Pd8  1  0.55880899  0.00000000  0.11761899  1
