# generated using pymatgen
data_Zr(Al2Cu)4
_symmetry_space_group_name_H-M   'P 1'
_cell_length_a   5.13432884
_cell_length_b   6.67776823
_cell_length_c   6.67776871
_cell_angle_alpha   81.50114441
_cell_angle_beta   67.39135742
_cell_angle_gamma   67.39136505
_symmetry_Int_Tables_number   1
_chemical_formula_structural   Zr(Al2Cu)4
_chemical_formula_sum   'Zr1 Al8 Cu4'
_cell_volume   195.11608526
_cell_formula_units_Z   1
loop_
 _symmetry_equiv_pos_site_id
 _symmetry_equiv_pos_as_xyz
  1  'x, y, z'
loop_
 _atom_site_type_symbol
 _atom_site_label
 _atom_site_symmetry_multiplicity
 _atom_site_fract_x
 _atom_site_fract_y
 _atom_site_fract_z
 _atom_site_occupancy
  Zr  Zr0  1  0.00000000  0.00000000  0.00000000  1
  Al  Al1  1  0.50000002  0.00000000  0.49999999  1
  Al  Al2  1  0.00000000  0.00000000  0.50000000  1
  Al  Al3  1  0.49999999  0.50000001  0.00000001  1
  Cu  Cu4  1  -0.00000004  0.50000001  0.00000002  1
  Al  Al5  1  0.33510097  0.66489902  0.66489902  1
  Al  Al6  1  0.66489901  0.33510101  0.33510100  1
  Al  Al7  1  -0.00000005  0.66489902  0.33510103  1
  Al  Al8  1  -0.00000002  0.33510101  0.66489901  1
  Al  Al9  1  0.27595900  0.22404101  0.22404100  1
  Cu  Cu10  1  0.72404098  0.77595902  0.77595901  1
  Cu  Cu11  1  0.50000001  0.22404101  0.77595900  1
  Cu  Cu12  1  0.49999997  0.77595902  0.22404102  1
