# generated using pymatgen
data_Ba2EuWO6
_symmetry_space_group_name_H-M   'P 1'
_cell_length_a   5.83883238
_cell_length_b   5.94588709
_cell_length_c   8.29088116
_cell_angle_alpha   90.00000000
_cell_angle_beta   90.25407410
_cell_angle_gamma   90.00000000
_symmetry_Int_Tables_number   1
_chemical_formula_structural   Ba2EuWO6
_chemical_formula_sum   'Ba4 Eu2 W2 O12'
_cell_volume   287.83200660
_cell_formula_units_Z   2
loop_
 _symmetry_equiv_pos_site_id
 _symmetry_equiv_pos_as_xyz
  1  'x, y, z'
loop_
 _atom_site_type_symbol
 _atom_site_label
 _atom_site_symmetry_multiplicity
 _atom_site_fract_x
 _atom_site_fract_y
 _atom_site_fract_z
 _atom_site_occupancy
  Ba  Ba0  1  0.49037700  0.04163100  0.24907903  1
  Ba  Ba1  1  0.99037700  0.45836899  0.74907906  1
  Ba  Ba2  1  0.50962300  0.95836899  0.75092104  1
  Ba  Ba3  1  0.00962300  0.54163099  0.25092101  1
  Eu  Eu4  1  0.50000000  0.49999999  0.00000002  1
  Eu  Eu5  1  0.00000000  0.00000000  0.50000002  1
  W  W6  1  0.50000000  0.49999999  0.50000003  1
  W  W7  1  0.00000000  0.00000000  0.00000000  1
  O  O8  1  0.41531100  0.52818899  0.72712704  1
  O  O9  1  0.91531100  0.97181099  0.22712704  1
  O  O10  1  0.58468900  0.47181099  0.27287303  1
  O  O11  1  0.08468900  0.02818900  0.77287303  1
  O  O12  1  0.23069200  0.31182800  0.45848802  1
  O  O13  1  0.73069200  0.18817200  0.95848806  1
  O  O14  1  0.76930800  0.68817199  0.54151204  1
  O  O15  1  0.26930800  0.81182799  0.04151201  1
  O  O16  1  0.31621500  0.76911999  0.45132502  1
  O  O17  1  0.81621500  0.73087999  0.95132506  1
  O  O18  1  0.68378500  0.23088000  0.54867504  1
  O  O19  1  0.18378500  0.26912000  0.04867501  1
