# generated using pymatgen
data_Ba3Li5Cu4
_symmetry_space_group_name_H-M   'P 1'
_cell_length_a   6.68226814
_cell_length_b   6.69293022
_cell_length_c   8.88468075
_cell_angle_alpha   112.12667847
_cell_angle_beta   112.08956909
_cell_angle_gamma   90.00000000
_symmetry_Int_Tables_number   1
_chemical_formula_structural   Ba3Li5Cu4
_chemical_formula_sum   'Ba3 Li5 Cu4'
_cell_volume   336.39891196
_cell_formula_units_Z   1
loop_
 _symmetry_equiv_pos_site_id
 _symmetry_equiv_pos_as_xyz
  1  'x, y, z'
loop_
 _atom_site_type_symbol
 _atom_site_label
 _atom_site_symmetry_multiplicity
 _atom_site_fract_x
 _atom_site_fract_y
 _atom_site_fract_z
 _atom_site_occupancy
  Ba  Ba0  1  0.58444898  0.82269098  0.64538201  1
  Ba  Ba1  1  0.41555099  0.17730900  0.35461800  1
  Ba  Ba2  1  0.93906697  0.67730898  0.35461800  1
  Li  Li3  1  0.06093300  0.32269099  0.64538201  1
  Li  Li4  1  0.99999997  0.24999999  1.00000000  1
  Li  Li5  1  -0.00000000  0.74999998  0.00000001  1
  Li  Li6  1  0.49999998  0.74999998  1.00000001  1
  Li  Li7  1  0.49999998  0.24999999  -0.00000001  1
  Cu  Cu8  1  0.38402299  0.59922498  0.19845000  1
  Cu  Cu9  1  0.61597698  0.40077499  0.80155000  1
  Cu  Cu10  1  0.18557299  0.90077498  0.80155102  1
  Cu  Cu11  1  0.81442698  0.09922500  0.19844899  1
