# generated using pymatgen
data_YbGa5
_symmetry_space_group_name_H-M   'P 1'
_cell_length_a   4.18250704
_cell_length_b   6.53711987
_cell_length_c   7.99346685
_cell_angle_alpha   90.00000000
_cell_angle_beta   105.16623688
_cell_angle_gamma   90.00000000
_symmetry_Int_Tables_number   1
_chemical_formula_structural   YbGa5
_chemical_formula_sum   'Yb2 Ga10'
_cell_volume   210.94172575
_cell_formula_units_Z   2
loop_
 _symmetry_equiv_pos_site_id
 _symmetry_equiv_pos_as_xyz
  1  'x, y, z'
loop_
 _atom_site_type_symbol
 _atom_site_label
 _atom_site_symmetry_multiplicity
 _atom_site_fract_x
 _atom_site_fract_y
 _atom_site_fract_z
 _atom_site_occupancy
  Yb  Yb0  1  0.88254001  0.75000002  0.76507902  1
  Yb  Yb1  1  0.11746000  0.25000001  0.23492100  1
  Ga  Ga2  1  0.50000000  0.50000001  0.00000002  1
  Ga  Ga3  1  0.50000000  0.00000000  0.00000002  1
  Ga  Ga4  1  0.07260300  0.75000002  0.14520700  1
  Ga  Ga5  1  0.92739701  0.25000001  0.85479301  1
  Ga  Ga6  1  0.68619501  0.55215101  0.37239002  1
  Ga  Ga7  1  0.31380500  0.44784901  0.62761000  1
  Ga  Ga8  1  0.68619501  0.94784902  0.37239002  1
  Ga  Ga9  1  0.31380500  0.05215100  0.62761000  1
  Ga  Ga10  1  0.22400800  0.75000002  0.44801600  1
  Ga  Ga11  1  0.77599201  0.25000001  0.55198402  1
