# generated using pymatgen
data_Li2CuO4
_symmetry_space_group_name_H-M   'P 1'
_cell_length_a   6.01139402
_cell_length_b   6.02180195
_cell_length_c   6.02180195
_cell_angle_alpha   60.05955887
_cell_angle_beta   60.05715942
_cell_angle_gamma   60.05715942
_symmetry_Int_Tables_number   1
_chemical_formula_structural   Li2CuO4
_chemical_formula_sum   'Li4 Cu2 O8'
_cell_volume   154.34168860
_cell_formula_units_Z   2
loop_
 _symmetry_equiv_pos_site_id
 _symmetry_equiv_pos_as_xyz
  1  'x, y, z'
loop_
 _atom_site_type_symbol
 _atom_site_label
 _atom_site_symmetry_multiplicity
 _atom_site_fract_x
 _atom_site_fract_y
 _atom_site_fract_z
 _atom_site_occupancy
  Li  Li0  1  0.50000001  0.99999997  0.50000003  1
  Li  Li1  1  1.00000000  0.99999997  0.50000005  1
  Li  Li2  1  0.36714400  0.38285599  0.88285601  1
  Li  Li3  1  0.63285600  0.61714398  0.11714403  1
  Cu  Cu4  1  0.00000000  0.00000000  0.00000000  1
  Cu  Cu5  1  0.00000001  0.49999999  0.50000000  1
  O  O6  1  0.23188801  0.75339698  0.25339702  1
  O  O7  1  0.76131800  0.75339698  0.25339704  1
  O  O8  1  0.76100300  0.74900398  0.72899003  1
  O  O9  1  0.76811199  0.24660299  0.74660303  1
  O  O10  1  0.23899801  0.77100998  0.75099501  1
  O  O11  1  0.23868200  0.24660299  0.74660301  1
  O  O12  1  0.76100199  0.22898999  0.24900503  1
  O  O13  1  0.23899700  0.25099599  0.27101001  1
