# generated using pymatgen
data_Li5BN3
_symmetry_space_group_name_H-M   'P 1'
_cell_length_a   3.36722112
_cell_length_b   6.15521097
_cell_length_c   6.19578266
_cell_angle_alpha   85.70185852
_cell_angle_beta   74.23246765
_cell_angle_gamma   74.12580872
_symmetry_Int_Tables_number   1
_chemical_formula_structural   Li5BN3
_chemical_formula_sum   'Li5 B1 N3'
_cell_volume   118.86873581
_cell_formula_units_Z   1
loop_
 _symmetry_equiv_pos_site_id
 _symmetry_equiv_pos_as_xyz
  1  'x, y, z'
loop_
 _atom_site_type_symbol
 _atom_site_label
 _atom_site_symmetry_multiplicity
 _atom_site_fract_x
 _atom_site_fract_y
 _atom_site_fract_z
 _atom_site_occupancy
  Li  Li0  1  0.99509095  0.00985400  0.99996404  1
  Li  Li1  1  0.63493295  0.54185999  0.18827304  1
  Li  Li2  1  0.17677898  0.19329900  0.45314302  1
  Li  Li3  1  0.36495996  0.44353599  0.82654304  1
  Li  Li4  1  0.81182393  0.82815299  0.54820006  1
  B  B5  1  0.77374594  0.63686399  0.81564505  1
  N  N6  1  0.25479497  0.34529100  0.14511902  1
  N  N7  1  0.39770695  0.83640899  0.36817804  1
  N  N8  1  0.59016496  0.16473400  0.65493503  1
