# generated using pymatgen
data_Li2VO4
_symmetry_space_group_name_H-M   'P 1'
_cell_length_a   5.84588003
_cell_length_b   5.95560694
_cell_length_c   5.91297388
_cell_angle_alpha   119.76348114
_cell_angle_beta   90.00000000
_cell_angle_gamma   119.39237976
_symmetry_Int_Tables_number   1
_chemical_formula_structural   Li2VO4
_chemical_formula_sum   'Li4 V2 O8'
_cell_volume   147.40454257
_cell_formula_units_Z   2
loop_
 _symmetry_equiv_pos_site_id
 _symmetry_equiv_pos_as_xyz
  1  'x, y, z'
loop_
 _atom_site_type_symbol
 _atom_site_label
 _atom_site_symmetry_multiplicity
 _atom_site_fract_x
 _atom_site_fract_y
 _atom_site_fract_z
 _atom_site_occupancy
  Li  Li0  1  0.61482098  0.22964199  0.61482100  1
  Li  Li1  1  0.38472893  0.76945795  0.88472899  1
  Li  Li2  1  0.50744496  0.50726597  0.25363299  1
  Li  Li3  1  0.99982095  0.50726597  0.25363299  1
  V  V4  1  0.99885791  0.99771594  0.25116297  1
  V  V5  1  0.99885791  0.99771594  0.74655298  1
  O  O6  1  0.25175499  0.04695800  0.02347900  1
  O  O7  1  0.79520299  0.04695800  0.02347900  1
  O  O8  1  0.24688896  0.49377797  0.46604299  1
  O  O9  1  0.24688896  0.49377797  0.02773498  1
  O  O10  1  0.75142595  0.50285097  0.46945399  1
  O  O11  1  0.75142495  0.50284997  0.03339598  1
  O  O12  1  0.74523092  0.95188194  0.47594098  1
  O  O13  1  0.20665092  0.95188194  0.47594098  1
