# generated using pymatgen
data_In7Au5
_symmetry_space_group_name_H-M   'P 1'
_cell_length_a   6.83318615
_cell_length_b   6.83318615
_cell_length_c   6.83318615
_cell_angle_alpha   90.00000000
_cell_angle_beta   90.00000000
_cell_angle_gamma   90.00000000
_symmetry_Int_Tables_number   1
_chemical_formula_structural   In7Au5
_chemical_formula_sum   'In7 Au5'
_cell_volume   319.05808616
_cell_formula_units_Z   1
loop_
 _symmetry_equiv_pos_site_id
 _symmetry_equiv_pos_as_xyz
  1  'x, y, z'
loop_
 _atom_site_type_symbol
 _atom_site_label
 _atom_site_symmetry_multiplicity
 _atom_site_fract_x
 _atom_site_fract_y
 _atom_site_fract_z
 _atom_site_occupancy
  In  In0  1  0.37009599  0.37009599  0.37009599  1
  In  In1  1  0.12990400  0.62990399  0.87009598  1
  In  In2  1  0.87009598  0.12990400  0.62990399  1
  In  In3  1  0.62990399  0.87009598  0.12990400  1
  In  In4  1  0.62990399  0.62990399  0.62990399  1
  In  In5  1  0.87009598  0.37009599  0.12990400  1
  In  In6  1  0.12990400  0.87009598  0.37009599  1
  Au  Au7  1  0.37009599  0.12990400  0.87009598  1
  Au  Au8  1  0.00000000  0.00000000  0.00000000  1
  Au  Au9  1  0.49999999  0.00000000  0.49999999  1
  Au  Au10  1  0.49999999  0.49999999  0.00000000  1
  Au  Au11  1  0.00000000  0.49999999  0.49999999  1
