# generated using pymatgen
data_Li2MnCoO3
_symmetry_space_group_name_H-M   'P 1'
_cell_length_a   3.16029596
_cell_length_b   5.57773924
_cell_length_c   6.16131258
_cell_angle_alpha   111.09954834
_cell_angle_beta   104.86028290
_cell_angle_gamma   90.00000000
_symmetry_Int_Tables_number   1
_chemical_formula_structural   Li2MnCoO3
_chemical_formula_sum   'Li2 Mn1 Co1 O3'
_cell_volume   97.42232821
_cell_formula_units_Z   1
loop_
 _symmetry_equiv_pos_site_id
 _symmetry_equiv_pos_as_xyz
  1  'x, y, z'
loop_
 _atom_site_type_symbol
 _atom_site_label
 _atom_site_symmetry_multiplicity
 _atom_site_fract_x
 _atom_site_fract_y
 _atom_site_fract_z
 _atom_site_occupancy
  Li  Li0  1  0.39741900  0.19142300  0.79483802  1
  Li  Li1  1  0.60258099  0.80857702  0.20516202  1
  Co  Co2  1  0.15418200  0.33632501  0.30836401  1
  Mn  Mn3  1  0.84581800  0.66367502  0.69163602  1
  O  O4  1  0.25001999  0.75817102  0.50004003  1
  O  O5  1  0.74998000  0.24182901  0.49996001  1
  O  O6  1  0.00000000  0.00000000  0.00000000  1
