# generated using pymatgen
data_LiTiO4
_symmetry_space_group_name_H-M   'P 1'
_cell_length_a   5.17957211
_cell_length_b   5.17957211
_cell_length_c   6.53928852
_cell_angle_alpha   113.33052826
_cell_angle_beta   113.33052826
_cell_angle_gamma   90.00000000
_symmetry_Int_Tables_number   1
_chemical_formula_structural   LiTiO4
_chemical_formula_sum   'Li2 Ti2 O8'
_cell_volume   145.33805134
_cell_formula_units_Z   2
loop_
 _symmetry_equiv_pos_site_id
 _symmetry_equiv_pos_as_xyz
  1  'x, y, z'
loop_
 _atom_site_type_symbol
 _atom_site_label
 _atom_site_symmetry_multiplicity
 _atom_site_fract_x
 _atom_site_fract_y
 _atom_site_fract_z
 _atom_site_occupancy
  Li  Li0  1  0.24999997  0.74999997  0.49999996  1
  Li  Li1  1  0.49999997  0.49999998  -0.00000003  1
  Ti  Ti2  1  0.00000000  0.00000000  0.00000000  1
  Ti  Ti3  1  0.74999997  0.24999999  0.49999996  1
  O  O4  1  0.09355399  0.14439299  0.67819998  1
  O  O5  1  0.89439295  0.83464597  0.17819995  1
  O  O6  1  0.28380698  0.34355399  0.17819898  1
  O  O7  1  0.16535497  0.71619397  0.82180095  1
  O  O8  1  0.58464497  0.53380598  0.67819895  1
  O  O9  1  0.46619296  0.90644597  0.32180095  1
  O  O10  1  0.85560696  0.41535398  0.32179996  1
  O  O11  1  0.65644598  0.10560700  0.82179996  1
