# generated using pymatgen
data_Gd3Sb4
_symmetry_space_group_name_H-M   'P 1'
_cell_length_a   8.03861618
_cell_length_b   8.03861618
_cell_length_c   8.03861618
_cell_angle_alpha   109.47122192
_cell_angle_beta   109.47122192
_cell_angle_gamma   109.47122192
_symmetry_Int_Tables_number   1
_chemical_formula_structural   Gd3Sb4
_chemical_formula_sum   'Gd6 Sb8'
_cell_volume   399.87289532
_cell_formula_units_Z   2
loop_
 _symmetry_equiv_pos_site_id
 _symmetry_equiv_pos_as_xyz
  1  'x, y, z'
loop_
 _atom_site_type_symbol
 _atom_site_label
 _atom_site_symmetry_multiplicity
 _atom_site_fract_x
 _atom_site_fract_y
 _atom_site_fract_z
 _atom_site_occupancy
  Gd  Gd0  1  0.12500001  0.25000000  0.37500000  1
  Gd  Gd1  1  0.75000001  0.62500000  0.87500001  1
  Gd  Gd2  1  0.37500003  0.75000000  0.12500004  1
  Gd  Gd3  1  0.87499997  0.12500000  0.74999999  1
  Gd  Gd4  1  0.62500000  0.37500000  0.25000002  1
  Gd  Gd5  1  0.25000005  0.87499999  0.62500003  1
  Sb  Sb6  1  0.34471301  0.34471300  0.84471299  1
  Sb  Sb7  1  0.49999999  0.15528700  0.50000000  1
  Sb  Sb8  1  0.00000003  0.50000000  0.65528700  1
  Sb  Sb9  1  0.50000002  0.65528700  0.50000003  1
  Sb  Sb10  1  0.15528699  0.00000000  0.00000000  1
  Sb  Sb11  1  0.65528698  0.00000000  0.00000002  1
  Sb  Sb12  1  0.00000003  0.50000000  0.15528702  1
  Sb  Sb13  1  0.84471302  0.84471299  0.34471305  1
