# generated using pymatgen
data_Nd2ZnSn5
_symmetry_space_group_name_H-M   'P 1'
_cell_length_a   4.34548998
_cell_length_b   4.34548998
_cell_length_c   10.55064297
_cell_angle_alpha   90.00000000
_cell_angle_beta   90.00000000
_cell_angle_gamma   90.00000000
_symmetry_Int_Tables_number   1
_chemical_formula_structural   Nd2ZnSn5
_chemical_formula_sum   'Nd2 Zn1 Sn5'
_cell_volume   199.23077863
_cell_formula_units_Z   1
loop_
 _symmetry_equiv_pos_site_id
 _symmetry_equiv_pos_as_xyz
  1  'x, y, z'
loop_
 _atom_site_type_symbol
 _atom_site_label
 _atom_site_symmetry_multiplicity
 _atom_site_fract_x
 _atom_site_fract_y
 _atom_site_fract_z
 _atom_site_occupancy
  Nd  Nd0  1  0.00000000  0.50000000  0.76614600  1
  Nd  Nd1  1  0.50000000  0.00000000  0.23385400  1
  Zn  Zn2  1  0.00000000  0.00000000  0.50000000  1
  Sn  Sn3  1  0.50000000  0.50000000  0.50000000  1
  Sn  Sn4  1  0.00000000  0.00000000  0.00000000  1
  Sn  Sn5  1  0.50000000  0.50000000  0.00000000  1
  Sn  Sn6  1  0.00000000  0.50000000  0.31618600  1
  Sn  Sn7  1  0.50000000  0.00000000  0.68381400  1
