# generated using pymatgen
data_Tm2InGa9
_symmetry_space_group_name_H-M   'P 1'
_cell_length_a   5.32725811
_cell_length_b   5.32725811
_cell_length_c   9.37028313
_cell_angle_alpha   73.48517609
_cell_angle_beta   73.48517609
_cell_angle_gamma   59.99999619
_symmetry_Int_Tables_number   1
_chemical_formula_structural   Tm2InGa9
_chemical_formula_sum   'Tm2 In1 Ga9'
_cell_volume   217.53858425
_cell_formula_units_Z   1
loop_
 _symmetry_equiv_pos_site_id
 _symmetry_equiv_pos_as_xyz
  1  'x, y, z'
loop_
 _atom_site_type_symbol
 _atom_site_label
 _atom_site_symmetry_multiplicity
 _atom_site_fract_x
 _atom_site_fract_y
 _atom_site_fract_z
 _atom_site_occupancy
  Tm  Tm0  1  0.00000000  0.00000000  0.00000000  1
  Tm  Tm1  1  0.13882901  0.13882901  0.58351303  1
  In  In2  1  0.86117103  0.86117103  0.41648703  1
  Ga  Ga3  1  0.50000002  0.50000002  0.50000003  1
  Ga  Ga4  1  0.33326901  0.33326901  0.00019301  1
  Ga  Ga5  1  0.66666669  0.66666669  0.00000001  1
  Ga  Ga6  1  0.58292602  0.08147600  0.75267204  1
  Ga  Ga7  1  0.58292602  0.58292602  0.75267204  1
  Ga  Ga8  1  0.08147600  0.58292602  0.75267204  1
  Ga  Ga9  1  0.91852403  0.41707402  0.24732802  1
  Ga  Ga10  1  0.41707402  0.91852403  0.24732802  1
  Ga  Ga11  1  0.41707402  0.41707402  0.24732802  1
