# generated using pymatgen
data_SrCa(CuO2)2
_symmetry_space_group_name_H-M   'P 1'
_cell_length_a   3.84361291
_cell_length_b   3.84361291
_cell_length_c   16.12272453
_cell_angle_alpha   90.00000000
_cell_angle_beta   90.00000000
_cell_angle_gamma   90.00000000
_symmetry_Int_Tables_number   1
_chemical_formula_structural   SrCa(CuO2)2
_chemical_formula_sum   'Sr2 Ca2 Cu4 O8'
_cell_volume   238.18681688
_cell_formula_units_Z   2
loop_
 _symmetry_equiv_pos_site_id
 _symmetry_equiv_pos_as_xyz
  1  'x, y, z'
loop_
 _atom_site_type_symbol
 _atom_site_label
 _atom_site_symmetry_multiplicity
 _atom_site_fract_x
 _atom_site_fract_y
 _atom_site_fract_z
 _atom_site_occupancy
  Sr  Sr0  1  0.00000000  0.00000000  0.77782097  1
  Sr  Sr1  1  0.00000000  0.00000000  0.22217899  1
  Ca  Ca2  1  0.00000000  0.00000000  0.00000000  1
  Ca  Ca3  1  0.00000000  0.00000000  0.49999998  1
  Cu  Cu4  1  0.50000001  0.50000001  0.89105797  1
  Cu  Cu5  1  0.50000001  0.50000001  0.10894200  1
  Cu  Cu6  1  0.50000001  0.50000001  0.38809099  1
  Cu  Cu7  1  0.50000001  0.50000001  0.61190898  1
  O  O8  1  0.00000000  0.50000001  0.90252997  1
  O  O9  1  0.50000001  0.00000000  0.09747000  1
  O  O10  1  0.00000000  0.50000001  0.09747000  1
  O  O11  1  0.50000001  0.00000000  0.90252997  1
  O  O12  1  0.00000000  0.00000000  0.38470599  1
  O  O13  1  0.50000001  0.50000001  0.74707698  1
  O  O14  1  0.50000001  0.50000001  0.25292299  1
  O  O15  1  0.00000000  0.00000000  0.61529398  1
