# generated using pymatgen
data_Sb2Ir
_symmetry_space_group_name_H-M   'P 1'
_cell_length_a   6.59824324
_cell_length_b   6.59824324
_cell_length_c   6.59824324
_cell_angle_alpha   90.00000000
_cell_angle_beta   90.00000000
_cell_angle_gamma   90.00000000
_symmetry_Int_Tables_number   1
_chemical_formula_structural   Sb2Ir
_chemical_formula_sum   'Sb8 Ir4'
_cell_volume   287.26648725
_cell_formula_units_Z   4
loop_
 _symmetry_equiv_pos_site_id
 _symmetry_equiv_pos_as_xyz
  1  'x, y, z'
loop_
 _atom_site_type_symbol
 _atom_site_label
 _atom_site_symmetry_multiplicity
 _atom_site_fract_x
 _atom_site_fract_y
 _atom_site_fract_z
 _atom_site_occupancy
  Sb  Sb0  1  0.87354797  0.12645200  0.62645198  1
  Sb  Sb1  1  0.12645200  0.62645198  0.87354797  1
  Sb  Sb2  1  0.62645198  0.87354797  0.12645200  1
  Sb  Sb3  1  0.37354799  0.37354799  0.37354799  1
  Sb  Sb4  1  0.12632400  0.87367597  0.37367599  1
  Sb  Sb5  1  0.87367597  0.37367599  0.12632400  1
  Sb  Sb6  1  0.37367599  0.12632400  0.87367597  1
  Sb  Sb7  1  0.62632398  0.62632398  0.62632398  1
  Ir  Ir8  1  0.49814098  0.50185898  0.00185900  1
  Ir  Ir9  1  0.50185898  0.00185900  0.49814098  1
  Ir  Ir10  1  0.00185900  0.49814098  0.50185898  1
  Ir  Ir11  1  0.99814096  0.99814096  0.99814096  1
