# generated using pymatgen
data_EuCdPd
_symmetry_space_group_name_H-M   'P 1'
_cell_length_a   4.88781881
_cell_length_b   7.55835819
_cell_length_c   7.99099922
_cell_angle_alpha   90.00000000
_cell_angle_beta   90.00000000
_cell_angle_gamma   90.00000000
_symmetry_Int_Tables_number   1
_chemical_formula_structural   EuCdPd
_chemical_formula_sum   'Eu4 Cd4 Pd4'
_cell_volume   295.21855925
_cell_formula_units_Z   4
loop_
 _symmetry_equiv_pos_site_id
 _symmetry_equiv_pos_as_xyz
  1  'x, y, z'
loop_
 _atom_site_type_symbol
 _atom_site_label
 _atom_site_symmetry_multiplicity
 _atom_site_fract_x
 _atom_site_fract_y
 _atom_site_fract_z
 _atom_site_occupancy
  Eu  Eu0  1  0.75000003  0.01540300  0.29698599  1
  Eu  Eu1  1  0.25000001  0.98459697  0.70301398  1
  Eu  Eu2  1  0.25000001  0.48459699  0.79698598  1
  Eu  Eu3  1  0.75000003  0.51540299  0.20301399  1
  Cd  Cd4  1  0.75000003  0.68861898  0.59232798  1
  Cd  Cd5  1  0.25000001  0.31138099  0.40767199  1
  Cd  Cd6  1  0.25000001  0.81138098  0.09232800  1
  Cd  Cd7  1  0.75000003  0.18861900  0.90767197  1
  Pd  Pd8  1  0.75000003  0.79594498  0.92834397  1
  Pd  Pd9  1  0.25000001  0.20405499  0.07165600  1
  Pd  Pd10  1  0.25000001  0.70405498  0.42834399  1
  Pd  Pd11  1  0.75000003  0.29594499  0.57165598  1
