# generated using pymatgen
data_Sr5Eu(RuO6)2
_symmetry_space_group_name_H-M   'P 1'
_cell_length_a   5.63177776
_cell_length_b   5.79514122
_cell_length_c   8.03999519
_cell_angle_alpha   90.00000000
_cell_angle_beta   91.16045380
_cell_angle_gamma   90.00000000
_symmetry_Int_Tables_number   1
_chemical_formula_structural   Sr5Eu(RuO6)2
_chemical_formula_sum   'Sr5 Eu1 Ru2 O12'
_cell_volume   262.34708228
_cell_formula_units_Z   1
loop_
 _symmetry_equiv_pos_site_id
 _symmetry_equiv_pos_as_xyz
  1  'x, y, z'
loop_
 _atom_site_type_symbol
 _atom_site_label
 _atom_site_symmetry_multiplicity
 _atom_site_fract_x
 _atom_site_fract_y
 _atom_site_fract_z
 _atom_site_occupancy
  Sr  Sr0  1  0.00000000  0.00000000  0.00000000  1
  Sr  Sr1  1  0.50000002  0.49999998  0.49999998  1
  Sr  Sr2  1  0.48930902  0.05845600  0.25606199  1
  Sr  Sr3  1  0.01069100  0.55845598  0.24393799  1
  Sr  Sr4  1  0.98930904  0.44154398  0.75606197  1
  Eu  Eu5  1  0.51069102  0.94154396  0.74393798  1
  Ru  Ru6  1  0.50000002  0.49999998  -0.00000001  1
  Ru  Ru7  1  0.00000000  0.00000000  0.49999999  1
  O  O8  1  0.67891903  0.22094699  0.94724997  1
  O  O9  1  0.17891901  0.27905299  0.44724999  1
  O  O10  1  0.32108101  0.77905297  0.05274999  1
  O  O11  1  0.82108103  0.72094697  0.55274998  1
  O  O12  1  0.29462301  0.81150097  0.45089599  1
  O  O13  1  0.40174902  0.53292598  0.75614698  1
  O  O14  1  0.70537703  0.18849899  0.54910398  1
  O  O15  1  0.79462303  0.68849897  0.95089597  1
  O  O16  1  0.20537701  0.31150099  0.04910400  1
  O  O17  1  0.59825102  0.46707398  0.24385299  1
  O  O18  1  0.90174904  0.96707396  0.25614698  1
  O  O19  1  0.09825100  0.03292600  0.74385298  1
