# generated using pymatgen
data_Li4CoO5
_symmetry_space_group_name_H-M   'P 1'
_cell_length_a   2.86796856
_cell_length_b   5.81075430
_cell_length_c   11.23606968
_cell_angle_alpha   97.19007874
_cell_angle_beta   97.33303070
_cell_angle_gamma   89.99994659
_symmetry_Int_Tables_number   1
_chemical_formula_structural   Li4CoO5
_chemical_formula_sum   'Li8 Co2 O10'
_cell_volume   184.23357477
_cell_formula_units_Z   2
loop_
 _symmetry_equiv_pos_site_id
 _symmetry_equiv_pos_as_xyz
  1  'x, y, z'
loop_
 _atom_site_type_symbol
 _atom_site_label
 _atom_site_symmetry_multiplicity
 _atom_site_fract_x
 _atom_site_fract_y
 _atom_site_fract_z
 _atom_site_occupancy
  Li  Li0  1  0.59993203  0.29992301  0.20003999  1
  Li  Li1  1  0.59990909  0.80008402  0.19995400  1
  Li  Li2  1  0.18296801  0.08699400  0.36578799  1
  Li  Li3  1  0.01701206  0.51301701  0.03424601  1
  Li  Li4  1  0.41186708  0.70448401  0.82382698  1
  Li  Li5  1  0.78798410  0.89534102  0.57609299  1
  Li  Li6  1  0.18992907  0.59484201  0.37989100  1
  Li  Li7  1  0.79561404  0.39169801  0.59100598  1
  Co  Co8  1  0.01009000  0.00533600  0.02010000  1
  Co  Co9  1  0.40446202  0.20822200  0.80895397  1
  O  O10  1  0.28711407  0.61926001  0.57409099  1
  O  O11  1  0.91298911  0.98069502  0.82596698  1
  O  O12  1  0.50553402  0.23284000  0.01098800  1
  O  O13  1  0.69449004  0.36725501  0.38901498  1
  O  O14  1  0.69667109  0.82227802  0.39336299  1
  O  O15  1  0.50333909  0.77781602  0.00661001  1
  O  O16  1  0.90004105  0.43611401  0.80013297  1
  O  O17  1  0.30007402  0.16377900  0.59989498  1
  O  O18  1  0.09177000  0.04449300  0.18351199  1
  O  O19  1  0.10821107  0.55553001  0.21652600  1
