# generated using pymatgen
data_EuCO2
_symmetry_space_group_name_H-M   'P 1'
_cell_length_a   5.27320194
_cell_length_b   5.27320194
_cell_length_c   6.40156603
_cell_angle_alpha   90.00000000
_cell_angle_beta   90.00000000
_cell_angle_gamma   120.00000000
_symmetry_Int_Tables_number   1
_chemical_formula_structural   EuCO2
_chemical_formula_sum   'Eu3 C3 O6'
_cell_volume   154.15785821
_cell_formula_units_Z   3
loop_
 _symmetry_equiv_pos_site_id
 _symmetry_equiv_pos_as_xyz
  1  'x, y, z'
loop_
 _atom_site_type_symbol
 _atom_site_label
 _atom_site_symmetry_multiplicity
 _atom_site_fract_x
 _atom_site_fract_y
 _atom_site_fract_z
 _atom_site_occupancy
  Eu  Eu0  1  0.66666668  0.33333334  0.75000000  1
  Eu  Eu1  1  0.33333334  0.66666669  0.25000000  1
  Eu  Eu2  1  0.00000000  0.00000000  0.50000000  1
  C  C3  1  0.00000000  0.00000000  0.00000000  1
  C  C4  1  0.33333334  0.66666669  0.75000000  1
  C  C5  1  0.66666668  0.33333334  0.25000000  1
  O  O6  1  0.19098401  0.80901603  0.75000000  1
  O  O7  1  0.80901601  0.19098401  0.25000000  1
  O  O8  1  0.80901602  0.61803202  0.25000000  1
  O  O9  1  0.61803202  0.80901603  0.75000000  1
  O  O10  1  0.19098401  0.38196801  0.75000000  1
  O  O11  1  0.38196801  0.19098401  0.25000000  1
