# generated using pymatgen
data_Mg2Ag
_symmetry_space_group_name_H-M   'P 1'
_cell_length_a   4.73145580
_cell_length_b   4.73145580
_cell_length_c   11.52025509
_cell_angle_alpha   90.00000000
_cell_angle_beta   90.00000000
_cell_angle_gamma   120.00000000
_symmetry_Int_Tables_number   1
_chemical_formula_structural   Mg2Ag
_chemical_formula_sum   'Mg6 Ag3'
_cell_volume   223.34812072
_cell_formula_units_Z   3
loop_
 _symmetry_equiv_pos_site_id
 _symmetry_equiv_pos_as_xyz
  1  'x, y, z'
loop_
 _atom_site_type_symbol
 _atom_site_label
 _atom_site_symmetry_multiplicity
 _atom_site_fract_x
 _atom_site_fract_y
 _atom_site_fract_z
 _atom_site_occupancy
  Mg  Mg0  1  0.00000000  0.00000000  0.75621799  1
  Mg  Mg1  1  0.66666669  0.33333334  0.07815100  1
  Mg  Mg2  1  0.33333334  0.66666668  0.41600700  1
  Mg  Mg3  1  0.33333334  0.66666668  0.92184899  1
  Mg  Mg4  1  0.00000000  0.00000000  0.24378200  1
  Mg  Mg5  1  0.66666669  0.33333334  0.58399300  1
  Ag  Ag6  1  0.66666669  0.33333334  0.33167200  1
  Ag  Ag7  1  0.33333334  0.66666668  0.66832799  1
  Ag  Ag8  1  0.00000000  0.00000000  0.00000000  1
