# generated using pymatgen
data_EuRuO3
_symmetry_space_group_name_H-M   'P 1'
_cell_length_a   5.56856012
_cell_length_b   5.67329693
_cell_length_c   7.93828821
_cell_angle_alpha   90.00000000
_cell_angle_beta   90.00000000
_cell_angle_gamma   90.00000000
_symmetry_Int_Tables_number   1
_chemical_formula_structural   EuRuO3
_chemical_formula_sum   'Eu4 Ru4 O12'
_cell_volume   250.78715567
_cell_formula_units_Z   4
loop_
 _symmetry_equiv_pos_site_id
 _symmetry_equiv_pos_as_xyz
  1  'x, y, z'
loop_
 _atom_site_type_symbol
 _atom_site_label
 _atom_site_symmetry_multiplicity
 _atom_site_fract_x
 _atom_site_fract_y
 _atom_site_fract_z
 _atom_site_occupancy
  Eu  Eu0  1  0.00755800  0.95263101  0.74999998  1
  Eu  Eu1  1  0.49244199  0.45263101  0.74999998  1
  Eu  Eu2  1  0.50755799  0.54736901  0.24999999  1
  Eu  Eu3  1  0.99244198  0.04736900  0.24999999  1
  Ru  Ru4  1  0.00000000  0.50000001  0.49999999  1
  Ru  Ru5  1  0.49999999  0.00000000  -0.00000000  1
  Ru  Ru6  1  0.49999999  0.00000000  0.49999999  1
  Ru  Ru7  1  0.00000000  0.50000001  0.00000000  1
  O  O8  1  0.70851698  0.28921800  0.46315599  1
  O  O9  1  0.79148298  0.78921801  0.03684400  1
  O  O10  1  0.20851700  0.21078200  0.53684399  1
  O  O11  1  0.29148299  0.71078201  0.96315597  1
  O  O12  1  0.29148299  0.71078201  0.53684399  1
  O  O13  1  0.20851700  0.21078200  0.96315597  1
  O  O14  1  0.79148298  0.78921801  0.46315599  1
  O  O15  1  0.70851698  0.28921800  0.03684400  1
  O  O16  1  0.06855700  0.48673101  0.24999999  1
  O  O17  1  0.43144299  0.98673101  0.24999999  1
  O  O18  1  0.56855699  0.01326900  0.74999998  1
  O  O19  1  0.93144298  0.51326901  0.74999998  1
