# generated using pymatgen
data_Ti4Ni13Sn3
_symmetry_space_group_name_H-M   'P 1'
_cell_length_a   5.90752220
_cell_length_b   5.90752220
_cell_length_c   7.23370790
_cell_angle_alpha   90.00000000
_cell_angle_beta   90.00000000
_cell_angle_gamma   90.00000000
_symmetry_Int_Tables_number   1
_chemical_formula_structural   Ti4Ni13Sn3
_chemical_formula_sum   'Ti4 Ni13 Sn3'
_cell_volume   252.44785970
_cell_formula_units_Z   1
loop_
 _symmetry_equiv_pos_site_id
 _symmetry_equiv_pos_as_xyz
  1  'x, y, z'
loop_
 _atom_site_type_symbol
 _atom_site_label
 _atom_site_symmetry_multiplicity
 _atom_site_fract_x
 _atom_site_fract_y
 _atom_site_fract_z
 _atom_site_occupancy
  Ti  Ti0  1  0.00000000  0.00000000  0.00000000  1
  Ti  Ti1  1  0.00000000  0.00000000  0.50000001  1
  Ti  Ti2  1  0.49999998  0.49999998  0.25000000  1
  Ti  Ti3  1  0.49999998  0.49999998  0.75000001  1
  Ni  Ni4  1  0.19225499  0.60393498  -0.00000000  1
  Ni  Ni5  1  0.39606499  0.19225499  0.50000001  1
  Ni  Ni6  1  0.60393498  0.80774497  0.50000001  1
  Ni  Ni7  1  0.80774497  0.39606499  0.00000000  1
  Ni  Ni8  1  0.09675600  0.29717799  0.24924700  1
  Ni  Ni9  1  0.70282198  0.09675600  0.74924701  1
  Ni  Ni10  1  0.29717799  0.90324397  0.74924701  1
  Ni  Ni11  1  0.90324397  0.70282198  0.24924700  1
  Ni  Ni12  1  0.90324397  0.70282198  0.75075301  1
  Ni  Ni13  1  0.29717799  0.90324397  0.25075300  1
  Ni  Ni14  1  0.70282198  0.09675600  0.25075300  1
  Ni  Ni15  1  0.09675600  0.29717799  0.75075301  1
  Sn  Sn16  1  0.39771199  0.20758499  0.00000000  1
  Sn  Sn17  1  0.79241497  0.39771199  0.50000001  1
  Ni  Ni18  1  0.20758499  0.60228798  0.50000001  1
  Sn  Sn19  1  0.60228798  0.79241497  -0.00000000  1
