# generated using pymatgen
data_Li7BO8
_symmetry_space_group_name_H-M   'P 1'
_cell_length_a   5.22460079
_cell_length_b   5.25281286
_cell_length_c   8.09035873
_cell_angle_alpha   85.51634979
_cell_angle_beta   73.46633911
_cell_angle_gamma   60.33866501
_symmetry_Int_Tables_number   1
_chemical_formula_structural   Li7BO8
_chemical_formula_sum   'Li7 B1 O8'
_cell_volume   184.43563799
_cell_formula_units_Z   1
loop_
 _symmetry_equiv_pos_site_id
 _symmetry_equiv_pos_as_xyz
  1  'x, y, z'
loop_
 _atom_site_type_symbol
 _atom_site_label
 _atom_site_symmetry_multiplicity
 _atom_site_fract_x
 _atom_site_fract_y
 _atom_site_fract_z
 _atom_site_occupancy
  Li  Li0  1  0.03236400  0.00333600  0.00490100  1
  Li  Li1  1  0.59976002  0.19521600  0.55819303  1
  Li  Li2  1  0.83678903  0.58486200  0.71244704  1
  Li  Li3  1  0.39292802  0.30174900  0.93792705  1
  Li  Li4  1  0.56282102  0.75751500  0.24723502  1
  Li  Li5  1  0.06111600  0.51900600  0.31322502  1
  Li  Li6  1  0.22419501  0.88166400  0.62724304  1
  B  B7  1  0.18842301  0.54786500  0.76676004  1
  O  O8  1  0.79096303  0.25059700  0.78353704  1
  O  O9  1  0.43311402  0.91774199  0.78647405  1
  O  O10  1  0.99476304  0.35133600  0.09465601  1
  O  O11  1  0.97504604  0.81452900  0.50711104  1
  O  O12  1  0.68195603  0.49715500  0.45550503  1
  O  O13  1  0.63435903  0.02641900  0.08482800  1
  O  O14  1  0.27287101  0.69575100  0.14240602  1
  O  O15  1  0.33605401  0.14649600  0.45127102  1
