# generated using pymatgen
data_TmVFe11
_symmetry_space_group_name_H-M   'P 1'
_cell_length_a   4.72366285
_cell_length_b   6.37099457
_cell_length_c   6.37099457
_cell_angle_alpha   82.10080719
_cell_angle_beta   68.24020386
_cell_angle_gamma   68.24020386
_symmetry_Int_Tables_number   1
_chemical_formula_structural   TmVFe11
_chemical_formula_sum   'Tm1 V1 Fe11'
_cell_volume   165.38169789
_cell_formula_units_Z   1
loop_
 _symmetry_equiv_pos_site_id
 _symmetry_equiv_pos_as_xyz
  1  'x, y, z'
loop_
 _atom_site_type_symbol
 _atom_site_label
 _atom_site_symmetry_multiplicity
 _atom_site_fract_x
 _atom_site_fract_y
 _atom_site_fract_z
 _atom_site_occupancy
  Tm  Tm0  1  0.00000000  0.00000000  0.00000000  1
  V  V1  1  0.50000003  0.23313000  0.76686998  1
  Fe  Fe2  1  0.00000000  0.00000000  0.49999999  1
  Fe  Fe3  1  0.00000002  0.50000001  -0.00000000  1
  Fe  Fe4  1  0.50000004  0.50000001  -0.00000001  1
  Fe  Fe5  1  0.50000002  0.00000000  0.49999999  1
  Fe  Fe6  1  0.00000001  0.36695401  0.63304599  1
  Fe  Fe7  1  0.36695404  0.63304601  0.63304599  1
  Fe  Fe8  1  0.63304604  0.36695401  0.36695399  1
  Fe  Fe9  1  0.00000002  0.63304601  0.36695399  1
  Fe  Fe10  1  0.50000005  0.76687001  0.23312999  1
  Fe  Fe11  1  0.26687002  0.23313000  0.23312999  1
  Fe  Fe12  1  0.73313005  0.76687001  0.76686998  1
