# generated using pymatgen
data_SmTi4Cr5Ge4
_symmetry_space_group_name_H-M   'P 1'
_cell_length_a   3.77543807
_cell_length_b   7.25246811
_cell_length_c   7.25246811
_cell_angle_alpha   90.00000000
_cell_angle_beta   90.00000000
_cell_angle_gamma   90.00000000
_symmetry_Int_Tables_number   1
_chemical_formula_structural   SmTi4Cr5Ge4
_chemical_formula_sum   'Sm1 Ti4 Cr5 Ge4'
_cell_volume   198.58160037
_cell_formula_units_Z   1
loop_
 _symmetry_equiv_pos_site_id
 _symmetry_equiv_pos_as_xyz
  1  'x, y, z'
loop_
 _atom_site_type_symbol
 _atom_site_label
 _atom_site_symmetry_multiplicity
 _atom_site_fract_x
 _atom_site_fract_y
 _atom_site_fract_z
 _atom_site_occupancy
  Sm  Sm0  1  0.00000000  0.49999999  0.49999999  1
  Ti  Ti1  1  0.49999999  0.00000000  -0.00000000  1
  Ti  Ti2  1  0.49999999  0.58911599  0.15373100  1
  Ti  Ti3  1  0.49999999  0.41088399  0.84626899  1
  Ti  Ti4  1  0.99999998  0.08911600  0.34626899  1
  Cr  Cr5  1  0.99999998  0.91088399  0.65373099  1
  Cr  Cr6  1  0.49999999  0.15373100  0.58911599  1
  Cr  Cr7  1  0.49999999  0.84626899  0.41088399  1
  Cr  Cr8  1  -0.00000000  0.34626899  0.08911600  1
  Cr  Cr9  1  0.99999998  0.65373099  0.91088399  1
  Ge  Ge10  1  0.49999999  0.71722199  0.71722199  1
  Ge  Ge11  1  0.49999999  0.28277800  0.28277800  1
  Ge  Ge12  1  0.00000000  0.21722200  0.78277799  1
  Ge  Ge13  1  0.00000000  0.78277799  0.21722200  1
