# generated using pymatgen
data_TmGe2
_symmetry_space_group_name_H-M   'P 1'
_cell_length_a   4.27725601
_cell_length_b   4.27725649
_cell_length_c   7.54461813
_cell_angle_alpha   90.00000000
_cell_angle_beta   90.00000000
_cell_angle_gamma   119.99999237
_symmetry_Int_Tables_number   1
_chemical_formula_structural   TmGe2
_chemical_formula_sum   'Tm2 Ge4'
_cell_volume   119.53593068
_cell_formula_units_Z   2
loop_
 _symmetry_equiv_pos_site_id
 _symmetry_equiv_pos_as_xyz
  1  'x, y, z'
loop_
 _atom_site_type_symbol
 _atom_site_label
 _atom_site_symmetry_multiplicity
 _atom_site_fract_x
 _atom_site_fract_y
 _atom_site_fract_z
 _atom_site_occupancy
  Tm  Tm0  1  0.66666664  0.33333333  0.22859700  1
  Tm  Tm1  1  0.66666664  0.33333333  0.76263499  1
  Ge  Ge2  1  0.33333329  0.66666666  0.98696598  1
  Ge  Ge3  1  0.33333329  0.66666666  0.53866899  1
  Ge  Ge4  1  0.00000000  0.00000000  0.45638399  1
  Ge  Ge5  1  0.00000000  0.00000000  0.02674900  1
