# generated using pymatgen
data_K2Nb2WS5
_symmetry_space_group_name_H-M   'P 1'
_cell_length_a   6.51622200
_cell_length_b   7.55185223
_cell_length_c   7.55185127
_cell_angle_alpha   120.00000000
_cell_angle_beta   90.00000000
_cell_angle_gamma   90.00000000
_symmetry_Int_Tables_number   1
_chemical_formula_structural   K2Nb2WS5
_chemical_formula_sum   'K2 Nb2 W1 S5'
_cell_volume   321.83510560
_cell_formula_units_Z   1
loop_
 _symmetry_equiv_pos_site_id
 _symmetry_equiv_pos_as_xyz
  1  'x, y, z'
loop_
 _atom_site_type_symbol
 _atom_site_label
 _atom_site_symmetry_multiplicity
 _atom_site_fract_x
 _atom_site_fract_y
 _atom_site_fract_z
 _atom_site_occupancy
  K  K0  1  0.75000000  0.33333331  0.66666666  1
  K  K1  1  0.25000000  0.66666663  0.33333330  1
  Nb  Nb2  1  0.00000000  0.00000000  0.00000000  1
  Nb  Nb3  1  0.50000000  0.00000000  -0.00000000  1
  S  S4  1  0.75000000  0.84057395  0.15942496  1
  W  W5  1  0.25000000  0.15942599  0.31885200  1
  S  S6  1  0.75000000  0.84057395  0.68114797  1
  S  S7  1  0.25000000  0.68114896  0.84057498  1
  S  S8  1  0.75000000  0.31885098  0.15942499  1
  S  S9  1  0.25000000  0.15942599  0.84057501  1
