# generated using pymatgen
data_LaSn4
_symmetry_space_group_name_H-M   'P 1'
_cell_length_a   4.90731621
_cell_length_b   4.90731621
_cell_length_c   10.79398727
_cell_angle_alpha   90.00000000
_cell_angle_beta   90.00000000
_cell_angle_gamma   90.00000000
_symmetry_Int_Tables_number   1
_chemical_formula_structural   LaSn4
_chemical_formula_sum   'La2 Sn8'
_cell_volume   259.93812856
_cell_formula_units_Z   2
loop_
 _symmetry_equiv_pos_site_id
 _symmetry_equiv_pos_as_xyz
  1  'x, y, z'
loop_
 _atom_site_type_symbol
 _atom_site_label
 _atom_site_symmetry_multiplicity
 _atom_site_fract_x
 _atom_site_fract_y
 _atom_site_fract_z
 _atom_site_occupancy
  La  La0  1  0.00000000  0.49999998  0.23915299  1
  La  La1  1  0.49999998  0.00000000  0.76084698  1
  Sn  Sn2  1  0.00000000  0.00000000  0.49999999  1
  Sn  Sn3  1  0.49999998  0.49999998  0.49999999  1
  Sn  Sn4  1  0.00000000  0.49999998  0.87789998  1
  Sn  Sn5  1  0.49999998  0.00000000  0.12210000  1
  Sn  Sn6  1  0.00000000  0.00000000  0.00000000  1
  Sn  Sn7  1  0.49999998  0.49999998  0.00000000  1
  Sn  Sn8  1  0.00000000  0.49999998  0.62726398  1
  Sn  Sn9  1  0.49999998  0.00000000  0.37273599  1
