# generated using pymatgen
data_YbMgPd
_symmetry_space_group_name_H-M   'P 1'
_cell_length_a   4.36485291
_cell_length_b   7.34857178
_cell_length_c   8.38801479
_cell_angle_alpha   90.00000000
_cell_angle_beta   90.00000000
_cell_angle_gamma   90.00000000
_symmetry_Int_Tables_number   1
_chemical_formula_structural   YbMgPd
_chemical_formula_sum   'Yb4 Mg4 Pd4'
_cell_volume   269.04922221
_cell_formula_units_Z   4
loop_
 _symmetry_equiv_pos_site_id
 _symmetry_equiv_pos_as_xyz
  1  'x, y, z'
loop_
 _atom_site_type_symbol
 _atom_site_label
 _atom_site_symmetry_multiplicity
 _atom_site_fract_x
 _atom_site_fract_y
 _atom_site_fract_z
 _atom_site_occupancy
  Yb  Yb0  1  0.75000002  0.97517203  0.67636502  1
  Yb  Yb1  1  0.25000001  0.02482800  0.32363501  1
  Yb  Yb2  1  0.75000002  0.47517201  0.82363502  1
  Yb  Yb3  1  0.25000001  0.52482802  0.17636500  1
  Mg  Mg4  1  0.75000002  0.84934503  0.06648800  1
  Mg  Mg5  1  0.25000001  0.15065500  0.93351202  1
  Mg  Mg6  1  0.75000002  0.34934501  0.43351201  1
  Mg  Mg7  1  0.25000001  0.65065502  0.56648801  1
  Pd  Pd8  1  0.75000002  0.72312102  0.37554101  1
  Pd  Pd9  1  0.25000001  0.27687901  0.62445902  1
  Pd  Pd10  1  0.75000002  0.22312101  0.12445900  1
  Pd  Pd11  1  0.25000001  0.77687902  0.87554102  1
