# generated using pymatgen
data_Ti(CrS2)2
_symmetry_space_group_name_H-M   'P 1'
_cell_length_a   7.24289083
_cell_length_b   7.24548149
_cell_length_c   7.37683773
_cell_angle_alpha   60.68269348
_cell_angle_beta   60.62097168
_cell_angle_gamma   60.02511597
_symmetry_Int_Tables_number   1
_chemical_formula_structural   Ti(CrS2)2
_chemical_formula_sum   'Ti2 Cr4 S8'
_cell_volume   276.45690984
_cell_formula_units_Z   2
loop_
 _symmetry_equiv_pos_site_id
 _symmetry_equiv_pos_as_xyz
  1  'x, y, z'
loop_
 _atom_site_type_symbol
 _atom_site_label
 _atom_site_symmetry_multiplicity
 _atom_site_fract_x
 _atom_site_fract_y
 _atom_site_fract_z
 _atom_site_occupancy
  Ti  Ti0  1  0.87432297  0.37418900  0.87679297  1
  Ti  Ti1  1  0.12577798  0.62579200  0.12300600  1
  Cr  Cr2  1  0.50005998  0.49994100  0.50008399  1
  Cr  Cr3  1  0.49997099  0.00015300  0.49992098  1
  Cr  Cr4  1  0.99996598  0.00016100  0.49996797  1
  Cr  Cr5  1  0.49972399  0.00029400  0.00028199  1
  S  S6  1  0.73667797  0.78402200  0.74257198  1
  S  S7  1  0.26302498  0.76323000  0.25733400  1
  S  S8  1  0.25893498  0.75892000  0.72337099  1
  S  S9  1  0.71596497  0.76345700  0.25737999  1
  S  S10  1  0.74109898  0.24121900  0.27650298  1
  S  S11  1  0.28424599  0.23641800  0.74267198  1
  S  S12  1  0.26352199  0.21575600  0.25725699  1
  S  S13  1  0.73671198  0.23645000  0.74285098  1
