# generated using pymatgen
data_DyMg7
_symmetry_space_group_name_H-M   'P 1'
_cell_length_a   4.88082695
_cell_length_b   6.51580381
_cell_length_c   6.51580381
_cell_angle_alpha   113.01959229
_cell_angle_beta   90.00000000
_cell_angle_gamma   90.00000000
_symmetry_Int_Tables_number   1
_chemical_formula_structural   DyMg7
_chemical_formula_sum   'Dy1 Mg7'
_cell_volume   190.71832523
_cell_formula_units_Z   1
loop_
 _symmetry_equiv_pos_site_id
 _symmetry_equiv_pos_as_xyz
  1  'x, y, z'
loop_
 _atom_site_type_symbol
 _atom_site_label
 _atom_site_symmetry_multiplicity
 _atom_site_fract_x
 _atom_site_fract_y
 _atom_site_fract_z
 _atom_site_occupancy
  Dy  Dy0  1  0.25000000  0.36683599  0.63316398  1
  Mg  Mg1  1  0.75000001  0.63316398  0.36683600  1
  Mg  Mg2  1  0.25000000  0.82316098  0.17683901  1
  Mg  Mg3  1  0.75000001  0.17683900  0.82316097  1
  Mg  Mg4  1  0.25000000  0.88051798  0.68913299  1
  Mg  Mg5  1  0.75000001  0.11948200  0.31086699  1
  Mg  Mg6  1  0.75000001  0.68913298  0.88051798  1
  Mg  Mg7  1  0.25000000  0.31086699  0.11948200  1
