# generated using pymatgen
data_K2TeW3CO11
_symmetry_space_group_name_H-M   'P 1'
_cell_length_a   7.23464966
_cell_length_b   7.23464966
_cell_length_c   8.19900990
_cell_angle_alpha   63.82014465
_cell_angle_beta   63.82014465
_cell_angle_gamma   60.00000381
_symmetry_Int_Tables_number   1
_chemical_formula_structural   K2TeW3CO11
_chemical_formula_sum   'K2 Te1 W3 C1 O11'
_cell_volume   319.80131123
_cell_formula_units_Z   1
loop_
 _symmetry_equiv_pos_site_id
 _symmetry_equiv_pos_as_xyz
  1  'x, y, z'
loop_
 _atom_site_type_symbol
 _atom_site_label
 _atom_site_symmetry_multiplicity
 _atom_site_fract_x
 _atom_site_fract_y
 _atom_site_fract_z
 _atom_site_occupancy
  K  K0  1  0.89411606  0.89411600  0.31765197  1
  K  K1  1  0.10588401  0.10588400  0.68234800  1
  W  W2  1  0.50000003  0.50000000  0.49999998  1
  C  C3  1  0.50000001  0.00000000  -0.00000001  1
  W  W4  1  0.00000002  0.50000000  -0.00000001  1
  W  W5  1  0.50000003  0.50000000  -0.00000002  1
  Te  Te6  1  0.41735503  0.41735500  0.33986299  1
  O  O7  1  0.41735505  0.82542700  0.33986298  1
  O  O8  1  0.82542704  0.41735500  0.33986298  1
  O  O9  1  0.17457303  0.58264500  0.66013699  1
  O  O10  1  0.58264504  0.58264500  0.66013698  1
  O  O11  1  0.58264502  0.17457300  0.66013699  1
  O  O12  1  0.19241003  0.57605500  0.03912498  1
  O  O13  1  0.19241001  0.19241000  0.03912499  1
  O  O14  1  0.57605502  0.19241000  0.03912499  1
  O  O15  1  0.42394505  0.80759000  0.96087498  1
  O  O16  1  0.80759004  0.42394500  0.96087499  1
  O  O17  1  0.80759005  0.80759000  0.96087498  1
