# generated using pymatgen
data_LiCr2O5
_symmetry_space_group_name_H-M   'P 1'
_cell_length_a   3.81784010
_cell_length_b   5.89916039
_cell_length_c   11.32365799
_cell_angle_alpha   90.00000000
_cell_angle_beta   90.00000000
_cell_angle_gamma   108.88027191
_symmetry_Int_Tables_number   1
_chemical_formula_structural   LiCr2O5
_chemical_formula_sum   'Li2 Cr4 O10'
_cell_volume   241.31047433
_cell_formula_units_Z   2
loop_
 _symmetry_equiv_pos_site_id
 _symmetry_equiv_pos_as_xyz
  1  'x, y, z'
loop_
 _atom_site_type_symbol
 _atom_site_label
 _atom_site_symmetry_multiplicity
 _atom_site_fract_x
 _atom_site_fract_y
 _atom_site_fract_z
 _atom_site_occupancy
  Li  Li0  1  0.89660599  0.79321102  0.75000000  1
  Li  Li1  1  0.10339500  0.20679000  0.25000000  1
  Cr  Cr2  1  0.20249200  0.40498601  0.59610500  1
  Cr  Cr3  1  0.79750899  0.59501501  0.40389400  1
  Cr  Cr4  1  0.79750899  0.59501501  0.09610600  1
  Cr  Cr5  1  0.20249200  0.40498601  0.90389500  1
  O  O6  1  0.71162699  0.42325401  0.25000000  1
  O  O7  1  0.28837400  0.57674701  0.75000000  1
  O  O8  1  0.24072000  0.48143801  0.07516700  1
  O  O9  1  0.75928199  0.51856301  0.92483300  1
  O  O10  1  0.75928199  0.51856301  0.57516700  1
  O  O11  1  0.24072000  0.48143801  0.42483200  1
  O  O12  1  0.05557100  0.11114100  0.61964300  1
  O  O13  1  0.94442899  0.88885802  0.38035700  1
  O  O14  1  0.05557100  0.11114100  0.88035700  1
  O  O15  1  0.94442899  0.88885802  0.11964400  1
