# generated using pymatgen
data_KRbSr2Fe3NO12
_symmetry_space_group_name_H-M   'P 1'
_cell_length_a   5.76673603
_cell_length_b   7.30705070
_cell_length_c   8.18467617
_cell_angle_alpha   91.46868134
_cell_angle_beta   110.62735748
_cell_angle_gamma   90.00000000
_symmetry_Int_Tables_number   1
_chemical_formula_structural   KRbSr2Fe3NO12
_chemical_formula_sum   'K1 Rb1 Sr2 Fe3 N1 O12'
_cell_volume   322.65339812
_cell_formula_units_Z   1
loop_
 _symmetry_equiv_pos_site_id
 _symmetry_equiv_pos_as_xyz
  1  'x, y, z'
loop_
 _atom_site_type_symbol
 _atom_site_label
 _atom_site_symmetry_multiplicity
 _atom_site_fract_x
 _atom_site_fract_y
 _atom_site_fract_z
 _atom_site_occupancy
  K  K0  1  0.21719601  0.74081900  0.43439202  1
  Rb  Rb1  1  0.78280399  0.25918100  0.56560798  1
  Sr  Sr2  1  0.50000000  0.50000000  0.00000001  1
  Sr  Sr3  1  0.90340300  0.74923000  0.80680599  1
  Fe  Fe4  1  0.09659700  0.25077000  0.19319401  1
  Fe  Fe5  1  0.59143501  0.92089600  0.18287003  1
  Fe  Fe6  1  0.40856499  0.07910400  0.81712997  1
  N  N7  1  0.60791099  0.09293900  0.21582198  1
  O  O8  1  0.22679400  0.16368100  0.83467398  1
  O  O9  1  0.77320600  0.83631900  0.16532602  1
  O  O10  1  0.39212001  0.83631900  0.16532603  1
  O  O11  1  0.60787999  0.16368100  0.83467397  1
  O  O12  1  0.39208901  0.90706100  0.78417802  1
  O  O13  1  0.91440599  0.41619600  0.29947899  1
  O  O14  1  0.61492700  0.58380400  0.70052100  1
  O  O15  1  0.38507300  0.41619600  0.29947900  1
  O  O16  1  0.21247300  0.12940300  0.42494599  1
  O  O17  1  0.08559401  0.58380400  0.70052101  1
  O  O18  1  0.78752701  0.87059700  0.57505401  1
  O  O19  1  0.00000001  0.50000000  0.00000003  1
