# generated using pymatgen
data_Na2V(CoO4)2
_symmetry_space_group_name_H-M   'P 1'
_cell_length_a   5.58496380
_cell_length_b   5.63223886
_cell_length_c   7.13439798
_cell_angle_alpha   66.80435944
_cell_angle_beta   66.95767212
_cell_angle_gamma   60.27727127
_symmetry_Int_Tables_number   1
_chemical_formula_structural   Na2V(CoO4)2
_chemical_formula_sum   'Na2 V1 Co2 O8'
_cell_volume   173.64736725
_cell_formula_units_Z   1
loop_
 _symmetry_equiv_pos_site_id
 _symmetry_equiv_pos_as_xyz
  1  'x, y, z'
loop_
 _atom_site_type_symbol
 _atom_site_label
 _atom_site_symmetry_multiplicity
 _atom_site_fract_x
 _atom_site_fract_y
 _atom_site_fract_z
 _atom_site_occupancy
  Na  Na0  1  0.80509104  0.79897804  0.59083995  1
  Na  Na1  1  0.19490901  0.20102201  0.40915999  1
  V  V2  1  0.00000000  0.00000000  0.00000000  1
  Co  Co3  1  0.59405003  0.59769703  0.21420295  1
  Co  Co4  1  0.40595002  0.40230302  0.78579698  1
  O  O5  1  0.22467801  0.73205003  0.30527297  1
  O  O6  1  0.67821803  0.69887703  0.94468696  1
  O  O7  1  0.26382601  0.77097804  0.70136997  1
  O  O8  1  0.73799903  0.73205003  0.30527294  1
  O  O9  1  0.77532204  0.26795001  0.69472697  1
  O  O10  1  0.26200101  0.26795001  0.69472699  1
  O  O11  1  0.32178202  0.30112301  0.05531297  1
  O  O12  1  0.73617404  0.22902201  0.29862997  1
