# generated using pymatgen
data_Li3NbO5
_symmetry_space_group_name_H-M   'P 1'
_cell_length_a   5.16995382
_cell_length_b   6.41527748
_cell_length_c   7.39965773
_cell_angle_alpha   107.35684204
_cell_angle_beta   90.00000000
_cell_angle_gamma   113.76215363
_symmetry_Int_Tables_number   1
_chemical_formula_structural   Li3NbO5
_chemical_formula_sum   'Li6 Nb2 O10'
_cell_volume   212.34940151
_cell_formula_units_Z   2
loop_
 _symmetry_equiv_pos_site_id
 _symmetry_equiv_pos_as_xyz
  1  'x, y, z'
loop_
 _atom_site_type_symbol
 _atom_site_label
 _atom_site_symmetry_multiplicity
 _atom_site_fract_x
 _atom_site_fract_y
 _atom_site_fract_z
 _atom_site_occupancy
  Li  Li0  1  0.99983803  0.00000000  0.50000000  1
  Li  Li1  1  0.00570500  0.00000000  0.00000000  1
  Li  Li2  1  0.32977505  0.66539200  0.66626998  1
  Li  Li3  1  0.66651904  0.33306100  0.83433399  1
  Li  Li4  1  0.66438304  0.33460800  0.33372999  1
  Li  Li5  1  0.33345805  0.66693900  0.16566598  1
  Nb  Nb6  1  0.56958106  0.64125000  0.92837798  1
  Nb  Nb7  1  0.09060904  0.68611500  0.90615198  1
  O  O8  1  0.90169905  0.32771800  0.59799099  1
  O  O9  1  0.73775308  0.97665900  0.76672697  1
  O  O10  1  0.43305503  0.35972200  0.57649399  1
  O  O11  1  0.27264501  0.01890200  0.75099999  1
  O  O12  1  0.25374306  0.98109800  0.24899997  1
  O  O13  1  0.07333304  0.64027800  0.42350598  1
  O  O14  1  0.57398106  0.67228200  0.40200898  1
  O  O15  1  0.76109403  0.02334100  0.23327300  1
  O  O16  1  0.40449403  0.31388500  0.09384799  1
  O  O17  1  0.92833105  0.35875000  0.07162199  1
