# generated using pymatgen
data_Na2CaO4
_symmetry_space_group_name_H-M   'P 1'
_cell_length_a   3.36526394
_cell_length_b   5.75198603
_cell_length_c   10.17753696
_cell_angle_alpha   90.00000000
_cell_angle_beta   90.00000000
_cell_angle_gamma   90.00000000
_symmetry_Int_Tables_number   1
_chemical_formula_structural   Na2CaO4
_chemical_formula_sum   'Na4 Ca2 O8'
_cell_volume   197.00608588
_cell_formula_units_Z   2
loop_
 _symmetry_equiv_pos_site_id
 _symmetry_equiv_pos_as_xyz
  1  'x, y, z'
loop_
 _atom_site_type_symbol
 _atom_site_label
 _atom_site_symmetry_multiplicity
 _atom_site_fract_x
 _atom_site_fract_y
 _atom_site_fract_z
 _atom_site_occupancy
  Na  Na0  1  0.50000001  0.56013700  0.32282900  1
  Na  Na1  1  0.50000001  0.93986300  0.82282900  1
  Na  Na2  1  0.50000001  0.06013700  0.17717100  1
  Na  Na3  1  0.50000001  0.43986300  0.67717100  1
  Ca  Ca4  1  -0.00000000  0.50000000  0.00000000  1
  Ca  Ca5  1  0.00000000  0.00000000  0.50000000  1
  O  O6  1  -0.00000000  0.64647000  0.80127000  1
  O  O7  1  0.50000001  0.74693400  0.03850100  1
  O  O8  1  0.50000001  0.75306600  0.53850100  1
  O  O9  1  -0.00000000  0.85353000  0.30127000  1
  O  O10  1  0.00000000  0.14647000  0.69873000  1
  O  O11  1  0.50000001  0.24693400  0.46149900  1
  O  O12  1  0.50000001  0.25306600  0.96149900  1
  O  O13  1  -0.00000000  0.35353000  0.19873000  1
