# generated using pymatgen
data_Li3CoO4
_symmetry_space_group_name_H-M   'P 1'
_cell_length_a   5.90052795
_cell_length_b   5.90045309
_cell_length_c   5.92716026
_cell_angle_alpha   119.80326843
_cell_angle_beta   119.80452728
_cell_angle_gamma   60.01182938
_symmetry_Int_Tables_number   1
_chemical_formula_structural   Li3CoO4
_chemical_formula_sum   'Li6 Co2 O8'
_cell_volume   146.36185039
_cell_formula_units_Z   2
loop_
 _symmetry_equiv_pos_site_id
 _symmetry_equiv_pos_as_xyz
  1  'x, y, z'
loop_
 _atom_site_type_symbol
 _atom_site_label
 _atom_site_symmetry_multiplicity
 _atom_site_fract_x
 _atom_site_fract_y
 _atom_site_fract_z
 _atom_site_occupancy
  Li  Li0  1  0.50004099  0.50003101  0.50007001  1
  Li  Li1  1  0.00005001  0.50000601  0.49999702  1
  Li  Li2  1  0.49992598  0.00012700  0.49996099  1
  Li  Li3  1  0.00002600  0.00006800  0.49995999  1
  Li  Li4  1  0.50004199  0.50003901  0.00031303  1
  Li  Li5  1  0.50005000  0.99967101  0.99992603  1
  Co  Co6  1  0.00003301  0.49997801  0.00008003  1
  Co  Co7  1  0.99986598  0.99999301  0.99977603  1
  O  O8  1  0.25755900  0.25754700  0.77220900  1
  O  O9  1  0.74246899  0.74246501  0.22782603  1
  O  O10  1  0.76074998  0.25605600  0.77539499  1
  O  O11  1  0.25597301  0.76078001  0.77535602  1
  O  O12  1  0.75318499  0.75314201  0.77063602  1
  O  O13  1  0.23916301  0.74408701  0.22461804  1
  O  O14  1  0.74400898  0.23918900  0.22458500  1
  O  O15  1  0.24686300  0.24682300  0.22930301  1
