# generated using pymatgen
data_Nb2N3
_symmetry_space_group_name_H-M   'P 1'
_cell_length_a   3.28988600
_cell_length_b   3.28988624
_cell_length_c   8.93614578
_cell_angle_alpha   90.00000000
_cell_angle_beta   90.00000000
_cell_angle_gamma   120.00000000
_symmetry_Int_Tables_number   1
_chemical_formula_structural   Nb2N3
_chemical_formula_sum   'Nb2 N3'
_cell_volume   83.76114513
_cell_formula_units_Z   1
loop_
 _symmetry_equiv_pos_site_id
 _symmetry_equiv_pos_as_xyz
  1  'x, y, z'
loop_
 _atom_site_type_symbol
 _atom_site_label
 _atom_site_symmetry_multiplicity
 _atom_site_fract_x
 _atom_site_fract_y
 _atom_site_fract_z
 _atom_site_occupancy
  Nb  Nb0  1  0.33333335  0.66666665  0.13258800  1
  Nb  Nb1  1  0.66666668  0.33333333  0.86741202  1
  N  N2  1  0.00000000  0.00000000  0.00000000  1
  N  N3  1  0.66666668  0.33333333  0.31427901  1
  N  N4  1  0.33333335  0.66666665  0.68572102  1
