# generated using pymatgen
data_Li6Co3NiO10
_symmetry_space_group_name_H-M   'P 1'
_cell_length_a   5.02170181
_cell_length_b   5.08062077
_cell_length_c   7.67803478
_cell_angle_alpha   83.23289490
_cell_angle_beta   72.88960266
_cell_angle_gamma   72.11110687
_symmetry_Int_Tables_number   1
_chemical_formula_structural   Li6Co3NiO10
_chemical_formula_sum   'Li6 Co3 Ni1 O10'
_cell_volume   178.08954299
_cell_formula_units_Z   1
loop_
 _symmetry_equiv_pos_site_id
 _symmetry_equiv_pos_as_xyz
  1  'x, y, z'
loop_
 _atom_site_type_symbol
 _atom_site_label
 _atom_site_symmetry_multiplicity
 _atom_site_fract_x
 _atom_site_fract_y
 _atom_site_fract_z
 _atom_site_occupancy
  Li  Li0  1  0.08482099  0.50724801  0.80970799  1
  Li  Li1  1  0.71708400  0.49009801  0.59142701  1
  Li  Li2  1  0.30635699  0.50127401  0.39484500  1
  Li  Li3  1  0.90085300  0.50033501  0.19662702  1
  Li  Li4  1  0.49026100  0.49745201  0.00933500  1
  Li  Li5  1  0.39858301  0.00096000  0.20017002  1
  Ni  Ni6  1  0.99090902  0.01400200  0.00542304  1
  Co  Co7  1  0.80973799  0.98906302  0.39476000  1
  Co  Co8  1  0.59398301  0.00573700  0.80580903  1
  Co  Co9  1  0.21478198  0.98876002  0.58784897  1
  O  O10  1  0.75139399  0.77949802  0.98866401  1
  O  O11  1  0.31869999  0.79125602  0.81100799  1
  O  O12  1  0.97125900  0.76529102  0.58118001  1
  O  O13  1  0.56574299  0.76012502  0.40729500  1
  O  O14  1  0.11706398  0.77933302  0.20071098  1
  O  O15  1  0.47754500  0.20691000  0.58796501  1
  O  O16  1  0.04616700  0.22096100  0.41552499  1
  O  O17  1  0.67963401  0.22169900  0.19920902  1
  O  O18  1  0.22441900  0.24440201  0.00101000  1
  O  O19  1  0.84070401  0.23559401  0.81147903  1
