# generated using pymatgen
data_Li7V(CoO2)2
_symmetry_space_group_name_H-M   'P 1'
_cell_length_a   5.66594982
_cell_length_b   5.85793018
_cell_length_c   6.64014006
_cell_angle_alpha   90.00000000
_cell_angle_beta   90.00000000
_cell_angle_gamma   106.75057983
_symmetry_Int_Tables_number   1
_chemical_formula_structural   Li7V(CoO2)2
_chemical_formula_sum   'Li7 V1 Co2 O4'
_cell_volume   211.03961260
_cell_formula_units_Z   1
loop_
 _symmetry_equiv_pos_site_id
 _symmetry_equiv_pos_as_xyz
  1  'x, y, z'
loop_
 _atom_site_type_symbol
 _atom_site_label
 _atom_site_symmetry_multiplicity
 _atom_site_fract_x
 _atom_site_fract_y
 _atom_site_fract_z
 _atom_site_occupancy
  Li  Li0  1  0.52549006  0.64280999  -0.00000000  1
  Li  Li1  1  0.02549001  0.14281000  0.50000000  1
  Li  Li2  1  0.51737002  0.03547000  0.71885999  1
  Li  Li3  1  0.51737002  0.03547000  0.28114000  1
  Li  Li4  1  0.01737003  0.53546999  0.21886000  1
  Li  Li5  1  0.01737003  0.53546999  0.78113999  1
  Li  Li6  1  0.05560001  0.06009000  -0.00000000  1
  Co  Co7  1  0.55560005  0.56008999  0.50000000  1
  O  O8  1  0.37633005  0.67700999  0.73522999  1
  O  O9  1  0.37633005  0.67700999  0.26477000  1
  Co  Co10  1  0.87633004  0.17701000  0.23523000  1
  V  V11  1  0.87633004  0.17701000  0.76476999  1
  O  O12  1  0.88526007  0.69799999  -0.00000000  1
  O  O13  1  0.38526002  0.19800000  0.50000000  1
