# generated using pymatgen
data_Na3Li2Gd(SiO5)2
_symmetry_space_group_name_H-M   'P 1'
_cell_length_a   5.07476616
_cell_length_b   6.92604113
_cell_length_c   6.92604113
_cell_angle_alpha   90.00000000
_cell_angle_beta   90.00000000
_cell_angle_gamma   90.00000000
_symmetry_Int_Tables_number   1
_chemical_formula_structural   Na3Li2Gd(SiO5)2
_chemical_formula_sum   'Na3 Li2 Gd1 Si2 O10'
_cell_volume   243.43676448
_cell_formula_units_Z   1
loop_
 _symmetry_equiv_pos_site_id
 _symmetry_equiv_pos_as_xyz
  1  'x, y, z'
loop_
 _atom_site_type_symbol
 _atom_site_label
 _atom_site_symmetry_multiplicity
 _atom_site_fract_x
 _atom_site_fract_y
 _atom_site_fract_z
 _atom_site_occupancy
  Na  Na0  1  0.96626697  0.49999999  0.00000000  1
  Gd  Gd1  1  0.03373300  0.99999998  0.49999999  1
  Na  Na2  1  0.49999998  0.25000000  0.25000000  1
  Na  Na3  1  0.49999998  0.74999999  0.25000000  1
  Li  Li4  1  0.49999998  0.25000000  0.74999999  1
  Li  Li5  1  0.49999998  0.74999999  0.74999999  1
  Si  Si6  1  0.00000000  0.00000000  0.00000000  1
  Si  Si7  1  0.99999997  0.49999999  0.49999999  1
  O  O8  1  0.39377199  0.49999999  0.00000000  1
  O  O9  1  0.60622798  0.99999998  0.49999999  1
  O  O10  1  0.80180497  0.49999999  0.31106099  1
  O  O11  1  0.80180497  0.49999999  0.68893899  1
  O  O12  1  0.80180497  0.18893900  0.00000000  1
  O  O13  1  0.80180497  0.81106099  0.00000000  1
  O  O14  1  0.19819499  0.31106099  0.49999999  1
  O  O15  1  0.19819499  0.99999998  0.18893900  1
  O  O16  1  0.19819499  0.68893899  0.49999999  1
  O  O17  1  0.19819499  0.99999998  0.81106099  1
