# generated using pymatgen
data_Li4MnAgO6
_symmetry_space_group_name_H-M   'P 1'
_cell_length_a   5.61509418
_cell_length_b   5.61509418
_cell_length_c   5.85071802
_cell_angle_alpha   99.37863922
_cell_angle_beta   99.37863922
_cell_angle_gamma   119.88426208
_symmetry_Int_Tables_number   1
_chemical_formula_structural   Li4MnAgO6
_chemical_formula_sum   'Li4 Mn1 Ag1 O6'
_cell_volume   151.23913595
_cell_formula_units_Z   1
loop_
 _symmetry_equiv_pos_site_id
 _symmetry_equiv_pos_as_xyz
  1  'x, y, z'
loop_
 _atom_site_type_symbol
 _atom_site_label
 _atom_site_symmetry_multiplicity
 _atom_site_fract_x
 _atom_site_fract_y
 _atom_site_fract_z
 _atom_site_occupancy
  Li  Li0  1  0.49999995  0.49999996  0.99999992  1
  Li  Li1  1  0.15572493  0.84427494  0.99999991  1
  Li  Li2  1  0.84427496  0.15572499  0.99999992  1
  Li  Li3  1  0.00000000  0.00000000  0.49999999  1
  Mn  Mn4  1  0.33150494  0.66849495  0.49999992  1
  Ag  Ag5  1  0.66849495  0.33150498  0.49999993  1
  O  O6  1  0.43993198  0.07494899  0.71336996  1
  O  O7  1  0.56006791  0.92505093  0.28662989  1
  O  O8  1  0.29687197  0.29687198  0.28713195  1
  O  O9  1  0.07494897  0.43993197  0.71336995  1
  O  O10  1  0.92505093  0.56006796  0.28662990  1
  O  O11  1  0.70312793  0.70312795  0.71286789  1
