# generated using pymatgen
data_Li3Cu2AgMo3Se2S3
_symmetry_space_group_name_H-M   'P 1'
_cell_length_a   4.21518707
_cell_length_b   4.21506834
_cell_length_c   20.65888214
_cell_angle_alpha   90.00000000
_cell_angle_beta   90.00000000
_cell_angle_gamma   119.94949341
_symmetry_Int_Tables_number   1
_chemical_formula_structural   Li3Cu2AgMo3Se2S3
_chemical_formula_sum   'Li3 Cu2 Ag1 Mo3 Se2 S3'
_cell_volume   318.03852291
_cell_formula_units_Z   1
loop_
 _symmetry_equiv_pos_site_id
 _symmetry_equiv_pos_as_xyz
  1  'x, y, z'
loop_
 _atom_site_type_symbol
 _atom_site_label
 _atom_site_symmetry_multiplicity
 _atom_site_fract_x
 _atom_site_fract_y
 _atom_site_fract_z
 _atom_site_occupancy
  Ag  Ag0  1  0.00054993  0.99812498  0.49997900  1
  Li  Li1  1  0.00054993  0.99812498  0.00002100  1
  Li  Li2  1  0.33465097  0.66637499  0.87175999  1
  Li  Li3  1  0.66790301  0.33377199  0.12830200  1
  Mo  Mo4  1  0.66790301  0.33377199  0.37169800  1
  Cu  Cu5  1  0.33465097  0.66637499  0.62824000  1
  Mo  Mo6  1  0.35825497  0.63260199  0.25000000  1
  Cu  Cu7  1  0.63429601  0.27558699  0.74999999  1
  S  S8  1  0.33427897  0.66645299  0.41304600  1
  S  S9  1  0.66798801  0.33297299  0.58691500  1
  Se  Se10  1  0.66798801  0.33297299  0.91308499  1
  Mo  Mo11  1  0.33427897  0.66645299  0.08695400  1
  Se  Se12  1  0.69548702  0.29720299  0.25000000  1
  S  S13  1  0.29731797  0.60210899  0.74999999  1
