# generated using pymatgen
data_Li8Mn2NiO5
_symmetry_space_group_name_H-M   'P 1'
_cell_length_a   4.05322218
_cell_length_b   5.77220154
_cell_length_c   10.82210159
_cell_angle_alpha   89.53823853
_cell_angle_beta   90.00000000
_cell_angle_gamma   110.55451202
_symmetry_Int_Tables_number   1
_chemical_formula_structural   Li8Mn2NiO5
_chemical_formula_sum   'Li8 Mn2 Ni1 O5'
_cell_volume   237.06657791
_cell_formula_units_Z   1
loop_
 _symmetry_equiv_pos_site_id
 _symmetry_equiv_pos_as_xyz
  1  'x, y, z'
loop_
 _atom_site_type_symbol
 _atom_site_label
 _atom_site_symmetry_multiplicity
 _atom_site_fract_x
 _atom_site_fract_y
 _atom_site_fract_z
 _atom_site_occupancy
  Li  Li0  1  0.81487691  0.62975401  0.24818101  1
  Li  Li1  1  0.85487190  0.70974401  0.94071702  1
  Li  Li2  1  0.86228290  0.72456601  0.55497001  1
  Li  Li3  1  0.19191996  0.38384000  0.74849602  1
  Li  Li4  1  0.14207497  0.28415000  0.05441500  1
  Li  Li5  1  0.13474097  0.26948200  0.43997401  1
  Ni  Ni6  1  0.70086394  0.40172800  0.07776200  1
  O  O7  1  0.95211788  0.90423601  0.38428001  1
  Li  Li8  1  0.29419494  0.58839001  0.57429401  1
  Mn  Mn9  1  0.29689594  0.59379201  0.91943202  1
  Mn  Mn10  1  0.68961994  0.37924000  0.41945101  1
  Li  Li11  1  0.75355392  0.50710800  0.75101902  1
  O  O12  1  0.95378588  0.90757201  0.11269800  1
  O  O13  1  0.24343995  0.48688000  0.25617501  1
  O  O14  1  0.04323499  0.08647000  0.88392602  1
  O  O15  1  0.04195499  0.08391000  0.61901602  1
