# generated using pymatgen
data_Li2HoMnO3
_symmetry_space_group_name_H-M   'P 1'
_cell_length_a   3.68101811
_cell_length_b   6.16472721
_cell_length_c   6.63644981
_cell_angle_alpha   89.67028809
_cell_angle_beta   90.00000000
_cell_angle_gamma   90.00000000
_symmetry_Int_Tables_number   1
_chemical_formula_structural   Li2HoMnO3
_chemical_formula_sum   'Li2 Ho1 Mn1 O3'
_cell_volume   150.59496161
_cell_formula_units_Z   1
loop_
 _symmetry_equiv_pos_site_id
 _symmetry_equiv_pos_as_xyz
  1  'x, y, z'
loop_
 _atom_site_type_symbol
 _atom_site_label
 _atom_site_symmetry_multiplicity
 _atom_site_fract_x
 _atom_site_fract_y
 _atom_site_fract_z
 _atom_site_occupancy
  Mn  Mn0  1  0.49999998  0.51951098  0.16999503  1
  Ho  Ho1  1  0.49999998  0.97465197  0.84863106  1
  Li  Li2  1  -0.00000000  0.50972698  0.65526103  1
  Li  Li3  1  -0.00000000  0.88953197  0.65714605  1
  O  O4  1  0.49999998  0.87470397  0.16363405  1
  O  O5  1  0.49999998  0.36232699  0.84478803  1
  O  O6  1  -0.00000000  0.36954699  0.32719502  1
