# generated using pymatgen
data_Cs3K2Cu2AgSeS7
_symmetry_space_group_name_H-M   'P 1'
_cell_length_a   5.80218410
_cell_length_b   7.70575857
_cell_length_c   12.91482544
_cell_angle_alpha   85.14867401
_cell_angle_beta   77.01872253
_cell_angle_gamma   67.88395691
_symmetry_Int_Tables_number   1
_chemical_formula_structural   Cs3K2Cu2AgSeS7
_chemical_formula_sum   'Cs3 K2 Cu2 Ag1 Se1 S7'
_cell_volume   521.26859566
_cell_formula_units_Z   1
loop_
 _symmetry_equiv_pos_site_id
 _symmetry_equiv_pos_as_xyz
  1  'x, y, z'
loop_
 _atom_site_type_symbol
 _atom_site_label
 _atom_site_symmetry_multiplicity
 _atom_site_fract_x
 _atom_site_fract_y
 _atom_site_fract_z
 _atom_site_occupancy
  K  K0  1  0.82122998  0.00000000  0.35754002  1
  Cs  Cs1  1  0.17876999  0.00000000  0.64246001  1
  K  K2  1  0.57122994  0.50000001  0.85754004  1
  Cs  Cs3  1  0.92876993  0.50000001  0.14246004  1
  Cs  Cs4  1  0.74999993  0.50000001  0.50000004  1
  Ag  Ag5  1  0.00000000  0.00000000  0.00000000  1
  Cu  Cu6  1  0.24999995  0.50000001  0.50000003  1
  Cu  Cu7  1  0.49999999  0.00000000  0.00000001  1
  Se  Se8  1  0.20252798  0.19670000  0.88958902  1
  S  S9  1  0.28881692  0.80330001  0.11041104  1
  S  S10  1  0.60077197  0.19670000  0.11041102  1
  S  S11  1  0.90788290  0.80330001  0.88958906  1
  S  S12  1  0.14922797  0.30330000  0.38958902  1
  S  S13  1  0.84211691  0.69670001  0.61041105  1
  S  S14  1  0.46118293  0.69670001  0.38958904  1
  S  S15  1  0.54747196  0.30330000  0.61041103  1
