# generated using pymatgen
data_ScZnCu6TeSe7
_symmetry_space_group_name_H-M   'P 1'
_cell_length_a   6.98199320
_cell_length_b   7.30894423
_cell_length_c   8.24455738
_cell_angle_alpha   90.00000000
_cell_angle_beta   90.00000000
_cell_angle_gamma   90.00000000
_symmetry_Int_Tables_number   1
_chemical_formula_structural   ScZnCu6TeSe7
_chemical_formula_sum   'Sc1 Zn1 Cu6 Te1 Se7'
_cell_volume   420.72799837
_cell_formula_units_Z   1
loop_
 _symmetry_equiv_pos_site_id
 _symmetry_equiv_pos_as_xyz
  1  'x, y, z'
loop_
 _atom_site_type_symbol
 _atom_site_label
 _atom_site_symmetry_multiplicity
 _atom_site_fract_x
 _atom_site_fract_y
 _atom_site_fract_z
 _atom_site_occupancy
  Sc  Sc0  1  0.50832999  0.35336599  0.00000000  1
  Cu  Cu1  1  0.00833000  0.64663398  0.49999998  1
  Zn  Zn2  1  0.51807399  0.82451097  0.75398497  1
  Cu  Cu3  1  0.01807400  0.17548899  0.74601497  1
  Cu  Cu4  1  0.01807400  0.17548899  0.25398499  1
  Cu  Cu5  1  0.51807399  0.82451097  0.24601499  1
  Cu  Cu6  1  0.99826897  0.66506698  0.00000000  1
  Cu  Cu7  1  0.49826899  0.33493299  0.49999998  1
  Se  Se8  1  0.87121398  0.35878699  0.00000000  1
  Se  Se9  1  0.37121399  0.64121298  0.49999998  1
  Te  Te10  1  0.89656097  0.82516797  0.75539097  1
  Se  Se11  1  0.39656099  0.17483199  0.74460897  1
  Se  Se12  1  0.39656099  0.17483199  0.25539099  1
  Se  Se13  1  0.89656097  0.82516797  0.24460899  1
  Se  Se14  1  0.34541799  0.66073098  0.00000000  1
  Se  Se15  1  0.84541798  0.33926899  0.49999998  1
