# generated using pymatgen
data_Li4MgMn3(HN3)3
_symmetry_space_group_name_H-M   'P 1'
_cell_length_a   5.12282801
_cell_length_b   5.54180717
_cell_length_c   7.57429695
_cell_angle_alpha   90.00000000
_cell_angle_beta   90.00000000
_cell_angle_gamma   90.00000000
_symmetry_Int_Tables_number   1
_chemical_formula_structural   Li4MgMn3(HN3)3
_chemical_formula_sum   'Li4 Mg1 Mn3 H3 N9'
_cell_volume   215.03220753
_cell_formula_units_Z   1
loop_
 _symmetry_equiv_pos_site_id
 _symmetry_equiv_pos_as_xyz
  1  'x, y, z'
loop_
 _atom_site_type_symbol
 _atom_site_label
 _atom_site_symmetry_multiplicity
 _atom_site_fract_x
 _atom_site_fract_y
 _atom_site_fract_z
 _atom_site_occupancy
  Mg  Mg0  1  0.53396400  0.08069700  0.25000000  1
  Li  Li1  1  0.46603600  0.91930297  0.75000000  1
  Li  Li2  1  0.96603600  0.58069698  0.25000000  1
  Li  Li3  1  0.03396400  0.41930299  0.75000000  1
  Li  Li4  1  0.50000000  0.49999998  0.50000000  1
  Mn  Mn5  1  0.50000000  0.49999998  0.00000000  1
  Mn  Mn6  1  0.00000000  0.00000000  0.50000000  1
  Mn  Mn7  1  0.00000000  0.00000000  0.00000000  1
  H  H8  1  0.15414600  0.92785197  0.25000000  1
  H  H9  1  0.84585400  0.07214800  0.75000000  1
  N  N10  1  0.34585400  0.42785199  0.25000000  1
  H  H11  1  0.65414600  0.57214798  0.75000000  1
  N  N12  1  0.17191000  0.68387698  0.57694300  1
  N  N13  1  0.82809000  0.31612299  0.07694300  1
  N  N14  1  0.82809000  0.31612299  0.42305700  1
  N  N15  1  0.17191000  0.68387698  0.92305701  1
  N  N16  1  0.67191000  0.81612297  0.42305700  1
  N  N17  1  0.32809000  0.18387699  0.92305701  1
  N  N18  1  0.32809000  0.18387699  0.57694300  1
  N  N19  1  0.67191000  0.81612297  0.07694300  1
