# generated using pymatgen
data_Li2MgZnPHN4
_symmetry_space_group_name_H-M   'P 1'
_cell_length_a   3.28381991
_cell_length_b   3.28382039
_cell_length_c   12.02348423
_cell_angle_alpha   90.00000000
_cell_angle_beta   90.00000000
_cell_angle_gamma   119.99999237
_symmetry_Int_Tables_number   1
_chemical_formula_structural   Li2MgZnPHN4
_chemical_formula_sum   'Li2 Mg1 Zn1 P1 H1 N4'
_cell_volume   112.28447963
_cell_formula_units_Z   1
loop_
 _symmetry_equiv_pos_site_id
 _symmetry_equiv_pos_as_xyz
  1  'x, y, z'
loop_
 _atom_site_type_symbol
 _atom_site_label
 _atom_site_symmetry_multiplicity
 _atom_site_fract_x
 _atom_site_fract_y
 _atom_site_fract_z
 _atom_site_occupancy
  Li  Li0  1  0.33333329  0.66666664  0.74999999  1
  Li  Li1  1  0.66666666  0.33333332  0.25000000  1
  Mg  Mg2  1  0.00000000  0.00000000  0.00000000  1
  Zn  Zn3  1  0.00000000  0.00000000  0.49999999  1
  H  H4  1  0.00000000  0.00000000  0.74999999  1
  P  P5  1  0.00000000  0.00000000  0.25000000  1
  N  N6  1  0.33333329  0.66666664  0.59220099  1
  N  N7  1  0.33333329  0.66666664  0.90779898  1
  N  N8  1  0.66666666  0.33333332  0.40779899  1
  N  N9  1  0.66666666  0.33333332  0.09220100  1
