# generated using pymatgen
data_Ba6NaSr5As2N5O
_symmetry_space_group_name_H-M   'P 1'
_cell_length_a   4.05115223
_cell_length_b   9.28425884
_cell_length_c   10.41640282
_cell_angle_alpha   90.00000000
_cell_angle_beta   90.00000000
_cell_angle_gamma   90.00000000
_symmetry_Int_Tables_number   1
_chemical_formula_structural   Ba6NaSr5As2N5O
_chemical_formula_sum   'Ba6 Na1 Sr5 As2 N5 O1'
_cell_volume   391.78117929
_cell_formula_units_Z   1
loop_
 _symmetry_equiv_pos_site_id
 _symmetry_equiv_pos_as_xyz
  1  'x, y, z'
loop_
 _atom_site_type_symbol
 _atom_site_label
 _atom_site_symmetry_multiplicity
 _atom_site_fract_x
 _atom_site_fract_y
 _atom_site_fract_z
 _atom_site_occupancy
  Ba  Ba0  1  0.74999996  0.25955200  0.67578001  1
  Ba  Ba1  1  0.24999999  0.74044801  0.32422001  1
  Ba  Ba2  1  0.74999996  0.75955201  0.82422001  1
  Ba  Ba3  1  0.24999999  0.24044800  0.17578000  1
  Ba  Ba4  1  0.24999999  0.08331200  0.45624201  1
  Ba  Ba5  1  0.74999996  0.91668802  0.54375801  1
  Na  Na6  1  0.24999999  0.58331201  0.04375800  1
  Sr  Sr7  1  0.74999996  0.41668801  0.95624202  1
  Sr  Sr8  1  0.24999999  0.55655701  0.61438501  1
  Sr  Sr9  1  0.74999996  0.44344301  0.38561501  1
  Sr  Sr10  1  0.24999999  0.05655700  0.88561502  1
  Sr  Sr11  1  0.74999996  0.94344302  0.11438500  1
  O  O12  1  0.74999996  0.15639200  0.95878402  1
  N  N13  1  0.24999999  0.84360801  0.04121600  1
  As  As14  1  0.74999996  0.65639201  0.54121601  1
  N  N15  1  0.24999999  0.34360801  0.45878401  1
  N  N16  1  0.24999999  0.98041602  0.66689401  1
  N  N17  1  0.74999996  0.01958400  0.33310601  1
  N  N18  1  0.24999999  0.48041601  0.83310601  1
  As  As19  1  0.74999996  0.51958401  0.16689400  1
