# generated using pymatgen
data_NaNdSO2
_symmetry_space_group_name_H-M   'P 1'
_cell_length_a   3.84401202
_cell_length_b   3.84401274
_cell_length_c   6.82585716
_cell_angle_alpha   90.00000000
_cell_angle_beta   90.00000000
_cell_angle_gamma   119.99999237
_symmetry_Int_Tables_number   1
_chemical_formula_structural   NaNdSO2
_chemical_formula_sum   'Na1 Nd1 S1 O2'
_cell_volume   87.34889521
_cell_formula_units_Z   1
loop_
 _symmetry_equiv_pos_site_id
 _symmetry_equiv_pos_as_xyz
  1  'x, y, z'
loop_
 _atom_site_type_symbol
 _atom_site_label
 _atom_site_symmetry_multiplicity
 _atom_site_fract_x
 _atom_site_fract_y
 _atom_site_fract_z
 _atom_site_occupancy
  Na  Na0  1  0.66666666  0.33333334  0.20907800  1
  Nd  Nd1  1  0.33333332  0.66666668  0.79092198  1
  S  S2  1  0.00000000  0.00000000  0.49999999  1
  O  O3  1  0.66666666  0.33333334  0.87400598  1
  O  O4  1  0.33333332  0.66666668  0.12599400  1
