# generated using pymatgen
data_Li3MgAlCoO5F
_symmetry_space_group_name_H-M   'P 1'
_cell_length_a   2.86589003
_cell_length_b   5.08944893
_cell_length_c   7.57264948
_cell_angle_alpha   108.61734772
_cell_angle_beta   100.90763855
_cell_angle_gamma   90.00000000
_symmetry_Int_Tables_number   1
_chemical_formula_structural   Li3MgAlCoO5F
_chemical_formula_sum   'Li3 Mg1 Al1 Co1 O5 F1'
_cell_volume   102.56544961
_cell_formula_units_Z   1
loop_
 _symmetry_equiv_pos_site_id
 _symmetry_equiv_pos_as_xyz
  1  'x, y, z'
loop_
 _atom_site_type_symbol
 _atom_site_label
 _atom_site_symmetry_multiplicity
 _atom_site_fract_x
 _atom_site_fract_y
 _atom_site_fract_z
 _atom_site_occupancy
  Mg  Mg0  1  0.16763100  0.00010300  0.33526199  1
  Li  Li1  1  0.83236896  0.99989696  0.66473795  1
  Li  Li2  1  0.49999999  0.00000000  -0.00000000  1
  Li  Li3  1  0.66760698  0.50019898  0.33521397  1
  O  O4  1  0.33239298  0.49980098  0.66478597  1
  Co  Co5  1  -0.00000001  0.49999998  -0.00000002  1
  O  O6  1  0.75453098  0.28880899  0.50906198  1
  Al  Al7  1  0.41525699  0.27438099  0.83051397  1
  O  O8  1  0.09072199  0.27851599  0.18144399  1
  F  F9  1  0.90927797  0.72148397  0.81855595  1
  O  O10  1  0.58474297  0.72561897  0.16948597  1
  O  O11  1  0.24546898  0.71119097  0.49093797  1
