# generated using pymatgen
data_Li6SiAs
_symmetry_space_group_name_H-M   'P 1'
_cell_length_a   4.46935177
_cell_length_b   6.26811409
_cell_length_c   8.96146011
_cell_angle_alpha   90.00000000
_cell_angle_beta   90.00000000
_cell_angle_gamma   90.00000000
_symmetry_Int_Tables_number   1
_chemical_formula_structural   Li6SiAs
_chemical_formula_sum   'Li6 Si1 As1'
_cell_volume   251.04998908
_cell_formula_units_Z   1
loop_
 _symmetry_equiv_pos_site_id
 _symmetry_equiv_pos_as_xyz
  1  'x, y, z'
loop_
 _atom_site_type_symbol
 _atom_site_label
 _atom_site_symmetry_multiplicity
 _atom_site_fract_x
 _atom_site_fract_y
 _atom_site_fract_z
 _atom_site_occupancy
  Li  Li0  1  -0.00000000  0.99176899  0.01168500  1
  Li  Li1  1  0.50000001  0.49554099  0.24999999  1
  Li  Li2  1  -0.00000000  0.99176899  0.48831498  1
  Li  Li3  1  0.50000001  0.52208299  0.74999997  1
  Li  Li4  1  -0.00000000  0.24710100  0.74999997  1
  As  As5  1  0.50000001  0.74991399  0.00682300  1
  Si  Si6  1  -0.00000000  0.25190900  0.24999999  1
  Li  Li7  1  0.50000001  0.74991399  0.49317698  1
