# generated using pymatgen
data_Cs3BaInTeI12
_symmetry_space_group_name_H-M   'P 1'
_cell_length_a   8.44228840
_cell_length_b   10.27399635
_cell_length_c   12.02312851
_cell_angle_alpha   112.16960907
_cell_angle_beta   90.00000000
_cell_angle_gamma   114.25868225
_symmetry_Int_Tables_number   1
_chemical_formula_structural   Cs3BaInTeI12
_chemical_formula_sum   'Cs3 Ba1 In1 Te1 I12'
_cell_volume   865.49554914
_cell_formula_units_Z   1
loop_
 _symmetry_equiv_pos_site_id
 _symmetry_equiv_pos_as_xyz
  1  'x, y, z'
loop_
 _atom_site_type_symbol
 _atom_site_label
 _atom_site_symmetry_multiplicity
 _atom_site_fract_x
 _atom_site_fract_y
 _atom_site_fract_z
 _atom_site_occupancy
  Cs  Cs0  1  0.05370700  0.00000000  0.24999999  1
  Ba  Ba1  1  0.94629296  0.00000000  0.74999998  1
  Cs  Cs2  1  0.58436295  0.28020299  0.63742099  1
  Cs  Cs3  1  0.30415993  0.71979698  0.86257900  1
  Te  Te4  1  0.69583994  0.28020299  0.13742100  1
  In  In5  1  0.41563692  0.71979698  0.36257901  1
  I  I6  1  0.07907497  0.37141099  0.28327900  1
  I  I7  1  0.21126791  0.93630798  0.51253301  1
  I  I8  1  0.50402392  0.72722998  0.62984200  1
  I  I9  1  0.29233596  0.37141099  0.78327899  1
  I  I10  1  0.72503989  0.93630798  0.01253302  1
  I  I11  1  0.77679394  0.27276999  0.87015798  1
  I  I12  1  0.22320593  0.72722998  0.12984202  1
  I  I13  1  0.27495998  0.06369200  0.98746698  1
  I  I14  1  0.70766392  0.62858898  0.21672101  1
  I  I15  1  0.49597595  0.27276999  0.37015800  1
  I  I16  1  0.78873196  0.06369200  0.48746699  1
  I  I17  1  0.92092491  0.62858898  0.71672100  1
