# generated using pymatgen
data_KRbBa3AgAs4
_symmetry_space_group_name_H-M   'P 1'
_cell_length_a   7.06072998
_cell_length_b   7.27144623
_cell_length_c   8.74365139
_cell_angle_alpha   114.57051849
_cell_angle_beta   113.81364441
_cell_angle_gamma   90.00000000
_symmetry_Int_Tables_number   1
_chemical_formula_structural   KRbBa3AgAs4
_chemical_formula_sum   'K1 Rb1 Ba3 Ag1 As4'
_cell_volume   365.82365123
_cell_formula_units_Z   1
loop_
 _symmetry_equiv_pos_site_id
 _symmetry_equiv_pos_as_xyz
  1  'x, y, z'
loop_
 _atom_site_type_symbol
 _atom_site_label
 _atom_site_symmetry_multiplicity
 _atom_site_fract_x
 _atom_site_fract_y
 _atom_site_fract_z
 _atom_site_occupancy
  K  K0  1  0.13648599  0.34030099  0.27297300  1
  Ba  Ba1  1  0.86351397  0.65969898  0.72702699  1
  Rb  Rb2  1  0.36351299  0.06732800  0.72702601  1
  Ag  Ag3  1  0.63648696  0.93267197  0.27297398  1
  Ba  Ba4  1  0.24999998  0.49999998  1.00000003  1
  Ba  Ba5  1  0.74999997  0.49999998  -0.00000003  1
  As  As6  1  0.38932198  0.59540398  0.77864301  1
  As  As7  1  0.61067798  0.40459599  0.22135698  1
  As  As8  1  0.11067898  0.81676097  0.22135800  1
  As  As9  1  0.88932098  0.18323899  0.77864199  1
