# generated using pymatgen
data_MnMo3PSCl2O3F5
_symmetry_space_group_name_H-M   'P 1'
_cell_length_a   3.04374790
_cell_length_b   3.04374886
_cell_length_c   24.94070625
_cell_angle_alpha   90.00000000
_cell_angle_beta   90.00000000
_cell_angle_gamma   119.99999237
_symmetry_Int_Tables_number   1
_chemical_formula_structural   MnMo3PSCl2O3F5
_chemical_formula_sum   'Mn1 Mo3 P1 S1 Cl2 O3 F5'
_cell_volume   200.10452379
_cell_formula_units_Z   1
loop_
 _symmetry_equiv_pos_site_id
 _symmetry_equiv_pos_as_xyz
  1  'x, y, z'
loop_
 _atom_site_type_symbol
 _atom_site_label
 _atom_site_symmetry_multiplicity
 _atom_site_fract_x
 _atom_site_fract_y
 _atom_site_fract_z
 _atom_site_occupancy
  Mn  Mn0  1  0.33333336  0.66666666  0.12499900  1
  Mo  Mo1  1  0.66666669  0.33333333  0.87500099  1
  P  P2  1  0.66666669  0.33333333  0.62499899  1
  Mo  Mo3  1  0.33333336  0.66666666  0.37500100  1
  Mo  Mo4  1  0.00000000  0.00000000  0.00000000  1
  S  S5  1  0.00000000  0.00000000  0.49999999  1
  Cl  Cl6  1  0.66666669  0.33333333  0.25000000  1
  O  O7  1  0.33333336  0.66666666  0.74999999  1
  Cl  Cl8  1  0.00000000  0.00000000  0.08437700  1
  F  F9  1  0.00000000  0.00000000  0.91562299  1
  O  O10  1  0.00000000  0.00000000  0.58437699  1
  F  F11  1  0.00000000  0.00000000  0.41562300  1
  F  F12  1  0.66666669  0.33333333  0.16561400  1
  F  F13  1  0.33333336  0.66666666  0.83438599  1
  O  O14  1  0.33333336  0.66666666  0.66561399  1
  F  F15  1  0.66666669  0.33333333  0.33438600  1
