# generated using pymatgen
data_K2AgHgBr2(Cl2F)2
_symmetry_space_group_name_H-M   'P 1'
_cell_length_a   7.23959160
_cell_length_b   7.23959160
_cell_length_c   8.24099541
_cell_angle_alpha   69.06884766
_cell_angle_beta   69.06884766
_cell_angle_gamma   61.50985336
_symmetry_Int_Tables_number   1
_chemical_formula_structural   K2AgHgBr2(Cl2F)2
_chemical_formula_sum   'K2 Ag1 Hg1 Br2 Cl4 F2'
_cell_volume   345.26149779
_cell_formula_units_Z   1
loop_
 _symmetry_equiv_pos_site_id
 _symmetry_equiv_pos_as_xyz
  1  'x, y, z'
loop_
 _atom_site_type_symbol
 _atom_site_label
 _atom_site_symmetry_multiplicity
 _atom_site_fract_x
 _atom_site_fract_y
 _atom_site_fract_z
 _atom_site_occupancy
  Hg  Hg0  1  0.70181901  0.70181898  0.25488796  1
  K  K1  1  0.29818100  0.29818099  0.74511197  1
  Ag  Ag2  1  0.02430200  0.02430200  0.35000099  1
  K  K3  1  0.97569801  0.97569798  0.64999894  1
  Br  Br4  1  0.74308500  0.25691499  0.99999996  1
  Br  Br5  1  0.25691501  0.74308498  -0.00000003  1
  Cl  Cl6  1  0.21396600  0.21396600  0.20202899  1
  F  F7  1  0.67720199  0.17812600  0.32485397  1
  F  F8  1  0.17812601  0.67720198  0.32485397  1
  Cl  Cl9  1  0.82187400  0.32279799  0.67514596  1
  Cl  Cl10  1  0.32279801  0.82187398  0.67514596  1
  Cl  Cl11  1  0.78603401  0.78603398  0.79797095  1
