# generated using pymatgen
data_MnAs(O2F)2
_symmetry_space_group_name_H-M   'P 1'
_cell_length_a   3.12317991
_cell_length_b   3.12317991
_cell_length_c   12.63869953
_cell_angle_alpha   90.00000000
_cell_angle_beta   90.00000000
_cell_angle_gamma   120.00000000
_symmetry_Int_Tables_number   1
_chemical_formula_structural   MnAs(O2F)2
_chemical_formula_sum   'Mn1 As1 O4 F2'
_cell_volume   106.76453831
_cell_formula_units_Z   1
loop_
 _symmetry_equiv_pos_site_id
 _symmetry_equiv_pos_as_xyz
  1  'x, y, z'
loop_
 _atom_site_type_symbol
 _atom_site_label
 _atom_site_symmetry_multiplicity
 _atom_site_fract_x
 _atom_site_fract_y
 _atom_site_fract_z
 _atom_site_occupancy
  F  F0  1  0.33333332  0.66666663  0.25000001  1
  As  As1  1  0.66666667  0.33333332  0.75000003  1
  Mn  Mn2  1  0.00000000  0.00000000  0.00000000  1
  O  O3  1  0.00000000  0.00000000  0.50000002  1
  O  O4  1  0.33333332  0.66666663  0.41977002  1
  O  O5  1  0.33333332  0.66666663  0.08023000  1
  F  F6  1  0.66666667  0.33333332  0.91977003  1
  O  O7  1  0.66666667  0.33333332  0.58023002  1
