# generated using pymatgen
data_MgMn3O8
_symmetry_space_group_name_H-M   'P 1'
_cell_length_a   4.86455822
_cell_length_b   5.15218735
_cell_length_c   5.78052711
_cell_angle_alpha   90.00000000
_cell_angle_beta   90.00000000
_cell_angle_gamma   90.92355347
_symmetry_Int_Tables_number   1
_chemical_formula_structural   MgMn3O8
_chemical_formula_sum   'Mg1 Mn3 O8'
_cell_volume   144.85919667
_cell_formula_units_Z   1
loop_
 _symmetry_equiv_pos_site_id
 _symmetry_equiv_pos_as_xyz
  1  'x, y, z'
loop_
 _atom_site_type_symbol
 _atom_site_label
 _atom_site_symmetry_multiplicity
 _atom_site_fract_x
 _atom_site_fract_y
 _atom_site_fract_z
 _atom_site_occupancy
  Mg  Mg0  1  0.49999994  0.75000000  0.31880499  1
  Mn  Mn1  1  0.49999997  0.25000000  0.68119499  1
  Mn  Mn2  1  -0.00000001  0.25000000  0.18385500  1
  Mn  Mn3  1  -0.00000004  0.75000000  0.81614498  1
  O  O4  1  0.78063294  0.56410500  0.10766300  1
  O  O5  1  0.21936694  0.93589499  0.10766300  1
  O  O6  1  0.78063296  0.06410500  0.89233698  1
  O  O7  1  0.26553494  0.90740099  0.61486599  1
  O  O8  1  0.73446496  0.09259900  0.38513399  1
  O  O9  1  0.21936697  0.43589500  0.89233698  1
  O  O10  1  0.26553497  0.40740100  0.38513399  1
  O  O11  1  0.73446494  0.59259900  0.61486599  1
