# generated using pymatgen
data_Cs2KTlHg2PBr2Cl9
_symmetry_space_group_name_H-M   'P 1'
_cell_length_a   6.03400707
_cell_length_b   6.03400707
_cell_length_c   13.53368664
_cell_angle_alpha   90.00000000
_cell_angle_beta   90.00000000
_cell_angle_gamma   90.00000000
_symmetry_Int_Tables_number   1
_chemical_formula_structural   Cs2KTlHg2PBr2Cl9
_chemical_formula_sum   'Cs2 K1 Tl1 Hg2 P1 Br2 Cl9'
_cell_volume   492.75126316
_cell_formula_units_Z   1
loop_
 _symmetry_equiv_pos_site_id
 _symmetry_equiv_pos_as_xyz
  1  'x, y, z'
loop_
 _atom_site_type_symbol
 _atom_site_label
 _atom_site_symmetry_multiplicity
 _atom_site_fract_x
 _atom_site_fract_y
 _atom_site_fract_z
 _atom_site_occupancy
  Cs  Cs0  1  0.26082400  0.26082400  0.00000000  1
  K  K1  1  0.73917599  0.73917599  0.00000000  1
  Cs  Cs2  1  0.73917599  0.26082400  0.50000001  1
  Tl  Tl3  1  0.26082400  0.73917599  0.50000001  1
  Hg  Hg4  1  0.00000000  0.00000000  0.25000001  1
  Hg  Hg5  1  0.00000000  0.00000000  0.75000002  1
  P  P6  1  -0.00000000  0.49999999  0.25000001  1
  Br  Br7  1  -0.00000000  0.49999999  0.75000002  1
  Cl  Cl8  1  0.49999999  0.00000000  0.75000002  1
  Br  Br9  1  0.49999999  0.00000000  0.25000001  1
  Cl  Cl10  1  0.21542100  0.21542100  0.35358801  1
  Cl  Cl11  1  0.78457899  0.78457899  0.64641202  1
  Cl  Cl12  1  0.78457899  0.78457899  0.35358801  1
  Cl  Cl13  1  0.78457899  0.21542100  0.85358802  1
  Cl  Cl14  1  0.78457899  0.21542100  0.14641200  1
  Cl  Cl15  1  0.21542100  0.21542100  0.64641202  1
  Cl  Cl16  1  0.21542100  0.78457899  0.14641200  1
  Cl  Cl17  1  0.21542100  0.78457899  0.85358802  1
