# generated using pymatgen
data_KBa2SnBi3TeS12
_symmetry_space_group_name_H-M   'P 1'
_cell_length_a   3.77447391
_cell_length_b   9.26254272
_cell_length_c   14.19754887
_cell_angle_alpha   90.00000000
_cell_angle_beta   90.00000000
_cell_angle_gamma   90.00000000
_symmetry_Int_Tables_number   1
_chemical_formula_structural   KBa2SnBi3TeS12
_chemical_formula_sum   'K1 Ba2 Sn1 Bi3 Te1 S12'
_cell_volume   496.36371191
_cell_formula_units_Z   1
loop_
 _symmetry_equiv_pos_site_id
 _symmetry_equiv_pos_as_xyz
  1  'x, y, z'
loop_
 _atom_site_type_symbol
 _atom_site_label
 _atom_site_symmetry_multiplicity
 _atom_site_fract_x
 _atom_site_fract_y
 _atom_site_fract_z
 _atom_site_occupancy
  Ba  Ba0  1  0.25000001  0.16256700  0.95174501  1
  Ba  Ba1  1  0.75000002  0.83743302  0.04825500  1
  Sn  Sn2  1  0.25000001  0.66256702  0.54825501  1
  K  K3  1  0.75000002  0.33743301  0.45174500  1
  Bi  Bi4  1  0.25000001  0.53032902  0.17124500  1
  Bi  Bi5  1  0.75000002  0.46967101  0.82875501  1
  Te  Te6  1  0.25000001  0.03032900  0.32875500  1
  Bi  Bi7  1  0.75000002  0.96967103  0.67124501  1
  S  S8  1  0.25000001  0.01040400  0.10338600  1
  S  S9  1  0.75000002  0.98959603  0.89661401  1
  S  S10  1  0.25000001  0.51040402  0.39661400  1
  S  S11  1  0.75000002  0.48959601  0.60338601  1
  S  S12  1  0.25000001  0.17433701  0.50944100  1
  S  S13  1  0.75000002  0.82566302  0.49055900  1
  S  S14  1  0.25000001  0.67433702  0.99055901  1
  S  S15  1  0.75000002  0.32566301  0.00944100  1
  S  S16  1  0.75000002  0.23460301  0.28837300  1
  S  S17  1  0.25000001  0.76539702  0.71162701  1
  S  S18  1  0.75000002  0.73460302  0.21162700  1
  S  S19  1  0.25000001  0.26539701  0.78837301  1
