# generated using pymatgen
data_Na3Li2SiBi2SbAs2P2Se
_symmetry_space_group_name_H-M   'P 1'
_cell_length_a   6.99967194
_cell_length_b   7.12578392
_cell_length_c   9.20113659
_cell_angle_alpha   90.00000000
_cell_angle_beta   72.36482239
_cell_angle_gamma   90.00000000
_symmetry_Int_Tables_number   1
_chemical_formula_structural   Na3Li2SiBi2SbAs2P2Se
_chemical_formula_sum   'Na3 Li2 Si1 Bi2 Sb1 As2 P2 Se1'
_cell_volume   437.36791494
_cell_formula_units_Z   1
loop_
 _symmetry_equiv_pos_site_id
 _symmetry_equiv_pos_as_xyz
  1  'x, y, z'
loop_
 _atom_site_type_symbol
 _atom_site_label
 _atom_site_symmetry_multiplicity
 _atom_site_fract_x
 _atom_site_fract_y
 _atom_site_fract_z
 _atom_site_occupancy
  Na  Na0  1  0.74196101  0.50834201  0.06337400  1
  Na  Na1  1  0.25803900  0.00834200  0.93662603  1
  Na  Na2  1  0.76689601  0.49706501  0.55413402  1
  Li  Li3  1  0.23310400  0.99706501  0.44586601  1
  Li  Li4  1  0.21741000  0.52907001  0.68283102  1
  Si  Si5  1  0.78259001  0.02907000  0.31716901  1
  P  P6  1  0.58167800  0.08226700  0.57457402  1
  Sb  Sb7  1  0.41832200  0.58226701  0.42542601  1
  As  As8  1  0.01258100  0.25516200  0.71639502  1
  Bi  Bi9  1  0.98741901  0.75516201  0.28360501  1
  As  As10  1  0.02892600  0.27214100  0.26947801  1
  Bi  Bi11  1  0.97107401  0.77214101  0.73052203  1
  Se  Se12  1  0.41793700  0.53257401  0.84681303  1
  P  P13  1  0.58206300  0.03257400  0.15318701  1
