# generated using pymatgen
data_Cs2RbCuGeTe2Se4S
_symmetry_space_group_name_H-M   'P 1'
_cell_length_a   6.58854723
_cell_length_b   7.86388159
_cell_length_c   7.86388159
_cell_angle_alpha   108.85475922
_cell_angle_beta   90.00000000
_cell_angle_gamma   90.00000000
_symmetry_Int_Tables_number   1
_chemical_formula_structural   Cs2RbCuGeTe2Se4S
_chemical_formula_sum   'Cs2 Rb1 Cu1 Ge1 Te2 Se4 S1'
_cell_volume   385.57704633
_cell_formula_units_Z   1
loop_
 _symmetry_equiv_pos_site_id
 _symmetry_equiv_pos_as_xyz
  1  'x, y, z'
loop_
 _atom_site_type_symbol
 _atom_site_label
 _atom_site_symmetry_multiplicity
 _atom_site_fract_x
 _atom_site_fract_y
 _atom_site_fract_z
 _atom_site_occupancy
  Rb  Rb0  1  0.74999997  0.00541800  0.31785900  1
  Cs  Cs1  1  0.24999999  0.99458200  0.68214098  1
  Ge  Ge2  1  0.24999999  0.68214100  0.99458199  1
  Cs  Cs3  1  0.74999997  0.31785900  0.00541799  1
  Cu  Cu4  1  0.24999999  0.42179800  0.42179799  1
  Te  Te5  1  0.74999997  0.57820200  0.57820199  1
  Te  Te6  1  0.49999998  0.37353000  0.62646999  1
  Se  Se7  1  0.99999997  0.62647000  0.37352999  1
  Se  Se8  1  0.24999999  0.17689300  0.17689300  1
  S  S9  1  0.74999997  0.82310700  0.82310698  1
  Se  Se10  1  0.99999997  0.37353000  0.62646999  1
  Se  Se11  1  0.49999998  0.62647000  0.37352999  1
