# generated using pymatgen
data_Na2AlSiH6(N2O)2
_symmetry_space_group_name_H-M   'P 1'
_cell_length_a   6.39851856
_cell_length_b   6.39851856
_cell_length_c   6.39851856
_cell_angle_alpha   60.00000000
_cell_angle_beta   60.00000000
_cell_angle_gamma   60.00000000
_symmetry_Int_Tables_number   1
_chemical_formula_structural   Na2AlSiH6(N2O)2
_chemical_formula_sum   'Na2 Al1 Si1 H6 N4 O2'
_cell_volume   185.23510879
_cell_formula_units_Z   1
loop_
 _symmetry_equiv_pos_site_id
 _symmetry_equiv_pos_as_xyz
  1  'x, y, z'
loop_
 _atom_site_type_symbol
 _atom_site_label
 _atom_site_symmetry_multiplicity
 _atom_site_fract_x
 _atom_site_fract_y
 _atom_site_fract_z
 _atom_site_occupancy
  Si  Si0  1  0.87500003  0.87500003  0.37500001  1
  Na  Na1  1  0.87500003  0.87500003  0.87500003  1
  Na  Na2  1  0.87500003  0.37500001  0.87500003  1
  Al  Al3  1  0.37500001  0.87500003  0.87500003  1
  N  N4  1  0.80373002  0.80373002  0.19627001  1
  O  O5  1  0.19627001  0.19627001  0.80373002  1
  H  H6  1  0.80373002  0.19627001  0.19627001  1
  H  H7  1  0.19627001  0.80373002  0.80373002  1
  O  O8  1  0.80373002  0.19627001  0.80373002  1
  H  H9  1  0.19627001  0.80373002  0.19627001  1
  H  H10  1  0.94627003  0.94627003  0.55373002  1
  H  H11  1  0.55373002  0.55373002  0.94627003  1
  N  N12  1  0.94627003  0.55373002  0.55373002  1
  N  N13  1  0.55373002  0.94627003  0.94627003  1
  H  H14  1  0.94627003  0.55373002  0.94627003  1
  N  N15  1  0.55373002  0.94627003  0.55373002  1
