# generated using pymatgen
data_Li2MnCo2MoO8
_symmetry_space_group_name_H-M   'P 1'
_cell_length_a   5.93065453
_cell_length_b   5.94493103
_cell_length_c   5.95104456
_cell_angle_alpha   119.84893799
_cell_angle_beta   119.87181854
_cell_angle_gamma   90.00788879
_symmetry_Int_Tables_number   1
_chemical_formula_structural   Li2MnCo2MoO8
_chemical_formula_sum   'Li2 Mn1 Co2 Mo1 O8'
_cell_volume   148.97761642
_cell_formula_units_Z   1
loop_
 _symmetry_equiv_pos_site_id
 _symmetry_equiv_pos_as_xyz
  1  'x, y, z'
loop_
 _atom_site_type_symbol
 _atom_site_label
 _atom_site_symmetry_multiplicity
 _atom_site_fract_x
 _atom_site_fract_y
 _atom_site_fract_z
 _atom_site_occupancy
  Li  Li0  1  0.13050099  0.38340900  0.26090797  1
  Mo  Mo1  1  0.86950299  0.61658900  0.73909894  1
  Li  Li2  1  0.50000301  0.00000800  0.00000699  1
  Mn  Mn3  1  0.49999699  0.49999200  0.99999296  1
  Co  Co4  1  0.00000196  0.99999899  0.49999993  1
  Co  Co5  1  0.49999797  0.99999899  0.50000092  1
  O  O6  1  0.72709999  0.74573399  0.45448194  1
  O  O7  1  0.26336697  0.79495199  0.52690794  1
  O  O8  1  0.73663301  0.20504900  0.47309297  1
  O  O9  1  0.27289900  0.25426400  0.54551598  1
  O  O10  1  0.71416801  0.23759700  0.98549797  1
  O  O11  1  0.27104200  0.23787900  0.98527098  1
  O  O12  1  0.72895798  0.76212399  0.01472693  1
  O  O13  1  0.28582897  0.76240599  0.01449894  1
