# generated using pymatgen
data_CuP
_symmetry_space_group_name_H-M   'P 1'
_cell_length_a   3.78374457
_cell_length_b   3.78374457
_cell_length_c   3.78374410
_cell_angle_alpha   60.88627625
_cell_angle_beta   60.88627625
_cell_angle_gamma   60.88627243
_symmetry_Int_Tables_number   1
_chemical_formula_structural   CuP
_chemical_formula_sum   'Cu1 P1'
_cell_volume   39.06982056
_cell_formula_units_Z   1
loop_
 _symmetry_equiv_pos_site_id
 _symmetry_equiv_pos_as_xyz
  1  'x, y, z'
loop_
 _atom_site_type_symbol
 _atom_site_label
 _atom_site_symmetry_multiplicity
 _atom_site_fract_x
 _atom_site_fract_y
 _atom_site_fract_z
 _atom_site_occupancy
  P  P0  1  0.01270600  0.01270600  0.01270600  1
  Cu  Cu1  1  0.75429399  0.75429401  0.75429404  1
