# generated using pymatgen
data_NaCdAgTeSe3
_symmetry_space_group_name_H-M   'P 1'
_cell_length_a   6.05460024
_cell_length_b   6.05460024
_cell_length_c   7.71059561
_cell_angle_alpha   113.11734772
_cell_angle_beta   113.11734772
_cell_angle_gamma   90.00000000
_symmetry_Int_Tables_number   1
_chemical_formula_structural   NaCdAgTeSe3
_chemical_formula_sum   'Na1 Cd1 Ag1 Te1 Se3'
_cell_volume   235.08214285
_cell_formula_units_Z   1
loop_
 _symmetry_equiv_pos_site_id
 _symmetry_equiv_pos_as_xyz
  1  'x, y, z'
loop_
 _atom_site_type_symbol
 _atom_site_label
 _atom_site_symmetry_multiplicity
 _atom_site_fract_x
 _atom_site_fract_y
 _atom_site_fract_z
 _atom_site_occupancy
  Na  Na0  1  0.74999998  0.24999999  0.50000003  1
  Cd  Cd1  1  0.25000001  0.74999998  0.50000003  1
  Te  Te2  1  0.00000000  0.00000000  0.00000000  1
  Ag  Ag3  1  0.84453499  0.84453498  0.24855704  1
  Se  Se4  1  0.40402200  0.40402199  0.24855702  1
  Se  Se5  1  0.15546501  0.59597798  0.75144303  1
  Se  Se6  1  0.59597799  0.15546500  0.75144303  1
