# generated using pymatgen
data_CsBaAgTePSe2
_symmetry_space_group_name_H-M   'P 1'
_cell_length_a   5.00987577
_cell_length_b   5.00987577
_cell_length_c   9.40097618
_cell_angle_alpha   105.45343018
_cell_angle_beta   105.45343018
_cell_angle_gamma   90.00000000
_symmetry_Int_Tables_number   1
_chemical_formula_structural   CsBaAgTePSe2
_chemical_formula_sum   'Cs1 Ba1 Ag1 Te1 P1 Se2'
_cell_volume   218.56034810
_cell_formula_units_Z   1
loop_
 _symmetry_equiv_pos_site_id
 _symmetry_equiv_pos_as_xyz
  1  'x, y, z'
loop_
 _atom_site_type_symbol
 _atom_site_label
 _atom_site_symmetry_multiplicity
 _atom_site_fract_x
 _atom_site_fract_y
 _atom_site_fract_z
 _atom_site_occupancy
  Ba  Ba0  1  0.83150400  0.83150402  0.66300791  1
  Cs  Cs1  1  0.49999998  1.00000003  0.99999990  1
  Ag  Ag2  1  1.00000001  0.50000001  0.99999990  1
  Te  Te3  1  0.16849600  0.16849600  0.33699197  1
  Se  Se4  1  0.36216400  0.36216401  0.72432794  1
  P  P5  1  0.63783600  0.63783602  0.27567194  1
  Se  Se6  1  0.00000000  0.00000000  0.00000000  1
