# generated using pymatgen
data_Na4SrCa2N4O
_symmetry_space_group_name_H-M   'P 1'
_cell_length_a   3.98619509
_cell_length_b   5.49300480
_cell_length_c   10.29696274
_cell_angle_alpha   90.00000000
_cell_angle_beta   90.00000000
_cell_angle_gamma   90.00000000
_symmetry_Int_Tables_number   1
_chemical_formula_structural   Na4SrCa2N4O
_chemical_formula_sum   'Na4 Sr1 Ca2 N4 O1'
_cell_volume   225.46423961
_cell_formula_units_Z   1
loop_
 _symmetry_equiv_pos_site_id
 _symmetry_equiv_pos_as_xyz
  1  'x, y, z'
loop_
 _atom_site_type_symbol
 _atom_site_label
 _atom_site_symmetry_multiplicity
 _atom_site_fract_x
 _atom_site_fract_y
 _atom_site_fract_z
 _atom_site_occupancy
  Na  Na0  1  0.00000000  0.00000000  0.50000001  1
  Na  Na1  1  0.49999999  0.50000002  0.00000000  1
  Na  Na2  1  0.49999999  0.90129803  0.23375401  1
  Sr  Sr3  1  0.49999999  0.09870200  0.76624602  1
  Ca  Ca4  1  -0.00000000  0.40129801  0.26624601  1
  Na  Na5  1  -0.00000000  0.59870202  0.73375402  1
  N  N6  1  0.00000000  0.00000000  0.00000000  1
  Ca  Ca7  1  0.49999999  0.50000002  0.50000001  1
  N  N8  1  0.49999999  0.74985003  0.64694902  1
  N  N9  1  -0.00000000  0.24985001  0.85305102  1
  N  N10  1  -0.00000000  0.75015003  0.14694900  1
  O  O11  1  0.49999999  0.25015001  0.35305101  1
