# generated using pymatgen
data_KBaInAgTeSe3
_symmetry_space_group_name_H-M   'P 1'
_cell_length_a   7.25001240
_cell_length_b   7.25001240
_cell_length_c   7.25001240
_cell_angle_alpha   105.39790344
_cell_angle_beta   105.39790344
_cell_angle_gamma   117.96670532
_symmetry_Int_Tables_number   1
_chemical_formula_structural   KBaInAgTeSe3
_chemical_formula_sum   'K1 Ba1 In1 Ag1 Te1 Se3'
_cell_volume   288.45295672
_cell_formula_units_Z   1
loop_
 _symmetry_equiv_pos_site_id
 _symmetry_equiv_pos_as_xyz
  1  'x, y, z'
loop_
 _atom_site_type_symbol
 _atom_site_label
 _atom_site_symmetry_multiplicity
 _atom_site_fract_x
 _atom_site_fract_y
 _atom_site_fract_z
 _atom_site_occupancy
  Ba  Ba0  1  0.50000009  1.00000005  0.50000007  1
  K  K1  1  0.00000004  0.50000003  0.50000003  1
  In  In2  1  0.00000000  0.00000000  0.00000000  1
  Ag  Ag3  1  0.50000004  0.50000003  1.00000004  1
  Te  Te4  1  0.41319304  0.41319302  0.35074804  1
  Se  Se5  1  0.06244501  0.06244500  0.64925200  1
  Se  Se6  1  0.93755505  0.58680703  1.00000006  1
  Se  Se7  1  0.58680708  0.93755505  1.00000007  1
