# generated using pymatgen
data_LuMgSc2Ag3MoS8
_symmetry_space_group_name_H-M   'P 1'
_cell_length_a   4.03449106
_cell_length_b   6.45669079
_cell_length_c   14.92857647
_cell_angle_alpha   90.00000000
_cell_angle_beta   90.00000000
_cell_angle_gamma   90.00000000
_symmetry_Int_Tables_number   1
_chemical_formula_structural   LuMgSc2Ag3MoS8
_chemical_formula_sum   'Lu1 Mg1 Sc2 Ag3 Mo1 S8'
_cell_volume   388.88137465
_cell_formula_units_Z   1
loop_
 _symmetry_equiv_pos_site_id
 _symmetry_equiv_pos_as_xyz
  1  'x, y, z'
loop_
 _atom_site_type_symbol
 _atom_site_label
 _atom_site_symmetry_multiplicity
 _atom_site_fract_x
 _atom_site_fract_y
 _atom_site_fract_z
 _atom_site_occupancy
  Mg  Mg0  1  0.74999999  0.25148901  0.67012298  1
  Ag  Ag1  1  0.25000000  0.74851102  0.32987699  1
  Sc  Sc2  1  0.74999999  0.75148902  0.82987697  1
  Ag  Ag3  1  0.25000000  0.24851101  0.17012299  1
  Lu  Lu4  1  0.74999999  0.27211501  0.44262299  1
  Sc  Sc5  1  0.25000000  0.22788501  0.94262297  1
  Ag  Ag6  1  0.74999999  0.77211503  0.05737700  1
  Mo  Mo7  1  0.25000000  0.72788502  0.55737698  1
  S  S8  1  0.25000000  0.87569003  0.17579499  1
  S  S9  1  0.74999999  0.87325703  0.40367299  1
  S  S10  1  0.74999999  0.12431000  0.82420497  1
  S  S11  1  0.25000000  0.37569001  0.32420499  1
  S  S12  1  0.74999999  0.37325701  0.09632700  1
  S  S13  1  0.25000000  0.12674300  0.59632698  1
  S  S14  1  0.25000000  0.62674302  0.90367297  1
  S  S15  1  0.74999999  0.62431002  0.67579498  1
