# generated using pymatgen
data_LiSi2BO8
_symmetry_space_group_name_H-M   'P 1'
_cell_length_a   5.23162794
_cell_length_b   5.23162794
_cell_length_c   5.23162794
_cell_angle_alpha   106.20072174
_cell_angle_beta   106.20072174
_cell_angle_gamma   116.23115540
_symmetry_Int_Tables_number   1
_chemical_formula_structural   LiSi2BO8
_chemical_formula_sum   'Li1 Si2 B1 O8'
_cell_volume   109.06325181
_cell_formula_units_Z   1
loop_
 _symmetry_equiv_pos_site_id
 _symmetry_equiv_pos_as_xyz
  1  'x, y, z'
loop_
 _atom_site_type_symbol
 _atom_site_label
 _atom_site_symmetry_multiplicity
 _atom_site_fract_x
 _atom_site_fract_y
 _atom_site_fract_z
 _atom_site_occupancy
  Li  Li0  1  0.00000000  0.00000000  0.00000000  1
  Si  Si1  1  0.75000002  0.25000001  0.50000007  1
  B  B2  1  0.50000002  0.50000002  1.00000007  1
  Si  Si3  1  0.25000003  0.75000002  0.50000008  1
  O  O4  1  0.67578703  0.49788402  0.82209708  1
  O  O5  1  0.24788403  0.92578703  0.32209709  1
  O  O6  1  0.50211602  0.32421301  0.17790306  1
  O  O7  1  0.07421303  0.75211602  0.67790306  1
  O  O8  1  0.07421301  0.39631001  0.32209704  1
  O  O9  1  0.14631001  0.32421301  0.82209703  1
  O  O10  1  0.67578704  0.85369003  0.17790311  1
  O  O11  1  0.60369004  0.92578703  0.67790311  1
