# generated using pymatgen
data_Li4Co(NiO6)2
_symmetry_space_group_name_H-M   'P 1'
_cell_length_a   5.95624924
_cell_length_b   5.97361469
_cell_length_c   6.08676338
_cell_angle_alpha   99.09554291
_cell_angle_beta   99.68698120
_cell_angle_gamma   99.65221405
_symmetry_Int_Tables_number   1
_chemical_formula_structural   Li4Co(NiO6)2
_chemical_formula_sum   'Li4 Co1 Ni2 O12'
_cell_volume   206.55572327
_cell_formula_units_Z   1
loop_
 _symmetry_equiv_pos_site_id
 _symmetry_equiv_pos_as_xyz
  1  'x, y, z'
loop_
 _atom_site_type_symbol
 _atom_site_label
 _atom_site_symmetry_multiplicity
 _atom_site_fract_x
 _atom_site_fract_y
 _atom_site_fract_z
 _atom_site_occupancy
  Li  Li0  1  0.01579807  0.99190399  0.00742007  1
  Li  Li1  1  0.86385300  0.67055000  0.39123602  1
  Li  Li2  1  0.29046003  0.59278500  0.11420203  1
  Li  Li3  1  0.67090799  0.40483800  0.84228102  1
  Ni  Ni4  1  0.14015901  0.32662300  0.61097203  1
  Ni  Ni5  1  0.60706898  0.14909300  0.33617699  1
  Co  Co6  1  0.39647504  0.85381099  0.67502506  1
  O  O7  1  0.41296099  0.17084300  0.57219201  1
  O  O8  1  0.41237202  0.57596100  0.79866704  1
  O  O9  1  0.81922299  0.40673800  0.58142001  1
  O  O10  1  0.66461297  0.07436300  0.91462300  1
  O  O11  1  0.08655302  0.31171200  0.92684204  1
  O  O12  1  0.94342796  0.11281800  0.31332897  1
  O  O13  1  0.18633003  0.58326400  0.41178304  1
  O  O14  1  0.08303006  0.90755199  0.69254708  1
  O  O15  1  0.55898200  0.40981500  0.17281601  1
  O  O16  1  0.62417003  0.84440099  0.46640704  1
  O  O17  1  0.88653900  0.67630200  0.04835401  1
  O  O18  1  0.33707705  0.93662799  0.12370805  1
