# generated using pymatgen
data_K3Ag4SeS10
_symmetry_space_group_name_H-M   'P 1'
_cell_length_a   6.41681004
_cell_length_b   8.20388222
_cell_length_c   8.20388222
_cell_angle_alpha   75.55015564
_cell_angle_beta   89.85202026
_cell_angle_gamma   89.85202026
_symmetry_Int_Tables_number   1
_chemical_formula_structural   K3Ag4SeS10
_chemical_formula_sum   'K3 Ag4 Se1 S10'
_cell_volume   418.21097970
_cell_formula_units_Z   1
loop_
 _symmetry_equiv_pos_site_id
 _symmetry_equiv_pos_as_xyz
  1  'x, y, z'
loop_
 _atom_site_type_symbol
 _atom_site_label
 _atom_site_symmetry_multiplicity
 _atom_site_fract_x
 _atom_site_fract_y
 _atom_site_fract_z
 _atom_site_occupancy
  K  K0  1  0.97005002  0.55709398  0.19429898  1
  K  K1  1  0.52995000  0.80570098  0.44290598  1
  K  K2  1  0.02994999  0.44290599  0.80570098  1
  Ag  Ag3  1  0.47005001  0.19429899  0.55709398  1
  Ag  Ag4  1  0.92662802  0.91279897  0.75854797  1
  Ag  Ag5  1  0.57337202  0.24145199  0.08720099  1
  Ag  Ag6  1  0.07337200  0.08720100  0.24145199  1
  Se  Se7  1  0.42662800  0.75854798  0.91279897  1
  S  S8  1  0.75000001  0.90157697  0.09842299  1
  S  S9  1  0.25000001  0.09842300  0.90157697  1
  S  S10  1  0.96652103  0.25567499  0.51415597  1
  S  S11  1  0.53347901  0.48584399  0.74432497  1
  S  S12  1  0.03347899  0.74432498  0.48584399  1
  S  S13  1  0.46652101  0.51415598  0.25567499  1
  S  S14  1  0.91366803  0.33204799  0.08053298  1
  S  S15  1  0.58633200  0.91946697  0.66795197  1
  S  S16  1  0.08633199  0.66795198  0.91946697  1
  S  S17  1  0.41366801  0.08053300  0.33204798  1
