# generated using pymatgen
data_Na4BiPbNO5
_symmetry_space_group_name_H-M   'P 1'
_cell_length_a   3.99982190
_cell_length_b   3.99982357
_cell_length_c   12.49101257
_cell_angle_alpha   80.78903961
_cell_angle_beta   80.78517151
_cell_angle_gamma   90.00154114
_symmetry_Int_Tables_number   1
_chemical_formula_structural   Na4BiPbNO5
_chemical_formula_sum   'Na4 Bi1 Pb1 N1 O5'
_cell_volume   194.64847913
_cell_formula_units_Z   1
loop_
 _symmetry_equiv_pos_site_id
 _symmetry_equiv_pos_as_xyz
  1  'x, y, z'
loop_
 _atom_site_type_symbol
 _atom_site_label
 _atom_site_symmetry_multiplicity
 _atom_site_fract_x
 _atom_site_fract_y
 _atom_site_fract_z
 _atom_site_occupancy
  Na  Na0  1  0.34463398  0.34469100  0.31067602  1
  Na  Na1  1  0.65536495  0.65530800  0.68932703  1
  Na  Na2  1  0.49999796  0.49999800  0.00000201  1
  Na  Na3  1  0.07898499  0.07900100  0.84201303  1
  Bi  Bi4  1  0.92101693  0.92100301  0.15798002  1
  O  O5  1  0.79715794  0.79721501  0.40562803  1
  Pb  Pb6  1  0.20283999  0.20278300  0.59437702  1
  N  N7  1  0.59000598  0.09012700  0.81989103  1
  O  O8  1  0.08998197  0.59010200  0.81989103  1
  O  O9  1  0.40999295  0.90987301  0.18011002  1
  O  O10  1  0.00000200  0.00000100  0.99999703  1
  O  O11  1  0.91001796  0.40989700  0.18011002  1
