# generated using pymatgen
data_BaCaLaNdSN2O5
_symmetry_space_group_name_H-M   'P 1'
_cell_length_a   4.07808781
_cell_length_b   4.07808828
_cell_length_c   16.81841469
_cell_angle_alpha   90.00000000
_cell_angle_beta   90.00000000
_cell_angle_gamma   120.00000000
_symmetry_Int_Tables_number   1
_chemical_formula_structural   BaCaLaNdSN2O5
_chemical_formula_sum   'Ba1 Ca1 La1 Nd1 S1 N2 O5'
_cell_volume   242.23053258
_cell_formula_units_Z   1
loop_
 _symmetry_equiv_pos_site_id
 _symmetry_equiv_pos_as_xyz
  1  'x, y, z'
loop_
 _atom_site_type_symbol
 _atom_site_label
 _atom_site_symmetry_multiplicity
 _atom_site_fract_x
 _atom_site_fract_y
 _atom_site_fract_z
 _atom_site_occupancy
  Ba  Ba0  1  0.33333337  0.66666666  0.25000000  1
  Ca  Ca1  1  0.66666671  0.33333333  0.75000001  1
  Nd  Nd2  1  0.00000000  0.00000000  0.50000001  1
  La  La3  1  0.00000000  0.00000000  0.00000000  1
  O  O4  1  0.33333337  0.66666666  0.41449701  1
  O  O5  1  0.33333337  0.66666666  0.08550300  1
  N  N6  1  0.66666671  0.33333333  0.58550301  1
  N  N7  1  0.66666671  0.33333333  0.91449702  1
  O  O8  1  0.66666671  0.33333333  0.25000000  1
  O  O9  1  0.00000000  0.00000000  0.25000000  1
  S  S10  1  0.00000000  0.00000000  0.75000001  1
  O  O11  1  0.33333337  0.66666666  0.75000001  1
