# generated using pymatgen
data_RbBa2NaH2N
_symmetry_space_group_name_H-M   'P 1'
_cell_length_a   4.76435184
_cell_length_b   4.76435184
_cell_length_c   9.00142670
_cell_angle_alpha   105.34581757
_cell_angle_beta   105.34581757
_cell_angle_gamma   90.00000000
_symmetry_Int_Tables_number   1
_chemical_formula_structural   RbBa2NaH2N
_chemical_formula_sum   'Rb1 Ba2 Na1 H2 N1'
_cell_volume   189.47405240
_cell_formula_units_Z   1
loop_
 _symmetry_equiv_pos_site_id
 _symmetry_equiv_pos_as_xyz
  1  'x, y, z'
loop_
 _atom_site_type_symbol
 _atom_site_label
 _atom_site_symmetry_multiplicity
 _atom_site_fract_x
 _atom_site_fract_y
 _atom_site_fract_z
 _atom_site_occupancy
  Ba  Ba0  1  0.33562502  0.33562501  0.67125005  1
  Ba  Ba1  1  0.50000004  1.00000004  0.00000003  1
  Rb  Rb2  1  0.66437504  0.66437503  0.32875004  1
  Na  Na3  1  1.00000005  0.50000002  1.00000008  1
  H  H4  1  0.14049901  0.14049901  0.28099802  1
  H  H5  1  0.85950105  0.85950104  0.71900207  1
  N  N6  1  0.50000003  0.50000002  0.00000002  1
