# generated using pymatgen
data_Na2LiMn(NO3)2
_symmetry_space_group_name_H-M   'P 1'
_cell_length_a   5.45708418
_cell_length_b   5.45708418
_cell_length_c   6.58152390
_cell_angle_alpha   90.00000000
_cell_angle_beta   90.00000000
_cell_angle_gamma   90.00000000
_symmetry_Int_Tables_number   1
_chemical_formula_structural   Na2LiMn(NO3)2
_chemical_formula_sum   'Na2 Li1 Mn1 N2 O6'
_cell_volume   195.99625295
_cell_formula_units_Z   1
loop_
 _symmetry_equiv_pos_site_id
 _symmetry_equiv_pos_as_xyz
  1  'x, y, z'
loop_
 _atom_site_type_symbol
 _atom_site_label
 _atom_site_symmetry_multiplicity
 _atom_site_fract_x
 _atom_site_fract_y
 _atom_site_fract_z
 _atom_site_occupancy
  Na  Na0  1  0.49999998  0.00000000  0.50000001  1
  Na  Na1  1  -0.00000000  0.49999998  0.50000001  1
  Mn  Mn2  1  0.49999998  0.49999998  0.00000000  1
  Li  Li3  1  0.00000000  0.00000000  0.00000000  1
  O  O4  1  0.49999998  0.49999998  0.29072400  1
  O  O5  1  0.00000000  0.00000000  0.70927601  1
  O  O6  1  0.49999998  0.49999998  0.70927601  1
  O  O7  1  0.00000000  0.00000000  0.29072400  1
  N  N8  1  0.31100599  0.81100597  0.00000000  1
  N  N9  1  0.18899399  0.31100599  0.00000000  1
  O  O10  1  0.81100597  0.68899398  0.00000000  1
  O  O11  1  0.68899398  0.18899399  0.00000000  1
