# generated using pymatgen
data_BaNa2LaAgBiSb2S3N
_symmetry_space_group_name_H-M   'P 1'
_cell_length_a   4.60743999
_cell_length_b   7.73508692
_cell_length_c   8.36928654
_cell_angle_alpha   90.00000000
_cell_angle_beta   90.00000000
_cell_angle_gamma   90.00000000
_symmetry_Int_Tables_number   1
_chemical_formula_structural   BaNa2LaAgBiSb2S3N
_chemical_formula_sum   'Ba1 Na2 La1 Ag1 Bi1 Sb2 S3 N1'
_cell_volume   298.27257463
_cell_formula_units_Z   1
loop_
 _symmetry_equiv_pos_site_id
 _symmetry_equiv_pos_as_xyz
  1  'x, y, z'
loop_
 _atom_site_type_symbol
 _atom_site_label
 _atom_site_symmetry_multiplicity
 _atom_site_fract_x
 _atom_site_fract_y
 _atom_site_fract_z
 _atom_site_occupancy
  Na  Na0  1  0.75000000  0.48464701  0.31526002  1
  Ba  Ba1  1  0.25000000  0.01535300  0.81526005  1
  Na  Na2  1  0.75000000  0.98464701  0.18474001  1
  La  La3  1  0.25000000  0.51535301  0.68474004  1
  Bi  Bi4  1  0.25000000  0.64229201  0.07108300  1
  Ag  Ag5  1  0.25000000  0.14229200  0.42891702  1
  Sb  Sb6  1  0.75000000  0.35770800  0.92891705  1
  Sb  Sb7  1  0.75000000  0.85770801  0.57108303  1
  S  S8  1  0.25000000  0.77509901  0.39174602  1
  S  S9  1  0.25000000  0.27509900  0.10825401  1
  N  N10  1  0.75000000  0.72490101  0.89174605  1
  S  S11  1  0.75000000  0.22490100  0.60825403  1
