# generated using pymatgen
data_CsK2RbCu2BPO11
_symmetry_space_group_name_H-M   'P 1'
_cell_length_a   5.70798397
_cell_length_b   8.06972790
_cell_length_c   8.06972790
_cell_angle_alpha   90.00000000
_cell_angle_beta   90.00000000
_cell_angle_gamma   90.00000000
_symmetry_Int_Tables_number   1
_chemical_formula_structural   CsK2RbCu2BPO11
_chemical_formula_sum   'Cs1 Rb1 K2 Cu2 B1 P1 O11'
_cell_volume   371.70681778
_cell_formula_units_Z   1
loop_
 _symmetry_equiv_pos_site_id
 _symmetry_equiv_pos_as_xyz
  1  'x, y, z'
loop_
 _atom_site_type_symbol
 _atom_site_label
 _atom_site_symmetry_multiplicity
 _atom_site_fract_x
 _atom_site_fract_y
 _atom_site_fract_z
 _atom_site_occupancy
  Cs  Cs0  1  0.50000000  0.00000000  0.50000001  1
  Rb  Rb1  1  0.50000000  0.50000001  0.00000000  1
  K  K2  1  0.50000000  0.50000001  0.50000001  1
  K  K3  1  -0.00000000  0.22240200  0.22240200  1
  Cu  Cu4  1  -0.00000000  0.77759801  0.22240200  1
  B  B5  1  -0.00000000  0.22240200  0.77759801  1
  Cu  Cu6  1  -0.00000000  0.77759801  0.77759801  1
  P  P7  1  0.75841500  0.69393001  0.69393001  1
  O  O8  1  0.75841500  0.30607000  0.30607000  1
  O  O9  1  0.75841500  0.69393001  0.30607000  1
  O  O10  1  0.75841500  0.30607000  0.69393001  1
  O  O11  1  0.24158500  0.30607000  0.69393001  1
  O  O12  1  0.24158500  0.30607000  0.30607000  1
  O  O13  1  0.24158500  0.69393001  0.69393001  1
  O  O14  1  0.24158500  0.69393001  0.30607000  1
  O  O15  1  1.00000001  0.26201200  0.00000000  1
  O  O16  1  0.00000000  0.00000000  0.26201200  1
  O  O17  1  0.00000000  0.00000000  0.73798801  1
  O  O18  1  -0.00000000  0.73798801  0.00000000  1
