# generated using pymatgen
data_Li3MnCo3O11
_symmetry_space_group_name_H-M   'P 1'
_cell_length_a   4.67742538
_cell_length_b   4.70493555
_cell_length_c   9.18194866
_cell_angle_alpha   88.89772034
_cell_angle_beta   90.46668243
_cell_angle_gamma   90.16534424
_symmetry_Int_Tables_number   1
_chemical_formula_structural   Li3MnCo3O11
_chemical_formula_sum   'Li3 Mn1 Co3 O11'
_cell_volume   202.02215897
_cell_formula_units_Z   1
loop_
 _symmetry_equiv_pos_site_id
 _symmetry_equiv_pos_as_xyz
  1  'x, y, z'
loop_
 _atom_site_type_symbol
 _atom_site_label
 _atom_site_symmetry_multiplicity
 _atom_site_fract_x
 _atom_site_fract_y
 _atom_site_fract_z
 _atom_site_occupancy
  Li  Li0  1  0.99878704  0.99708002  0.99932301  1
  Li  Li1  1  0.50014502  0.49862701  0.49970000  1
  Li  Li2  1  0.53122202  0.45815001  0.15471899  1
  Mn  Mn3  1  0.97651904  0.96445702  0.65387400  1
  Co  Co4  1  0.03141100  0.02405600  0.34162101  1
  Co  Co5  1  0.47550302  0.53272701  0.83795802  1
  Co  Co6  1  0.80852300  0.19422100  0.51352800  1
  O  O7  1  0.30305601  0.30726701  0.00433999  1
  O  O8  1  0.68948003  0.70523901  0.00627898  1
  O  O9  1  0.19358804  0.79637701  0.50318501  1
  O  O10  1  0.80944900  0.19802600  0.16922198  1
  O  O11  1  0.32293601  0.31380501  0.32814800  1
  O  O12  1  0.68755103  0.68868401  0.66705701  1
  O  O13  1  0.17240904  0.82268901  0.82530403  1
  O  O14  1  0.78141900  0.20300200  0.82955601  1
  O  O15  1  0.28846601  0.29607601  0.66843102  1
  O  O16  1  0.71178003  0.70301701  0.32657099  1
  O  O17  1  0.21775604  0.79650201  0.17118300  1
