# generated using pymatgen
data_Li2O2
_symmetry_space_group_name_H-M   'P 1'
_cell_length_a   5.30921745
_cell_length_b   5.30921745
_cell_length_c   5.30921745
_cell_angle_alpha   86.97488403
_cell_angle_beta   61.73091125
_cell_angle_gamma   118.26908875
_symmetry_Int_Tables_number   1
_chemical_formula_structural   Li2O2
_chemical_formula_sum   'Li4 O4'
_cell_volume   108.42725589
_cell_formula_units_Z   2
loop_
 _symmetry_equiv_pos_site_id
 _symmetry_equiv_pos_as_xyz
  1  'x, y, z'
loop_
 _atom_site_type_symbol
 _atom_site_label
 _atom_site_symmetry_multiplicity
 _atom_site_fract_x
 _atom_site_fract_y
 _atom_site_fract_z
 _atom_site_occupancy
  Li  Li0  1  0.49999995  0.74999999  0.75000006  1
  Li  Li1  1  0.99999997  0.49999999  0.50000006  1
  Li  Li2  1  0.00000000  0.00000000  0.00000000  1
  Li  Li3  1  0.49999998  0.25000000  0.25000003  1
  O  O4  1  0.57795596  0.62499999  0.29704405  1
  O  O5  1  0.92204398  0.29704399  0.12500004  1
  O  O6  1  0.42204399  0.12500000  0.95295603  1
  O  O7  1  0.07795594  0.95295598  0.62500005  1
