# generated using pymatgen
data_Li2MgMn4VO12
_symmetry_space_group_name_H-M   'P 1'
_cell_length_a   5.13076925
_cell_length_b   5.55420685
_cell_length_c   8.95446205
_cell_angle_alpha   73.77782440
_cell_angle_beta   89.46683502
_cell_angle_gamma   64.41841125
_symmetry_Int_Tables_number   1
_chemical_formula_structural   Li2MgMn4VO12
_chemical_formula_sum   'Li2 Mg1 Mn4 V1 O12'
_cell_volume   219.16653432
_cell_formula_units_Z   1
loop_
 _symmetry_equiv_pos_site_id
 _symmetry_equiv_pos_as_xyz
  1  'x, y, z'
loop_
 _atom_site_type_symbol
 _atom_site_label
 _atom_site_symmetry_multiplicity
 _atom_site_fract_x
 _atom_site_fract_y
 _atom_site_fract_z
 _atom_site_occupancy
  Mg  Mg0  1  0.71651402  0.56347701  0.57222800  1
  V  V1  1  0.21628600  0.56387601  0.07216900  1
  Li  Li2  1  0.78375002  0.43609101  0.92782699  1
  Li  Li3  1  0.28347701  0.43654501  0.42776199  1
  Mn  Mn4  1  0.03231000  0.93523602  0.67629497  1
  Mn  Mn5  1  0.96766703  0.06480200  0.32371002  1
  Mn  Mn6  1  0.53215201  0.93546002  0.17624701  1
  Mn  Mn7  1  0.46779801  0.06453300  0.82374199  1
  O  O8  1  0.22648800  0.26577401  0.28304800  1
  O  O9  1  0.72657602  0.26534901  0.78315400  1
  O  O10  1  0.68748402  0.27039801  0.47437501  1
  O  O11  1  0.18765300  0.27070901  0.97438897  1
  O  O12  1  0.66617902  0.26076801  0.10972702  1
  O  O13  1  0.16626800  0.26074301  0.60965098  1
  O  O14  1  0.27338700  0.73465701  0.21685600  1
  O  O15  1  0.77354602  0.73421501  0.71695600  1
  O  O16  1  0.81239302  0.72927201  0.02560602  1
  O  O17  1  0.31249900  0.72960501  0.52562999  1
  O  O18  1  0.83370702  0.73926401  0.39034601  1
  O  O19  1  0.33386300  0.73922401  0.89028298  1
