# generated using pymatgen
data_MnAlZnSi4P5
_symmetry_space_group_name_H-M   'P 1'
_cell_length_a   6.06412697
_cell_length_b   6.06412697
_cell_length_c   6.06412697
_cell_angle_alpha   90.00000000
_cell_angle_beta   90.00000000
_cell_angle_gamma   90.00000000
_symmetry_Int_Tables_number   1
_chemical_formula_structural   MnAlZnSi4P5
_chemical_formula_sum   'Mn1 Al1 Zn1 Si4 P5'
_cell_volume   222.99999712
_cell_formula_units_Z   1
loop_
 _symmetry_equiv_pos_site_id
 _symmetry_equiv_pos_as_xyz
  1  'x, y, z'
loop_
 _atom_site_type_symbol
 _atom_site_label
 _atom_site_symmetry_multiplicity
 _atom_site_fract_x
 _atom_site_fract_y
 _atom_site_fract_z
 _atom_site_occupancy
  Mn  Mn0  1  0.38332300  0.38332300  0.38332300  1
  Zn  Zn1  1  0.11667700  0.61667700  0.88332300  1
  Si  Si2  1  0.88332300  0.11667700  0.61667700  1
  Si  Si3  1  0.61667700  0.88332300  0.11667700  1
  P  P4  1  0.61667700  0.61667700  0.61667700  1
  Si  Si5  1  0.88332300  0.38332300  0.11667700  1
  P  P6  1  0.11667700  0.88332300  0.38332300  1
  Si  Si7  1  0.38332300  0.11667700  0.88332300  1
  Al  Al8  1  0.00000000  0.00000000  0.00000000  1
  P  P9  1  0.50000000  0.00000000  0.50000000  1
  P  P10  1  0.50000000  0.50000000  0.00000000  1
  P  P11  1  -0.00000000  0.50000000  0.50000000  1
