# generated using pymatgen
data_LiMnH5N
_symmetry_space_group_name_H-M   'P 1'
_cell_length_a   5.10515928
_cell_length_b   5.10515928
_cell_length_c   5.39679146
_cell_angle_alpha   93.24742126
_cell_angle_beta   116.16551971
_cell_angle_gamma   118.29166412
_symmetry_Int_Tables_number   1
_chemical_formula_structural   LiMnH5N
_chemical_formula_sum   'Li1 Mn1 H5 N1'
_cell_volume   104.69313251
_cell_formula_units_Z   1
loop_
 _symmetry_equiv_pos_site_id
 _symmetry_equiv_pos_as_xyz
  1  'x, y, z'
loop_
 _atom_site_type_symbol
 _atom_site_label
 _atom_site_symmetry_multiplicity
 _atom_site_fract_x
 _atom_site_fract_y
 _atom_site_fract_z
 _atom_site_occupancy
  Li  Li0  1  0.89778198  0.68832599  0.14939794  1
  Mn  Mn1  1  0.96107202  0.25161600  0.64939798  1
  H  H2  1  0.08641799  0.09584300  0.41085899  1
  H  H3  1  0.78510099  0.46194700  0.40184596  1
  H  H4  1  0.81501601  0.32444100  0.91085897  1
  H  H5  1  0.43989896  0.61674500  0.90184594  1
  N  N6  1  0.44281694  0.84478399  0.40154492  1
  H  H7  1  0.05676091  0.95872799  0.90154490  1
