# generated using pymatgen
data_TeMo3(SeS)4
_symmetry_space_group_name_H-M   'P 1'
_cell_length_a   3.28692603
_cell_length_b   3.28692651
_cell_length_c   37.38653183
_cell_angle_alpha   90.00000000
_cell_angle_beta   90.00000000
_cell_angle_gamma   119.99999237
_symmetry_Int_Tables_number   1
_chemical_formula_structural   TeMo3(SeS)4
_chemical_formula_sum   'Te1 Mo3 Se4 S4'
_cell_volume   349.80480388
_cell_formula_units_Z   1
loop_
 _symmetry_equiv_pos_site_id
 _symmetry_equiv_pos_as_xyz
  1  'x, y, z'
loop_
 _atom_site_type_symbol
 _atom_site_label
 _atom_site_symmetry_multiplicity
 _atom_site_fract_x
 _atom_site_fract_y
 _atom_site_fract_z
 _atom_site_occupancy
  Mo  Mo0  1  0.00000000  0.00000000  0.90607296  1
  Te  Te1  1  0.00000000  0.00000000  0.53034997  1
  Mo  Mo2  1  0.66666664  0.33333332  0.71819996  1
  Mo  Mo3  1  0.66666664  0.33333332  0.34245798  1
  S  S4  1  0.00000000  0.00000000  0.29707799  1
  Se  Se5  1  0.66666664  0.33333332  0.95117695  1
  Se  Se6  1  0.66666664  0.33333332  0.57572297  1
  Se  Se7  1  0.66666664  0.33333332  0.86096796  1
  Se  Se8  1  0.66666664  0.33333332  0.48497298  1
  S  S9  1  0.00000000  0.00000000  0.38784898  1
  S  S10  1  0.00000000  0.00000000  0.67697097  1
  S  S11  1  0.00000000  0.00000000  0.75942996  1
