# generated using pymatgen
data_KBaZn2P3S12O
_symmetry_space_group_name_H-M   'P 1'
_cell_length_a   5.70355320
_cell_length_b   5.82929516
_cell_length_c   11.85341072
_cell_angle_alpha   90.00000000
_cell_angle_beta   90.00000000
_cell_angle_gamma   90.00000000
_symmetry_Int_Tables_number   1
_chemical_formula_structural   KBaZn2P3S12O
_chemical_formula_sum   'K1 Ba1 Zn2 P3 S12 O1'
_cell_volume   394.09858498
_cell_formula_units_Z   1
loop_
 _symmetry_equiv_pos_site_id
 _symmetry_equiv_pos_as_xyz
  1  'x, y, z'
loop_
 _atom_site_type_symbol
 _atom_site_label
 _atom_site_symmetry_multiplicity
 _atom_site_fract_x
 _atom_site_fract_y
 _atom_site_fract_z
 _atom_site_occupancy
  Ba  Ba0  1  0.05053700  0.18563099  0.62796501  1
  K  K1  1  0.55053698  0.31436899  0.87203502  1
  P  P2  1  0.94946297  0.31436899  0.12796500  1
  Zn  Zn3  1  0.44946298  0.18563099  0.37203501  1
  Zn  Zn4  1  0.94946297  0.81436898  0.37203501  1
  S  S5  1  0.44946298  0.68563098  0.12796500  1
  P  P6  1  0.05053700  0.68563098  0.87203502  1
  P  P7  1  0.55053698  0.81436898  0.62796501  1
  S  S8  1  0.74999997  0.05318200  0.50000001  1
  S  S9  1  0.24999999  0.44681799  0.00000000  1
  S  S10  1  0.24999999  0.94681797  0.50000001  1
  S  S11  1  0.74999997  0.55318198  0.00000000  1
  S  S12  1  0.61246598  0.40888599  0.21527601  1
  S  S13  1  0.11246600  0.09111400  0.28472401  1
  S  S14  1  0.38753399  0.09111400  0.71527602  1
  O  O15  1  0.88753397  0.40888599  0.78472402  1
  S  S16  1  0.38753399  0.59111398  0.78472402  1
  S  S17  1  0.88753397  0.90888598  0.71527602  1
  S  S18  1  0.61246598  0.90888598  0.28472401  1
  S  S19  1  0.11246600  0.59111398  0.21527601  1
