# generated using pymatgen
data_BaSrBeZnSi5P2N2O
_symmetry_space_group_name_H-M   'P 1'
_cell_length_a   6.44006395
_cell_length_b   6.44006300
_cell_length_c   8.46381664
_cell_angle_alpha   90.00000000
_cell_angle_beta   90.00000000
_cell_angle_gamma   120.00000763
_symmetry_Int_Tables_number   1
_chemical_formula_structural   BaSrBeZnSi5P2N2O
_chemical_formula_sum   'Ba1 Sr1 Be1 Zn1 Si5 P2 N2 O1'
_cell_volume   304.00248993
_cell_formula_units_Z   1
loop_
 _symmetry_equiv_pos_site_id
 _symmetry_equiv_pos_as_xyz
  1  'x, y, z'
loop_
 _atom_site_type_symbol
 _atom_site_label
 _atom_site_symmetry_multiplicity
 _atom_site_fract_x
 _atom_site_fract_y
 _atom_site_fract_z
 _atom_site_occupancy
  Ba  Ba0  1  0.66666669  0.33333335  0.18626301  1
  Be  Be1  1  0.33333338  0.66666670  0.81373703  1
  Sr  Sr2  1  0.00000000  0.00000000  0.50000002  1
  Zn  Zn3  1  0.00000000  0.00000000  0.00000000  1
  Si  Si4  1  0.66666669  0.33333335  0.68729003  1
  Si  Si5  1  0.33333338  0.66666670  0.31271001  1
  Si  Si6  1  0.18001702  0.36003402  0.23927801  1
  Si  Si7  1  0.18001705  0.81998204  0.23927801  1
  Si  Si8  1  0.63996506  0.81998204  0.23927801  1
  P  P9  1  0.36003501  0.18001801  0.76072203  1
  P  P10  1  0.81998302  0.18001801  0.76072203  1
  N  N11  1  0.81998305  0.63996603  0.76072203  1
  N  N12  1  0.33333338  0.66666670  0.52796502  1
  O  O13  1  0.66666669  0.33333335  0.47203502  1
