# generated using pymatgen
data_Na2SmLuMn3MoO12
_symmetry_space_group_name_H-M   'P 1'
_cell_length_a   5.45997715
_cell_length_b   5.63379812
_cell_length_c   8.01577377
_cell_angle_alpha   89.29342651
_cell_angle_beta   87.60928345
_cell_angle_gamma   86.29998779
_symmetry_Int_Tables_number   1
_chemical_formula_structural   Na2SmLuMn3MoO12
_chemical_formula_sum   'Na2 Sm1 Lu1 Mn3 Mo1 O12'
_cell_volume   245.82887769
_cell_formula_units_Z   1
loop_
 _symmetry_equiv_pos_site_id
 _symmetry_equiv_pos_as_xyz
  1  'x, y, z'
loop_
 _atom_site_type_symbol
 _atom_site_label
 _atom_site_symmetry_multiplicity
 _atom_site_fract_x
 _atom_site_fract_y
 _atom_site_fract_z
 _atom_site_occupancy
  Sm  Sm0  1  0.49171297  0.44542600  0.23984300  1
  Na  Na1  1  0.50828697  0.55457399  0.76015703  1
  Lu  Lu2  1  0.02603597  0.94033399  0.25809601  1
  Na  Na3  1  0.97396397  0.05966600  0.74190403  1
  Mn  Mn4  1  0.49999999  0.00000000  -0.00000001  1
  Mn  Mn5  1  -0.00000002  0.49999999  -0.00000000  1
  Mn  Mn6  1  0.49999999  0.00000000  0.50000002  1
  Mo  Mo7  1  -0.00000002  0.49999999  0.50000003  1
  O  O8  1  0.10620898  0.45786200  0.77192004  1
  O  O9  1  0.89379096  0.54213799  0.22808000  1
  O  O10  1  0.39068396  0.95809199  0.72713803  1
  O  O11  1  0.60931598  0.04190800  0.27286201  1
  O  O12  1  0.19654899  0.19865400  0.45280202  1
  O  O13  1  0.80345095  0.80134599  0.54719802  1
  O  O14  1  0.72326197  0.32253200  0.56253702  1
  O  O15  1  0.27673797  0.67746799  0.43746302  1
  O  O16  1  0.32054397  0.72643399  0.05367299  1
  O  O17  1  0.67945597  0.27356600  0.94632704  1
  O  O18  1  0.79426495  0.79206599  0.93690204  1
  O  O19  1  0.20573499  0.20793400  0.06309800  1
