# generated using pymatgen
data_KBaNa2PbBr2Cl7
_symmetry_space_group_name_H-M   'P 1'
_cell_length_a   7.81522846
_cell_length_b   7.81522846
_cell_length_c   10.80592251
_cell_angle_alpha   69.86562347
_cell_angle_beta   69.86562347
_cell_angle_gamma   71.38420105
_symmetry_Int_Tables_number   1
_chemical_formula_structural   KBaNa2PbBr2Cl7
_chemical_formula_sum   'K1 Ba1 Na2 Pb1 Br2 Cl7'
_cell_volume   566.51381577
_cell_formula_units_Z   1
loop_
 _symmetry_equiv_pos_site_id
 _symmetry_equiv_pos_as_xyz
  1  'x, y, z'
loop_
 _atom_site_type_symbol
 _atom_site_label
 _atom_site_symmetry_multiplicity
 _atom_site_fract_x
 _atom_site_fract_y
 _atom_site_fract_z
 _atom_site_occupancy
  Ba  Ba0  1  0.45487995  0.54512000  0.75000004  1
  K  K1  1  0.54511996  0.45488000  0.25000005  1
  Na  Na2  1  0.00000000  0.00000000  0.49999998  1
  Na  Na3  1  0.00000000  0.00000000  0.00000000  1
  Br  Br4  1  0.21539298  0.25755000  0.87784400  1
  Cl  Cl5  1  0.68260497  0.29445700  0.96969702  1
  Pb  Pb6  1  0.25754998  0.21539300  0.37784402  1
  Br  Br7  1  0.09685293  0.90314701  0.75000004  1
  Cl  Cl8  1  0.70554297  0.31739500  0.53030304  1
  Cl  Cl9  1  0.29445694  0.68260501  0.46969705  1
  Cl  Cl10  1  0.90314698  0.09685300  0.25000004  1
  Cl  Cl11  1  0.74244993  0.78460701  0.62215607  1
  Cl  Cl12  1  0.31739494  0.70554301  0.03030306  1
  Cl  Cl13  1  0.78460693  0.74245001  0.12215609  1
