# generated using pymatgen
data_HoLuAg2SeS5
_symmetry_space_group_name_H-M   'P 1'
_cell_length_a   7.43501616
_cell_length_b   7.60693121
_cell_length_c   7.43501616
_cell_angle_alpha   119.25518036
_cell_angle_beta   90.00000000
_cell_angle_gamma   119.25518036
_symmetry_Int_Tables_number   1
_chemical_formula_structural   HoLuAg2SeS5
_chemical_formula_sum   'Ho1 Lu1 Ag2 Se1 S5'
_cell_volume   303.91475312
_cell_formula_units_Z   1
loop_
 _symmetry_equiv_pos_site_id
 _symmetry_equiv_pos_as_xyz
  1  'x, y, z'
loop_
 _atom_site_type_symbol
 _atom_site_label
 _atom_site_symmetry_multiplicity
 _atom_site_fract_x
 _atom_site_fract_y
 _atom_site_fract_z
 _atom_site_occupancy
  Ho  Ho0  1  0.34860000  0.14766201  0.57383100  1
  Lu  Lu1  1  0.82383103  0.64766206  0.09860005  1
  Ag  Ag2  1  0.82383103  0.64766206  0.54906204  1
  Ag  Ag3  1  0.79906200  0.14766201  0.57383100  1
  S  S4  1  0.96966705  0.93933409  0.96966705  1
  S  S5  1  0.21966703  0.43933404  0.71966702  1
  S  S6  1  0.09870405  0.70167006  0.35083505  1
  Se  Se7  1  0.60083500  0.20167002  0.84870400  1
  S  S8  1  0.60083500  0.20167002  0.35296601  1
  S  S9  1  0.60296604  0.70167006  0.35083505  1
