# generated using pymatgen
data_Cs2KBa2BiO6
_symmetry_space_group_name_H-M   'P 1'
_cell_length_a   3.76394391
_cell_length_b   7.40059185
_cell_length_c   9.83612919
_cell_angle_alpha   90.00000000
_cell_angle_beta   90.00000000
_cell_angle_gamma   104.73212433
_symmetry_Int_Tables_number   1
_chemical_formula_structural   Cs2KBa2BiO6
_chemical_formula_sum   'Cs2 K1 Ba2 Bi1 O6'
_cell_volume   264.98212351
_cell_formula_units_Z   1
loop_
 _symmetry_equiv_pos_site_id
 _symmetry_equiv_pos_as_xyz
  1  'x, y, z'
loop_
 _atom_site_type_symbol
 _atom_site_label
 _atom_site_symmetry_multiplicity
 _atom_site_fract_x
 _atom_site_fract_y
 _atom_site_fract_z
 _atom_site_occupancy
  Cs  Cs0  1  0.25466704  0.50933401  0.74999999  1
  Cs  Cs1  1  0.74533305  0.49066601  0.25000000  1
  K  K2  1  0.00000000  0.00000000  0.00000000  1
  Ba  Ba3  1  0.00000000  0.00000000  0.49999999  1
  Ba  Ba4  1  0.53256802  0.06513600  0.74999999  1
  Bi  Bi5  1  0.46743207  0.93486403  0.25000000  1
  O  O6  1  0.93543808  0.87087603  0.74999999  1
  O  O7  1  0.06456201  0.12912400  0.25000000  1
  O  O8  1  0.37993306  0.75986602  0.44522899  1
  O  O9  1  0.37993306  0.75986602  0.05477100  1
  O  O10  1  0.62006703  0.24013401  0.94522898  1
  O  O11  1  0.62006703  0.24013401  0.55477099  1
