# generated using pymatgen
data_KZnCu2SeS3
_symmetry_space_group_name_H-M   'P 1'
_cell_length_a   6.38553858
_cell_length_b   6.38553858
_cell_length_c   6.38553858
_cell_angle_alpha   98.91008759
_cell_angle_beta   114.99617767
_cell_angle_gamma   114.99617767
_symmetry_Int_Tables_number   1
_chemical_formula_structural   KZnCu2SeS3
_chemical_formula_sum   'K1 Zn1 Cu2 Se1 S3'
_cell_volume   195.46733654
_cell_formula_units_Z   1
loop_
 _symmetry_equiv_pos_site_id
 _symmetry_equiv_pos_as_xyz
  1  'x, y, z'
loop_
 _atom_site_type_symbol
 _atom_site_label
 _atom_site_symmetry_multiplicity
 _atom_site_fract_x
 _atom_site_fract_y
 _atom_site_fract_z
 _atom_site_occupancy
  K  K0  1  0.00000000  0.00000000  0.00000000  1
  Zn  Zn1  1  0.49999998  0.24999999  0.74999997  1
  Cu  Cu2  1  0.49999995  0.74999997  0.24999992  1
  Cu  Cu3  1  -0.00000003  0.49999998  0.49999995  1
  S  S4  1  0.37787896  0.53340598  0.53340594  1
  Se  Se5  1  -0.00000003  0.46659398  0.84447295  1
  S  S6  1  -0.00000006  0.84447296  0.46659391  1
  S  S7  1  0.62212099  0.15552699  0.15552698  1
