# generated using pymatgen
data_LiMg2MnVCoO12
_symmetry_space_group_name_H-M   'P 1'
_cell_length_a   6.57551384
_cell_length_b   6.57551384
_cell_length_c   6.57551384
_cell_angle_alpha   71.02540588
_cell_angle_beta   70.93893433
_cell_angle_gamma   110.38187408
_symmetry_Int_Tables_number   1
_chemical_formula_structural   LiMg2MnVCoO12
_chemical_formula_sum   'Li1 Mg2 Mn1 V1 Co1 O12'
_cell_volume   218.81872777
_cell_formula_units_Z   1
loop_
 _symmetry_equiv_pos_site_id
 _symmetry_equiv_pos_as_xyz
  1  'x, y, z'
loop_
 _atom_site_type_symbol
 _atom_site_label
 _atom_site_symmetry_multiplicity
 _atom_site_fract_x
 _atom_site_fract_y
 _atom_site_fract_z
 _atom_site_occupancy
  Mg  Mg0  1  1.00000007  1.00000002  0.49999990  1
  Mg  Mg1  1  0.49999999  0.00000000  -0.00000001  1
  Li  Li2  1  0.50000003  0.50000001  0.49999994  1
  Mn  Mn3  1  1.00000002  0.50000001  -0.00000006  1
  Co  Co4  1  0.49999999  0.00000000  0.49999997  1
  V  V5  1  0.50000003  0.50000001  -0.00000004  1
  O  O6  1  0.69327906  0.87172102  0.82155790  1
  O  O7  1  0.30672100  0.12827900  0.17844198  1
  O  O8  1  0.69327903  0.51483701  0.17844195  1
  O  O9  1  0.30672104  0.48516301  0.82155794  1
  O  O10  1  0.80434705  0.70476101  0.49089292  1
  O  O11  1  0.19565302  0.29523901  0.50910696  1
  O  O12  1  0.19565306  0.70476001  0.09958695  1
  O  O13  1  0.80434701  0.29524001  0.90041293  1
  O  O14  1  0.50118201  0.18677800  0.68559595  1
  O  O15  1  0.49881806  0.81322202  0.31440393  1
  O  O16  1  0.12762507  0.81322102  0.68559693  1
  O  O17  1  0.87237500  0.18677900  0.31440296  1
