# generated using pymatgen
data_BaNa2LiBeSi2B2P5N4
_symmetry_space_group_name_H-M   'P 1'
_cell_length_a   6.57377386
_cell_length_b   6.57377386
_cell_length_c   7.63772583
_cell_angle_alpha   90.00000000
_cell_angle_beta   90.00000000
_cell_angle_gamma   90.00000000
_symmetry_Int_Tables_number   1
_chemical_formula_structural   BaNa2LiBeSi2B2P5N4
_chemical_formula_sum   'Ba1 Na2 Li1 Be1 Si2 B2 P5 N4'
_cell_volume   330.06052408
_cell_formula_units_Z   1
loop_
 _symmetry_equiv_pos_site_id
 _symmetry_equiv_pos_as_xyz
  1  'x, y, z'
loop_
 _atom_site_type_symbol
 _atom_site_label
 _atom_site_symmetry_multiplicity
 _atom_site_fract_x
 _atom_site_fract_y
 _atom_site_fract_z
 _atom_site_occupancy
  Ba  Ba0  1  0.00000000  0.00000000  0.50000001  1
  Na  Na1  1  0.50000001  0.50000001  0.50000001  1
  Na  Na2  1  0.50000001  0.00000000  0.09075200  1
  Li  Li3  1  -0.00000000  0.50000001  0.90924802  1
  P  P4  1  0.50000001  0.50000001  -0.00000000  1
  Be  Be5  1  0.00000000  0.00000000  0.00000000  1
  P  P6  1  -0.00000000  0.50000001  0.56739201  1
  N  N7  1  0.50000001  0.00000000  0.43260801  1
  P  P8  1  0.18687700  0.00000000  0.12380600  1
  Si  Si9  1  0.50000001  0.31312301  0.12380600  1
  P  P10  1  0.50000001  0.00000000  0.86784602  1
  P  P11  1  0.81312302  0.00000000  0.12380600  1
  B  B12  1  0.31312301  0.50000001  0.87619402  1
  N  N13  1  0.68687701  0.50000001  0.87619402  1
  N  N14  1  -0.00000000  0.18687700  0.87619402  1
  Si  Si15  1  0.50000001  0.68687701  0.12380600  1
  B  B16  1  -0.00000000  0.50000001  0.13215400  1
  N  N17  1  -0.00000000  0.81312302  0.87619402  1
