# generated using pymatgen
data_KBaBi2Te2PSe6S3N2
_symmetry_space_group_name_H-M   'P 1'
_cell_length_a   7.95327282
_cell_length_b   7.95327282
_cell_length_c   7.95327282
_cell_angle_alpha   60.00000000
_cell_angle_beta   60.00000000
_cell_angle_gamma   60.00000000
_symmetry_Int_Tables_number   1
_chemical_formula_structural   KBaBi2Te2PSe6S3N2
_chemical_formula_sum   'K1 Ba1 Bi2 Te2 P1 Se6 S3 N2'
_cell_volume   355.73176146
_cell_formula_units_Z   1
loop_
 _symmetry_equiv_pos_site_id
 _symmetry_equiv_pos_as_xyz
  1  'x, y, z'
loop_
 _atom_site_type_symbol
 _atom_site_label
 _atom_site_symmetry_multiplicity
 _atom_site_fract_x
 _atom_site_fract_y
 _atom_site_fract_z
 _atom_site_occupancy
  Ba  Ba0  1  0.74999998  0.74999998  0.74999998  1
  K  K1  1  0.00000000  0.00000000  0.00000000  1
  Bi  Bi2  1  0.37499999  0.87499998  0.37499999  1
  Bi  Bi3  1  0.37499999  0.37499999  0.37499999  1
  Te  Te4  1  0.37499999  0.37499999  0.87499998  1
  Te  Te5  1  0.87499998  0.37499999  0.37499999  1
  Se  Se6  1  0.44038699  0.05961300  0.44038699  1
  Se  Se7  1  0.69038698  0.30961299  0.69038698  1
  P  P8  1  0.44038699  0.05961300  0.05961300  1
  Se  Se9  1  0.44038699  0.44038699  0.05961300  1
  Se  Se10  1  0.05961300  0.05961300  0.44038699  1
  N  N11  1  0.05961300  0.44038699  0.44038699  1
  Se  Se12  1  0.05961300  0.44038699  0.05961300  1
  S  S13  1  0.30961299  0.69038698  0.69038698  1
  Se  Se14  1  0.69038698  0.30961299  0.30961299  1
  S  S15  1  0.69038698  0.69038698  0.30961299  1
  N  N16  1  0.30961299  0.30961299  0.69038698  1
  S  S17  1  0.30961299  0.69038698  0.30961299  1
