# generated using pymatgen
data_MgZn3P3N
_symmetry_space_group_name_H-M   'P 1'
_cell_length_a   3.68483996
_cell_length_b   3.68483996
_cell_length_c   12.89859962
_cell_angle_alpha   90.00000000
_cell_angle_beta   90.00000000
_cell_angle_gamma   120.00000000
_symmetry_Int_Tables_number   1
_chemical_formula_structural   MgZn3P3N
_chemical_formula_sum   'Mg1 Zn3 P3 N1'
_cell_volume   151.67376089
_cell_formula_units_Z   1
loop_
 _symmetry_equiv_pos_site_id
 _symmetry_equiv_pos_as_xyz
  1  'x, y, z'
loop_
 _atom_site_type_symbol
 _atom_site_label
 _atom_site_symmetry_multiplicity
 _atom_site_fract_x
 _atom_site_fract_y
 _atom_site_fract_z
 _atom_site_occupancy
  Mg  Mg0  1  0.33333333  0.66666666  0.25000001  1
  Zn  Zn1  1  0.66666667  0.33333333  0.75000002  1
  Zn  Zn2  1  0.00000000  0.00000000  0.00000000  1
  Zn  Zn3  1  0.00000000  0.00000000  0.50000001  1
  P  P4  1  0.33333333  0.66666666  0.41207001  1
  P  P5  1  0.66666667  0.33333333  0.91207003  1
  P  P6  1  0.33333333  0.66666666  0.08793000  1
  N  N7  1  0.66666667  0.33333333  0.58793002  1
