# generated using pymatgen
data_BaSrLiPH4
_symmetry_space_group_name_H-M   'P 1'
_cell_length_a   5.80309677
_cell_length_b   5.80309677
_cell_length_c   5.80309677
_cell_angle_alpha   60.00000000
_cell_angle_beta   60.00000000
_cell_angle_gamma   60.00000000
_symmetry_Int_Tables_number   1
_chemical_formula_structural   BaSrLiPH4
_chemical_formula_sum   'Ba1 Sr1 Li1 P1 H4'
_cell_volume   138.18612567
_cell_formula_units_Z   1
loop_
 _symmetry_equiv_pos_site_id
 _symmetry_equiv_pos_as_xyz
  1  'x, y, z'
loop_
 _atom_site_type_symbol
 _atom_site_label
 _atom_site_symmetry_multiplicity
 _atom_site_fract_x
 _atom_site_fract_y
 _atom_site_fract_z
 _atom_site_occupancy
  Ba  Ba0  1  0.49999999  0.49999999  0.49999999  1
  Sr  Sr1  1  0.25000000  0.25000000  0.25000000  1
  P  P2  1  0.74999999  0.74999999  0.74999999  1
  Li  Li3  1  0.00000000  0.00000000  0.00000000  1
  H  H4  1  0.37499999  0.87499998  0.87499998  1
  H  H5  1  0.87499998  0.87499998  0.37499999  1
  H  H6  1  0.87499998  0.87499998  0.87499998  1
  H  H7  1  0.87499998  0.37499999  0.87499998  1
