# generated using pymatgen
data_Na2LiH2N2O
_symmetry_space_group_name_H-M   'P 1'
_cell_length_a   4.79410124
_cell_length_b   4.79410124
_cell_length_c   4.79410124
_cell_angle_alpha   90.00000000
_cell_angle_beta   90.00000000
_cell_angle_gamma   90.00000000
_symmetry_Int_Tables_number   1
_chemical_formula_structural   Na2LiH2N2O
_chemical_formula_sum   'Na2 Li1 H2 N2 O1'
_cell_volume   110.18477844
_cell_formula_units_Z   1
loop_
 _symmetry_equiv_pos_site_id
 _symmetry_equiv_pos_as_xyz
  1  'x, y, z'
loop_
 _atom_site_type_symbol
 _atom_site_label
 _atom_site_symmetry_multiplicity
 _atom_site_fract_x
 _atom_site_fract_y
 _atom_site_fract_z
 _atom_site_occupancy
  Li  Li0  1  0.16454999  0.33544998  0.66454997  1
  Na  Na1  1  0.33544998  0.66454997  0.16454999  1
  H  H2  1  0.66454997  0.16454999  0.33544998  1
  Na  Na3  1  0.83544996  0.83544996  0.83544996  1
  H  H4  1  0.87717796  0.62282197  0.37717798  1
  N  N5  1  0.62282197  0.37717798  0.87717796  1
  N  N6  1  0.37717798  0.87717796  0.62282197  1
  O  O7  1  0.12282199  0.12282199  0.12282199  1
