# generated using pymatgen
data_Na3SrLaLuMn2SnO9
_symmetry_space_group_name_H-M   'P 1'
_cell_length_a   5.93197393
_cell_length_b   6.59917307
_cell_length_c   6.59917307
_cell_angle_alpha   90.00000000
_cell_angle_beta   90.00000000
_cell_angle_gamma   90.00000000
_symmetry_Int_Tables_number   1
_chemical_formula_structural   Na3SrLaLuMn2SnO9
_chemical_formula_sum   'Na3 Sr1 La1 Lu1 Mn2 Sn1 O9'
_cell_volume   258.33203823
_cell_formula_units_Z   1
loop_
 _symmetry_equiv_pos_site_id
 _symmetry_equiv_pos_as_xyz
  1  'x, y, z'
loop_
 _atom_site_type_symbol
 _atom_site_label
 _atom_site_symmetry_multiplicity
 _atom_site_fract_x
 _atom_site_fract_y
 _atom_site_fract_z
 _atom_site_occupancy
  Na  Na0  1  1.00000001  0.49999999  0.49999999  1
  Sr  Sr1  1  0.00000000  0.00000000  0.00000000  1
  Na  Na2  1  0.50000001  0.67391699  0.82608299  1
  La  La3  1  0.50000001  0.82608299  0.32608300  1
  Na  Na4  1  0.50000001  0.17391700  0.67391699  1
  Lu  Lu5  1  0.50000001  0.32608300  0.17391700  1
  Mn  Mn6  1  1.00000001  0.49999999  0.00000000  1
  Sn  Sn7  1  1.00000001  0.00000000  0.49999999  1
  O  O8  1  0.50000001  0.49999999  0.49999999  1
  Mn  Mn9  1  0.50000001  0.00000000  0.00000000  1
  O  O10  1  0.74014301  0.14020500  0.35979500  1
  O  O11  1  0.74014301  0.85979499  0.64020499  1
  O  O12  1  0.74014301  0.64020499  0.14020500  1
  O  O13  1  0.74014301  0.35979500  0.85979499  1
  O  O14  1  0.25985700  0.85979499  0.64020499  1
  O  O15  1  0.25985700  0.64020499  0.14020500  1
  O  O16  1  0.25985700  0.14020500  0.35979500  1
  O  O17  1  0.25985700  0.35979500  0.85979499  1
