# generated using pymatgen
data_NaCuAg3Se2S7
_symmetry_space_group_name_H-M   'P 1'
_cell_length_a   7.01896286
_cell_length_b   7.06957197
_cell_length_c   7.04207802
_cell_angle_alpha   90.00000000
_cell_angle_beta   61.92801285
_cell_angle_gamma   90.00000000
_symmetry_Int_Tables_number   1
_chemical_formula_structural   NaCuAg3Se2S7
_chemical_formula_sum   'Na1 Cu1 Ag3 Se2 S7'
_cell_volume   308.32678533
_cell_formula_units_Z   1
loop_
 _symmetry_equiv_pos_site_id
 _symmetry_equiv_pos_as_xyz
  1  'x, y, z'
loop_
 _atom_site_type_symbol
 _atom_site_label
 _atom_site_symmetry_multiplicity
 _atom_site_fract_x
 _atom_site_fract_y
 _atom_site_fract_z
 _atom_site_occupancy
  Na  Na0  1  0.14490800  0.16300500  0.59870700  1
  Ag  Ag1  1  0.85509200  0.66300500  0.90129302  1
  Ag  Ag2  1  0.85509200  0.83699500  0.40129302  1
  Ag  Ag3  1  0.14490800  0.33699500  0.09870700  1
  Se  Se4  1  0.34121700  0.88226300  0.93104500  1
  Cu  Cu5  1  0.65878300  0.38226300  0.56895501  1
  S  S6  1  0.65878300  0.11773700  0.06895502  1
  S  S7  1  0.34121700  0.61773700  0.43104501  1
  S  S8  1  0.36466700  0.59388700  0.75870700  1
  S  S9  1  0.63533300  0.09388700  0.74129301  1
  Se  Se10  1  0.63533300  0.40611300  0.24129302  1
  S  S11  1  0.36466700  0.90611300  0.25870701  1
  S  S12  1  0.00000000  0.00000000  0.00000000  1
  S  S13  1  0.00000000  0.50000000  0.49999999  1
