# generated using pymatgen
data_KNaLiHO4
_symmetry_space_group_name_H-M   'P 1'
_cell_length_a   5.60161781
_cell_length_b   5.60161781
_cell_length_c   5.60161781
_cell_angle_alpha   82.56332397
_cell_angle_beta   64.72757721
_cell_angle_gamma   116.33680725
_symmetry_Int_Tables_number   1
_chemical_formula_structural   KNaLiHO4
_chemical_formula_sum   'K1 Na1 Li1 H1 O4'
_cell_volume   130.96010363
_cell_formula_units_Z   1
loop_
 _symmetry_equiv_pos_site_id
 _symmetry_equiv_pos_as_xyz
  1  'x, y, z'
loop_
 _atom_site_type_symbol
 _atom_site_label
 _atom_site_symmetry_multiplicity
 _atom_site_fract_x
 _atom_site_fract_y
 _atom_site_fract_z
 _atom_site_occupancy
  Na  Na0  1  0.88156205  1.00000003  0.11843798  1
  K  K1  1  0.88156201  0.50000002  0.61843801  1
  H  H2  1  0.38636305  0.74621502  0.85985196  1
  Li  Li3  1  0.39393301  0.25378501  0.35985200  1
  O  O4  1  0.66884301  0.39777001  0.22892701  1
  O  O5  1  0.37330204  0.60222902  0.72892797  1
  O  O6  1  0.40179406  0.88957603  0.98778195  1
  O  O7  1  0.12264200  0.11042400  0.48778199  1
