# generated using pymatgen
data_LiLu2ScAg3Se7S
_symmetry_space_group_name_H-M   'P 1'
_cell_length_a   8.02147198
_cell_length_b   8.02147198
_cell_length_c   8.02147198
_cell_angle_alpha   60.00000000
_cell_angle_beta   60.00000000
_cell_angle_gamma   60.00000000
_symmetry_Int_Tables_number   1
_chemical_formula_structural   LiLu2ScAg3Se7S
_chemical_formula_sum   'Li1 Lu2 Sc1 Ag3 Se7 S1'
_cell_volume   364.96163547
_cell_formula_units_Z   1
loop_
 _symmetry_equiv_pos_site_id
 _symmetry_equiv_pos_as_xyz
  1  'x, y, z'
loop_
 _atom_site_type_symbol
 _atom_site_label
 _atom_site_symmetry_multiplicity
 _atom_site_fract_x
 _atom_site_fract_y
 _atom_site_fract_z
 _atom_site_occupancy
  Li  Li0  1  0.49999998  0.99999996  0.49999998  1
  Sc  Sc1  1  -0.00000000  0.49999998  0.99999996  1
  Lu  Lu2  1  0.49999998  0.99999996  0.99999996  1
  Lu  Lu3  1  -0.00000000  0.49999998  0.49999998  1
  Ag  Ag4  1  0.49999998  0.49999998  0.00000000  1
  Ag  Ag5  1  0.99999996  0.99999996  0.49999998  1
  Ag  Ag6  1  0.00000000  0.00000000  0.00000000  1
  Se  Se7  1  0.74999997  0.74999997  0.74999997  1
  Se  Se8  1  0.24999999  0.24999999  0.24999999  1
  Se  Se9  1  0.22499399  0.77500597  0.22499399  1
  S  S10  1  0.77500597  0.22499399  0.77500597  1
  Se  Se11  1  0.22499399  0.77500597  0.77500597  1
  Se  Se12  1  0.77500597  0.22499399  0.22499399  1
  Se  Se13  1  0.22499399  0.22499399  0.77500597  1
  Se  Se14  1  0.77500597  0.77500597  0.22499399  1
