# generated using pymatgen
data_CaLuMg4ScMn3(NO2)2
_symmetry_space_group_name_H-M   'P 1'
_cell_length_a   3.85307598
_cell_length_b   3.85307622
_cell_length_c   25.20812225
_cell_angle_alpha   90.00000000
_cell_angle_beta   90.00000000
_cell_angle_gamma   120.00000000
_symmetry_Int_Tables_number   1
_chemical_formula_structural   CaLuMg4ScMn3(NO2)2
_chemical_formula_sum   'Ca1 Lu1 Mg4 Sc1 Mn3 N2 O4'
_cell_volume   324.10542568
_cell_formula_units_Z   1
loop_
 _symmetry_equiv_pos_site_id
 _symmetry_equiv_pos_as_xyz
  1  'x, y, z'
loop_
 _atom_site_type_symbol
 _atom_site_label
 _atom_site_symmetry_multiplicity
 _atom_site_fract_x
 _atom_site_fract_y
 _atom_site_fract_z
 _atom_site_occupancy
  Sc  Sc0  1  0.66666668  0.33333334  0.87495903  1
  Mg  Mg1  1  0.00000000  0.00000000  0.99994303  1
  Lu  Lu2  1  0.33333336  0.66666669  0.37496001  1
  Ca  Ca3  1  0.33333336  0.66666669  0.12495000  1
  Mn  Mn4  1  0.00000000  0.00000000  0.24996901  1
  Mg  Mg5  1  0.66666668  0.33333334  0.49995701  1
  Mg  Mg6  1  0.00000000  0.00000000  0.62495802  1
  Mg  Mg7  1  0.33333336  0.66666669  0.74995902  1
  Mn  Mn8  1  0.33333336  0.66666669  0.65624002  1
  N  N9  1  0.33333336  0.66666669  0.28127901  1
  O  O10  1  0.66666668  0.33333334  0.78123802  1
  Mn  Mn11  1  0.00000000  0.00000000  0.15624500  1
  O  O12  1  0.33333336  0.66666669  0.03120600  1
  O  O13  1  0.00000000  0.00000000  0.90625003  1
  N  N14  1  0.66666668  0.33333334  0.40624101  1
  O  O15  1  0.00000000  0.00000000  0.53124702  1
