# generated using pymatgen
data_MgCu7S8
_symmetry_space_group_name_H-M   'P 1'
_cell_length_a   6.14609289
_cell_length_b   6.40640402
_cell_length_c   7.43501234
_cell_angle_alpha   90.00000000
_cell_angle_beta   89.97895050
_cell_angle_gamma   90.00000000
_symmetry_Int_Tables_number   1
_chemical_formula_structural   MgCu7S8
_chemical_formula_sum   'Mg1 Cu7 S8'
_cell_volume   292.74878961
_cell_formula_units_Z   1
loop_
 _symmetry_equiv_pos_site_id
 _symmetry_equiv_pos_as_xyz
  1  'x, y, z'
loop_
 _atom_site_type_symbol
 _atom_site_label
 _atom_site_symmetry_multiplicity
 _atom_site_fract_x
 _atom_site_fract_y
 _atom_site_fract_z
 _atom_site_occupancy
  Mg  Mg0  1  0.58296601  0.32468800  0.27094597  1
  Cu  Cu1  1  0.08296600  0.67531200  0.77094601  1
  Cu  Cu2  1  0.57887601  0.32742900  0.77708798  1
  Cu  Cu3  1  0.07887600  0.67257100  0.27708800  1
  Cu  Cu4  1  0.08418500  0.15260600  0.02556300  1
  Cu  Cu5  1  0.58418501  0.84739400  0.52556298  1
  Cu  Cu6  1  0.58581301  0.82567700  0.02425097  1
  Cu  Cu7  1  0.08581300  0.17432300  0.52425101  1
  S  S8  1  0.20022400  0.32933700  0.28449800  1
  S  S9  1  0.70022401  0.67066300  0.78449798  1
  S  S10  1  0.20530000  0.32670000  0.76403000  1
  S  S11  1  0.70530001  0.67330000  0.26402997  1
  S  S12  1  0.23512900  0.82330700  0.02860999  1
  S  S13  1  0.73512901  0.17669300  0.52860997  1
  S  S14  1  0.70940701  0.14049900  0.02061396  1
  S  S15  1  0.20940700  0.85950100  0.52061400  1
