# generated using pymatgen
data_Na3SrLiTiMnMoO12
_symmetry_space_group_name_H-M   'P 1'
_cell_length_a   5.57753897
_cell_length_b   5.65553999
_cell_length_c   7.89906836
_cell_angle_alpha   90.00000000
_cell_angle_beta   89.92604065
_cell_angle_gamma   90.00000000
_symmetry_Int_Tables_number   1
_chemical_formula_structural   Na3SrLiTiMnMoO12
_chemical_formula_sum   'Na3 Sr1 Li1 Ti1 Mn1 Mo1 O12'
_cell_volume   249.16796253
_cell_formula_units_Z   1
loop_
 _symmetry_equiv_pos_site_id
 _symmetry_equiv_pos_as_xyz
  1  'x, y, z'
loop_
 _atom_site_type_symbol
 _atom_site_label
 _atom_site_symmetry_multiplicity
 _atom_site_fract_x
 _atom_site_fract_y
 _atom_site_fract_z
 _atom_site_occupancy
  Na  Na0  1  0.49463900  0.21584200  0.75049100  1
  Sr  Sr1  1  0.99463901  0.78415800  0.25049097  1
  Na  Na2  1  0.51296300  0.30232200  0.24834999  1
  Na  Na3  1  0.01296300  0.69767800  0.74835002  1
  Li  Li4  1  0.50148200  0.75609800  0.99920001  1
  Ti  Ti5  1  0.00148200  0.24390200  0.49920001  1
  Mn  Mn6  1  0.50013100  0.75331700  0.50028400  1
  Mo  Mo7  1  0.00013100  0.24668300  0.00028400  1
  O  O8  1  0.58885600  0.76228100  0.74395900  1
  O  O9  1  0.08885600  0.23771900  0.24395900  1
  O  O10  1  0.43375200  0.72866700  0.25557699  1
  O  O11  1  0.93375201  0.27133300  0.75557699  1
  O  O12  1  0.69600600  0.03845700  0.45566899  1
  O  O13  1  0.19600600  0.96154300  0.95566902  1
  O  O14  1  0.28618900  0.47596200  0.53951901  1
  O  O15  1  0.78618900  0.52403800  0.03951897  1
  O  O16  1  0.21241900  0.94981300  0.54466101  1
  O  O17  1  0.71241900  0.05018700  0.04466098  1
  O  O18  1  0.77356400  0.53529200  0.46228899  1
  O  O19  1  0.27356400  0.46470800  0.96228902  1
