# generated using pymatgen
data_NaCa2LuO4
_symmetry_space_group_name_H-M   'P 1'
_cell_length_a   4.52399778
_cell_length_b   4.52399778
_cell_length_c   6.20116758
_cell_angle_alpha   111.39341736
_cell_angle_beta   111.39341736
_cell_angle_gamma   90.00000000
_symmetry_Int_Tables_number   1
_chemical_formula_structural   NaCa2LuO4
_chemical_formula_sum   'Na1 Ca2 Lu1 O4'
_cell_volume   108.72577859
_cell_formula_units_Z   1
loop_
 _symmetry_equiv_pos_site_id
 _symmetry_equiv_pos_as_xyz
  1  'x, y, z'
loop_
 _atom_site_type_symbol
 _atom_site_label
 _atom_site_symmetry_multiplicity
 _atom_site_fract_x
 _atom_site_fract_y
 _atom_site_fract_z
 _atom_site_occupancy
  Na  Na0  1  0.50000000  0.50000001  0.99999996  1
  Ca  Ca1  1  0.24999998  0.75000002  0.49999996  1
  Ca  Ca2  1  0.00000000  0.00000000  0.00000000  1
  Lu  Lu3  1  0.75000001  0.25000001  0.49999996  1
  O  O4  1  0.77734699  0.77734702  0.55469394  1
  O  O5  1  0.22265300  0.22265301  0.44530598  1
  O  O6  1  0.97265301  0.47265301  0.94530595  1
  O  O7  1  0.52734702  0.02734700  0.05469398  1
