# generated using pymatgen
data_Li3Co2CuO10
_symmetry_space_group_name_H-M   'P 1'
_cell_length_a   3.63739204
_cell_length_b   5.35287905
_cell_length_c   10.29998970
_cell_angle_alpha   89.99965668
_cell_angle_beta   89.99964905
_cell_angle_gamma   70.15532684
_symmetry_Int_Tables_number   1
_chemical_formula_structural   Li3Co2CuO10
_chemical_formula_sum   'Li3 Co2 Cu1 O10'
_cell_volume   188.63699370
_cell_formula_units_Z   1
loop_
 _symmetry_equiv_pos_site_id
 _symmetry_equiv_pos_as_xyz
  1  'x, y, z'
loop_
 _atom_site_type_symbol
 _atom_site_label
 _atom_site_symmetry_multiplicity
 _atom_site_fract_x
 _atom_site_fract_y
 _atom_site_fract_z
 _atom_site_occupancy
  Li  Li0  1  0.13402003  0.73304802  0.92154905  1
  Li  Li1  1  0.18066902  0.63940102  0.24838303  1
  Li  Li2  1  0.81930901  0.36054701  0.74839103  1
  Cu  Cu3  1  0.86599801  0.26697801  0.42155802  1
  Co  Co4  1  0.13934103  0.72149802  0.55890004  1
  Co  Co5  1  0.86041701  0.27849601  0.05895901  1
  O  O6  1  0.65906002  0.68105302  0.56578404  1
  O  O7  1  0.34103801  0.31890301  0.06582701  1
  O  O8  1  0.03709703  0.92658603  0.12559803  1
  O  O9  1  0.05431103  0.89098703  0.39136804  1
  O  O10  1  0.69391902  0.61324802  0.95247205  1
  O  O11  1  0.22890102  0.54168702  0.73589404  1
  O  O12  1  0.77114502  0.45830901  0.23589902  1
  O  O13  1  0.30611101  0.38674701  0.45244703  1
  O  O14  1  0.96288400  0.07344400  0.62557302  1
  O  O15  1  0.94578200  0.10906800  0.89139803  1
