# generated using pymatgen
data_NaLi3Si3PO12
_symmetry_space_group_name_H-M   'P 1'
_cell_length_a   5.30965757
_cell_length_b   5.30965757
_cell_length_c   10.42862988
_cell_angle_alpha   95.69245911
_cell_angle_beta   95.69245911
_cell_angle_gamma   119.49131012
_symmetry_Int_Tables_number   1
_chemical_formula_structural   NaLi3Si3PO12
_chemical_formula_sum   'Na1 Li3 Si3 P1 O12'
_cell_volume   250.90603179
_cell_formula_units_Z   1
loop_
 _symmetry_equiv_pos_site_id
 _symmetry_equiv_pos_as_xyz
  1  'x, y, z'
loop_
 _atom_site_type_symbol
 _atom_site_label
 _atom_site_symmetry_multiplicity
 _atom_site_fract_x
 _atom_site_fract_y
 _atom_site_fract_z
 _atom_site_occupancy
  Na  Na0  1  0.49999998  0.49999999  0.99999999  1
  Li  Li1  1  0.00000000  0.00000000  0.49999998  1
  Li  Li2  1  0.66598199  0.33401800  0.50000001  1
  Li  Li3  1  0.33401797  0.66598199  0.50000001  1
  Si  Si4  1  0.08895996  0.74877299  0.77260499  1
  Si  Si5  1  0.25122695  0.91103999  0.22739502  1
  P  P6  1  0.74877301  0.08896000  0.77260500  1
  Si  Si7  1  0.91104000  0.25122700  0.22739502  1
  O  O8  1  0.67760301  0.04104100  0.61653800  1
  O  O9  1  0.94804196  0.94804199  0.82910602  1
  O  O10  1  0.93932199  0.44448899  0.83874201  1
  O  O11  1  0.06067797  0.55551099  0.16125801  1
  O  O12  1  0.32239695  0.95895899  0.38346202  1
  O  O13  1  0.05195800  0.05195800  0.17089400  1
  O  O14  1  0.04104096  0.67760299  0.61653800  1
  O  O15  1  0.55551100  0.06067800  0.16125801  1
  O  O16  1  0.95895900  0.32239700  0.38346202  1
  O  O17  1  0.44448895  0.93932199  0.83874201  1
  O  O18  1  0.59474098  0.59474099  0.39259502  1
  O  O19  1  0.40525898  0.40525899  0.60740500  1
