# generated using pymatgen
data_LiLuMgZnN2
_symmetry_space_group_name_H-M   'P 1'
_cell_length_a   2.96155596
_cell_length_b   5.32735777
_cell_length_c   6.10365868
_cell_angle_alpha   91.92362976
_cell_angle_beta   90.00000000
_cell_angle_gamma   90.00000000
_symmetry_Int_Tables_number   1
_chemical_formula_structural   LiLuMgZnN2
_chemical_formula_sum   'Li1 Lu1 Mg1 Zn1 N2'
_cell_volume   96.24479093
_cell_formula_units_Z   1
loop_
 _symmetry_equiv_pos_site_id
 _symmetry_equiv_pos_as_xyz
  1  'x, y, z'
loop_
 _atom_site_type_symbol
 _atom_site_label
 _atom_site_symmetry_multiplicity
 _atom_site_fract_x
 _atom_site_fract_y
 _atom_site_fract_z
 _atom_site_occupancy
  Zn  Zn0  1  0.50000001  0.67125399  0.13672396  1
  Mg  Mg1  1  0.50000001  0.32874600  0.86327595  1
  Li  Li2  1  -0.00000000  0.16338300  0.37315198  1
  Lu  Lu3  1  -0.00000000  0.83661699  0.62684794  1
  N  N4  1  0.50000001  0.49999999  0.49999996  1
  N  N5  1  0.00000000  0.00000000  0.00000000  1
