# generated using pymatgen
data_Li4CuSiHO13
_symmetry_space_group_name_H-M   'P 1'
_cell_length_a   5.16595411
_cell_length_b   5.47397232
_cell_length_c   8.45458698
_cell_angle_alpha   85.97637177
_cell_angle_beta   72.21103668
_cell_angle_gamma   76.72217560
_symmetry_Int_Tables_number   1
_chemical_formula_structural   Li4CuSiHO13
_chemical_formula_sum   'Li4 Si1 Cu1 H1 O13'
_cell_volume   221.56478333
_cell_formula_units_Z   1
loop_
 _symmetry_equiv_pos_site_id
 _symmetry_equiv_pos_as_xyz
  1  'x, y, z'
loop_
 _atom_site_type_symbol
 _atom_site_label
 _atom_site_symmetry_multiplicity
 _atom_site_fract_x
 _atom_site_fract_y
 _atom_site_fract_z
 _atom_site_occupancy
  Si  Si0  1  0.07648700  0.14441899  0.14356700  1
  Li  Li1  1  0.22005400  0.64441897  0.85643297  1
  Li  Li2  1  0.74218098  0.50316398  0.49930799  1
  Li  Li3  1  0.24148899  0.00316400  0.50069198  1
  Li  Li4  1  0.62117098  0.02339800  0.72440398  1
  Cu  Cu5  1  0.34557499  0.52339798  0.27559600  1
  O  O6  1  0.92770897  0.22682199  0.83424098  1
  H  H7  1  0.76194998  0.72682197  0.16575901  1
  O  O8  1  0.68778398  0.40144798  0.97609797  1
  O  O9  1  0.66388199  0.90144796  0.02390202  1
  O  O10  1  0.89611697  0.36057599  0.91705597  1
  O  O11  1  0.81317298  0.86057597  0.08294402  1
  O  O12  1  0.66828298  0.45686698  0.28661400  1
  O  O13  1  0.95489698  0.95686696  0.71338599  1
  O  O14  1  0.56374199  0.85137497  0.58676899  1
  O  O15  1  0.15051100  0.35137499  0.41323098  1
  O  O16  1  0.52481799  0.32196599  0.68268398  1
  O  O17  1  0.20750200  0.82196597  0.31731599  1
  O  O18  1  0.34853299  0.44996398  0.09040900  1
  O  O19  1  0.43894199  0.94996396  0.90959097  1
