# generated using pymatgen
data_Cs3AgBr6
_symmetry_space_group_name_H-M   'P 1'
_cell_length_a   8.69366264
_cell_length_b   8.69366264
_cell_length_c   8.69366264
_cell_angle_alpha   60.00000000
_cell_angle_beta   60.00000000
_cell_angle_gamma   60.00000000
_symmetry_Int_Tables_number   1
_chemical_formula_structural   Cs3AgBr6
_chemical_formula_sum   'Cs3 Ag1 Br6'
_cell_volume   464.61513445
_cell_formula_units_Z   1
loop_
 _symmetry_equiv_pos_site_id
 _symmetry_equiv_pos_as_xyz
  1  'x, y, z'
loop_
 _atom_site_type_symbol
 _atom_site_label
 _atom_site_symmetry_multiplicity
 _atom_site_fract_x
 _atom_site_fract_y
 _atom_site_fract_z
 _atom_site_occupancy
  Cs  Cs0  1  0.50000002  0.50000002  0.50000002  1
  Cs  Cs1  1  0.25000001  0.25000001  0.25000001  1
  Cs  Cs2  1  0.75000002  0.75000002  0.75000002  1
  Ag  Ag3  1  0.00000000  0.00000000  0.00000000  1
  Br  Br4  1  0.22585801  0.77414202  0.22585801  1
  Br  Br5  1  0.22585801  0.22585801  0.77414202  1
  Br  Br6  1  0.77414202  0.22585801  0.77414202  1
  Br  Br7  1  0.22585801  0.77414202  0.77414202  1
  Br  Br8  1  0.77414202  0.22585801  0.22585801  1
  Br  Br9  1  0.77414202  0.77414202  0.22585801  1
