# generated using pymatgen
data_KBaHPbO8
_symmetry_space_group_name_H-M   'P 1'
_cell_length_a   5.62389755
_cell_length_b   5.62416840
_cell_length_c   5.62414932
_cell_angle_alpha   74.30592346
_cell_angle_beta   68.61002350
_cell_angle_gamma   111.39311981
_symmetry_Int_Tables_number   1
_chemical_formula_structural   KBaHPbO8
_chemical_formula_sum   'K1 Ba1 H1 Pb1 O8'
_cell_volume   136.49974059
_cell_formula_units_Z   1
loop_
 _symmetry_equiv_pos_site_id
 _symmetry_equiv_pos_as_xyz
  1  'x, y, z'
loop_
 _atom_site_type_symbol
 _atom_site_label
 _atom_site_symmetry_multiplicity
 _atom_site_fract_x
 _atom_site_fract_y
 _atom_site_fract_z
 _atom_site_occupancy
  H  H0  1  0.00000500  0.00004900  0.00000500  1
  K  K1  1  0.99996996  0.49997601  0.49996900  1
  Ba  Ba2  1  0.49995798  0.50000001  0.99998399  1
  Pb  Pb3  1  0.50006798  0.00007100  0.49994700  1
  O  O4  1  0.49993998  0.49778301  0.50221900  1
  O  O5  1  0.00006000  0.50203001  0.99796499  1
  O  O6  1  0.00006300  0.00218500  0.49781199  1
  O  O7  1  0.49994098  0.99789201  0.00211201  1
  O  O8  1  0.49999098  0.64113501  0.35886500  1
  O  O9  1  0.00000400  0.35878200  0.14121800  1
  O  O10  1  0.00000700  0.85892101  0.64108200  1
  O  O11  1  0.49999198  0.14117600  0.85882299  1
