# generated using pymatgen
data_ScZn2CuAgTeMoSe7S4
_symmetry_space_group_name_H-M   'P 1'
_cell_length_a   6.74063683
_cell_length_b   7.22394323
_cell_length_c   10.85031033
_cell_angle_alpha   109.18542480
_cell_angle_beta   90.00000000
_cell_angle_gamma   90.00000000
_symmetry_Int_Tables_number   1
_chemical_formula_structural   ScZn2CuAgTeMoSe7S4
_chemical_formula_sum   'Sc1 Zn2 Cu1 Ag1 Te1 Mo1 Se7 S4'
_cell_volume   499.00050063
_cell_formula_units_Z   1
loop_
 _symmetry_equiv_pos_site_id
 _symmetry_equiv_pos_as_xyz
  1  'x, y, z'
loop_
 _atom_site_type_symbol
 _atom_site_label
 _atom_site_symmetry_multiplicity
 _atom_site_fract_x
 _atom_site_fract_y
 _atom_site_fract_z
 _atom_site_occupancy
  Te  Te0  1  0.48811501  0.34489399  0.88084499  1
  Sc  Sc1  1  0.51208101  0.57237099  0.31755801  1
  Cu  Cu2  1  0.98811503  0.65510599  0.11915501  1
  Ag  Ag3  1  0.01208100  0.42762899  0.68244200  1
  Zn  Zn4  1  0.49422101  0.14968400  0.49508799  1
  Zn  Zn5  1  0.49915901  0.97923498  0.10328602  1
  Mo  Mo6  1  0.99915903  0.02076500  0.89671398  1
  Se  Se7  1  0.99422103  0.85031598  0.50491201  1
  S  S8  1  0.89096302  0.34994499  0.90021899  1
  Se  Se9  1  0.85872602  0.78433898  0.69984201  1
  Se  Se10  1  0.86083602  0.14559600  0.47375599  1
  Se  Se11  1  0.90564902  0.55625699  0.32739101  1
  S  S12  1  0.86525102  0.99929598  0.10238802  1
  Se  Se13  1  0.39096301  0.65005499  0.09978101  1
  Se  Se14  1  0.36525101  0.00070400  0.89761198  1
  Se  Se15  1  0.40564901  0.44374299  0.67260900  1
  S  S16  1  0.36083601  0.85440398  0.52624401  1
  S  S17  1  0.35872601  0.21566100  0.30015800  1
