# generated using pymatgen
data_Na2NbO4
_symmetry_space_group_name_H-M   'P 1'
_cell_length_a   3.89986610
_cell_length_b   3.89986610
_cell_length_c   6.87261248
_cell_angle_alpha   106.48265839
_cell_angle_beta   106.48265839
_cell_angle_gamma   90.00000000
_symmetry_Int_Tables_number   1
_chemical_formula_structural   Na2NbO4
_chemical_formula_sum   'Na2 Nb1 O4'
_cell_volume   95.74194732
_cell_formula_units_Z   1
loop_
 _symmetry_equiv_pos_site_id
 _symmetry_equiv_pos_as_xyz
  1  'x, y, z'
loop_
 _atom_site_type_symbol
 _atom_site_label
 _atom_site_symmetry_multiplicity
 _atom_site_fract_x
 _atom_site_fract_y
 _atom_site_fract_z
 _atom_site_occupancy
  Na  Na0  1  0.64176396  0.64176398  0.28352796  1
  Na  Na1  1  0.35791998  0.35791999  0.71583996  1
  Nb  Nb2  1  0.00459000  0.00459000  0.00918000  1
  O  O3  1  0.99491295  0.49491298  0.98982594  1
  O  O4  1  0.49491296  0.99491296  0.98982594  1
  O  O5  1  0.83507595  0.83507597  0.67015194  1
  O  O6  1  0.17082399  0.17082399  0.34164798  1
