# generated using pymatgen
data_Ba2Na2Sr3Al(HO2)2
_symmetry_space_group_name_H-M   'P 1'
_cell_length_a   5.35806799
_cell_length_b   7.97906494
_cell_length_c   7.97905111
_cell_angle_alpha   120.00028992
_cell_angle_beta   90.00000000
_cell_angle_gamma   90.00000000
_symmetry_Int_Tables_number   1
_chemical_formula_structural   Ba2Na2Sr3Al(HO2)2
_chemical_formula_sum   'Ba2 Na2 Sr3 Al1 H2 O4'
_cell_volume   295.42063684
_cell_formula_units_Z   1
loop_
 _symmetry_equiv_pos_site_id
 _symmetry_equiv_pos_as_xyz
  1  'x, y, z'
loop_
 _atom_site_type_symbol
 _atom_site_label
 _atom_site_symmetry_multiplicity
 _atom_site_fract_x
 _atom_site_fract_y
 _atom_site_fract_z
 _atom_site_occupancy
  Ba  Ba0  1  0.75000000  0.09366200  0.74109499  1
  Sr  Sr1  1  0.75000000  0.25890600  0.35256499  1
  Sr  Sr2  1  0.75000000  0.64743500  0.90633899  1
  Ba  Ba3  1  0.25000000  0.90633800  0.25890499  1
  Na  Na4  1  0.25000000  0.74109400  0.64743499  1
  Sr  Sr5  1  0.25000000  0.35256500  0.09366100  1
  Al  Al6  1  0.25000000  0.33333333  0.66666666  1
  Na  Na7  1  0.75000000  0.66666667  0.33333333  1
  O  O8  1  0.25000000  0.11575100  0.69585899  1
  H  H9  1  0.25000000  0.30413800  0.41989399  1
  H  H10  1  0.25000000  0.58009900  0.88423899  1
  O  O11  1  0.75000000  0.88424900  0.30414099  1
  O  O12  1  0.75000000  0.69586200  0.58010599  1
  O  O13  1  0.75000000  0.41990100  0.11576100  1
