# generated using pymatgen
data_Li3B2H4O11
_symmetry_space_group_name_H-M   'P 1'
_cell_length_a   4.58687019
_cell_length_b   4.68564177
_cell_length_c   6.99671793
_cell_angle_alpha   90.00000000
_cell_angle_beta   90.00000000
_cell_angle_gamma   90.00000000
_symmetry_Int_Tables_number   1
_chemical_formula_structural   Li3B2H4O11
_chemical_formula_sum   'Li3 B2 H4 O11'
_cell_volume   150.37647420
_cell_formula_units_Z   1
loop_
 _symmetry_equiv_pos_site_id
 _symmetry_equiv_pos_as_xyz
  1  'x, y, z'
loop_
 _atom_site_type_symbol
 _atom_site_label
 _atom_site_symmetry_multiplicity
 _atom_site_fract_x
 _atom_site_fract_y
 _atom_site_fract_z
 _atom_site_occupancy
  Li  Li0  1  0.96034596  0.20648801  0.87299201  1
  B  B1  1  0.53965398  0.79351204  0.37299200  1
  Li  Li2  1  0.46034598  0.29351201  0.12700800  1
  Li  Li3  1  0.03965400  0.70648804  0.62700801  1
  B  B4  1  0.72021397  0.59277603  0.93618401  1
  H  H5  1  0.77978597  0.40722402  0.43618400  1
  H  H6  1  0.22021399  0.90722405  0.06381600  1
  H  H7  1  0.27978599  0.09277600  0.56381601  1
  H  H8  1  0.64778197  0.93039305  0.71418401  1
  O  O9  1  0.85221796  0.06960700  0.21418400  1
  O  O10  1  0.14778199  0.56960703  0.28581600  1
  O  O11  1  0.35221799  0.43039302  0.78581601  1
  O  O12  1  0.82612097  0.61037703  0.44705900  1
  O  O13  1  0.67387897  0.38962302  0.94705901  1
  O  O14  1  0.32612099  0.88962304  0.55294101  1
  O  O15  1  0.17387899  0.11037701  0.05294100  1
  O  O16  1  0.84711096  0.91789505  0.76719901  1
  O  O17  1  0.65288897  0.08210500  0.26719900  1
  O  O18  1  0.34711099  0.58210503  0.23280100  1
  O  O19  1  0.15288899  0.41789502  0.73280101  1
