# generated using pymatgen
data_Si3PO8
_symmetry_space_group_name_H-M   'P 1'
_cell_length_a   5.27117395
_cell_length_b   6.90483856
_cell_length_c   6.90483856
_cell_angle_alpha   81.62241364
_cell_angle_beta   67.56088257
_cell_angle_gamma   67.56088257
_symmetry_Int_Tables_number   1
_chemical_formula_structural   Si3PO8
_chemical_formula_sum   'Si3 P1 O8'
_cell_volume   214.69742134
_cell_formula_units_Z   1
loop_
 _symmetry_equiv_pos_site_id
 _symmetry_equiv_pos_as_xyz
  1  'x, y, z'
loop_
 _atom_site_type_symbol
 _atom_site_label
 _atom_site_symmetry_multiplicity
 _atom_site_fract_x
 _atom_site_fract_y
 _atom_site_fract_z
 _atom_site_occupancy
  Si  Si0  1  0.82330000  0.35340000  0.99999996  1
  Si  Si1  1  0.17670000  0.00000000  0.64659998  1
  Si  Si2  1  0.82329997  0.99999999  0.35339998  1
  P  P3  1  0.17669997  0.64660000  -0.00000000  1
  O  O4  1  1.00000000  0.50000000  -0.00000002  1
  O  O5  1  0.49999997  0.99999999  0.49999998  1
  O  O6  1  -0.00000004  0.99999999  0.49999999  1
  O  O7  1  0.49999999  0.50000000  -0.00000001  1
  O  O8  1  -0.00000001  0.20892300  0.79107699  1
  O  O9  1  0.20892297  0.79107699  0.79107698  1
  O  O10  1  0.79107701  0.20892300  0.20892298  1
  O  O11  1  -0.00000004  0.79107699  0.20892300  1
