# generated using pymatgen
data_KBaZnAsO8
_symmetry_space_group_name_H-M   'P 1'
_cell_length_a   5.82923222
_cell_length_b   5.82923222
_cell_length_c   7.68772268
_cell_angle_alpha   112.27955627
_cell_angle_beta   112.27955627
_cell_angle_gamma   90.00000000
_symmetry_Int_Tables_number   1
_chemical_formula_structural   KBaZnAsO8
_chemical_formula_sum   'K1 Ba1 Zn1 As1 O8'
_cell_volume   220.50633190
_cell_formula_units_Z   1
loop_
 _symmetry_equiv_pos_site_id
 _symmetry_equiv_pos_as_xyz
  1  'x, y, z'
loop_
 _atom_site_type_symbol
 _atom_site_label
 _atom_site_symmetry_multiplicity
 _atom_site_fract_x
 _atom_site_fract_y
 _atom_site_fract_z
 _atom_site_occupancy
  K  K0  1  0.49999994  0.49999996  -0.00000006  1
  Ba  Ba1  1  0.24999994  0.74999995  0.49999993  1
  Zn  Zn2  1  0.74999994  0.24999998  0.49999994  1
  As  As3  1  0.00000000  0.00000000  0.00000000  1
  O  O4  1  0.70443895  0.03982600  0.84590495  1
  O  O5  1  0.78982593  0.39146597  0.34590493  1
  O  O6  1  0.55607891  0.95443893  0.34590490  1
  O  O7  1  0.14146595  0.80607894  0.84590493  1
  O  O8  1  0.60853394  0.44392097  0.65409493  1
  O  O9  1  0.19392097  0.29556098  0.15409497  1
  O  O10  1  0.96017389  0.85853394  0.15409490  1
  O  O11  1  0.04556099  0.21017399  0.65409497  1
