# generated using pymatgen
data_NaSrSm4Lu2(BiO2)4
_symmetry_space_group_name_H-M   'P 1'
_cell_length_a   6.23493624
_cell_length_b   6.36792850
_cell_length_c   8.23989582
_cell_angle_alpha   90.00000000
_cell_angle_beta   90.00000000
_cell_angle_gamma   98.27938843
_symmetry_Int_Tables_number   1
_chemical_formula_structural   NaSrSm4Lu2(BiO2)4
_chemical_formula_sum   'Na1 Sr1 Sm4 Lu2 Bi4 O8'
_cell_volume   323.74405088
_cell_formula_units_Z   1
loop_
 _symmetry_equiv_pos_site_id
 _symmetry_equiv_pos_as_xyz
  1  'x, y, z'
loop_
 _atom_site_type_symbol
 _atom_site_label
 _atom_site_symmetry_multiplicity
 _atom_site_fract_x
 _atom_site_fract_y
 _atom_site_fract_z
 _atom_site_occupancy
  Sm  Sm0  1  0.69074499  0.07567600  0.13401100  1
  Na  Na1  1  0.80925494  0.92432401  0.63401101  1
  Sr  Sr2  1  0.30925495  0.92432401  0.86598902  1
  Sm  Sm3  1  0.19074499  0.07567600  0.36598901  1
  Sm  Sm4  1  0.55405396  0.66522101  0.36555401  1
  Sm  Sm5  1  0.94594597  0.33477900  0.86555402  1
  Lu  Lu6  1  0.44594598  0.33477900  0.63444601  1
  Lu  Lu7  1  0.05405396  0.66522101  0.13444600  1
  Bi  Bi8  1  0.88146197  0.37462800  0.38889501  1
  Bi  Bi9  1  0.61853796  0.62537201  0.88889502  1
  Bi  Bi10  1  0.11853796  0.62537201  0.61110501  1
  Bi  Bi11  1  0.38146197  0.37462800  0.11110500  1
  O  O12  1  0.55556998  0.27166100  0.90724602  1
  O  O13  1  0.94442995  0.72833901  0.40724601  1
  O  O14  1  0.44442995  0.72833901  0.09275400  1
  O  O15  1  0.05556998  0.27166100  0.59275401  1
  O  O16  1  0.54459498  0.28382400  0.34134101  1
  O  O17  1  0.95540495  0.71617601  0.84134102  1
  O  O18  1  0.45540495  0.71617601  0.65865901  1
  O  O19  1  0.04459498  0.28382400  0.15865900  1
