# generated using pymatgen
data_Li6SiGeAs
_symmetry_space_group_name_H-M   'P 1'
_cell_length_a   5.89087296
_cell_length_b   7.21042871
_cell_length_c   7.25117731
_cell_angle_alpha   80.34588623
_cell_angle_beta   66.39437866
_cell_angle_gamma   66.10623932
_symmetry_Int_Tables_number   1
_chemical_formula_structural   Li6SiGeAs
_chemical_formula_sum   'Li6 Si1 Ge1 As1'
_cell_volume   258.03373807
_cell_formula_units_Z   1
loop_
 _symmetry_equiv_pos_site_id
 _symmetry_equiv_pos_as_xyz
  1  'x, y, z'
loop_
 _atom_site_type_symbol
 _atom_site_label
 _atom_site_symmetry_multiplicity
 _atom_site_fract_x
 _atom_site_fract_y
 _atom_site_fract_z
 _atom_site_occupancy
  Li  Li0  1  0.80651102  0.81204499  0.58916605  1
  Li  Li1  1  0.62335002  0.59862600  0.20129205  1
  Li  Li2  1  0.39765401  0.38303100  0.80615601  1
  Li  Li3  1  0.97848499  0.00897800  0.00242605  1
  Ge  Ge4  1  0.05678801  0.27019200  0.11709201  1
  As  As5  1  0.88201099  0.10408800  0.69692803  1
  Li  Li6  1  0.63540803  0.92901399  0.29122506  1
  Li  Li7  1  0.42132303  0.71823099  0.90606502  1
  Si  Si8  1  0.24847102  0.47579600  0.48965002  1
