# generated using pymatgen
data_BaNa4LiMnAs(N2O)2
_symmetry_space_group_name_H-M   'P 1'
_cell_length_a   7.06897211
_cell_length_b   7.06897211
_cell_length_c   7.06897211
_cell_angle_alpha   109.47122192
_cell_angle_beta   109.47122192
_cell_angle_gamma   109.47122192
_symmetry_Int_Tables_number   1
_chemical_formula_structural   BaNa4LiMnAs(N2O)2
_chemical_formula_sum   'Ba1 Na4 Li1 Mn1 As1 N4 O2'
_cell_volume   271.92359499
_cell_formula_units_Z   1
loop_
 _symmetry_equiv_pos_site_id
 _symmetry_equiv_pos_as_xyz
  1  'x, y, z'
loop_
 _atom_site_type_symbol
 _atom_site_label
 _atom_site_symmetry_multiplicity
 _atom_site_fract_x
 _atom_site_fract_y
 _atom_site_fract_z
 _atom_site_occupancy
  Ba  Ba0  1  0.49447401  0.00000000  1.00000002  1
  Na  Na1  1  0.00000003  0.50000003  0.99447404  1
  Na  Na2  1  0.50000004  0.49447403  0.50000005  1
  Na  Na3  1  0.00552600  0.00552600  0.50552601  1
  Na  Na4  1  0.96476402  0.00000000  1.00000004  1
  Mn  Mn5  1  0.00000003  0.50000003  0.46476403  1
  Li  Li6  1  0.50000007  0.96476405  0.50000007  1
  As  As7  1  0.53523605  0.53523603  0.03523604  1
  N  N8  1  0.75000006  0.74514304  0.99514307  1
  N  N9  1  0.25000005  0.75485704  0.50485705  1
  N  N10  1  0.75485702  0.00485700  0.75000003  1
  O  O11  1  0.74514305  0.49514303  0.25000005  1
  N  N12  1  0.00485702  0.25000001  0.25485702  1
  O  O13  1  0.49514306  0.75000004  0.24514306  1
