# generated using pymatgen
data_NaZn3
_symmetry_space_group_name_H-M   'P 1'
_cell_length_a   4.25864792
_cell_length_b   4.73221922
_cell_length_c   8.74379635
_cell_angle_alpha   90.00000000
_cell_angle_beta   90.00000000
_cell_angle_gamma   116.74131775
_symmetry_Int_Tables_number   1
_chemical_formula_structural   NaZn3
_chemical_formula_sum   'Na1 Zn3'
_cell_volume   157.36603723
_cell_formula_units_Z   1
loop_
 _symmetry_equiv_pos_site_id
 _symmetry_equiv_pos_as_xyz
  1  'x, y, z'
loop_
 _atom_site_type_symbol
 _atom_site_label
 _atom_site_symmetry_multiplicity
 _atom_site_fract_x
 _atom_site_fract_y
 _atom_site_fract_z
 _atom_site_occupancy
  Na  Na0  1  0.35752706  1.00000004  0.88224896  1
  Zn  Zn1  1  0.64247306  1.00000004  0.11775100  1
  Zn  Zn2  1  0.14247305  1.00000004  0.38224898  1
  Zn  Zn3  1  0.85752702  0.00000000  0.61775098  1
