# generated using pymatgen
data_Li7Mn(CoO5)2
_symmetry_space_group_name_H-M   'P 1'
_cell_length_a   5.15154409
_cell_length_b   5.18299818
_cell_length_c   7.71999598
_cell_angle_alpha   83.05862427
_cell_angle_beta   70.50956726
_cell_angle_gamma   68.76354218
_symmetry_Int_Tables_number   1
_chemical_formula_structural   Li7Mn(CoO5)2
_chemical_formula_sum   'Li7 Mn1 Co2 O10'
_cell_volume   181.12035457
_cell_formula_units_Z   1
loop_
 _symmetry_equiv_pos_site_id
 _symmetry_equiv_pos_as_xyz
  1  'x, y, z'
loop_
 _atom_site_type_symbol
 _atom_site_label
 _atom_site_symmetry_multiplicity
 _atom_site_fract_x
 _atom_site_fract_y
 _atom_site_fract_z
 _atom_site_occupancy
  Li  Li0  1  0.69848200  0.00000000  0.60303598  1
  Li  Li1  1  0.79825001  0.50000000  0.40349997  1
  Li  Li2  1  0.10251200  0.00000000  0.79497601  1
  Li  Li3  1  0.40021501  0.50000000  0.19956999  1
  Li  Li4  1  0.90020300  0.00000000  0.19959396  1
  Li  Li5  1  0.20095301  0.50000000  0.59809400  1
  Li  Li6  1  0.60000001  0.50000000  0.79999999  1
  Mn  Mn7  1  0.29844700  0.00000000  0.40310599  1
  Co  Co8  1  0.50388301  1.00000001  0.99223400  1
  Co  Co9  1  0.99900501  0.50000000  0.00198996  1
  O  O10  1  0.85453601  0.73514201  0.79397298  1
  O  O11  1  0.97246301  0.27347700  0.59987797  1
  O  O12  1  0.66596501  0.77161001  0.19701598  1
  O  O13  1  0.42765901  0.72652301  0.59987799  1
  O  O14  1  0.35149100  0.26485800  0.79397300  1
  O  O15  1  0.75347601  0.24144300  0.01082597  1
  O  O16  1  0.54824000  0.24418200  0.40026998  1
  O  O17  1  0.23569801  0.75855701  0.01082599  1
  O  O18  1  0.05149001  0.75581801  0.40027001  1
  O  O19  1  0.13701900  0.22839000  0.19701600  1
