# generated using pymatgen
data_CsK2NaLiCuOF11
_symmetry_space_group_name_H-M   'P 1'
_cell_length_a   6.29644203
_cell_length_b   6.30139208
_cell_length_c   9.22084332
_cell_angle_alpha   70.01995850
_cell_angle_beta   90.00000000
_cell_angle_gamma   90.00000000
_symmetry_Int_Tables_number   1
_chemical_formula_structural   CsK2NaLiCuOF11
_chemical_formula_sum   'Cs1 K2 Na1 Li1 Cu1 O1 F11'
_cell_volume   343.82955362
_cell_formula_units_Z   1
loop_
 _symmetry_equiv_pos_site_id
 _symmetry_equiv_pos_as_xyz
  1  'x, y, z'
loop_
 _atom_site_type_symbol
 _atom_site_label
 _atom_site_symmetry_multiplicity
 _atom_site_fract_x
 _atom_site_fract_y
 _atom_site_fract_z
 _atom_site_occupancy
  Cs  Cs0  1  0.50000000  0.33946099  0.32107800  1
  K  K1  1  0.00000000  0.16053899  0.67892198  1
  Na  Na2  1  0.50000000  0.66053898  0.67892200  1
  K  K3  1  0.00000000  0.83946097  0.32107802  1
  Li  Li4  1  0.50000000  0.00000000  0.00000000  1
  Cu  Cu5  1  0.00000000  0.49999998  0.00000002  1
  F  F6  1  0.15775000  0.74001898  0.83428400  1
  F  F7  1  0.65775000  0.75998098  0.16571602  1
  F  F8  1  0.34225000  0.07430300  0.16571600  1
  F  F9  1  0.84225000  0.42569699  0.83428399  1
  O  O10  1  0.84225000  0.25998099  0.16571600  1
  F  F11  1  0.34225000  0.24001899  0.83428398  1
  F  F12  1  0.25000000  0.00689400  0.49999998  1
  F  F13  1  0.75000000  0.49310598  0.50000000  1
  F  F14  1  0.75000000  0.99310597  0.50000002  1
  F  F15  1  0.25000000  0.50689398  0.50000000  1
  F  F16  1  0.15775000  0.57430298  0.16571602  1
  F  F17  1  0.65775000  0.92569697  0.83428401  1
