# generated using pymatgen
data_BeSi2PC2N2(O4F)2
_symmetry_space_group_name_H-M   'P 1'
_cell_length_a   5.25457287
_cell_length_b   9.21100426
_cell_length_c   9.21100330
_cell_angle_alpha   120.00000000
_cell_angle_beta   90.00000000
_cell_angle_gamma   90.00000000
_symmetry_Int_Tables_number   1
_chemical_formula_structural   BeSi2PC2N2(O4F)2
_chemical_formula_sum   'Be1 Si2 P1 C2 N2 O8 F2'
_cell_volume   386.08414914
_cell_formula_units_Z   1
loop_
 _symmetry_equiv_pos_site_id
 _symmetry_equiv_pos_as_xyz
  1  'x, y, z'
loop_
 _atom_site_type_symbol
 _atom_site_label
 _atom_site_symmetry_multiplicity
 _atom_site_fract_x
 _atom_site_fract_y
 _atom_site_fract_z
 _atom_site_occupancy
  Si  Si0  1  0.75000002  0.11694900  0.55847501  1
  Be  Be1  1  0.25000001  0.55847398  0.44152500  1
  Si  Si2  1  0.25000001  0.55847398  0.11694799  1
  P  P3  1  0.25000001  0.88305096  0.44152499  1
  C  C4  1  0.75000002  0.44152598  0.88305202  1
  C  C5  1  0.75000002  0.44152598  0.55847501  1
  N  N6  1  0.75000002  0.23737099  0.47474201  1
  N  N7  1  0.25000001  0.76262897  0.52525800  1
  O  O8  1  1.00000003  0.49999998  0.50000000  1
  F  F9  1  0.50000001  0.00000000  0.50000002  1
  O  O10  1  0.25000001  0.47474198  0.23737099  1
  O  O11  1  0.75000002  0.52525798  0.76262901  1
  O  O12  1  0.75000002  0.23737099  0.76262902  1
  O  O13  1  0.50000001  0.49999998  0.50000000  1
  O  O14  1  0.50000001  0.49999998  1.00000002  1
  O  O15  1  0.25000001  0.76262897  0.23737099  1
  F  F16  1  0.00000000  0.00000000  0.50000002  1
  O  O17  1  1.00000003  0.49999998  1.00000002  1
