# generated using pymatgen
data_KBaTl2SeBr4Cl7
_symmetry_space_group_name_H-M   'P 1'
_cell_length_a   7.17638445
_cell_length_b   8.61720753
_cell_length_c   9.13047600
_cell_angle_alpha   61.84278107
_cell_angle_beta   73.44196320
_cell_angle_gamma   90.00000000
_symmetry_Int_Tables_number   1
_chemical_formula_structural   KBaTl2SeBr4Cl7
_chemical_formula_sum   'K1 Ba1 Tl2 Se1 Br4 Cl7'
_cell_volume   471.08743786
_cell_formula_units_Z   1
loop_
 _symmetry_equiv_pos_site_id
 _symmetry_equiv_pos_as_xyz
  1  'x, y, z'
loop_
 _atom_site_type_symbol
 _atom_site_label
 _atom_site_symmetry_multiplicity
 _atom_site_fract_x
 _atom_site_fract_y
 _atom_site_fract_z
 _atom_site_occupancy
  Ba  Ba0  1  0.75000000  0.12481501  0.00000001  1
  Tl  Tl1  1  0.24999999  0.87518504  0.00000003  1
  K  K2  1  0.73063899  0.62237103  0.50346001  1
  Tl  Tl3  1  0.76936100  0.12583101  0.49653999  1
  Br  Br4  1  0.26936099  0.37762902  0.49654000  1
  Br  Br5  1  0.23063899  0.87416904  0.50346001  1
  Br  Br6  1  0.74999999  0.62330803  0.00000003  1
  Br  Br7  1  0.24999999  0.37669202  0.00000001  1
  Cl  Cl8  1  0.50340700  0.20295501  0.80177298  1
  Cl  Cl9  1  0.99659301  0.00472800  0.19822700  1
  Cl  Cl10  1  0.49659299  0.79704503  0.19822702  1
  Cl  Cl11  1  0.00340698  0.99527204  0.80177300  1
  Cl  Cl12  1  0.96673700  0.45187802  0.78386200  1
  Cl  Cl13  1  0.53326300  0.23574001  0.21613801  1
  Cl  Cl14  1  0.03326299  0.54812202  0.21613801  1
  Se  Se15  1  0.46673699  0.76426003  0.78386200  1
