# generated using pymatgen
data_MgScTaMnMo3NO10
_symmetry_space_group_name_H-M   'P 1'
_cell_length_a   5.33908987
_cell_length_b   5.55175209
_cell_length_c   9.46923828
_cell_angle_alpha   89.57420349
_cell_angle_beta   90.00000000
_cell_angle_gamma   90.00000000
_symmetry_Int_Tables_number   1
_chemical_formula_structural   MgScTaMnMo3NO10
_chemical_formula_sum   'Mg1 Sc1 Ta1 Mn1 Mo3 N1 O10'
_cell_volume   280.67281371
_cell_formula_units_Z   1
loop_
 _symmetry_equiv_pos_site_id
 _symmetry_equiv_pos_as_xyz
  1  'x, y, z'
loop_
 _atom_site_type_symbol
 _atom_site_label
 _atom_site_symmetry_multiplicity
 _atom_site_fract_x
 _atom_site_fract_y
 _atom_site_fract_z
 _atom_site_occupancy
  Mg  Mg0  1  0.92019202  0.23241800  0.25396901  1
  Sc  Sc1  1  0.42019201  0.76758199  0.74603104  1
  Mn  Mn2  1  0.49003501  0.26352100  0.93398703  1
  Ta  Ta3  1  0.99003502  0.73647899  0.06601303  1
  Mo  Mo4  1  0.01552300  0.27088400  0.60023702  1
  Mo  Mo5  1  0.51552301  0.72911599  0.39976303  1
  Mo  Mo6  1  0.69768202  0.44692999  0.40072502  1
  N  N7  1  0.19768200  0.55306999  0.59927503  1
  O  O8  1  0.62992302  0.85634599  0.56671004  1
  O  O9  1  0.12992300  0.14365400  0.43329001  1
  O  O10  1  0.70250002  0.90730998  0.27234604  1
  O  O11  1  0.20250000  0.09269000  0.72765402  1
  O  O12  1  0.19898500  0.65115099  0.91922104  1
  O  O13  1  0.69898502  0.34884899  0.08077901  1
  O  O14  1  0.13514500  0.53566499  0.19909602  1
  O  O15  1  0.63514502  0.46433499  0.80090403  1
  O  O16  1  0.14701600  0.01804000  0.11954000  1
  O  O17  1  0.64701602  0.98195998  0.88046005  1
