# generated using pymatgen
data_LiEuMg2TiMn(NO4)2
_symmetry_space_group_name_H-M   'P 1'
_cell_length_a   3.62598991
_cell_length_b   5.06222486
_cell_length_c   11.67549801
_cell_angle_alpha   90.00000000
_cell_angle_beta   90.00000000
_cell_angle_gamma   90.00000000
_symmetry_Int_Tables_number   1
_chemical_formula_structural   LiEuMg2TiMn(NO4)2
_chemical_formula_sum   'Li1 Eu1 Mg2 Ti1 Mn1 N2 O8'
_cell_volume   214.31049457
_cell_formula_units_Z   1
loop_
 _symmetry_equiv_pos_site_id
 _symmetry_equiv_pos_as_xyz
  1  'x, y, z'
loop_
 _atom_site_type_symbol
 _atom_site_label
 _atom_site_symmetry_multiplicity
 _atom_site_fract_x
 _atom_site_fract_y
 _atom_site_fract_z
 _atom_site_occupancy
  Li  Li0  1  0.50000001  0.13965500  0.00000000  1
  Eu  Eu1  1  -0.00000000  0.86034502  0.50000000  1
  Mg  Mg2  1  -0.00000000  0.60207102  0.84876000  1
  Mg  Mg3  1  0.50000001  0.39792901  0.65124000  1
  Mn  Mn4  1  0.50000001  0.39792901  0.34876000  1
  Ti  Ti5  1  -0.00000000  0.60207102  0.15124000  1
  O  O6  1  0.50000001  0.54906401  0.50000000  1
  N  N7  1  -0.00000000  0.45093601  0.00000000  1
  N  N8  1  0.50000001  0.46283101  0.82574100  1
  O  O9  1  -0.00000000  0.53716901  0.67425900  1
  O  O10  1  0.50000001  0.46283101  0.17425900  1
  O  O11  1  -0.00000000  0.53716901  0.32574100  1
  O  O12  1  -0.00000000  0.93462302  0.12182700  1
  O  O13  1  0.50000001  0.06537700  0.37817300  1
  O  O14  1  0.50000001  0.06537700  0.62182700  1
  O  O15  1  -0.00000000  0.93462302  0.87817300  1
