# generated using pymatgen
data_Na4YScO6
_symmetry_space_group_name_H-M   'P 1'
_cell_length_a   5.16878891
_cell_length_b   5.57315540
_cell_length_c   6.66847801
_cell_angle_alpha   72.26858521
_cell_angle_beta   69.64488983
_cell_angle_gamma   89.87441254
_symmetry_Int_Tables_number   1
_chemical_formula_structural   Na4YScO6
_chemical_formula_sum   'Na4 Y1 Sc1 O6'
_cell_volume   170.38261867
_cell_formula_units_Z   1
loop_
 _symmetry_equiv_pos_site_id
 _symmetry_equiv_pos_as_xyz
  1  'x, y, z'
loop_
 _atom_site_type_symbol
 _atom_site_label
 _atom_site_symmetry_multiplicity
 _atom_site_fract_x
 _atom_site_fract_y
 _atom_site_fract_z
 _atom_site_occupancy
  Na  Na0  1  0.74598908  0.75236601  0.50188292  1
  Na  Na1  1  0.24887703  0.25513000  0.50266697  1
  Na  Na2  1  0.98523007  0.47748001  0.04718493  1
  Na  Na3  1  0.51443102  0.00643400  0.96172996  1
  Y  Y4  1  0.56229504  0.29272700  0.18703996  1
  Sc  Sc5  1  0.93304005  0.20611800  0.81879493  1
  O  O6  1  0.39876508  0.92697701  0.62582593  1
  O  O7  1  0.49327705  0.40803001  0.63699695  1
  O  O8  1  0.10006204  0.58263401  0.37504996  1
  O  O9  1  0.99978505  0.10230700  0.36608994  1
  O  O10  1  0.72382708  0.77054701  0.19642792  1
  O  O11  1  0.77276608  0.72970501  0.80630891  1
