# generated using pymatgen
data_BaLu2Tl3InSnS12
_symmetry_space_group_name_H-M   'P 1'
_cell_length_a   7.45607519
_cell_length_b   7.45607519
_cell_length_c   12.89373875
_cell_angle_alpha   73.19378662
_cell_angle_beta   73.19378662
_cell_angle_gamma   60.00000763
_symmetry_Int_Tables_number   1
_chemical_formula_structural   BaLu2Tl3InSnS12
_chemical_formula_sum   'Ba1 Lu2 Tl3 In1 Sn1 S12'
_cell_volume   585.14991318
_cell_formula_units_Z   1
loop_
 _symmetry_equiv_pos_site_id
 _symmetry_equiv_pos_as_xyz
  1  'x, y, z'
loop_
 _atom_site_type_symbol
 _atom_site_label
 _atom_site_symmetry_multiplicity
 _atom_site_fract_x
 _atom_site_fract_y
 _atom_site_fract_z
 _atom_site_occupancy
  Tl  Tl0  1  0.87384103  0.87384100  0.37847693  1
  Ba  Ba1  1  0.12615900  0.12615900  0.62152298  1
  Tl  Tl2  1  0.71095902  0.71095900  0.86712293  1
  Tl  Tl3  1  0.28904101  0.28904100  0.13287698  1
  Lu  Lu4  1  0.58876602  0.58876600  0.23370195  1
  Lu  Lu5  1  0.41123401  0.41123400  0.76629795  1
  In  In6  1  0.00000000  0.00000000  0.00000000  1
  Sn  Sn7  1  0.50000002  0.50000000  0.49999995  1
  S  S8  1  0.84886302  0.38788600  0.37536495  1
  S  S9  1  0.38788601  0.38788600  0.37536496  1
  S  S10  1  0.38788602  0.84886300  0.37536494  1
  S  S11  1  0.15113702  0.61211400  0.62463496  1
  S  S12  1  0.61211402  0.61211400  0.62463494  1
  S  S13  1  0.61211401  0.15113700  0.62463496  1
  S  S14  1  0.71947801  0.19954500  0.88143195  1
  S  S15  1  0.19954501  0.19954500  0.88143197  1
  S  S16  1  0.19954502  0.71947800  0.88143195  1
  S  S17  1  0.28052202  0.80045500  0.11856796  1
  S  S18  1  0.80045503  0.80045500  0.11856794  1
  S  S19  1  0.80045501  0.28052200  0.11856796  1
