# generated using pymatgen
data_Rb3Al3H7C
_symmetry_space_group_name_H-M   'P 1'
_cell_length_a   6.87983656
_cell_length_b   6.87983656
_cell_length_c   6.87983656
_cell_angle_alpha   60.00000000
_cell_angle_beta   60.00000000
_cell_angle_gamma   60.00000000
_symmetry_Int_Tables_number   1
_chemical_formula_structural   Rb3Al3H7C
_chemical_formula_sum   'Rb3 Al3 H7 C1'
_cell_volume   230.26045861
_cell_formula_units_Z   1
loop_
 _symmetry_equiv_pos_site_id
 _symmetry_equiv_pos_as_xyz
  1  'x, y, z'
loop_
 _atom_site_type_symbol
 _atom_site_label
 _atom_site_symmetry_multiplicity
 _atom_site_fract_x
 _atom_site_fract_y
 _atom_site_fract_z
 _atom_site_occupancy
  Rb  Rb0  1  0.74999999  0.74999999  0.74999999  1
  Rb  Rb1  1  0.25000000  0.25000000  0.25000000  1
  Rb  Rb2  1  0.87426098  0.12573900  0.12573900  1
  Al  Al3  1  0.87426098  0.87426098  0.12573900  1
  Al  Al4  1  0.87426098  0.12573900  0.87426098  1
  H  H5  1  0.12573900  0.12573900  0.87426098  1
  Al  Al6  1  0.12573900  0.87426098  0.87426098  1
  C  C7  1  0.12573900  0.87426098  0.12573900  1
  H  H8  1  0.74991499  0.74991499  0.25008500  1
  H  H9  1  0.74991499  0.25008500  0.25008500  1
  H  H10  1  0.74991499  0.25008500  0.74991499  1
  H  H11  1  0.25008500  0.25008500  0.74991499  1
  H  H12  1  0.25008500  0.74991499  0.74991499  1
  H  H13  1  0.25008500  0.74991499  0.25008500  1
