# generated using pymatgen
data_Rb5TlSi2(PBr)2
_symmetry_space_group_name_H-M   'P 1'
_cell_length_a   7.08696461
_cell_length_b   7.08696461
_cell_length_c   10.07694054
_cell_angle_alpha   75.68402100
_cell_angle_beta   75.68402100
_cell_angle_gamma   89.18209076
_symmetry_Int_Tables_number   1
_chemical_formula_structural   Rb5TlSi2(PBr)2
_chemical_formula_sum   'Rb5 Tl1 Si2 P2 Br2'
_cell_volume   474.57766975
_cell_formula_units_Z   1
loop_
 _symmetry_equiv_pos_site_id
 _symmetry_equiv_pos_as_xyz
  1  'x, y, z'
loop_
 _atom_site_type_symbol
 _atom_site_label
 _atom_site_symmetry_multiplicity
 _atom_site_fract_x
 _atom_site_fract_y
 _atom_site_fract_z
 _atom_site_occupancy
  Rb  Rb0  1  0.74166405  0.84715700  0.98048589  1
  Rb  Rb1  1  0.15270401  0.25823600  0.51976196  1
  Rb  Rb2  1  0.25823601  0.15270400  0.01976198  1
  Rb  Rb3  1  0.84715704  0.74166400  0.48048590  1
  Tl  Tl4  1  0.34449504  0.65512000  0.75027493  1
  Rb  Rb5  1  0.65512002  0.34449500  0.25027494  1
  Si  Si6  1  0.70734802  0.28701100  0.74913293  1
  Si  Si7  1  0.28701104  0.70734800  0.24913294  1
  P  P8  1  0.84270602  0.39705500  0.85499991  1
  Br  Br9  1  0.39705505  0.84270600  0.35499992  1
  Br  Br10  1  0.58197101  0.18155200  0.65158494  1
  P  P11  1  0.18155203  0.58197100  0.15158495  1
