# generated using pymatgen
data_BaCaMg3BHC2N11
_symmetry_space_group_name_H-M   'P 1'
_cell_length_a   5.55775118
_cell_length_b   5.84402323
_cell_length_c   9.53079224
_cell_angle_alpha   90.00000000
_cell_angle_beta   90.00000000
_cell_angle_gamma   90.00000000
_symmetry_Int_Tables_number   1
_chemical_formula_structural   BaCaMg3BHC2N11
_chemical_formula_sum   'Ba1 Ca1 Mg3 B1 H1 C2 N11'
_cell_volume   309.55657668
_cell_formula_units_Z   1
loop_
 _symmetry_equiv_pos_site_id
 _symmetry_equiv_pos_as_xyz
  1  'x, y, z'
loop_
 _atom_site_type_symbol
 _atom_site_label
 _atom_site_symmetry_multiplicity
 _atom_site_fract_x
 _atom_site_fract_y
 _atom_site_fract_z
 _atom_site_occupancy
  Ba  Ba0  1  0.00005100  0.56991598  0.87693898  1
  Ca  Ca1  1  0.49994898  0.93008396  0.37693899  1
  Mg  Mg2  1  0.50005098  0.43008398  0.12306100  1
  Mg  Mg3  1  0.99994897  0.06991600  0.62306098  1
  C  C4  1  0.99994897  0.43008398  0.12306100  1
  Mg  Mg5  1  0.50005098  0.06991600  0.62306098  1
  B  B6  1  0.49994898  0.56991598  0.87693898  1
  C  C7  1  0.00005100  0.93008396  0.37693899  1
  N  N8  1  0.24999999  0.74439297  0.55437799  1
  N  N9  1  0.24999999  0.75560697  0.05437800  1
  N  N10  1  0.74999998  0.25560699  0.44562199  1
  N  N11  1  0.74999998  0.24439299  0.94562198  1
  N  N12  1  0.24999999  0.40185298  0.69202098  1
  N  N13  1  0.24999999  0.09814700  0.19202100  1
  N  N14  1  0.74999998  0.59814698  0.30797899  1
  H  H15  1  0.74999998  0.90185296  0.80797898  1
  N  N16  1  0.24999999  0.90274396  0.52084799  1
  N  N17  1  0.24999999  0.59725598  0.02084800  1
  N  N18  1  0.74999998  0.09725600  0.47915199  1
  N  N19  1  0.74999998  0.40274398  0.97915198  1
