# generated using pymatgen
data_BaEuBiS3
_symmetry_space_group_name_H-M   'P 1'
_cell_length_a   4.55693388
_cell_length_b   4.55693388
_cell_length_c   8.33663654
_cell_angle_alpha   90.00000000
_cell_angle_beta   90.00000000
_cell_angle_gamma   90.00000000
_symmetry_Int_Tables_number   1
_chemical_formula_structural   BaEuBiS3
_chemical_formula_sum   'Ba1 Eu1 Bi1 S3'
_cell_volume   173.11564650
_cell_formula_units_Z   1
loop_
 _symmetry_equiv_pos_site_id
 _symmetry_equiv_pos_as_xyz
  1  'x, y, z'
loop_
 _atom_site_type_symbol
 _atom_site_label
 _atom_site_symmetry_multiplicity
 _atom_site_fract_x
 _atom_site_fract_y
 _atom_site_fract_z
 _atom_site_occupancy
  Eu  Eu0  1  -0.00000000  0.50000001  0.75836404  1
  Ba  Ba1  1  0.50000001  0.00000000  0.24163601  1
  S  S2  1  -0.00000000  0.50000001  0.36186902  1
  Bi  Bi3  1  0.50000001  0.00000000  0.63813103  1
  S  S4  1  0.00000000  0.00000000  0.00000000  1
  S  S5  1  0.50000001  0.50000001  0.00000000  1
