# generated using pymatgen
data_ZrTlCdBiS3
_symmetry_space_group_name_H-M   'P 1'
_cell_length_a   6.73534822
_cell_length_b   7.01022911
_cell_length_c   7.01022911
_cell_angle_alpha   76.65708160
_cell_angle_beta   61.28884506
_cell_angle_gamma   61.28884506
_symmetry_Int_Tables_number   1
_chemical_formula_structural   ZrTlCdBiS3
_chemical_formula_sum   'Zr1 Tl1 Cd1 Bi1 S3'
_cell_volume   254.61020726
_cell_formula_units_Z   1
loop_
 _symmetry_equiv_pos_site_id
 _symmetry_equiv_pos_as_xyz
  1  'x, y, z'
loop_
 _atom_site_type_symbol
 _atom_site_label
 _atom_site_symmetry_multiplicity
 _atom_site_fract_x
 _atom_site_fract_y
 _atom_site_fract_z
 _atom_site_occupancy
  Tl  Tl0  1  0.00000000  0.00000000  0.00000000  1
  Zr  Zr1  1  0.49999999  0.50000001  0.50000002  1
  Cd  Cd2  1  0.00000001  0.50000001  0.50000001  1
  Bi  Bi3  1  0.58287198  0.50000001  0.83425603  1
  S  S4  1  0.41712699  0.16574500  0.50000002  1
  S  S5  1  0.08287301  0.83425501  0.50000002  1
  S  S6  1  0.91712797  0.50000001  0.16574402  1
