# generated using pymatgen
data_Li4CoNiF4
_symmetry_space_group_name_H-M   'P 1'
_cell_length_a   5.42967176
_cell_length_b   6.05183887
_cell_length_c   5.49155617
_cell_angle_alpha   84.65875244
_cell_angle_beta   83.42153931
_cell_angle_gamma   64.78939056
_symmetry_Int_Tables_number   1
_chemical_formula_structural   Li4CoNiF4
_chemical_formula_sum   'Li4 Co1 Ni1 F4'
_cell_volume   161.98965608
_cell_formula_units_Z   1
loop_
 _symmetry_equiv_pos_site_id
 _symmetry_equiv_pos_as_xyz
  1  'x, y, z'
loop_
 _atom_site_type_symbol
 _atom_site_label
 _atom_site_symmetry_multiplicity
 _atom_site_fract_x
 _atom_site_fract_y
 _atom_site_fract_z
 _atom_site_occupancy
  Li  Li0  1  0.08050698  0.38397400  0.24787999  1
  Li  Li1  1  0.91949299  0.61602599  0.75211998  1
  Li  Li2  1  0.54976200  0.27508100  0.67841799  1
  Li  Li3  1  0.45023798  0.72491899  0.32158199  1
  Ni  Ni4  1  0.75305399  0.56624599  0.06520499  1
  F  F5  1  0.23464398  0.51853399  0.45650499  1
  Co  Co6  1  0.78509297  0.93236899  0.70205898  1
  F  F7  1  0.24694598  0.43375399  0.93479499  1
  F  F8  1  0.76535600  0.48146599  0.54349499  1
  F  F9  1  0.21490700  0.06763100  0.29794100  1
