# generated using pymatgen
data_Na3LiLuScNb2O11
_symmetry_space_group_name_H-M   'P 1'
_cell_length_a   5.84269190
_cell_length_b   5.84269190
_cell_length_c   9.99009323
_cell_angle_alpha   72.99684906
_cell_angle_beta   72.99684906
_cell_angle_gamma   60.00000381
_symmetry_Int_Tables_number   1
_chemical_formula_structural   Na3LiLuScNb2O11
_chemical_formula_sum   'Na3 Li1 Lu1 Sc1 Nb2 O11'
_cell_volume   277.99635972
_cell_formula_units_Z   1
loop_
 _symmetry_equiv_pos_site_id
 _symmetry_equiv_pos_as_xyz
  1  'x, y, z'
loop_
 _atom_site_type_symbol
 _atom_site_label
 _atom_site_symmetry_multiplicity
 _atom_site_fract_x
 _atom_site_fract_y
 _atom_site_fract_z
 _atom_site_occupancy
  Na  Na0  1  0.75134504  0.75134498  0.74596492  1
  Na  Na1  1  0.00000000  0.00000000  0.00000000  1
  Na  Na2  1  0.24865501  0.24865499  0.25403497  1
  Li  Li3  1  0.37768402  0.37768399  0.86694794  1
  Sc  Sc4  1  0.62231604  0.62231598  0.13305195  1
  Lu  Lu5  1  0.87308305  0.87308298  0.38075093  1
  Nb  Nb6  1  0.12691701  0.12691700  0.61924897  1
  Nb  Nb7  1  0.76011504  0.76011498  0.24956394  1
  O  O8  1  0.50000003  0.49999999  -0.00000004  1
  O  O9  1  0.23988501  0.23988499  0.75043596  1
  O  O10  1  0.00000000  0.00000000  0.49999998  1
  O  O11  1  0.23988504  0.76979398  0.75043594  1
  O  O12  1  0.00000003  0.49999999  0.49999996  1
  O  O13  1  0.76011501  0.23020599  0.24956396  1
  O  O14  1  0.50000000  0.00000000  0.99999995  1
  O  O15  1  0.76979401  0.23988499  0.75043594  1
  O  O16  1  0.50000000  0.00000000  0.49999997  1
  O  O17  1  0.23020604  0.76011498  0.24956396  1
  O  O18  1  0.00000003  0.49999999  0.99999995  1
