# generated using pymatgen
data_LiLaNd2Y(BiO5)2
_symmetry_space_group_name_H-M   'P 1'
_cell_length_a   3.85853791
_cell_length_b   3.85853791
_cell_length_c   16.35144615
_cell_angle_alpha   90.00000000
_cell_angle_beta   90.00000000
_cell_angle_gamma   90.00000000
_symmetry_Int_Tables_number   1
_chemical_formula_structural   LiLaNd2Y(BiO5)2
_chemical_formula_sum   'Li1 La1 Nd2 Y1 Bi2 O10'
_cell_volume   243.44547809
_cell_formula_units_Z   1
loop_
 _symmetry_equiv_pos_site_id
 _symmetry_equiv_pos_as_xyz
  1  'x, y, z'
loop_
 _atom_site_type_symbol
 _atom_site_label
 _atom_site_symmetry_multiplicity
 _atom_site_fract_x
 _atom_site_fract_y
 _atom_site_fract_z
 _atom_site_occupancy
  Nd  Nd0  1  0.50000001  0.00000000  0.24941100  1
  Li  Li1  1  -0.00000000  0.50000001  0.41665000  1
  Nd  Nd2  1  0.50000001  0.00000000  0.58334999  1
  La  La3  1  -0.00000000  0.50000001  0.75058899  1
  Bi  Bi4  1  0.50000001  0.00000000  0.90680799  1
  Y  Y5  1  -0.00000000  0.50000001  0.09319200  1
  Bi  Bi6  1  0.50000001  0.50000001  0.00000000  1
  O  O7  1  0.00000000  0.00000000  0.15390100  1
  O  O8  1  0.50000001  0.50000001  0.17449000  1
  O  O9  1  0.50000001  0.50000001  0.33691200  1
  O  O10  1  0.00000000  0.00000000  0.32908400  1
  O  O11  1  0.00000000  0.00000000  0.50000000  1
  O  O12  1  0.50000001  0.50000001  0.50000000  1
  O  O13  1  0.00000000  0.00000000  0.67091599  1
  O  O14  1  0.50000001  0.50000001  0.66308799  1
  O  O15  1  0.00000000  0.00000000  0.84609899  1
  O  O16  1  0.50000001  0.50000001  0.82550999  1
