# generated using pymatgen
data_V3Ge2O15
_symmetry_space_group_name_H-M   'P 1'
_cell_length_a   5.36042500
_cell_length_b   5.36042500
_cell_length_c   9.58269978
_cell_angle_alpha   99.12066650
_cell_angle_beta   99.12066650
_cell_angle_gamma   98.23351288
_symmetry_Int_Tables_number   1
_chemical_formula_structural   V3Ge2O15
_chemical_formula_sum   'V3 Ge2 O15'
_cell_volume   264.40004059
_cell_formula_units_Z   1
loop_
 _symmetry_equiv_pos_site_id
 _symmetry_equiv_pos_as_xyz
  1  'x, y, z'
loop_
 _atom_site_type_symbol
 _atom_site_label
 _atom_site_symmetry_multiplicity
 _atom_site_fract_x
 _atom_site_fract_y
 _atom_site_fract_z
 _atom_site_occupancy
  V  V0  1  0.00000000  0.00000000  0.00000000  1
  V  V1  1  0.00000000  0.00000000  0.49999999  1
  Ge  Ge2  1  0.82847503  0.56090201  0.19827003  1
  Ge  Ge3  1  0.56090205  0.82847501  0.69827002  1
  V  V4  1  0.43909801  0.17152500  0.30173001  1
  O  O5  1  0.17152503  0.43909801  0.80173000  1
  O  O6  1  0.92427802  0.28625000  0.12912603  1
  O  O7  1  0.23265801  0.24841900  0.92377599  1
  O  O8  1  0.71099000  0.03166300  0.85418300  1
  O  O9  1  0.96833702  0.28901000  0.64581702  1
  O  O10  1  0.52747203  0.47252801  0.25000002  1
  O  O11  1  0.28625005  0.92427801  0.62912602  1
  O  O12  1  0.24841901  0.23265800  0.42377600  1
  O  O13  1  0.75158105  0.76734201  0.57622403  1
  O  O14  1  0.76734205  0.75158101  0.07622404  1
  O  O15  1  0.28901006  0.96833701  0.14581703  1
  O  O16  1  0.07572204  0.71375001  0.87087401  1
  O  O17  1  0.03166304  0.71099001  0.35418301  1
  O  O18  1  0.71375001  0.07572200  0.37087401  1
  O  O19  1  0.47252803  0.52747201  0.75000001  1
