# generated using pymatgen
data_Cs2BH5NO3
_symmetry_space_group_name_H-M   'P 1'
_cell_length_a   5.75283194
_cell_length_b   5.76467085
_cell_length_c   5.85520172
_cell_angle_alpha   90.00000000
_cell_angle_beta   89.97451782
_cell_angle_gamma   90.00000000
_symmetry_Int_Tables_number   1
_chemical_formula_structural   Cs2BH5NO3
_chemical_formula_sum   'Cs2 B1 H5 N1 O3'
_cell_volume   194.17710440
_cell_formula_units_Z   1
loop_
 _symmetry_equiv_pos_site_id
 _symmetry_equiv_pos_as_xyz
  1  'x, y, z'
loop_
 _atom_site_type_symbol
 _atom_site_label
 _atom_site_symmetry_multiplicity
 _atom_site_fract_x
 _atom_site_fract_y
 _atom_site_fract_z
 _atom_site_occupancy
  Cs  Cs0  1  0.87947601  0.50000001  0.20957698  1
  Cs  Cs1  1  0.81325201  0.65592802  0.95261296  1
  B  B2  1  0.81325201  0.34407201  0.95261296  1
  H  H3  1  0.22966100  0.64568402  0.02146200  1
  H  H4  1  0.22966100  0.35431601  0.02146200  1
  H  H5  1  0.17095700  0.50000001  0.78358798  1
  H  H6  1  0.47398801  0.00000000  0.51612598  1
  N  N7  1  0.89426801  0.50000001  0.02315199  1
  O  O8  1  0.14493200  0.50000001  0.95926897  1
  H  H9  1  0.42789100  1.00000003  0.02444199  1
  O  O10  1  0.42919200  0.50000001  0.47996398  1
  O  O11  1  0.97182601  0.00000000  0.56033997  1
