# generated using pymatgen
data_BaCl2
_symmetry_space_group_name_H-M   'P 1'
_cell_length_a   4.68277121
_cell_length_b   7.49413919
_cell_length_c   8.14384842
_cell_angle_alpha   89.84543610
_cell_angle_beta   90.00000000
_cell_angle_gamma   90.00000000
_symmetry_Int_Tables_number   1
_chemical_formula_structural   BaCl2
_chemical_formula_sum   'Ba2 Cl4'
_cell_volume   285.79379533
_cell_formula_units_Z   2
loop_
 _symmetry_equiv_pos_site_id
 _symmetry_equiv_pos_as_xyz
  1  'x, y, z'
loop_
 _atom_site_type_symbol
 _atom_site_label
 _atom_site_symmetry_multiplicity
 _atom_site_fract_x
 _atom_site_fract_y
 _atom_site_fract_z
 _atom_site_occupancy
  Ba  Ba0  1  0.00000000  0.00000000  0.00000000  1
  Ba  Ba1  1  0.49999998  0.00000000  0.50000001  1
  Cl  Cl2  1  -0.00000000  0.23517999  0.65435501  1
  Cl  Cl3  1  0.49999998  0.24188199  0.17970800  1
  Cl  Cl4  1  0.49999998  0.75811798  0.82029200  1
  Cl  Cl5  1  -0.00000000  0.76481998  0.34564499  1
