# generated using pymatgen
data_BaCaS2
_symmetry_space_group_name_H-M   'P 1'
_cell_length_a   4.73749113
_cell_length_b   7.11546803
_cell_length_c   7.11546803
_cell_angle_alpha   90.00000000
_cell_angle_beta   90.00000000
_cell_angle_gamma   90.00000000
_symmetry_Int_Tables_number   1
_chemical_formula_structural   BaCaS2
_chemical_formula_sum   'Ba2 Ca2 S4'
_cell_volume   239.85863217
_cell_formula_units_Z   2
loop_
 _symmetry_equiv_pos_site_id
 _symmetry_equiv_pos_as_xyz
  1  'x, y, z'
loop_
 _atom_site_type_symbol
 _atom_site_label
 _atom_site_symmetry_multiplicity
 _atom_site_fract_x
 _atom_site_fract_y
 _atom_site_fract_z
 _atom_site_occupancy
  Ba  Ba0  1  0.19099499  0.50000000  0.00000000  1
  Ba  Ba1  1  0.80900498  1.00000000  0.50000000  1
  Ca  Ca2  1  0.00000000  0.00000000  0.00000000  1
  Ca  Ca3  1  -0.00000000  0.50000000  0.50000000  1
  S  S4  1  0.29063399  0.20181100  0.29818900  1
  S  S5  1  0.70936598  0.70181100  0.20181100  1
  S  S6  1  0.29063399  0.79818900  0.70181100  1
  S  S7  1  0.70936598  0.29818900  0.79818900  1
