# generated using pymatgen
data_KAlBO4
_symmetry_space_group_name_H-M   'P 1'
_cell_length_a   5.22899818
_cell_length_b   5.22899866
_cell_length_c   8.85985279
_cell_angle_alpha   90.00000000
_cell_angle_beta   90.00000000
_cell_angle_gamma   119.99999237
_symmetry_Int_Tables_number   1
_chemical_formula_structural   KAlBO4
_chemical_formula_sum   'K2 Al2 B2 O8'
_cell_volume   209.79454553
_cell_formula_units_Z   2
loop_
 _symmetry_equiv_pos_site_id
 _symmetry_equiv_pos_as_xyz
  1  'x, y, z'
loop_
 _atom_site_type_symbol
 _atom_site_label
 _atom_site_symmetry_multiplicity
 _atom_site_fract_x
 _atom_site_fract_y
 _atom_site_fract_z
 _atom_site_occupancy
  K  K0  1  0.00000000  0.00000000  0.75685602  1
  K  K1  1  0.00000000  0.00000000  0.25685601  1
  Al  Al2  1  0.33333329  0.66666666  0.45046701  1
  Al  Al3  1  0.66666663  0.33333333  0.95046702  1
  B  B4  1  0.66666663  0.33333333  0.56841601  1
  B  B5  1  0.33333329  0.66666666  0.06841600  1
  O  O6  1  0.61810995  0.60360600  0.51029001  1
  O  O7  1  0.60360593  0.98549600  0.01029000  1
  O  O8  1  0.01450397  0.61811000  0.01029000  1
  O  O9  1  0.98549595  0.38189000  0.51029001  1
  O  O10  1  0.39639399  0.01450400  0.51029001  1
  O  O11  1  0.38188997  0.39639400  0.01029000  1
  O  O12  1  0.66666663  0.33333333  0.75279202  1
  O  O13  1  0.33333329  0.66666666  0.25279201  1
