# generated using pymatgen
data_Sr3LaMo2(WO6)2
_symmetry_space_group_name_H-M   'P 1'
_cell_length_a   5.76605177
_cell_length_b   5.76605177
_cell_length_c   7.77402306
_cell_angle_alpha   90.00000000
_cell_angle_beta   90.00000000
_cell_angle_gamma   95.15831757
_symmetry_Int_Tables_number   1
_chemical_formula_structural   Sr3LaMo2(WO6)2
_chemical_formula_sum   'Sr3 La1 Mo2 W2 O12'
_cell_volume   257.41892084
_cell_formula_units_Z   1
loop_
 _symmetry_equiv_pos_site_id
 _symmetry_equiv_pos_as_xyz
  1  'x, y, z'
loop_
 _atom_site_type_symbol
 _atom_site_label
 _atom_site_symmetry_multiplicity
 _atom_site_fract_x
 _atom_site_fract_y
 _atom_site_fract_z
 _atom_site_occupancy
  Sr  Sr0  1  0.01507403  0.98492598  0.50000000  1
  Sr  Sr1  1  0.53255100  0.46744899  0.99999999  1
  Sr  Sr2  1  0.52243301  0.97757698  0.24741300  1
  La  La3  1  0.02242301  0.47756699  0.24741300  1
  Mo  Mo4  1  0.52243301  0.97757698  0.75258699  1
  Mo  Mo5  1  0.02242301  0.47756699  0.75258699  1
  W  W6  1  0.06907202  0.93092798  0.99999999  1
  W  W7  1  0.57200500  0.42799499  0.50000000  1
  O  O8  1  0.72415599  0.27584399  0.25652000  1
  O  O9  1  0.22790502  0.77209498  0.23723200  1
  O  O10  1  0.72415599  0.27584399  0.74347999  1
  O  O11  1  0.22790502  0.77209498  0.76276799  1
  O  O12  1  0.46737499  0.02203800  -0.00000000  1
  O  O13  1  0.97796199  0.53262499  -0.00000000  1
  O  O14  1  0.49026499  0.03329100  0.50000000  1
  O  O15  1  0.96670899  0.50973499  0.50000000  1
  O  O16  1  0.72732300  0.77074598  0.24482900  1
  O  O17  1  0.22925400  0.27267699  0.24482900  1
  O  O18  1  0.72732300  0.77074598  0.75517099  1
  O  O19  1  0.22925400  0.27267699  0.75517099  1
