# generated using pymatgen
data_RbBa2Tl3Cl14
_symmetry_space_group_name_H-M   'P 1'
_cell_length_a   7.54675198
_cell_length_b   7.54675198
_cell_length_c   12.71654892
_cell_angle_alpha   90.00000000
_cell_angle_beta   90.00000000
_cell_angle_gamma   120.00000000
_symmetry_Int_Tables_number   1
_chemical_formula_structural   RbBa2Tl3Cl14
_chemical_formula_sum   'Rb1 Ba2 Tl3 Cl14'
_cell_volume   627.22022262
_cell_formula_units_Z   1
loop_
 _symmetry_equiv_pos_site_id
 _symmetry_equiv_pos_as_xyz
  1  'x, y, z'
loop_
 _atom_site_type_symbol
 _atom_site_label
 _atom_site_symmetry_multiplicity
 _atom_site_fract_x
 _atom_site_fract_y
 _atom_site_fract_z
 _atom_site_occupancy
  Ba  Ba0  1  0.17268400  0.34536800  0.25000000  1
  Rb  Rb1  1  0.82731600  0.65463201  0.75000000  1
  Ba  Ba2  1  0.65463200  0.82731601  0.25000000  1
  Tl  Tl3  1  0.34536800  0.17268400  0.75000000  1
  Tl  Tl4  1  0.17268400  0.82731601  0.25000000  1
  Tl  Tl5  1  0.82731600  0.17268400  0.75000000  1
  Cl  Cl6  1  0.50000001  1.00000001  1.00000001  1
  Cl  Cl7  1  0.00000000  0.50000001  -0.00000000  1
  Cl  Cl8  1  0.50000001  1.00000001  0.50000000  1
  Cl  Cl9  1  0.50000000  0.50000001  1.00000001  1
  Cl  Cl10  1  0.00000000  0.50000001  0.50000000  1
  Cl  Cl11  1  0.50000000  0.50000001  0.50000000  1
  Cl  Cl12  1  0.00000000  0.00000000  0.00000000  1
  Cl  Cl13  1  0.00000000  0.00000000  0.50000000  1
  Cl  Cl14  1  0.33333334  0.66666667  0.75000000  1
  Cl  Cl15  1  0.66666667  0.33333334  0.25000000  1
  Cl  Cl16  1  0.33333334  0.66666667  0.11272700  1
  Cl  Cl17  1  0.66666667  0.33333334  0.88727301  1
  Cl  Cl18  1  0.66666667  0.33333334  0.61272700  1
  Cl  Cl19  1  0.33333334  0.66666667  0.38727300  1
