# generated using pymatgen
data_HfZnSb4Te7As
_symmetry_space_group_name_H-M   'P 1'
_cell_length_a   4.15341902
_cell_length_b   6.04554081
_cell_length_c   16.83551407
_cell_angle_alpha   90.00000000
_cell_angle_beta   90.00000000
_cell_angle_gamma   90.00000000
_symmetry_Int_Tables_number   1
_chemical_formula_structural   HfZnSb4Te7As
_chemical_formula_sum   'Hf1 Zn1 Sb4 Te7 As1'
_cell_volume   422.73410442
_cell_formula_units_Z   1
loop_
 _symmetry_equiv_pos_site_id
 _symmetry_equiv_pos_as_xyz
  1  'x, y, z'
loop_
 _atom_site_type_symbol
 _atom_site_label
 _atom_site_symmetry_multiplicity
 _atom_site_fract_x
 _atom_site_fract_y
 _atom_site_fract_z
 _atom_site_occupancy
  Zn  Zn0  1  0.50000000  0.48969902  0.93307505  1
  Hf  Hf1  1  -0.00000000  0.98969903  0.06692500  1
  Te  Te2  1  -0.00000000  0.98314503  0.31579702  1
  Sb  Sb3  1  0.50000000  0.50757202  0.44408802  1
  Sb  Sb4  1  -0.00000000  0.00757200  0.55591203  1
  Sb  Sb5  1  0.50000000  0.48314502  0.68420304  1
  Sb  Sb6  1  -0.00000000  0.77040702  0.92936705  1
  Te  Te7  1  0.50000000  0.27040701  0.07063300  1
  Te  Te8  1  -0.00000000  0.73345602  0.19004201  1
  Te  Te9  1  0.50000000  0.26750001  0.30932502  1
  Te  Te10  1  -0.00000000  0.76750002  0.69067504  1
  Te  Te11  1  0.50000000  0.23345601  0.80995804  1
  Te  Te12  1  -0.00000000  0.74822102  0.43930502  1
  As  As13  1  0.50000000  0.24822101  0.56069503  1
