# generated using pymatgen
data_Ba4PrEr(InSe5)2
_symmetry_space_group_name_H-M   'P 1'
_cell_length_a   4.31520796
_cell_length_b   9.80231571
_cell_length_c   13.55904579
_cell_angle_alpha   90.00000000
_cell_angle_beta   90.00000000
_cell_angle_gamma   102.71559143
_symmetry_Int_Tables_number   1
_chemical_formula_structural   Ba4PrEr(InSe5)2
_chemical_formula_sum   'Ba4 Pr1 Er1 In2 Se10'
_cell_volume   559.46837977
_cell_formula_units_Z   1
loop_
 _symmetry_equiv_pos_site_id
 _symmetry_equiv_pos_as_xyz
  1  'x, y, z'
loop_
 _atom_site_type_symbol
 _atom_site_label
 _atom_site_symmetry_multiplicity
 _atom_site_fract_x
 _atom_site_fract_y
 _atom_site_fract_z
 _atom_site_occupancy
  Ba  Ba0  1  0.13256800  0.26513601  0.81358601  1
  Ba  Ba1  1  0.86743201  0.73486401  0.31358600  1
  Ba  Ba2  1  0.11739000  0.23478000  0.18089100  1
  Ba  Ba3  1  0.88261001  0.76522002  0.68089101  1
  Pr  Pr4  1  0.21129101  0.42258201  0.51825201  1
  Er  Er5  1  0.78870901  0.57741801  0.01825200  1
  In  In6  1  0.44727401  0.89454802  0.93640101  1
  In  In7  1  0.55272601  0.10545200  0.43640101  1
  Se  Se8  1  0.35566701  0.71133401  0.50028201  1
  Se  Se9  1  0.64433301  0.28866601  0.00028200  1
  Se  Se10  1  0.29084801  0.58169601  0.15705600  1
  Se  Se11  1  0.70915201  0.41830401  0.65705601  1
  Se  Se12  1  0.31324801  0.62649601  0.87098401  1
  Se  Se13  1  0.68675201  0.37350401  0.37098401  1
  Se  Se14  1  0.50480001  0.00960000  0.76648701  1
  Se  Se15  1  0.49520001  0.99040002  0.26648700  1
  Se  Se16  1  0.05092300  0.10184600  0.54917001  1
  Se  Se17  1  0.94907702  0.89815402  0.04917000  1
