# generated using pymatgen
data_In3AgS4
_symmetry_space_group_name_H-M   'P 1'
_cell_length_a   6.06215191
_cell_length_b   6.09071016
_cell_length_c   7.30380058
_cell_angle_alpha   114.64247894
_cell_angle_beta   114.51930237
_cell_angle_gamma   90.00000000
_symmetry_Int_Tables_number   1
_chemical_formula_structural   In3AgS4
_chemical_formula_sum   'In3 Ag1 S4'
_cell_volume   218.07569184
_cell_formula_units_Z   1
loop_
 _symmetry_equiv_pos_site_id
 _symmetry_equiv_pos_as_xyz
  1  'x, y, z'
loop_
 _atom_site_type_symbol
 _atom_site_label
 _atom_site_symmetry_multiplicity
 _atom_site_fract_x
 _atom_site_fract_y
 _atom_site_fract_z
 _atom_site_occupancy
  In  In0  1  0.11969894  0.86969894  0.23939793  1
  In  In1  1  0.38030096  0.63030096  0.76060194  1
  In  In2  1  0.61678497  0.36678498  0.23356994  1
  Ag  Ag3  1  0.88321498  0.13321499  0.76642995  1
  S  S4  1  0.00346395  0.74999995  0.49999995  1
  S  S5  1  0.49653598  0.24999998  0.49999996  1
  S  S6  1  0.24999996  0.51276297  -0.00000005  1
  S  S7  1  0.74999993  0.98723694  0.99999990  1
