# generated using pymatgen
data_HfNiO4
_symmetry_space_group_name_H-M   'P 1'
_cell_length_a   4.98757219
_cell_length_b   5.60701752
_cell_length_c   6.55981684
_cell_angle_alpha   103.38101959
_cell_angle_beta   112.34365082
_cell_angle_gamma   90.00000000
_symmetry_Int_Tables_number   1
_chemical_formula_structural   HfNiO4
_chemical_formula_sum   'Hf2 Ni2 O8'
_cell_volume   164.27758222
_cell_formula_units_Z   2
loop_
 _symmetry_equiv_pos_site_id
 _symmetry_equiv_pos_as_xyz
  1  'x, y, z'
loop_
 _atom_site_type_symbol
 _atom_site_label
 _atom_site_symmetry_multiplicity
 _atom_site_fract_x
 _atom_site_fract_y
 _atom_site_fract_z
 _atom_site_occupancy
  Hf  Hf0  1  0.73940295  0.74999998  -0.00000003  1
  Hf  Hf1  1  0.26059698  0.24999999  0.99999997  1
  Ni  Ni2  1  0.49999996  0.99999997  0.49999995  1
  Ni  Ni3  1  -0.00000001  0.49999999  0.49999997  1
  O  O4  1  0.68729596  0.46338399  0.19276398  1
  O  O5  1  0.49453198  0.03661600  0.80723598  1
  O  O6  1  0.31270398  0.53661599  0.80723596  1
  O  O7  1  0.50546796  0.96338397  0.19276396  1
  O  O8  1  0.15188399  0.18836999  0.36982098  1
  O  O9  1  0.78206296  0.31162999  0.63017897  1
  O  O10  1  0.84811595  0.81162998  0.63017895  1
  O  O11  1  0.21793698  0.68836998  0.36982097  1
