# generated using pymatgen
data_Li5Ni2O11
_symmetry_space_group_name_H-M   'P 1'
_cell_length_a   3.08018303
_cell_length_b   6.56585979
_cell_length_c   10.41153049
_cell_angle_alpha   108.37993622
_cell_angle_beta   90.00000000
_cell_angle_gamma   90.00000000
_symmetry_Int_Tables_number   1
_chemical_formula_structural   Li5Ni2O11
_chemical_formula_sum   'Li5 Ni2 O11'
_cell_volume   199.82173813
_cell_formula_units_Z   1
loop_
 _symmetry_equiv_pos_site_id
 _symmetry_equiv_pos_as_xyz
  1  'x, y, z'
loop_
 _atom_site_type_symbol
 _atom_site_label
 _atom_site_symmetry_multiplicity
 _atom_site_fract_x
 _atom_site_fract_y
 _atom_site_fract_z
 _atom_site_occupancy
  Li  Li0  1  0.00000000  0.16049500  0.32099001  1
  Li  Li1  1  0.50000000  0.00000000  0.00000000  1
  Li  Li2  1  0.50000000  0.65975002  0.31950001  1
  Li  Li3  1  0.99999999  0.50000001  1.00000002  1
  Li  Li4  1  0.99999999  0.83950502  0.67901002  1
  Ni  Ni5  1  0.50000000  0.34025001  0.68050002  1
  O  O6  1  0.50000000  0.09698600  0.19397200  1
  Ni  Ni7  1  0.00000000  0.85957403  0.33647501  1
  O  O8  1  0.99999999  0.47690101  0.33647501  1
  O  O9  1  0.00000000  0.14042600  0.66352502  1
  O  O10  1  0.50000000  0.56557902  0.13115800  1
  O  O11  1  0.50000000  0.90301403  0.80602802  1
  O  O12  1  0.50000000  0.43442101  0.86884202  1
  O  O13  1  0.00000000  0.52309902  0.66352502  1
  O  O14  1  0.00000000  0.80043902  -0.00000000  1
  O  O15  1  0.50000000  0.76697802  0.53395601  1
  O  O16  1  0.00000000  0.19956101  1.00000003  1
  O  O17  1  0.50000000  0.23302201  0.46604401  1
