# generated using pymatgen
data_LiLaCe2O8
_symmetry_space_group_name_H-M   'P 1'
_cell_length_a   3.49161601
_cell_length_b   5.84784985
_cell_length_c   6.83813906
_cell_angle_alpha   90.00000000
_cell_angle_beta   90.00000000
_cell_angle_gamma   90.00000000
_symmetry_Int_Tables_number   1
_chemical_formula_structural   LiLaCe2O8
_chemical_formula_sum   'Li1 La1 Ce2 O8'
_cell_volume   139.62417410
_cell_formula_units_Z   1
loop_
 _symmetry_equiv_pos_site_id
 _symmetry_equiv_pos_as_xyz
  1  'x, y, z'
loop_
 _atom_site_type_symbol
 _atom_site_label
 _atom_site_symmetry_multiplicity
 _atom_site_fract_x
 _atom_site_fract_y
 _atom_site_fract_z
 _atom_site_occupancy
  Li  Li0  1  0.75000000  0.47451201  0.66316499  1
  La  La1  1  0.75000000  0.97451203  0.83683499  1
  Ce  Ce2  1  0.25000000  0.52548801  0.33683500  1
  Ce  Ce3  1  0.25000000  0.02548800  0.16316500  1
  O  O4  1  0.75000000  0.35413601  0.06655500  1
  O  O5  1  0.75000000  0.85413602  0.43344500  1
  O  O6  1  0.25000000  0.64586402  0.93344499  1
  O  O7  1  0.25000000  0.14586400  0.56655500  1
  O  O8  1  0.75000000  0.73258702  0.12681600  1
  O  O9  1  0.75000000  0.23258701  0.37318400  1
  O  O10  1  0.25000000  0.26741301  0.87318399  1
  O  O11  1  0.25000000  0.76741302  0.62681599  1
