# generated using pymatgen
data_Na4BrCl2O5
_symmetry_space_group_name_H-M   'P 1'
_cell_length_a   6.51387262
_cell_length_b   6.62813663
_cell_length_c   7.06851006
_cell_angle_alpha   74.05168915
_cell_angle_beta   76.67931366
_cell_angle_gamma   61.57104111
_symmetry_Int_Tables_number   1
_chemical_formula_structural   Na4BrCl2O5
_chemical_formula_sum   'Na4 Br1 Cl2 O5'
_cell_volume   256.25322963
_cell_formula_units_Z   1
loop_
 _symmetry_equiv_pos_site_id
 _symmetry_equiv_pos_as_xyz
  1  'x, y, z'
loop_
 _atom_site_type_symbol
 _atom_site_label
 _atom_site_symmetry_multiplicity
 _atom_site_fract_x
 _atom_site_fract_y
 _atom_site_fract_z
 _atom_site_occupancy
  Na  Na0  1  0.43757500  0.31537699  0.50924499  1
  Na  Na1  1  0.56242501  0.68462299  0.49075500  1
  Na  Na2  1  0.00945001  0.28593599  0.50180901  1
  Na  Na3  1  0.99055000  0.71406398  0.49819098  1
  Cl  Cl4  1  0.10653001  0.37696899  0.78139801  1
  Br  Br5  1  0.89347000  0.62303099  0.21860198  1
  O  O6  1  0.38657500  0.11389000  0.28029898  1
  Cl  Cl7  1  0.61342501  0.88610998  0.71970101  1
  O  O8  1  0.83914799  0.13445600  0.33108296  1
  O  O9  1  0.16085202  0.86554398  0.66891703  1
  O  O10  1  0.65150700  0.34366799  0.73178598  1
  O  O11  1  0.34849301  0.65633199  0.26821401  1
