# generated using pymatgen
data_Sr4MgN9
_symmetry_space_group_name_H-M   'P 1'
_cell_length_a   6.00334358
_cell_length_b   6.00334358
_cell_length_c   7.96196461
_cell_angle_alpha   67.85193634
_cell_angle_beta   67.85193634
_cell_angle_gamma   60.00000381
_symmetry_Int_Tables_number   1
_chemical_formula_structural   Sr4MgN9
_chemical_formula_sum   'Sr4 Mg1 N9'
_cell_volume   223.72370387
_cell_formula_units_Z   1
loop_
 _symmetry_equiv_pos_site_id
 _symmetry_equiv_pos_as_xyz
  1  'x, y, z'
loop_
 _atom_site_type_symbol
 _atom_site_label
 _atom_site_symmetry_multiplicity
 _atom_site_fract_x
 _atom_site_fract_y
 _atom_site_fract_z
 _atom_site_occupancy
  Sr  Sr0  1  0.21464701  0.21464700  0.35605900  1
  Sr  Sr1  1  0.99926203  0.99926202  0.00221396  1
  Sr  Sr2  1  0.79235103  0.79235101  0.62294697  1
  Sr  Sr3  1  0.39070301  0.39070301  0.82789099  1
  Mg  Mg4  1  0.60423202  0.60423201  0.18730398  1
  N  N5  1  0.77230702  0.26534000  0.69701299  1
  N  N6  1  0.26534001  0.77230701  0.69701299  1
  N  N7  1  0.26534001  0.26534000  0.69701300  1
  N  N8  1  0.21802101  0.73455201  0.31287498  1
  N  N9  1  0.73455202  0.21802100  0.31287498  1
  N  N10  1  0.73455202  0.73455201  0.31287497  1
  N  N11  1  0.51021402  0.98826302  0.99130898  1
  N  N12  1  0.51021402  0.51021401  0.99130899  1
  N  N13  1  0.98826303  0.51021401  0.99130898  1
