# generated using pymatgen
data_F2
_symmetry_space_group_name_H-M   'P 1'
_cell_length_a   4.54174614
_cell_length_b   4.54174614
_cell_length_c   4.54174662
_cell_angle_alpha   83.81649780
_cell_angle_beta   83.81649780
_cell_angle_gamma   83.81651306
_symmetry_Int_Tables_number   1
_chemical_formula_structural   F2
_chemical_formula_sum   F5
_cell_volume   92.15893319
_cell_formula_units_Z   2
loop_
 _symmetry_equiv_pos_site_id
 _symmetry_equiv_pos_as_xyz
  1  'x, y, z'
loop_
 _atom_site_type_symbol
 _atom_site_label
 _atom_site_symmetry_multiplicity
 _atom_site_fract_x
 _atom_site_fract_y
 _atom_site_fract_z
 _atom_site_occupancy
  F  F0  1  0.99537503  0.99537500  0.99537496  1
  F  F1  1  0.49552701  0.49552700  0.49552698  1
  F  F2  1  0.86869601  0.42770100  0.42770097  1
  F  F3  1  0.42770101  0.42770100  0.86869599  1
  F  F4  1  0.42770102  0.86869600  0.42770097  1
