# generated using pymatgen
data_Li4Co(AsO4)3
_symmetry_space_group_name_H-M   'P 1'
_cell_length_a   5.52821016
_cell_length_b   7.11089468
_cell_length_c   7.11089468
_cell_angle_alpha   88.13358307
_cell_angle_beta   75.72488403
_cell_angle_gamma   75.72488403
_symmetry_Int_Tables_number   1
_chemical_formula_structural   Li4Co(AsO4)3
_chemical_formula_sum   'Li4 Co1 As3 O12'
_cell_volume   262.41851330
_cell_formula_units_Z   1
loop_
 _symmetry_equiv_pos_site_id
 _symmetry_equiv_pos_as_xyz
  1  'x, y, z'
loop_
 _atom_site_type_symbol
 _atom_site_label
 _atom_site_symmetry_multiplicity
 _atom_site_fract_x
 _atom_site_fract_y
 _atom_site_fract_z
 _atom_site_occupancy
  Li  Li0  1  0.25000001  0.23900800  0.76099203  1
  Li  Li1  1  0.75000002  0.76099200  0.23900807  1
  Li  Li2  1  0.29322804  0.77644800  0.61653705  1
  Li  Li3  1  0.79322801  0.61653700  0.77644807  1
  Co  Co4  1  0.20677202  0.38346300  0.22355203  1
  As  As5  1  0.70677199  0.22355200  0.38346305  1
  As  As6  1  0.25000005  0.87550300  0.12449705  1
  As  As7  1  0.74999998  0.12449700  0.87550305  1
  O  O8  1  0.18895706  0.96217100  0.77235906  1
  O  O9  1  0.68895703  0.77235900  0.96217108  1
  O  O10  1  0.39322904  0.83352900  0.39239206  1
  O  O11  1  0.04806304  0.67498200  0.63129704  1
  O  O12  1  0.89322899  0.39239200  0.83352907  1
  O  O13  1  0.54806302  0.63129700  0.67498206  1
  O  O14  1  0.45193701  0.36870300  0.32501804  1
  O  O15  1  0.10677104  0.60760800  0.16647103  1
  O  O16  1  0.95193699  0.32501800  0.36870306  1
  O  O17  1  0.60677099  0.16647100  0.60760804  1
  O  O18  1  0.31104300  0.22764100  0.03782902  1
  O  O19  1  0.81104297  0.03782900  0.22764104  1
