# generated using pymatgen
data_InSn2GeP2
_symmetry_space_group_name_H-M   'P 1'
_cell_length_a   3.49950194
_cell_length_b   3.49950147
_cell_length_c   15.09505844
_cell_angle_alpha   90.00000000
_cell_angle_beta   90.00000000
_cell_angle_gamma   120.00000763
_symmetry_Int_Tables_number   1
_chemical_formula_structural   InSn2GeP2
_chemical_formula_sum   'In1 Sn2 Ge1 P2'
_cell_volume   160.09501751
_cell_formula_units_Z   1
loop_
 _symmetry_equiv_pos_site_id
 _symmetry_equiv_pos_as_xyz
  1  'x, y, z'
loop_
 _atom_site_type_symbol
 _atom_site_label
 _atom_site_symmetry_multiplicity
 _atom_site_fract_x
 _atom_site_fract_y
 _atom_site_fract_z
 _atom_site_occupancy
  In  In0  1  0.66666669  0.33333334  0.12725100  1
  Sn  Sn1  1  0.66666669  0.33333334  0.37022899  1
  Sn  Sn2  1  0.33333337  0.66666668  0.63393498  1
  Ge  Ge3  1  0.33333337  0.66666668  0.24883799  1
  P  P4  1  0.66666669  0.33333334  0.75668898  1
  P  P5  1  0.33333337  0.66666668  0.86305697  1
