# generated using pymatgen
data_K3TlGeWO12
_symmetry_space_group_name_H-M   'P 1'
_cell_length_a   5.73783207
_cell_length_b   5.73783255
_cell_length_c   9.41446114
_cell_angle_alpha   90.00000000
_cell_angle_beta   90.00000000
_cell_angle_gamma   120.00000000
_symmetry_Int_Tables_number   1
_chemical_formula_structural   K3TlGeWO12
_chemical_formula_sum   'K3 Tl1 Ge1 W1 O12'
_cell_volume   268.42428300
_cell_formula_units_Z   1
loop_
 _symmetry_equiv_pos_site_id
 _symmetry_equiv_pos_as_xyz
  1  'x, y, z'
loop_
 _atom_site_type_symbol
 _atom_site_label
 _atom_site_symmetry_multiplicity
 _atom_site_fract_x
 _atom_site_fract_y
 _atom_site_fract_z
 _atom_site_occupancy
  K  K0  1  0.00000000  0.00000000  0.68764299  1
  K  K1  1  0.00000000  0.00000000  0.18764300  1
  Tl  Tl2  1  0.66666668  0.33333335  0.40834899  1
  K  K3  1  0.33333338  0.66666670  0.90834899  1
  Ge  Ge4  1  0.33333338  0.66666670  0.52432899  1
  W  W5  1  0.66666668  0.33333335  0.02432900  1
  O  O6  1  0.05195504  0.52597703  0.63121999  1
  O  O7  1  0.52597803  0.47402302  0.13122000  1
  O  O8  1  0.52597800  0.05195600  0.13122000  1
  O  O9  1  0.47402206  0.94804405  0.63121999  1
  O  O10  1  0.47402203  0.52597703  0.63121999  1
  O  O11  1  0.94804502  0.47402302  0.13122000  1
  O  O12  1  0.38071701  0.19035801  0.92169299  1
  O  O13  1  0.19035906  0.80964204  0.42169299  1
  O  O14  1  0.19035903  0.38071802  0.42169299  1
  O  O15  1  0.80964104  0.61928203  0.92169299  1
  O  O16  1  0.80964100  0.19035801  0.92169299  1
  O  O17  1  0.61928305  0.80964204  0.42169299  1
