# generated using pymatgen
data_K3Si(PO4)2
_symmetry_space_group_name_H-M   'P 1'
_cell_length_a   5.53167009
_cell_length_b   5.53167009
_cell_length_c   6.99093008
_cell_angle_alpha   90.00000000
_cell_angle_beta   90.00000000
_cell_angle_gamma   120.00000000
_symmetry_Int_Tables_number   1
_chemical_formula_structural   K3Si(PO4)2
_chemical_formula_sum   'K3 Si1 P2 O8'
_cell_volume   185.25849534
_cell_formula_units_Z   1
loop_
 _symmetry_equiv_pos_site_id
 _symmetry_equiv_pos_as_xyz
  1  'x, y, z'
loop_
 _atom_site_type_symbol
 _atom_site_label
 _atom_site_symmetry_multiplicity
 _atom_site_fract_x
 _atom_site_fract_y
 _atom_site_fract_z
 _atom_site_occupancy
  K  K0  1  0.66666666  0.33333335  0.50096099  1
  K  K1  1  0.33333335  0.66666669  0.15922900  1
  K  K2  1  0.00000000  0.00000000  0.83252899  1
  P  P3  1  0.66666666  0.33333335  0.99999599  1
  P  P4  1  0.33333335  0.66666669  0.72767199  1
  Si  Si5  1  0.00000000  0.00000000  0.27387000  1
  O  O6  1  0.33333335  0.66666669  0.49738399  1
  O  O7  1  0.00000000  0.00000000  0.50721699  1
  O  O8  1  0.49203302  0.98406604  0.82223399  1
  O  O9  1  0.49203301  0.50796702  0.82223399  1
  O  O10  1  0.01593401  0.50796702  0.82223399  1
  O  O11  1  0.84184900  0.68369802  0.17814400  1
  O  O12  1  0.84184899  0.15815101  0.17814400  1
  O  O13  1  0.31630200  0.15815101  0.17814400  1
