# generated using pymatgen
data_La2HfNiO6
_symmetry_space_group_name_H-M   'P 1'
_cell_length_a   5.31208181
_cell_length_b   5.85681009
_cell_length_c   7.47783709
_cell_angle_alpha   90.00000000
_cell_angle_beta   90.00000000
_cell_angle_gamma   90.00000000
_symmetry_Int_Tables_number   1
_chemical_formula_structural   La2HfNiO6
_chemical_formula_sum   'La4 Hf2 Ni2 O12'
_cell_volume   232.64937850
_cell_formula_units_Z   2
loop_
 _symmetry_equiv_pos_site_id
 _symmetry_equiv_pos_as_xyz
  1  'x, y, z'
loop_
 _atom_site_type_symbol
 _atom_site_label
 _atom_site_symmetry_multiplicity
 _atom_site_fract_x
 _atom_site_fract_y
 _atom_site_fract_z
 _atom_site_occupancy
  La  La0  1  0.01930400  0.91712399  0.74999999  1
  La  La1  1  0.51930402  0.58287599  0.25000000  1
  La  La2  1  0.48069602  0.41712399  0.74999999  1
  La  La3  1  0.98069603  0.08287600  0.25000000  1
  Ni  Ni4  1  0.50000002  0.00000000  0.49999999  1
  Hf  Hf5  1  -0.00000000  0.49999999  0.49999999  1
  Hf  Hf6  1  -0.00000000  0.49999999  0.00000000  1
  Ni  Ni7  1  0.50000002  0.00000000  -0.00000000  1
  O  O8  1  0.69993002  0.32620199  0.44227799  1
  O  O9  1  0.19993001  0.17379800  0.55772199  1
  O  O10  1  0.80007003  0.82620199  0.05772200  1
  O  O11  1  0.30007001  0.67379799  0.94227799  1
  O  O12  1  0.30007001  0.67379799  0.55772199  1
  O  O13  1  0.80007003  0.82620199  0.44227799  1
  O  O14  1  0.19993001  0.17379800  0.94227799  1
  O  O15  1  0.69993002  0.32620199  0.05772200  1
  O  O16  1  0.12160900  0.45611999  0.25000000  1
  O  O17  1  0.62160902  0.04388000  0.74999999  1
  O  O18  1  0.37839101  0.95611998  0.25000000  1
  O  O19  1  0.87839103  0.54387999  0.74999999  1
