# generated using pymatgen
data_BaPb3
_symmetry_space_group_name_H-M   'P 1'
_cell_length_a   3.99265695
_cell_length_b   11.59384441
_cell_length_c   11.59384441
_cell_angle_alpha   120.00000000
_cell_angle_beta   90.00000000
_cell_angle_gamma   90.00000000
_symmetry_Int_Tables_number   1
_chemical_formula_structural   BaPb3
_chemical_formula_sum   'Ba2 Pb6'
_cell_volume   464.78014202
_cell_formula_units_Z   2
loop_
 _symmetry_equiv_pos_site_id
 _symmetry_equiv_pos_as_xyz
  1  'x, y, z'
loop_
 _atom_site_type_symbol
 _atom_site_label
 _atom_site_symmetry_multiplicity
 _atom_site_fract_x
 _atom_site_fract_y
 _atom_site_fract_z
 _atom_site_occupancy
  Ba  Ba0  1  0.25000000  0.66666665  0.33333335  1
  Ba  Ba1  1  0.75000001  0.33333333  0.66666668  1
  Pb  Pb2  1  0.75000001  0.78177798  0.21822202  1
  Pb  Pb3  1  0.75000001  0.43644399  0.21822201  1
  Pb  Pb4  1  0.75000001  0.78177798  0.56355603  1
  Pb  Pb5  1  0.25000000  0.21822200  0.78177801  1
  Pb  Pb6  1  0.25000000  0.56355599  0.78177802  1
  Pb  Pb7  1  0.25000000  0.21822200  0.43644401  1
