# generated using pymatgen
data_KSrMnCuSe6
_symmetry_space_group_name_H-M   'P 1'
_cell_length_a   5.65248489
_cell_length_b   5.67107582
_cell_length_c   7.54454041
_cell_angle_alpha   67.92377472
_cell_angle_beta   90.00000000
_cell_angle_gamma   90.00000000
_symmetry_Int_Tables_number   1
_chemical_formula_structural   KSrMnCuSe6
_chemical_formula_sum   'K1 Sr1 Mn1 Cu1 Se6'
_cell_volume   224.11433121
_cell_formula_units_Z   1
loop_
 _symmetry_equiv_pos_site_id
 _symmetry_equiv_pos_as_xyz
  1  'x, y, z'
loop_
 _atom_site_type_symbol
 _atom_site_label
 _atom_site_symmetry_multiplicity
 _atom_site_fract_x
 _atom_site_fract_y
 _atom_site_fract_z
 _atom_site_occupancy
  K  K0  1  0.75141301  0.00000000  0.50000000  1
  Sr  Sr1  1  0.24858700  0.50000003  0.49999998  1
  Cu  Cu2  1  0.00000000  0.00000000  0.00000000  1
  Mn  Mn3  1  0.50000001  0.50000003  0.99999998  1
  Se  Se4  1  1.00000002  0.50000003  0.99999998  1
  Se  Se5  1  0.50000001  0.00000000  -0.00000000  1
  Se  Se6  1  0.24576700  0.13649501  0.21922099  1
  Se  Se7  1  0.75423301  0.64428403  0.21922098  1
  Se  Se8  1  0.75423301  0.35571502  0.78077998  1
  Se  Se9  1  0.24576700  0.86350504  0.78077996  1
