# generated using pymatgen
data_Na2LaTaO4
_symmetry_space_group_name_H-M   'P 1'
_cell_length_a   6.74056101
_cell_length_b   6.74483967
_cell_length_c   7.54040527
_cell_angle_alpha   95.94525146
_cell_angle_beta   116.12453461
_cell_angle_gamma   102.76737976
_symmetry_Int_Tables_number   1
_chemical_formula_structural   Na2LaTaO4
_chemical_formula_sum   'Na4 La2 Ta2 O8'
_cell_volume   292.17795863
_cell_formula_units_Z   2
loop_
 _symmetry_equiv_pos_site_id
 _symmetry_equiv_pos_as_xyz
  1  'x, y, z'
loop_
 _atom_site_type_symbol
 _atom_site_label
 _atom_site_symmetry_multiplicity
 _atom_site_fract_x
 _atom_site_fract_y
 _atom_site_fract_z
 _atom_site_occupancy
  Na  Na0  1  0.26150008  0.98337906  0.26280707  1
  Na  Na1  1  0.75250704  0.54325203  0.00628203  1
  Na  Na2  1  0.24749304  0.45674803  0.99371800  1
  Na  Na3  1  0.73849999  0.01662100  0.73719296  1
  La  La4  1  0.21529307  0.89456405  0.73785705  1
  La  La5  1  0.73793903  0.51129903  0.50056801  1
  Ta  Ta6  1  0.26206104  0.48870103  0.49943202  1
  Ta  Ta7  1  0.78470700  0.10543601  0.26214298  1
  O  O8  1  0.02127406  0.69507504  0.43928804  1
  O  O9  1  0.41857405  0.69467804  0.78271803  1
  O  O10  1  0.96036005  0.71112304  0.78990602  1
  O  O11  1  0.48595805  0.67317704  0.40847203  1
  O  O12  1  0.58142602  0.30532202  0.21728201  1
  O  O13  1  0.97872601  0.30492502  0.56071199  1
  O  O14  1  0.51404202  0.32682302  0.59152800  1
  O  O15  1  0.03964002  0.28887702  0.21009402  1
