# generated using pymatgen
data_Na3NpWCl2O13
_symmetry_space_group_name_H-M   'P 1'
_cell_length_a   5.03819895
_cell_length_b   7.22977448
_cell_length_c   9.42747402
_cell_angle_alpha   90.00000000
_cell_angle_beta   90.00000000
_cell_angle_gamma   89.64550781
_symmetry_Int_Tables_number   1
_chemical_formula_structural   Na3NpWCl2O13
_chemical_formula_sum   'Na3 Np1 W1 Cl2 O13'
_cell_volume   343.38956613
_cell_formula_units_Z   1
loop_
 _symmetry_equiv_pos_site_id
 _symmetry_equiv_pos_as_xyz
  1  'x, y, z'
loop_
 _atom_site_type_symbol
 _atom_site_label
 _atom_site_symmetry_multiplicity
 _atom_site_fract_x
 _atom_site_fract_y
 _atom_site_fract_z
 _atom_site_occupancy
  Na  Na0  1  0.21185500  0.03668200  0.67352900  1
  Np  Np1  1  0.78814503  0.46331799  0.17352900  1
  Na  Na2  1  0.78814506  0.96331799  0.32647100  1
  Na  Na3  1  0.21185503  0.53668199  0.82647100  1
  Cl  Cl4  1  0.24759701  0.18461900  0.05902100  1
  W  W5  1  0.75240302  0.31538100  0.55902100  1
  Cl  Cl6  1  0.75240305  0.81538099  0.94097900  1
  O  O7  1  0.24759704  0.68461899  0.44097900  1
  O  O8  1  0.30694202  0.39879599  0.12983800  1
  O  O9  1  0.69305801  0.10120400  0.62983800  1
  O  O10  1  0.69305804  0.60120399  0.87016200  1
  O  O11  1  0.30694205  0.89879599  0.37016200  1
  O  O12  1  0.26105502  0.23990100  0.87654300  1
  O  O13  1  0.73894502  0.26009900  0.37654300  1
  O  O14  1  0.73894505  0.76009899  0.12345700  1
  O  O15  1  0.26105504  0.73990099  0.62345700  1
  O  O16  1  0.09129904  0.82692999  0.90600800  1
  O  O17  1  0.90870105  0.67306999  0.40600800  1
  O  O18  1  0.90870102  0.17307000  0.09399200  1
  O  O19  1  0.09129902  0.32693000  0.59399200  1
