# generated using pymatgen
data_Na2LiSb3SeO9
_symmetry_space_group_name_H-M   'P 1'
_cell_length_a   5.33328915
_cell_length_b   6.85147572
_cell_length_c   6.90529776
_cell_angle_alpha   98.05289459
_cell_angle_beta   95.82032013
_cell_angle_gamma   104.65704346
_symmetry_Int_Tables_number   1
_chemical_formula_structural   Na2LiSb3SeO9
_chemical_formula_sum   'Na2 Li1 Sb3 Se1 O9'
_cell_volume   239.22788116
_cell_formula_units_Z   1
loop_
 _symmetry_equiv_pos_site_id
 _symmetry_equiv_pos_as_xyz
  1  'x, y, z'
loop_
 _atom_site_type_symbol
 _atom_site_label
 _atom_site_symmetry_multiplicity
 _atom_site_fract_x
 _atom_site_fract_y
 _atom_site_fract_z
 _atom_site_occupancy
  Na  Na0  1  0.00295101  0.17106300  0.67133200  1
  Li  Li1  1  0.99704902  0.82893699  0.32866806  1
  Sb  Sb2  1  0.81451602  0.66301899  0.77714804  1
  Sb  Sb3  1  0.18548402  0.33698100  0.22285202  1
  Na  Na4  1  0.21217105  0.98103999  0.58292304  1
  Sb  Sb5  1  0.78782898  0.01896000  0.41707701  1
  O  O6  1  0.80274704  0.95661199  0.80003805  1
  Se  Se7  1  0.19725300  0.04338800  0.19996200  1
  O  O8  1  0.84781500  0.29981900  0.15115703  1
  O  O9  1  0.15218504  0.70018099  0.84884302  1
  O  O10  1  0.79477102  0.63531299  0.48091704  1
  O  O11  1  0.20522902  0.36468699  0.51908301  1
  O  O12  1  0.25054401  0.28838400  0.89057001  1
  O  O13  1  0.74945602  0.71161599  0.10943005  1
  O  O14  1  0.24280903  0.68500999  0.29536103  1
  O  O15  1  0.75719100  0.31499000  0.70463902  1
