# generated using pymatgen
data_Tl3ClF2
_symmetry_space_group_name_H-M   'P 1'
_cell_length_a   5.62487793
_cell_length_b   6.42245579
_cell_length_c   6.42245579
_cell_angle_alpha   120.00000000
_cell_angle_beta   90.00000000
_cell_angle_gamma   90.00000000
_symmetry_Int_Tables_number   1
_chemical_formula_structural   Tl3ClF2
_chemical_formula_sum   'Tl3 Cl1 F2'
_cell_volume   200.93055327
_cell_formula_units_Z   1
loop_
 _symmetry_equiv_pos_site_id
 _symmetry_equiv_pos_as_xyz
  1  'x, y, z'
loop_
 _atom_site_type_symbol
 _atom_site_label
 _atom_site_symmetry_multiplicity
 _atom_site_fract_x
 _atom_site_fract_y
 _atom_site_fract_z
 _atom_site_occupancy
  Tl  Tl0  1  0.50000001  0.00000000  -0.00000000  1
  Tl  Tl1  1  1.00000001  1.00000003  0.50000001  1
  Tl  Tl2  1  0.00000000  0.50000002  0.50000001  1
  Cl  Cl3  1  0.00000000  0.50000002  -0.00000000  1
  F  F4  1  0.25536800  0.66666669  0.33333334  1
  F  F5  1  0.74463201  0.33333334  0.66666668  1
