# generated using pymatgen
data_Ba4H7N
_symmetry_space_group_name_H-M   'P 1'
_cell_length_a   6.56379890
_cell_length_b   6.56379890
_cell_length_c   6.56379890
_cell_angle_alpha   90.00000000
_cell_angle_beta   90.00000000
_cell_angle_gamma   90.00000000
_symmetry_Int_Tables_number   1
_chemical_formula_structural   Ba4H7N
_chemical_formula_sum   'Ba4 H7 N1'
_cell_volume   282.79114167
_cell_formula_units_Z   1
loop_
 _symmetry_equiv_pos_site_id
 _symmetry_equiv_pos_as_xyz
  1  'x, y, z'
loop_
 _atom_site_type_symbol
 _atom_site_label
 _atom_site_symmetry_multiplicity
 _atom_site_fract_x
 _atom_site_fract_y
 _atom_site_fract_z
 _atom_site_occupancy
  Ba  Ba0  1  0.62500001  0.37500001  0.87500001  1
  Ba  Ba1  1  0.37500001  0.87500001  0.62500001  1
  Ba  Ba2  1  0.87500001  0.62500001  0.37500001  1
  Ba  Ba3  1  0.12500000  0.12500000  0.12500000  1
  H  H4  1  0.82790701  0.82790701  0.82790701  1
  H  H5  1  0.57790701  0.92209301  0.07790700  1
  H  H6  1  0.92209301  0.07790700  0.57790701  1
  H  H7  1  0.07790700  0.57790701  0.92209301  1
  H  H8  1  0.42209301  0.42209301  0.42209301  1
  H  H9  1  0.17209300  0.32790700  0.67209301  1
  N  N10  1  0.67209301  0.17209300  0.32790700  1
  H  H11  1  0.32790700  0.67209301  0.17209300  1
