# generated using pymatgen
data_NaLiNiO3
_symmetry_space_group_name_H-M   'P 1'
_cell_length_a   5.18781328
_cell_length_b   5.89900112
_cell_length_c   5.90083838
_cell_angle_alpha   60.31815338
_cell_angle_beta   90.38208008
_cell_angle_gamma   90.40619659
_symmetry_Int_Tables_number   1
_chemical_formula_structural   NaLiNiO3
_chemical_formula_sum   'Na2 Li2 Ni2 O6'
_cell_volume   156.88332683
_cell_formula_units_Z   2
loop_
 _symmetry_equiv_pos_site_id
 _symmetry_equiv_pos_as_xyz
  1  'x, y, z'
loop_
 _atom_site_type_symbol
 _atom_site_label
 _atom_site_symmetry_multiplicity
 _atom_site_fract_x
 _atom_site_fract_y
 _atom_site_fract_z
 _atom_site_occupancy
  Na  Na0  1  0.99458000  0.32663300  0.67254001  1
  Na  Na1  1  0.49452101  0.67302201  0.32725700  1
  Li  Li2  1  0.01860702  0.67071001  0.98904997  1
  Li  Li3  1  0.50773500  0.32582700  0.00499601  1
  Ni  Ni4  1  0.51863902  0.98888801  0.67040799  1
  Ni  Ni5  1  0.00782600  0.00517800  0.32557499  1
  O  O6  1  0.46597500  0.28600500  0.72341600  1
  O  O7  1  0.96560001  0.72328101  0.28604001  1
  O  O8  1  0.39650101  0.65446401  0.95285999  1
  O  O9  1  0.89633501  0.95212701  0.65445700  1
  O  O10  1  0.37765100  0.06664500  0.32713100  1
  O  O11  1  0.87782700  0.32722000  0.06627102  1
