# generated using pymatgen
data_La2MgUO6
_symmetry_space_group_name_H-M   'P 1'
_cell_length_a   6.13110781
_cell_length_b   6.15036631
_cell_length_c   6.15036631
_cell_angle_alpha   89.75035858
_cell_angle_beta   60.23374176
_cell_angle_gamma   60.23374176
_symmetry_Int_Tables_number   1
_chemical_formula_structural   La2MgUO6
_chemical_formula_sum   'La2 Mg1 U1 O6'
_cell_volume   165.49153453
_cell_formula_units_Z   1
loop_
 _symmetry_equiv_pos_site_id
 _symmetry_equiv_pos_as_xyz
  1  'x, y, z'
loop_
 _atom_site_type_symbol
 _atom_site_label
 _atom_site_symmetry_multiplicity
 _atom_site_fract_x
 _atom_site_fract_y
 _atom_site_fract_z
 _atom_site_occupancy
  U  U0  1  0.99458301  0.25649401  0.25649404  1
  La  La1  1  0.00541697  0.74350603  0.74350608  1
  La  La2  1  0.49999999  0.50000002  0.00000005  1
  Mg  Mg3  1  0.50000001  0.00000000  0.50000002  1
  O  O4  1  0.43896997  0.81957004  0.81957010  1
  O  O5  1  0.56103000  0.18043001  0.18043003  1
  O  O6  1  1.00000001  0.28757001  0.71243005  1
  O  O7  1  0.99999999  0.71243003  0.28757008  1
  O  O8  1  0.50000000  0.29312701  0.70687305  1
  O  O9  1  0.49999998  0.70687303  0.29312707  1
