# generated using pymatgen
data_RbAlCl3
_symmetry_space_group_name_H-M   'P 1'
_cell_length_a   6.26915407
_cell_length_b   7.41346407
_cell_length_c   7.41346407
_cell_angle_alpha   120.00000000
_cell_angle_beta   90.00000000
_cell_angle_gamma   90.00000000
_symmetry_Int_Tables_number   1
_chemical_formula_structural   RbAlCl3
_chemical_formula_sum   'Rb2 Al2 Cl6'
_cell_volume   298.38840913
_cell_formula_units_Z   2
loop_
 _symmetry_equiv_pos_site_id
 _symmetry_equiv_pos_as_xyz
  1  'x, y, z'
loop_
 _atom_site_type_symbol
 _atom_site_label
 _atom_site_symmetry_multiplicity
 _atom_site_fract_x
 _atom_site_fract_y
 _atom_site_fract_z
 _atom_site_occupancy
  Rb  Rb0  1  0.25000000  0.66666666  0.33333332  1
  Rb  Rb1  1  0.74999999  0.33333333  0.66666664  1
  Al  Al2  1  0.00000000  0.00000000  0.00000000  1
  Al  Al3  1  0.49999999  0.00000000  -0.00000000  1
  Cl  Cl4  1  0.25000000  0.15405600  0.84594498  1
  Cl  Cl5  1  0.25000000  0.15405600  0.30811199  1
  Cl  Cl6  1  0.74999999  0.84594399  0.15405499  1
  Cl  Cl7  1  0.25000000  0.69188899  0.84594497  1
  Cl  Cl8  1  0.74999999  0.30811100  0.15405499  1
  Cl  Cl9  1  0.74999999  0.84594399  0.69188797  1
