# generated using pymatgen
data_TmLuN2
_symmetry_space_group_name_H-M   'P 1'
_cell_length_a   3.29082727
_cell_length_b   3.29082727
_cell_length_c   5.92352676
_cell_angle_alpha   73.87248230
_cell_angle_beta   73.87248230
_cell_angle_gamma   60.00001144
_symmetry_Int_Tables_number   1
_chemical_formula_structural   TmLuN2
_chemical_formula_sum   'Tm1 Lu1 N2'
_cell_volume   52.61948925
_cell_formula_units_Z   1
loop_
 _symmetry_equiv_pos_site_id
 _symmetry_equiv_pos_as_xyz
  1  'x, y, z'
loop_
 _atom_site_type_symbol
 _atom_site_label
 _atom_site_symmetry_multiplicity
 _atom_site_fract_x
 _atom_site_fract_y
 _atom_site_fract_z
 _atom_site_occupancy
  Lu  Lu0  1  0.00000000  0.00000000  0.00000000  1
  Tm  Tm1  1  0.49999999  0.50000002  0.50000001  1
  N  N2  1  0.23748599  0.23748601  0.28754200  1
  N  N3  1  0.76251398  0.76251403  0.71245802  1
