# generated using pymatgen
data_Cs4Cu2O5F
_symmetry_space_group_name_H-M   'P 1'
_cell_length_a   3.86838603
_cell_length_b   6.19181490
_cell_length_c   11.04901695
_cell_angle_alpha   90.00000000
_cell_angle_beta   100.08189392
_cell_angle_gamma   90.00000000
_symmetry_Int_Tables_number   1
_chemical_formula_structural   Cs4Cu2O5F
_chemical_formula_sum   'Cs4 Cu2 O5 F1'
_cell_volume   260.56312755
_cell_formula_units_Z   1
loop_
 _symmetry_equiv_pos_site_id
 _symmetry_equiv_pos_as_xyz
  1  'x, y, z'
loop_
 _atom_site_type_symbol
 _atom_site_label
 _atom_site_symmetry_multiplicity
 _atom_site_fract_x
 _atom_site_fract_y
 _atom_site_fract_z
 _atom_site_occupancy
  Cs  Cs0  1  0.79839599  0.75000001  0.59679198  1
  Cs  Cs1  1  0.20160400  0.25000000  0.40320800  1
  Cs  Cs2  1  0.41578299  0.25000000  0.83156599  1
  Cs  Cs3  1  0.58421699  0.75000001  0.16843399  1
  Cu  Cu4  1  0.95280998  0.75000001  0.90561998  1
  Cu  Cu5  1  0.04719000  0.25000000  0.09438000  1
  O  O6  1  0.59115899  0.25000000  0.18231799  1
  O  O7  1  0.00000000  0.00000000  0.00000000  1
  F  F8  1  0.19766500  0.75000001  0.39533000  1
  O  O9  1  0.40884099  0.75000001  0.81768199  1
  O  O10  1  0.00000000  0.50000001  0.00000000  1
  O  O11  1  0.80233499  0.25000000  0.60466998  1
