# generated using pymatgen
data_YSc5(BiO6)2
_symmetry_space_group_name_H-M   'P 1'
_cell_length_a   5.72670412
_cell_length_b   8.07516384
_cell_length_c   8.07516384
_cell_angle_alpha   90.00000000
_cell_angle_beta   90.00000000
_cell_angle_gamma   90.00000000
_symmetry_Int_Tables_number   1
_chemical_formula_structural   YSc5(BiO6)2
_chemical_formula_sum   'Y1 Sc5 Bi2 O12'
_cell_volume   373.42847460
_cell_formula_units_Z   1
loop_
 _symmetry_equiv_pos_site_id
 _symmetry_equiv_pos_as_xyz
  1  'x, y, z'
loop_
 _atom_site_type_symbol
 _atom_site_label
 _atom_site_symmetry_multiplicity
 _atom_site_fract_x
 _atom_site_fract_y
 _atom_site_fract_z
 _atom_site_occupancy
  Sc  Sc0  1  0.74443398  0.76495802  0.46695301  1
  Y  Y1  1  0.74443398  0.23504200  0.53304701  1
  Sc  Sc2  1  0.25556599  0.46695301  0.23504200  1
  Sc  Sc3  1  0.25556599  0.53304701  0.76495802  1
  Sc  Sc4  1  0.24443399  0.96695302  0.26495801  1
  Sc  Sc5  1  0.75556598  0.73504201  0.96695302  1
  Bi  Bi6  1  0.75556598  0.26495801  0.03304700  1
  Bi  Bi7  1  0.24443399  0.03304700  0.73504201  1
  O  O8  1  0.56997899  1.00000002  0.50000001  1
  O  O9  1  0.43002099  0.50000001  0.00000000  1
  O  O10  1  0.93002098  0.50000001  0.00000000  1
  O  O11  1  0.06997900  1.00000002  0.50000001  1
  O  O12  1  0.43081299  0.71268301  0.32743601  1
  O  O13  1  0.43081299  0.28731701  0.67256401  1
  O  O14  1  0.56918699  0.32743601  0.28731701  1
  O  O15  1  0.56918699  0.67256401  0.71268301  1
  O  O16  1  0.93081298  0.17256400  0.78731702  1
  O  O17  1  0.06918700  0.21268300  0.17256400  1
  O  O18  1  0.06918700  0.78731702  0.82743602  1
  O  O19  1  0.93081298  0.82743602  0.21268300  1
