# generated using pymatgen
data_AlCoSiP3O14
_symmetry_space_group_name_H-M   'P 1'
_cell_length_a   4.80097055
_cell_length_b   6.97272778
_cell_length_c   8.02449799
_cell_angle_alpha   90.00201416
_cell_angle_beta   90.01125336
_cell_angle_gamma   73.72483826
_symmetry_Int_Tables_number   1
_chemical_formula_structural   AlCoSiP3O14
_chemical_formula_sum   'Al1 Co1 Si1 P3 O14'
_cell_volume   257.86224915
_cell_formula_units_Z   1
loop_
 _symmetry_equiv_pos_site_id
 _symmetry_equiv_pos_as_xyz
  1  'x, y, z'
loop_
 _atom_site_type_symbol
 _atom_site_label
 _atom_site_symmetry_multiplicity
 _atom_site_fract_x
 _atom_site_fract_y
 _atom_site_fract_z
 _atom_site_occupancy
  Al  Al0  1  0.78027701  0.72751601  0.49480502  1
  Co  Co1  1  0.21976601  0.27248800  0.99483201  1
  P  P2  1  0.38700001  0.49190200  0.31206701  1
  Si  Si3  1  0.61298501  0.50806800  0.81213301  1
  P  P4  1  0.76618798  0.10384900  0.22885499  1
  P  P5  1  0.23382904  0.89622501  0.72889804  1
  O  O6  1  0.72052500  0.51192300  0.63438801  1
  O  O7  1  0.27940002  0.48803000  0.13438702  1
  O  O8  1  0.86019602  0.91349201  0.32824802  1
  O  O9  1  0.13987000  0.08646600  0.82825901  1
  O  O10  1  0.02765001  0.17155100  0.17365601  1
  O  O11  1  0.97227701  0.82847901  0.67367802  1
  O  O12  1  0.56981499  0.09329400  0.07709499  1
  O  O13  1  0.43014503  0.90669501  0.57707903  1
  O  O14  1  0.58094400  0.26976400  0.35785100  1
  O  O15  1  0.41911102  0.73023701  0.85786403  1
  O  O16  1  0.41799901  0.36635500  0.82130401  1
  O  O17  1  0.58195801  0.63368201  0.32122002  1
  O  O18  1  0.85494800  0.46082100  0.94208901  1
  O  O19  1  0.14511302  0.53916201  0.44209302  1
