# generated using pymatgen
data_Al4Ga2(CuAs)3
_symmetry_space_group_name_H-M   'P 1'
_cell_length_a   6.06412697
_cell_length_b   6.06412697
_cell_length_c   6.06412697
_cell_angle_alpha   90.00000000
_cell_angle_beta   90.00000000
_cell_angle_gamma   90.00000000
_symmetry_Int_Tables_number   1
_chemical_formula_structural   Al4Ga2(CuAs)3
_chemical_formula_sum   'Al4 Ga2 Cu3 As3'
_cell_volume   222.99999712
_cell_formula_units_Z   1
loop_
 _symmetry_equiv_pos_site_id
 _symmetry_equiv_pos_as_xyz
  1  'x, y, z'
loop_
 _atom_site_type_symbol
 _atom_site_label
 _atom_site_symmetry_multiplicity
 _atom_site_fract_x
 _atom_site_fract_y
 _atom_site_fract_z
 _atom_site_occupancy
  Al  Al0  1  0.38332300  0.38332300  0.38332300  1
  Al  Al1  1  0.11667700  0.61667700  0.88332300  1
  Al  Al2  1  0.88332300  0.11667700  0.61667700  1
  Al  Al3  1  0.61667700  0.88332300  0.11667700  1
  Cu  Cu4  1  0.61667700  0.61667700  0.61667700  1
  Ga  Ga5  1  0.88332300  0.38332300  0.11667700  1
  Cu  Cu6  1  0.11667700  0.88332300  0.38332300  1
  Ga  Ga7  1  0.38332300  0.11667700  0.88332300  1
  Cu  Cu8  1  0.00000000  0.00000000  0.00000000  1
  As  As9  1  0.50000000  0.00000000  0.50000000  1
  As  As10  1  0.50000000  0.50000000  0.00000000  1
  As  As11  1  -0.00000000  0.50000000  0.50000000  1
