# generated using pymatgen
data_LiHoMn4O8
_symmetry_space_group_name_H-M   'P 1'
_cell_length_a   5.75156689
_cell_length_b   6.20880795
_cell_length_c   6.07563448
_cell_angle_alpha   120.72777557
_cell_angle_beta   118.25071716
_cell_angle_gamma   90.00000000
_symmetry_Int_Tables_number   1
_chemical_formula_structural   LiHoMn4O8
_chemical_formula_sum   'Li1 Ho1 Mn4 O8'
_cell_volume   155.68196727
_cell_formula_units_Z   1
loop_
 _symmetry_equiv_pos_site_id
 _symmetry_equiv_pos_as_xyz
  1  'x, y, z'
loop_
 _atom_site_type_symbol
 _atom_site_label
 _atom_site_symmetry_multiplicity
 _atom_site_fract_x
 _atom_site_fract_y
 _atom_site_fract_z
 _atom_site_occupancy
  Li  Li0  1  0.00000005  0.50000004  0.50000007  1
  Ho  Ho1  1  1.00000005  0.00000000  0.50000006  1
  Mn  Mn2  1  0.28955807  0.53955704  0.07911509  1
  Mn  Mn3  1  0.71044208  0.46044304  0.92088511  1
  Mn  Mn4  1  0.50000002  0.00000000  1.00000003  1
  Mn  Mn5  1  0.00000000  0.00000000  0.00000000  1
  O  O6  1  0.65080810  0.65348305  0.30696713  1
  O  O7  1  0.34919205  0.34651703  0.69303307  1
  O  O8  1  0.84384108  0.34651703  0.69303310  1
  O  O9  1  0.15615907  0.65348305  0.30696710  1
  O  O10  1  0.77211206  0.22656102  0.04422408  1
  O  O11  1  0.22788803  0.18233701  0.95577604  1
  O  O12  1  0.22788809  0.77343906  0.95577612  1
  O  O13  1  0.77211212  0.81766306  0.04422416  1
