# generated using pymatgen
data_LiAl3SiB(HO5)2
_symmetry_space_group_name_H-M   'P 1'
_cell_length_a   5.56057215
_cell_length_b   5.70972824
_cell_length_c   6.76819038
_cell_angle_alpha   100.49305725
_cell_angle_beta   95.03977966
_cell_angle_gamma   107.19249725
_symmetry_Int_Tables_number   1
_chemical_formula_structural   LiAl3SiB(HO5)2
_chemical_formula_sum   'Li1 Al3 Si1 B1 H2 O10'
_cell_volume   199.54186178
_cell_formula_units_Z   1
loop_
 _symmetry_equiv_pos_site_id
 _symmetry_equiv_pos_as_xyz
  1  'x, y, z'
loop_
 _atom_site_type_symbol
 _atom_site_label
 _atom_site_symmetry_multiplicity
 _atom_site_fract_x
 _atom_site_fract_y
 _atom_site_fract_z
 _atom_site_occupancy
  Al  Al0  1  0.25793503  0.62096201  0.75581000  1
  Li  Li1  1  0.74206500  0.37903800  0.24418997  1
  Al  Al2  1  0.63622099  0.21672000  0.69928299  1
  Al  Al3  1  0.36377903  0.78328001  0.30071697  1
  Si  Si4  1  0.08003100  0.11331800  0.70391202  1
  H  H5  1  0.91996902  0.88668201  0.29608795  1
  B  B6  1  0.87398202  0.85032801  0.71179997  1
  H  H7  1  0.12601800  0.14967200  0.28820000  1
  O  O8  1  0.64737201  0.63881201  0.33059297  1
  O  O9  1  0.62349400  0.26224600  0.99379300  1
  O  O10  1  0.37650603  0.73775401  0.00620696  1
  O  O11  1  0.35262801  0.36118800  0.66940700  1
  O  O12  1  0.37782703  0.86160701  0.61792998  1
  O  O13  1  0.90870997  0.03390400  0.73758999  1
  O  O14  1  0.07515002  0.47082900  0.27839399  1
  O  O15  1  0.92485000  0.52917100  0.72160598  1
  O  O16  1  0.09129005  0.96609601  0.26240998  1
  O  O17  1  0.62217299  0.13839300  0.38206999  1
