# generated using pymatgen
data_Li3FeCuAs4H
_symmetry_space_group_name_H-M   'P 1'
_cell_length_a   6.53101921
_cell_length_b   6.65539789
_cell_length_c   6.74245453
_cell_angle_alpha   99.86621094
_cell_angle_beta   102.60490417
_cell_angle_gamma   98.49434662
_symmetry_Int_Tables_number   1
_chemical_formula_structural   Li3FeCuAs4H
_chemical_formula_sum   'Li3 Fe1 Cu1 As4 H1'
_cell_volume   276.50625157
_cell_formula_units_Z   1
loop_
 _symmetry_equiv_pos_site_id
 _symmetry_equiv_pos_as_xyz
  1  'x, y, z'
loop_
 _atom_site_type_symbol
 _atom_site_label
 _atom_site_symmetry_multiplicity
 _atom_site_fract_x
 _atom_site_fract_y
 _atom_site_fract_z
 _atom_site_occupancy
  Cu  Cu0  1  0.97943196  0.97474898  0.96897398  1
  Li  Li1  1  0.53140198  0.37586599  0.79761098  1
  Li  Li2  1  0.79939297  0.52207499  0.38846400  1
  Li  Li3  1  0.37886898  0.80423999  0.52826099  1
  As  As4  1  0.69955897  0.86578998  0.44004700  1
  Fe  Fe5  1  0.42695198  0.71933399  0.84876798  1
  As  As6  1  0.88017797  0.44062699  0.72973799  1
  H  H7  1  0.12489099  0.58150299  0.25738400  1
  As  As8  1  0.24019499  0.10438500  0.55854498  1
  As  As9  1  0.57143998  0.24384100  0.11451800  1
