# generated using pymatgen
data_SrPrLuS4
_symmetry_space_group_name_H-M   'P 1'
_cell_length_a   7.63233662
_cell_length_b   7.63233662
_cell_length_c   7.63233662
_cell_angle_alpha   109.73642731
_cell_angle_beta   109.33878326
_cell_angle_gamma   109.33878326
_symmetry_Int_Tables_number   1
_chemical_formula_structural   SrPrLuS4
_chemical_formula_sum   'Sr2 Pr2 Lu2 S8'
_cell_volume   342.25014716
_cell_formula_units_Z   2
loop_
 _symmetry_equiv_pos_site_id
 _symmetry_equiv_pos_as_xyz
  1  'x, y, z'
loop_
 _atom_site_type_symbol
 _atom_site_label
 _atom_site_symmetry_multiplicity
 _atom_site_fract_x
 _atom_site_fract_y
 _atom_site_fract_z
 _atom_site_occupancy
  Sr  Sr0  1  0.11532601  0.12500000  0.74032599  1
  Sr  Sr1  1  0.88467407  0.62500001  0.00967408  1
  Pr  Pr2  1  0.38467403  0.25967401  0.37500002  1
  Pr  Pr3  1  0.61532611  0.99032602  0.87500005  1
  Lu  Lu4  1  0.00000006  0.50000001  0.50000000  1
  Lu  Lu5  1  0.50000009  0.75000002  0.25000005  1
  S  S6  1  0.59818204  0.36705601  0.11445905  1
  S  S7  1  0.75259708  0.73372302  0.63554106  1
  S  S8  1  0.24740310  0.88294402  0.98112602  1
  S  S9  1  0.09818204  0.36445901  0.11705602  1
  S  S10  1  0.74740302  0.23112600  0.63294404  1
  S  S11  1  0.90181800  0.01887400  0.26627705  1
  S  S12  1  0.25259710  0.88554102  0.48372303  1
  S  S13  1  0.40181806  0.51627701  0.76887402  1
