# generated using pymatgen
data_AlIn2Ga2Cu3Se8
_symmetry_space_group_name_H-M   'P 1'
_cell_length_a   6.80573797
_cell_length_b   7.15301704
_cell_length_c   8.35362053
_cell_angle_alpha   90.00000000
_cell_angle_beta   90.00000000
_cell_angle_gamma   90.00000000
_symmetry_Int_Tables_number   1
_chemical_formula_structural   AlIn2Ga2Cu3Se8
_chemical_formula_sum   'Al1 In2 Ga2 Cu3 Se8'
_cell_volume   406.66727661
_cell_formula_units_Z   1
loop_
 _symmetry_equiv_pos_site_id
 _symmetry_equiv_pos_as_xyz
  1  'x, y, z'
loop_
 _atom_site_type_symbol
 _atom_site_label
 _atom_site_symmetry_multiplicity
 _atom_site_fract_x
 _atom_site_fract_y
 _atom_site_fract_z
 _atom_site_occupancy
  Cu  Cu0  1  0.61292700  0.07285300  0.12897001  1
  In  In1  1  0.11292700  0.92714699  0.87103005  1
  In  In2  1  0.11292700  0.42714700  0.62897004  1
  Al  Al3  1  0.61292700  0.57285300  0.37103002  1
  Cu  Cu4  1  0.12063600  0.91214699  0.36927602  1
  Ga  Ga5  1  0.62063600  0.58785300  0.86927605  1
  Ga  Ga6  1  0.62063600  0.08785300  0.63072404  1
  Cu  Cu7  1  0.12063600  0.41214700  0.13072401  1
  Se  Se8  1  0.98263800  0.57626100  0.38008102  1
  Se  Se9  1  0.48263800  0.42373900  0.61991903  1
  Se  Se10  1  0.48263800  0.92373899  0.88008105  1
  Se  Se11  1  0.98263800  0.07626100  0.11991901  1
  Se  Se12  1  0.99879900  0.59291700  0.87594005  1
  Se  Se13  1  0.99879900  0.09291700  0.62406004  1
  Se  Se14  1  0.49879900  0.90708299  0.37594002  1
  Se  Se15  1  0.49879900  0.40708300  0.12406001  1
