# generated using pymatgen
data_Li4Co2AgF11
_symmetry_space_group_name_H-M   'P 1'
_cell_length_a   4.76584387
_cell_length_b   4.76593113
_cell_length_c   9.23881912
_cell_angle_alpha   90.21191406
_cell_angle_beta   90.21163177
_cell_angle_gamma   89.87392426
_symmetry_Int_Tables_number   1
_chemical_formula_structural   Li4Co2AgF11
_chemical_formula_sum   'Li4 Co2 Ag1 F11'
_cell_volume   209.84424629
_cell_formula_units_Z   1
loop_
 _symmetry_equiv_pos_site_id
 _symmetry_equiv_pos_as_xyz
  1  'x, y, z'
loop_
 _atom_site_type_symbol
 _atom_site_label
 _atom_site_symmetry_multiplicity
 _atom_site_fract_x
 _atom_site_fract_y
 _atom_site_fract_z
 _atom_site_occupancy
  Li  Li0  1  0.98826105  0.98826597  0.34359698  1
  Li  Li1  1  0.99246205  0.99247197  0.67295797  1
  Li  Li2  1  0.49566902  0.49566798  0.16685899  1
  Li  Li3  1  0.47953702  0.47953398  0.83003096  1
  Co  Co4  1  0.50263002  0.50265798  0.49921698  1
  Co  Co5  1  0.00322100  0.00323000  0.99999795  1
  Ag  Ag6  1  0.19804401  0.19804299  0.83301596  1
  F  F7  1  0.80333904  0.80333897  0.49752998  1
  F  F8  1  0.19627901  0.19627999  0.49785198  1
  F  F9  1  0.20473501  0.20468599  0.16511899  1
  F  F10  1  0.80581404  0.80581297  0.16889399  1
  F  F11  1  0.80553604  0.80553897  0.83184096  1
  F  F12  1  0.69987902  0.30710399  0.32752698  1
  F  F13  1  0.30710303  0.69987698  0.32752699  1
  F  F14  1  0.69874702  0.30690899  0.66824196  1
  F  F15  1  0.30690703  0.69874798  0.66824397  1
  F  F16  1  0.69862802  0.31320899  0.00077499  1
  F  F17  1  0.31320703  0.69862298  0.00077501  1
