# generated using pymatgen
data_Si3PH4CO
_symmetry_space_group_name_H-M   'P 1'
_cell_length_a   4.41418171
_cell_length_b   4.41418171
_cell_length_c   6.65201664
_cell_angle_alpha   78.67315674
_cell_angle_beta   78.67315674
_cell_angle_gamma   72.53875732
_symmetry_Int_Tables_number   1
_chemical_formula_structural   Si3PH4CO
_chemical_formula_sum   'Si3 P1 H4 C1 O1'
_cell_volume   119.91714148
_cell_formula_units_Z   1
loop_
 _symmetry_equiv_pos_site_id
 _symmetry_equiv_pos_as_xyz
  1  'x, y, z'
loop_
 _atom_site_type_symbol
 _atom_site_label
 _atom_site_symmetry_multiplicity
 _atom_site_fract_x
 _atom_site_fract_y
 _atom_site_fract_z
 _atom_site_occupancy
  P  P0  1  0.02086804  0.97913198  -0.00000003  1
  Si  Si1  1  0.28725703  0.71274299  0.49999998  1
  Si  Si2  1  0.19850401  0.30169599  0.30493499  1
  Si  Si3  1  0.69830403  0.80149599  0.69506497  1
  H  H4  1  0.09784302  0.47461299  0.12196299  1
  H  H5  1  0.59734603  0.69835499  0.54919697  1
  C  C6  1  0.30164501  0.40265399  0.45080299  1
  H  H7  1  0.20766804  0.97560198  0.31951997  1
  H  H8  1  0.02439803  0.79233199  0.68047999  1
  O  O9  1  0.52538703  0.90215698  0.87803697  1
