# generated using pymatgen
data_DyTm2Lu5O12
_symmetry_space_group_name_H-M   'P 1'
_cell_length_a   5.51937485
_cell_length_b   5.86300707
_cell_length_c   8.05104542
_cell_angle_alpha   90.00000000
_cell_angle_beta   90.00000000
_cell_angle_gamma   90.00000000
_symmetry_Int_Tables_number   1
_chemical_formula_structural   DyTm2Lu5O12
_chemical_formula_sum   'Dy1 Tm2 Lu5 O12'
_cell_volume   260.53290651
_cell_formula_units_Z   1
loop_
 _symmetry_equiv_pos_site_id
 _symmetry_equiv_pos_as_xyz
  1  'x, y, z'
loop_
 _atom_site_type_symbol
 _atom_site_label
 _atom_site_symmetry_multiplicity
 _atom_site_fract_x
 _atom_site_fract_y
 _atom_site_fract_z
 _atom_site_occupancy
  Dy  Dy0  1  0.52110701  0.43256099  0.24999999  1
  Lu  Lu1  1  0.02110700  0.06743900  0.74999996  1
  Tm  Tm2  1  0.97889303  0.93256099  0.24999999  1
  Tm  Tm3  1  0.47889301  0.56743899  0.74999996  1
  Lu  Lu4  1  0.50000001  0.00000000  0.00000000  1
  Lu  Lu5  1  -0.00000000  0.49999999  0.00000000  1
  Lu  Lu6  1  -0.00000000  0.49999999  0.49999997  1
  Lu  Lu7  1  0.50000001  0.00000000  0.49999997  1
  O  O8  1  0.18198901  0.81166499  0.92928395  1
  O  O9  1  0.68198902  0.68833499  0.07071600  1
  O  O10  1  0.31801101  0.31166500  0.57071597  1
  O  O11  1  0.81801102  0.18833500  0.42928398  1
  O  O12  1  0.81801102  0.18833500  0.07071600  1
  O  O13  1  0.31801101  0.31166500  0.92928395  1
  O  O14  1  0.68198902  0.68833499  0.42928398  1
  O  O15  1  0.18198901  0.81166499  0.57071597  1
  O  O16  1  0.63821302  0.93595899  0.74999996  1
  O  O17  1  0.13821300  0.56404099  0.24999999  1
  O  O18  1  0.86178702  0.43595899  0.74999996  1
  O  O19  1  0.36178701  0.06404100  0.24999999  1
