# generated using pymatgen
data_Eu(HO)3
_symmetry_space_group_name_H-M   'P 1'
_cell_length_a   3.73877501
_cell_length_b   6.55565786
_cell_length_c   6.57667351
_cell_angle_alpha   118.97684479
_cell_angle_beta   90.00000000
_cell_angle_gamma   90.00000000
_symmetry_Int_Tables_number   1
_chemical_formula_structural   Eu(HO)3
_chemical_formula_sum   'Eu2 H6 O6'
_cell_volume   141.01600115
_cell_formula_units_Z   2
loop_
 _symmetry_equiv_pos_site_id
 _symmetry_equiv_pos_as_xyz
  1  'x, y, z'
loop_
 _atom_site_type_symbol
 _atom_site_label
 _atom_site_symmetry_multiplicity
 _atom_site_fract_x
 _atom_site_fract_y
 _atom_site_fract_z
 _atom_site_occupancy
  Eu  Eu0  1  0.75000000  0.32874600  0.66723296  1
  Eu  Eu1  1  0.25000000  0.67125399  0.33276694  1
  H  H2  1  0.75000000  0.29494400  0.14685497  1
  H  H3  1  0.75000000  0.84062599  0.70177492  1
  H  H4  1  0.75000000  0.85726599  0.12347193  1
  H  H5  1  0.25000000  0.70505599  0.85314493  1
  H  H6  1  0.25000000  0.15937400  0.29822498  1
  H  H7  1  0.25000000  0.14273400  0.87652797  1
  O  O8  1  0.75000000  0.39894099  0.31396996  1
  O  O9  1  0.75000000  0.91268099  0.60274492  1
  O  O10  1  0.75000000  0.69173199  0.07714295  1
  O  O11  1  0.25000000  0.60105899  0.68602994  1
  O  O12  1  0.25000000  0.08731900  0.39725498  1
  O  O13  1  0.25000000  0.30826800  0.92285696  1
