# generated using pymatgen
data_Li2PbO3
_symmetry_space_group_name_H-M   'P 1'
_cell_length_a   3.86023498
_cell_length_b   3.86023498
_cell_length_c   6.43379831
_cell_angle_alpha   72.54259491
_cell_angle_beta   72.54259491
_cell_angle_gamma   59.99998474
_symmetry_Int_Tables_number   1
_chemical_formula_structural   Li2PbO3
_chemical_formula_sum   'Li2 Pb1 O3'
_cell_volume   77.88744931
_cell_formula_units_Z   1
loop_
 _symmetry_equiv_pos_site_id
 _symmetry_equiv_pos_as_xyz
  1  'x, y, z'
loop_
 _atom_site_type_symbol
 _atom_site_label
 _atom_site_symmetry_multiplicity
 _atom_site_fract_x
 _atom_site_fract_y
 _atom_site_fract_z
 _atom_site_occupancy
  Li  Li0  1  0.00000000  0.00000000  0.00000000  1
  Li  Li1  1  0.49999999  0.49999999  0.50000001  1
  Pb  Pb2  1  0.63912899  0.63912899  0.08261301  1
  O  O3  1  0.36087099  0.36087099  0.91738701  1
  O  O4  1  0.11171700  0.11171700  0.66484901  1
  O  O5  1  0.88828299  0.88828298  0.33515101  1
