# generated using pymatgen
data_Li2CoOF5
_symmetry_space_group_name_H-M   'P 1'
_cell_length_a   5.67306709
_cell_length_b   6.81748056
_cell_length_c   6.81748056
_cell_angle_alpha   83.82361603
_cell_angle_beta   77.44223022
_cell_angle_gamma   77.44223022
_symmetry_Int_Tables_number   1
_chemical_formula_structural   Li2CoOF5
_chemical_formula_sum   'Li4 Co2 O2 F10'
_cell_volume   250.70445793
_cell_formula_units_Z   2
loop_
 _symmetry_equiv_pos_site_id
 _symmetry_equiv_pos_as_xyz
  1  'x, y, z'
loop_
 _atom_site_type_symbol
 _atom_site_label
 _atom_site_symmetry_multiplicity
 _atom_site_fract_x
 _atom_site_fract_y
 _atom_site_fract_z
 _atom_site_occupancy
  Li  Li0  1  0.23880197  0.61532999  0.79025199  1
  Li  Li1  1  0.26119799  0.20974800  0.38466999  1
  Li  Li2  1  0.76119798  0.38466999  0.20974798  1
  Li  Li3  1  0.73880196  0.79025199  0.61532998  1
  Co  Co4  1  0.24999999  0.09640200  0.90359798  1
  Co  Co5  1  0.74999996  0.90359898  0.09640100  1
  O  O6  1  0.49854097  0.66485499  0.61442399  1
  O  O7  1  0.00145899  0.38557599  0.33514500  1
  F  F8  1  0.50145898  0.33514499  0.38557599  1
  F  F9  1  0.99854096  0.61442399  0.66485497  1
  F  F10  1  0.80957396  0.90062598  0.37204399  1
  F  F11  1  0.69042597  0.62795599  0.09937399  1
  F  F12  1  0.19042599  0.09937400  0.62795598  1
  F  F13  1  0.30957398  0.37204399  0.90062598  1
  F  F14  1  0.13542097  0.81543599  0.96093699  1
  F  F15  1  0.36457899  0.03906300  0.18456399  1
  F  F16  1  0.86457898  0.18456400  0.03906298  1
  F  F17  1  0.63542096  0.96093698  0.81543598  1
