# generated using pymatgen
data_Na4ScNb3O12
_symmetry_space_group_name_H-M   'P 1'
_cell_length_a   5.47599077
_cell_length_b   5.51825380
_cell_length_c   7.71711493
_cell_angle_alpha   89.76144409
_cell_angle_beta   90.00000000
_cell_angle_gamma   90.00000000
_symmetry_Int_Tables_number   1
_chemical_formula_structural   Na4ScNb3O12
_chemical_formula_sum   'Na4 Sc1 Nb3 O12'
_cell_volume   233.19303913
_cell_formula_units_Z   1
loop_
 _symmetry_equiv_pos_site_id
 _symmetry_equiv_pos_as_xyz
  1  'x, y, z'
loop_
 _atom_site_type_symbol
 _atom_site_label
 _atom_site_symmetry_multiplicity
 _atom_site_fract_x
 _atom_site_fract_y
 _atom_site_fract_z
 _atom_site_occupancy
  Na  Na0  1  0.26097101  0.51176902  0.75060701  1
  Na  Na1  1  0.73902903  0.01176900  0.25060700  1
  Na  Na2  1  0.75794803  0.99330004  0.74960802  1
  Na  Na3  1  0.24205201  0.49330002  0.24960801  1
  Sc  Sc4  1  0.25001501  0.99987004  0.50046402  1
  Nb  Nb5  1  0.74998503  0.49987002  0.00046401  1
  Nb  Nb6  1  0.24990401  0.00025800  0.99941700  1
  Nb  Nb7  1  0.75009603  0.50025802  0.49941701  1
  O  O8  1  0.74508903  0.42482002  0.75437501  1
  O  O9  1  0.00798800  0.73328903  0.95654301  1
  O  O10  1  0.01514100  0.74279503  0.54399801  1
  O  O11  1  0.99201204  0.23328901  0.45654300  1
  O  O12  1  0.98485904  0.24279501  0.04399800  1
  O  O13  1  0.25491101  0.92482003  0.25437502  1
  O  O14  1  0.24603601  0.08299000  0.74538100  1
  O  O15  1  0.50305702  0.76026703  0.54275601  1
  O  O16  1  0.50928002  0.75064303  0.95685201  1
  O  O17  1  0.49072002  0.25064301  0.45685200  1
  O  O18  1  0.49694302  0.26026701  0.04275601  1
  O  O19  1  0.75396403  0.58299002  0.24538101  1
