# generated using pymatgen
data_TlCl
_symmetry_space_group_name_H-M   'P 1'
_cell_length_a   5.19053221
_cell_length_b   5.19053221
_cell_length_c   6.95197821
_cell_angle_alpha   111.92010498
_cell_angle_beta   111.92010498
_cell_angle_gamma   90.00000000
_symmetry_Int_Tables_number   1
_chemical_formula_structural   TlCl
_chemical_formula_sum   'Tl2 Cl2'
_cell_volume   159.06785088
_cell_formula_units_Z   2
loop_
 _symmetry_equiv_pos_site_id
 _symmetry_equiv_pos_as_xyz
  1  'x, y, z'
loop_
 _atom_site_type_symbol
 _atom_site_label
 _atom_site_symmetry_multiplicity
 _atom_site_fract_x
 _atom_site_fract_y
 _atom_site_fract_z
 _atom_site_occupancy
  Tl  Tl0  1  0.88704599  0.88704597  0.77409202  1
  Tl  Tl1  1  0.11295400  0.11295400  0.22590800  1
  Cl  Cl2  1  0.65251899  0.65251898  0.30503802  1
  Cl  Cl3  1  0.34748100  0.34748099  0.69496200  1
