# generated using pymatgen
data_Li3MnO4
_symmetry_space_group_name_H-M   'P 1'
_cell_length_a   5.22588682
_cell_length_b   5.55121899
_cell_length_c   6.66769791
_cell_angle_alpha   90.00000000
_cell_angle_beta   90.00000000
_cell_angle_gamma   90.00000000
_symmetry_Int_Tables_number   1
_chemical_formula_structural   Li3MnO4
_chemical_formula_sum   'Li6 Mn2 O8'
_cell_volume   193.43019729
_cell_formula_units_Z   2
loop_
 _symmetry_equiv_pos_site_id
 _symmetry_equiv_pos_as_xyz
  1  'x, y, z'
loop_
 _atom_site_type_symbol
 _atom_site_label
 _atom_site_symmetry_multiplicity
 _atom_site_fract_x
 _atom_site_fract_y
 _atom_site_fract_z
 _atom_site_occupancy
  Li  Li0  1  0.00016300  0.58485000  0.87665101  1
  Li  Li1  1  0.50016302  0.91515000  0.37665101  1
  Li  Li2  1  0.50016302  0.41515000  0.12334900  1
  Li  Li3  1  0.00016300  0.08485000  0.62334901  1
  Li  Li4  1  0.00745100  0.07335100  0.12573600  1
  Li  Li5  1  0.50745102  0.92664900  0.87426401  1
  Mn  Mn6  1  0.50745102  0.42664900  0.62573601  1
  Mn  Mn7  1  0.00745100  0.57335100  0.37426401  1
  O  O8  1  0.40537201  0.60060600  0.85641101  1
  O  O9  1  0.90537203  0.39939400  0.14358900  1
  O  O10  1  0.90537203  0.89939400  0.35641100  1
  O  O11  1  0.40537201  0.10060600  0.64358901  1
  O  O12  1  0.36701401  0.56009600  0.39313001  1
  O  O13  1  0.36701401  0.06009600  0.10687000  1
  O  O14  1  0.86701403  0.93990400  0.89313001  1
  O  O15  1  0.86701403  0.43990400  0.60687001  1
