# generated using pymatgen
data_Sr2Ca2YbPrZrRh2N9
_symmetry_space_group_name_H-M   'P 1'
_cell_length_a   5.96272087
_cell_length_b   6.68901920
_cell_length_c   6.68901920
_cell_angle_alpha   90.00000000
_cell_angle_beta   90.00000000
_cell_angle_gamma   90.00000000
_symmetry_Int_Tables_number   1
_chemical_formula_structural   Sr2Ca2YbPrZrRh2N9
_chemical_formula_sum   'Sr2 Ca2 Yb1 Pr1 Zr1 Rh2 N9'
_cell_volume   266.78988816
_cell_formula_units_Z   1
loop_
 _symmetry_equiv_pos_site_id
 _symmetry_equiv_pos_as_xyz
  1  'x, y, z'
loop_
 _atom_site_type_symbol
 _atom_site_label
 _atom_site_symmetry_multiplicity
 _atom_site_fract_x
 _atom_site_fract_y
 _atom_site_fract_z
 _atom_site_occupancy
  Sr  Sr0  1  0.00000000  0.00000000  0.00000000  1
  Sr  Sr1  1  1.00000002  0.49999998  0.49999998  1
  Ca  Ca2  1  0.50000001  0.82450297  0.67549698  1
  Ca  Ca3  1  0.50000001  0.67549698  0.17549699  1
  Yb  Yb4  1  0.50000001  0.32450299  0.82450297  1
  Pr  Pr5  1  0.50000001  0.17549699  0.32450299  1
  Rh  Rh6  1  1.00000002  0.49999998  0.00000000  1
  Zr  Zr7  1  1.00000002  0.00000000  0.49999998  1
  N  N8  1  0.50000001  0.49999998  0.49999998  1
  N  N9  1  0.50000001  0.00000000  0.00000000  1
  Rh  Rh10  1  0.25805101  0.13994300  0.63994298  1
  N  N11  1  0.25805101  0.86005697  0.36005699  1
  N  N12  1  0.25805101  0.36005699  0.13994300  1
  N  N13  1  0.25805101  0.63994298  0.86005697  1
  N  N14  1  0.74194902  0.13994300  0.63994298  1
  N  N15  1  0.74194902  0.63994298  0.86005697  1
  N  N16  1  0.74194902  0.86005697  0.36005699  1
  N  N17  1  0.74194902  0.36005699  0.13994300  1
