# generated using pymatgen
data_CsNaVHgGeWO12
_symmetry_space_group_name_H-M   'P 1'
_cell_length_a   7.28737402
_cell_length_b   7.32879305
_cell_length_c   7.32879305
_cell_angle_alpha   60.24194336
_cell_angle_beta   60.18677521
_cell_angle_gamma   60.18677521
_symmetry_Int_Tables_number   1
_chemical_formula_structural   CsNaVHgGeWO12
_chemical_formula_sum   'Cs1 Na1 V1 Hg1 Ge1 W1 O12'
_cell_volume   278.05683338
_cell_formula_units_Z   1
loop_
 _symmetry_equiv_pos_site_id
 _symmetry_equiv_pos_as_xyz
  1  'x, y, z'
loop_
 _atom_site_type_symbol
 _atom_site_label
 _atom_site_symmetry_multiplicity
 _atom_site_fract_x
 _atom_site_fract_y
 _atom_site_fract_z
 _atom_site_occupancy
  Na  Na0  1  0.62409300  0.12590700  0.62590698  1
  Cs  Cs1  1  0.37590699  0.87409301  0.37409298  1
  Hg  Hg2  1  0.50000000  0.50000001  -0.00000002  1
  V  V3  1  1.00000000  0.50000001  0.99999997  1
  Ge  Ge4  1  0.00000000  0.00000000  0.00000000  1
  W  W5  1  1.00000000  0.50000001  0.49999997  1
  O  O6  1  0.07078500  0.17921500  0.67921500  1
  O  O7  1  0.67609400  0.57390601  0.07390598  1
  O  O8  1  0.07154999  0.57272601  0.67263099  1
  O  O9  1  0.68309300  0.17263000  0.07272598  1
  O  O10  1  0.68309200  0.57272601  0.67263098  1
  O  O11  1  0.07155100  0.17263000  0.07272600  1
  O  O12  1  0.92921500  0.82078501  0.32078497  1
  O  O13  1  0.32390600  0.42609401  0.92609399  1
  O  O14  1  0.92845000  0.42727401  0.32736897  1
  O  O15  1  0.31690699  0.82737001  0.92727398  1
  O  O16  1  0.31690800  0.42727401  0.32736899  1
  O  O17  1  0.92844900  0.82737001  0.92727397  1
