# generated using pymatgen
data_Li7MnCoO10
_symmetry_space_group_name_H-M   'P 1'
_cell_length_a   3.01087403
_cell_length_b   5.22605705
_cell_length_c   13.12776566
_cell_angle_alpha   100.90689850
_cell_angle_beta   90.00000000
_cell_angle_gamma   106.74206543
_symmetry_Int_Tables_number   1
_chemical_formula_structural   Li7MnCoO10
_chemical_formula_sum   'Li7 Mn1 Co1 O10'
_cell_volume   193.90950998
_cell_formula_units_Z   1
loop_
 _symmetry_equiv_pos_site_id
 _symmetry_equiv_pos_as_xyz
  1  'x, y, z'
loop_
 _atom_site_type_symbol
 _atom_site_label
 _atom_site_symmetry_multiplicity
 _atom_site_fract_x
 _atom_site_fract_y
 _atom_site_fract_z
 _atom_site_occupancy
  Li  Li0  1  0.20145001  0.40289999  0.39854902  1
  Li  Li1  1  0.39621502  0.79242999  0.79981003  1
  Li  Li2  1  0.79993501  0.59986999  0.59704102  1
  Li  Li3  1  0.60345700  0.20691400  0.19413301  1
  Li  Li4  1  0.09882600  0.19765200  0.69864303  1
  Li  Li5  1  0.31397001  0.62793999  0.10501301  1
  Li  Li6  1  0.67844000  0.35687999  0.89821003  1
  Mn  Mn7  1  0.50203700  0.00407400  0.50074002  1
  Co  Co8  1  0.90466001  0.80931999  0.30399601  1
  O  O9  1  0.14198701  0.28397400  0.55271902  1
  O  O10  1  0.05268000  0.10536000  0.84412403  1
  O  O11  1  0.46008502  0.92016999  0.64861203  1
  O  O12  1  0.26660401  0.53320799  0.25128901  1
  O  O13  1  0.54435400  0.08870800  0.35559301  1
  O  O14  1  0.73602701  0.47205399  0.75534203  1
  O  O15  1  0.68910600  0.37821199  0.04939500  1
  O  O16  1  0.94879101  0.89758199  0.16010901  1
  O  O17  1  0.86259301  0.72518599  0.45134002  1
  O  O18  1  0.33250701  0.66501399  0.94082404  1
