# generated using pymatgen
data_KNbWO6
_symmetry_space_group_name_H-M   'P 1'
_cell_length_a   7.14876413
_cell_length_b   7.23604059
_cell_length_c   7.23604059
_cell_angle_alpha   60.92004395
_cell_angle_beta   60.39818954
_cell_angle_gamma   60.39818954
_symmetry_Int_Tables_number   1
_chemical_formula_structural   KNbWO6
_chemical_formula_sum   'K2 Nb2 W2 O12'
_cell_volume   268.08420190
_cell_formula_units_Z   2
loop_
 _symmetry_equiv_pos_site_id
 _symmetry_equiv_pos_as_xyz
  1  'x, y, z'
loop_
 _atom_site_type_symbol
 _atom_site_label
 _atom_site_symmetry_multiplicity
 _atom_site_fract_x
 _atom_site_fract_y
 _atom_site_fract_z
 _atom_site_occupancy
  K  K0  1  0.87453098  0.87546901  0.37546897  1
  K  K1  1  0.12546900  0.12453100  0.62453099  1
  Nb  Nb2  1  0.99999999  0.50000000  -0.00000003  1
  Nb  Nb3  1  0.49999999  0.50000000  -0.00000002  1
  W  W4  1  0.49999999  0.50000000  0.49999998  1
  W  W5  1  0.50000000  0.00000000  -0.00000002  1
  O  O6  1  0.79960599  0.45039400  0.95039397  1
  O  O7  1  0.41930298  0.83069701  0.33069698  1
  O  O8  1  0.42225398  0.79863301  0.94335998  1
  O  O9  1  0.83575299  0.44336000  0.29863297  1
  O  O10  1  0.42225399  0.44336000  0.29863298  1
  O  O11  1  0.83575298  0.79863301  0.94335997  1
  O  O12  1  0.20039399  0.54960600  0.04960599  1
  O  O13  1  0.58069700  0.16930300  0.66930298  1
  O  O14  1  0.57774599  0.20136700  0.05663998  1
  O  O15  1  0.16424699  0.55664000  0.70136699  1
  O  O16  1  0.57774599  0.55664000  0.70136698  1
  O  O17  1  0.16424700  0.20136700  0.05663999  1
