# generated using pymatgen
data_Lu2TlIn(CuSe3)2
_symmetry_space_group_name_H-M   'P 1'
_cell_length_a   3.91113806
_cell_length_b   7.03195000
_cell_length_c   9.81874943
_cell_angle_alpha   90.00000000
_cell_angle_beta   90.00000000
_cell_angle_gamma   106.14669800
_symmetry_Int_Tables_number   1
_chemical_formula_structural   Lu2TlIn(CuSe3)2
_chemical_formula_sum   'Lu2 Tl1 In1 Cu2 Se6'
_cell_volume   259.39186154
_cell_formula_units_Z   1
loop_
 _symmetry_equiv_pos_site_id
 _symmetry_equiv_pos_as_xyz
  1  'x, y, z'
loop_
 _atom_site_type_symbol
 _atom_site_label
 _atom_site_symmetry_multiplicity
 _atom_site_fract_x
 _atom_site_fract_y
 _atom_site_fract_z
 _atom_site_occupancy
  Lu  Lu0  1  0.74626793  0.49253597  0.74999997  1
  Tl  Tl1  1  0.25373193  0.50746397  0.24999999  1
  Lu  Lu2  1  0.00000000  0.00000000  0.49999998  1
  In  In3  1  0.00000000  0.00000000  0.00000000  1
  Cu  Cu4  1  0.46731588  0.93463195  0.74999997  1
  Cu  Cu5  1  0.53268398  0.06536800  0.24999999  1
  Se  Se6  1  0.37422890  0.74845796  0.55349098  1
  Se  Se7  1  0.62577096  0.25154199  0.44650898  1
  Se  Se8  1  0.37422890  0.74845796  0.94650896  1
  Se  Se9  1  0.62577096  0.25154199  0.05349100  1
  Se  Se10  1  0.06409898  0.12819799  0.74999997  1
  Se  Se11  1  0.93590088  0.87180195  0.24999999  1
