# generated using pymatgen
data_Na4Mg4SN3
_symmetry_space_group_name_H-M   'P 1'
_cell_length_a   6.06132412
_cell_length_b   6.83246803
_cell_length_c   8.04809475
_cell_angle_alpha   115.11758423
_cell_angle_beta   112.12131500
_cell_angle_gamma   90.00000000
_symmetry_Int_Tables_number   1
_chemical_formula_structural   Na4Mg4SN3
_chemical_formula_sum   'Na4 Mg4 S1 N3'
_cell_volume   274.44656497
_cell_formula_units_Z   1
loop_
 _symmetry_equiv_pos_site_id
 _symmetry_equiv_pos_as_xyz
  1  'x, y, z'
loop_
 _atom_site_type_symbol
 _atom_site_label
 _atom_site_symmetry_multiplicity
 _atom_site_fract_x
 _atom_site_fract_y
 _atom_site_fract_z
 _atom_site_occupancy
  Na  Na0  1  0.75000002  0.50000000  0.00000004  1
  Na  Na1  1  0.25000002  0.50000000  0.00000001  1
  Na  Na2  1  0.19247300  0.00931000  0.38494603  1
  Na  Na3  1  0.69247202  0.37563500  0.38494505  1
  Mg  Mg4  1  0.30752802  0.62436499  0.61505504  1
  Mg  Mg5  1  0.80752704  0.99068999  0.61505406  1
  Mg  Mg6  1  0.25000003  0.99999999  1.00000005  1
  Mg  Mg7  1  0.75000004  0.99999999  1.00000007  1
  S  S8  1  0.60088503  0.90397999  0.20177003  1
  N  N9  1  0.39911501  0.09602000  0.79823005  1
  N  N10  1  0.10088401  0.29778900  0.20176901  1
  N  N11  1  0.89911603  0.70221099  0.79823108  1
