# generated using pymatgen
data_Li6CoNi2PF10
_symmetry_space_group_name_H-M   'P 1'
_cell_length_a   3.14100409
_cell_length_b   8.89948177
_cell_length_c   8.89948273
_cell_angle_alpha   120.00000000
_cell_angle_beta   90.00000000
_cell_angle_gamma   90.00000000
_symmetry_Int_Tables_number   1
_chemical_formula_structural   Li6CoNi2PF10
_chemical_formula_sum   'Li6 Co1 Ni2 P1 F10'
_cell_volume   215.44112856
_cell_formula_units_Z   1
loop_
 _symmetry_equiv_pos_site_id
 _symmetry_equiv_pos_as_xyz
  1  'x, y, z'
loop_
 _atom_site_type_symbol
 _atom_site_label
 _atom_site_symmetry_multiplicity
 _atom_site_fract_x
 _atom_site_fract_y
 _atom_site_fract_z
 _atom_site_occupancy
  Li  Li0  1  0.74999998  0.63313403  0.66306400  1
  Li  Li1  1  0.24999999  0.97007004  0.63313401  1
  Li  Li2  1  0.24999999  0.36686602  0.33693600  1
  Li  Li3  1  0.74999998  0.33693601  0.97006998  1
  Li  Li4  1  0.74999998  0.02993000  0.36686599  1
  Li  Li5  1  0.24999999  0.66306403  0.02993002  1
  Ni  Ni6  1  0.74999998  0.66666669  0.33333334  1
  Ni  Ni7  1  0.24999999  0.33333335  0.66666666  1
  Co  Co8  1  0.74999998  0.55082902  0.39602501  1
  F  F9  1  0.24999999  0.15480401  0.55082899  1
  F  F10  1  0.74999998  0.60397503  0.15480401  1
  F  F11  1  0.24999999  0.39602502  0.84519599  1
  P  P12  1  0.24999999  0.44917102  0.60397500  1
  F  F13  1  0.74999998  0.84519604  0.44917101  1
  F  F14  1  0.24999999  0.29930601  0.08918701  1
  F  F15  1  0.24999999  0.78988103  0.70069400  1
  F  F16  1  0.74999998  0.70069403  0.91081299  1
  F  F17  1  0.74999998  0.08918700  0.78988098  1
  F  F18  1  0.74999998  0.21011901  0.29930600  1
  F  F19  1  0.24999999  0.91081304  0.21011902  1
