# generated using pymatgen
data_NaLiZn2Sb2P5C4N3
_symmetry_space_group_name_H-M   'P 1'
_cell_length_a   7.95327282
_cell_length_b   7.95327282
_cell_length_c   7.95327282
_cell_angle_alpha   60.00000000
_cell_angle_beta   60.00000000
_cell_angle_gamma   60.00000000
_symmetry_Int_Tables_number   1
_chemical_formula_structural   NaLiZn2Sb2P5C4N3
_chemical_formula_sum   'Na1 Li1 Zn2 Sb2 P5 C4 N3'
_cell_volume   355.73176146
_cell_formula_units_Z   1
loop_
 _symmetry_equiv_pos_site_id
 _symmetry_equiv_pos_as_xyz
  1  'x, y, z'
loop_
 _atom_site_type_symbol
 _atom_site_label
 _atom_site_symmetry_multiplicity
 _atom_site_fract_x
 _atom_site_fract_y
 _atom_site_fract_z
 _atom_site_occupancy
  Li  Li0  1  0.74999998  0.74999998  0.74999998  1
  Na  Na1  1  0.00000000  0.00000000  0.00000000  1
  Zn  Zn2  1  0.37499999  0.87499998  0.37499999  1
  Zn  Zn3  1  0.37499999  0.37499999  0.37499999  1
  Sb  Sb4  1  0.37499999  0.37499999  0.87499998  1
  Sb  Sb5  1  0.87499998  0.37499999  0.37499999  1
  P  P6  1  0.44038699  0.05961300  0.44038699  1
  P  P7  1  0.69038698  0.30961299  0.69038698  1
  N  N8  1  0.44038699  0.05961300  0.05961300  1
  P  P9  1  0.44038699  0.44038699  0.05961300  1
  N  N10  1  0.05961300  0.05961300  0.44038699  1
  N  N11  1  0.05961300  0.44038699  0.44038699  1
  P  P12  1  0.05961300  0.44038699  0.05961300  1
  C  C13  1  0.30961299  0.69038698  0.69038698  1
  P  P14  1  0.69038698  0.30961299  0.30961299  1
  C  C15  1  0.69038698  0.69038698  0.30961299  1
  C  C16  1  0.30961299  0.30961299  0.69038698  1
  C  C17  1  0.30961299  0.69038698  0.30961299  1
