# generated using pymatgen
data_RbNbWO6
_symmetry_space_group_name_H-M   'P 1'
_cell_length_a   7.43137217
_cell_length_b   7.44957829
_cell_length_c   7.44957829
_cell_angle_alpha   60.05018234
_cell_angle_beta   60.08081055
_cell_angle_gamma   60.08081055
_symmetry_Int_Tables_number   1
_chemical_formula_structural   RbNbWO6
_chemical_formula_sum   'Rb2 Nb2 W2 O12'
_cell_volume   292.08659071
_cell_formula_units_Z   2
loop_
 _symmetry_equiv_pos_site_id
 _symmetry_equiv_pos_as_xyz
  1  'x, y, z'
loop_
 _atom_site_type_symbol
 _atom_site_label
 _atom_site_symmetry_multiplicity
 _atom_site_fract_x
 _atom_site_fract_y
 _atom_site_fract_z
 _atom_site_occupancy
  Rb  Rb0  1  0.87426598  0.87573398  0.37573397  1
  Rb  Rb1  1  0.12573400  0.12426600  0.62426598  1
  Nb  Nb2  1  0.49999999  0.49999999  0.49999998  1
  Nb  Nb3  1  0.49999999  0.99999998  0.99999996  1
  W  W4  1  -0.00000000  0.49999999  0.99999997  1
  W  W5  1  0.49999999  0.49999999  -0.00000001  1
  O  O6  1  0.80893898  0.44106099  0.94106096  1
  O  O7  1  0.43707699  0.81292299  0.31292298  1
  O  O8  1  0.43827599  0.80575199  0.94018296  1
  O  O9  1  0.81578898  0.44018299  0.30575198  1
  O  O10  1  0.43827599  0.44018299  0.30575198  1
  O  O11  1  0.81578898  0.80575199  0.94018296  1
  O  O12  1  0.19106099  0.55893899  0.05893899  1
  O  O13  1  0.56292299  0.18707700  0.68707698  1
  O  O14  1  0.56172399  0.19424800  0.05981699  1
  O  O15  1  0.18421099  0.55981699  0.69424798  1
  O  O16  1  0.56172399  0.55981699  0.69424797  1
  O  O17  1  0.18421100  0.19424800  0.05981699  1
