# generated using pymatgen
data_RbAlSiO4
_symmetry_space_group_name_H-M   'P 1'
_cell_length_a   6.06975889
_cell_length_b   6.82463408
_cell_length_c   8.69324112
_cell_angle_alpha   66.88827515
_cell_angle_beta   82.36278534
_cell_angle_gamma   70.20977783
_symmetry_Int_Tables_number   1
_chemical_formula_structural   RbAlSiO4
_chemical_formula_sum   'Rb2 Al2 Si2 O8'
_cell_volume   311.64448125
_cell_formula_units_Z   2
loop_
 _symmetry_equiv_pos_site_id
 _symmetry_equiv_pos_as_xyz
  1  'x, y, z'
loop_
 _atom_site_type_symbol
 _atom_site_label
 _atom_site_symmetry_multiplicity
 _atom_site_fract_x
 _atom_site_fract_y
 _atom_site_fract_z
 _atom_site_occupancy
  Rb  Rb0  1  0.95612100  0.80099000  0.30662697  1
  Rb  Rb1  1  0.45612099  0.10761700  0.69337299  1
  Al  Al2  1  0.56090700  0.50405500  0.03755698  1
  Al  Al3  1  0.06090702  0.54161200  0.96244297  1
  Si  Si4  1  0.87280599  0.40028600  0.73592598  1
  Si  Si5  1  0.37280599  0.13621200  0.26407399  1
  O  O6  1  0.74843500  0.68697100  0.02252198  1
  O  O7  1  0.06021202  0.56222400  0.73268197  1
  O  O8  1  0.41840702  0.86595200  0.42877996  1
  O  O9  1  0.91840699  0.29473200  0.57121999  1
  O  O10  1  0.66519099  0.32188600  0.90037698  1
  O  O11  1  0.16519100  0.22226300  0.09962299  1
  O  O12  1  0.56021199  0.29490600  0.26731799  1
  O  O13  1  0.24843502  0.70949300  0.97747796  1
