# generated using pymatgen
data_Mn5GeO11
_symmetry_space_group_name_H-M   'P 1'
_cell_length_a   5.14944601
_cell_length_b   5.34219551
_cell_length_c   7.43646574
_cell_angle_alpha   93.01450348
_cell_angle_beta   89.81540680
_cell_angle_gamma   89.91203308
_symmetry_Int_Tables_number   1
_chemical_formula_structural   Mn5GeO11
_chemical_formula_sum   'Mn5 Ge1 O11'
_cell_volume   204.28788531
_cell_formula_units_Z   1
loop_
 _symmetry_equiv_pos_site_id
 _symmetry_equiv_pos_as_xyz
  1  'x, y, z'
loop_
 _atom_site_type_symbol
 _atom_site_label
 _atom_site_symmetry_multiplicity
 _atom_site_fract_x
 _atom_site_fract_y
 _atom_site_fract_z
 _atom_site_occupancy
  Mn  Mn0  1  0.99894200  0.52567098  0.23779394  1
  Mn  Mn1  1  0.49856900  0.49319198  0.50778496  1
  Mn  Mn2  1  0.50243400  0.49139198  0.99962297  1
  Mn  Mn3  1  0.00013801  0.99715496  0.50476897  1
  Mn  Mn4  1  0.00256201  0.99020396  0.99878997  1
  Ge  Ge5  1  0.30820201  0.81352897  0.56662096  1
  O  O6  1  0.10447901  0.98988996  0.24978296  1
  O  O7  1  0.30507400  0.18595399  0.94799999  1
  O  O8  1  0.17450300  0.30900799  0.56229099  1
  O  O9  1  0.80853600  0.30221599  0.06597895  1
  O  O10  1  0.37386300  0.49165998  0.24562097  1
  O  O11  1  0.63034200  0.49251198  0.75979196  1
  O  O12  1  0.19289601  0.68257997  0.95009197  1
  O  O13  1  0.81863200  0.68465897  0.44074694  1
  O  O14  1  0.70095601  0.79253297  0.06189994  1
  O  O15  1  0.88491701  0.99160996  0.75606293  1
  O  O16  1  0.69495600  0.18063499  0.43715297  1
