# generated using pymatgen
data_Li4MnV3O10
_symmetry_space_group_name_H-M   'P 1'
_cell_length_a   4.69058990
_cell_length_b   5.61887741
_cell_length_c   7.71569729
_cell_angle_alpha   85.51944733
_cell_angle_beta   88.66445923
_cell_angle_gamma   88.59658051
_symmetry_Int_Tables_number   1
_chemical_formula_structural   Li4MnV3O10
_chemical_formula_sum   'Li4 Mn1 V3 O10'
_cell_volume   202.62477555
_cell_formula_units_Z   1
loop_
 _symmetry_equiv_pos_site_id
 _symmetry_equiv_pos_as_xyz
  1  'x, y, z'
loop_
 _atom_site_type_symbol
 _atom_site_label
 _atom_site_symmetry_multiplicity
 _atom_site_fract_x
 _atom_site_fract_y
 _atom_site_fract_z
 _atom_site_occupancy
  Li  Li0  1  0.49401408  0.83095001  0.67374400  1
  Li  Li1  1  0.49395905  0.49607301  0.98672599  1
  Li  Li2  1  0.52971602  0.16595700  0.34380399  1
  Li  Li3  1  0.00660203  0.34001400  0.67070201  1
  Mn  Mn4  1  0.94198807  0.66043901  0.32568898  1
  V  V5  1  0.00942400  0.00239900  0.00335300  1
  V  V6  1  0.81147305  0.37217100  0.42949498  1
  V  V7  1  0.80622407  0.69621701  0.10566998  1
  O  O8  1  0.68167503  0.19497800  0.11976898  1
  O  O9  1  0.70251506  0.53942401  0.75436199  1
  O  O10  1  0.71145208  0.86745501  0.43389499  1
  O  O11  1  0.31919802  0.13955800  0.55005899  1
  O  O12  1  0.29894807  0.79867201  0.89725500  1
  O  O13  1  0.19480703  0.29513700  0.89872700  1
  O  O14  1  0.80125502  0.03695000  0.77029298  1
  O  O15  1  0.29480904  0.47068401  0.24214900  1
  O  O16  1  0.20202808  0.95717101  0.24119300  1
  O  O17  1  0.19991005  0.63575201  0.55311500  1
