# generated using pymatgen
data_KTlSbI9
_symmetry_space_group_name_H-M   'P 1'
_cell_length_a   6.97049522
_cell_length_b   6.97049522
_cell_length_c   9.02564716
_cell_angle_alpha   90.00000000
_cell_angle_beta   90.00000000
_cell_angle_gamma   90.00000000
_symmetry_Int_Tables_number   1
_chemical_formula_structural   KTlSbI9
_chemical_formula_sum   'K1 Tl1 Sb1 I9'
_cell_volume   438.53637235
_cell_formula_units_Z   1
loop_
 _symmetry_equiv_pos_site_id
 _symmetry_equiv_pos_as_xyz
  1  'x, y, z'
loop_
 _atom_site_type_symbol
 _atom_site_label
 _atom_site_symmetry_multiplicity
 _atom_site_fract_x
 _atom_site_fract_y
 _atom_site_fract_z
 _atom_site_occupancy
  Tl  Tl0  1  0.49999998  0.49999998  0.00000000  1
  K  K1  1  0.00000000  0.00000000  0.00000000  1
  Sb  Sb2  1  0.49999998  0.49999998  0.49999999  1
  I  I3  1  0.00000000  0.00000000  0.49999999  1
  I  I4  1  0.35640899  0.85640897  0.28498599  1
  I  I5  1  0.14359100  0.35640899  0.28498599  1
  I  I6  1  0.85640897  0.64359098  0.28498599  1
  I  I7  1  0.35640899  0.14359100  0.71501399  1
  I  I8  1  0.64359098  0.85640897  0.71501399  1
  I  I9  1  0.64359098  0.14359100  0.28498599  1
  I  I10  1  0.85640897  0.35640899  0.71501399  1
  I  I11  1  0.14359100  0.64359098  0.71501399  1
