# generated using pymatgen
data_Ba4CaZrInGaS10
_symmetry_space_group_name_H-M   'P 1'
_cell_length_a   8.22203922
_cell_length_b   8.22203922
_cell_length_c   8.91793919
_cell_angle_alpha   116.68341827
_cell_angle_beta   116.68341827
_cell_angle_gamma   91.48203278
_symmetry_Int_Tables_number   1
_chemical_formula_structural   Ba4CaZrInGaS10
_chemical_formula_sum   'Ba4 Ca1 Zr1 In1 Ga1 S10'
_cell_volume   461.33908016
_cell_formula_units_Z   1
loop_
 _symmetry_equiv_pos_site_id
 _symmetry_equiv_pos_as_xyz
  1  'x, y, z'
loop_
 _atom_site_type_symbol
 _atom_site_label
 _atom_site_symmetry_multiplicity
 _atom_site_fract_x
 _atom_site_fract_y
 _atom_site_fract_z
 _atom_site_occupancy
  Ba  Ba0  1  0.75000009  0.75000005  0.50000007  1
  Ba  Ba1  1  0.25000003  0.25000002  0.50000004  1
  Ba  Ba2  1  0.84166809  0.65833205  1.00000009  1
  Ba  Ba3  1  0.15833203  0.34166802  0.00000002  1
  Zr  Zr4  1  0.66640805  0.16640801  0.00000002  1
  Ca  Ca5  1  0.33359207  0.83359206  1.00000009  1
  In  In6  1  0.24760806  0.74760805  0.49521606  1
  Ga  Ga7  1  0.75239206  0.25239202  0.50478404  1
  S  S8  1  0.49931904  0.27727002  0.27658903  1
  S  S9  1  0.77727010  0.99931907  0.27658907  1
  S  S10  1  0.30394006  0.80394006  0.29202005  1
  S  S11  1  0.98808008  0.48808004  0.29202005  1
  S  S12  1  0.50068107  0.72273005  0.72341107  1
  S  S13  1  0.22273001  0.00068100  0.72341104  1
  S  S14  1  0.69606005  0.19606001  0.70798005  1
  S  S15  1  0.01192003  0.51192004  0.70798006  1
  S  S16  1  0.50000006  0.50000004  0.00000003  1
  S  S17  1  0.00000000  0.00000000  0.00000000  1
