# generated using pymatgen
data_LaTlCl6
_symmetry_space_group_name_H-M   'P 1'
_cell_length_a   3.55140305
_cell_length_b   9.73903561
_cell_length_c   9.73903656
_cell_angle_alpha   120.00000000
_cell_angle_beta   90.00000000
_cell_angle_gamma   90.00000000
_symmetry_Int_Tables_number   1
_chemical_formula_structural   LaTlCl6
_chemical_formula_sum   'La1 Tl1 Cl6'
_cell_volume   291.71754116
_cell_formula_units_Z   1
loop_
 _symmetry_equiv_pos_site_id
 _symmetry_equiv_pos_as_xyz
  1  'x, y, z'
loop_
 _atom_site_type_symbol
 _atom_site_label
 _atom_site_symmetry_multiplicity
 _atom_site_fract_x
 _atom_site_fract_y
 _atom_site_fract_z
 _atom_site_occupancy
  Tl  Tl0  1  0.25000000  0.66666670  0.33333334  1
  La  La1  1  0.74999999  0.33333335  0.66666666  1
  Cl  Cl2  1  0.74999999  0.78269004  0.21731001  1
  Cl  Cl3  1  0.74999999  0.43462002  0.21731001  1
  Cl  Cl4  1  0.74999999  0.78269004  0.56538001  1
  Cl  Cl5  1  0.25000000  0.21731001  0.78268999  1
  Cl  Cl6  1  0.25000000  0.56538003  0.78269000  1
  Cl  Cl7  1  0.25000000  0.21731001  0.43462000  1
