# generated using pymatgen
data_Sr7TaO10
_symmetry_space_group_name_H-M   'P 1'
_cell_length_a   6.25519514
_cell_length_b   7.57612085
_cell_length_c   7.75618505
_cell_angle_alpha   104.71360779
_cell_angle_beta   90.00000000
_cell_angle_gamma   90.00000000
_symmetry_Int_Tables_number   1
_chemical_formula_structural   Sr7TaO10
_chemical_formula_sum   'Sr7 Ta1 O10'
_cell_volume   355.51305681
_cell_formula_units_Z   1
loop_
 _symmetry_equiv_pos_site_id
 _symmetry_equiv_pos_as_xyz
  1  'x, y, z'
loop_
 _atom_site_type_symbol
 _atom_site_label
 _atom_site_symmetry_multiplicity
 _atom_site_fract_x
 _atom_site_fract_y
 _atom_site_fract_z
 _atom_site_occupancy
  Sr  Sr0  1  0.24999999  0.39318701  0.84879700  1
  Sr  Sr1  1  0.74999998  0.60681302  0.15120302  1
  Sr  Sr2  1  0.24999999  0.37055501  0.34242901  1
  Sr  Sr3  1  0.74999998  0.62944502  0.65757102  1
  Sr  Sr4  1  0.24999999  0.87682303  0.96146602  1
  Sr  Sr5  1  0.74999998  0.12317700  0.03853400  1
  Sr  Sr6  1  0.24999999  0.87034803  0.47464403  1
  Ta  Ta7  1  0.74999998  0.12965200  0.52535600  1
  O  O8  1  0.74999998  0.01388500  0.75342399  1
  O  O9  1  0.49133399  0.68058802  0.92575401  1
  O  O10  1  0.00866600  0.68058802  0.92575401  1
  O  O11  1  0.24999999  0.98611503  0.24657604  1
  O  O12  1  0.99133398  0.31941201  0.07424601  1
  O  O13  1  0.50866599  0.31941201  0.07424601  1
  O  O14  1  0.00786700  0.67562602  0.41305902  1
  O  O15  1  0.49213299  0.67562602  0.41305902  1
  O  O16  1  0.99213298  0.32437401  0.58694100  1
  O  O17  1  0.50786699  0.32437401  0.58694100  1
