# generated using pymatgen
data_RbBa6ThTlSnSCl9
_symmetry_space_group_name_H-M   'P 1'
_cell_length_a   4.65808916
_cell_length_b   7.34462309
_cell_length_c   17.68074989
_cell_angle_alpha   90.00000000
_cell_angle_beta   90.00000000
_cell_angle_gamma   90.00000000
_symmetry_Int_Tables_number   1
_chemical_formula_structural   RbBa6ThTlSnSCl9
_chemical_formula_sum   'Rb1 Ba6 Th1 Tl1 Sn1 S1 Cl9'
_cell_volume   604.89220995
_cell_formula_units_Z   1
loop_
 _symmetry_equiv_pos_site_id
 _symmetry_equiv_pos_as_xyz
  1  'x, y, z'
loop_
 _atom_site_type_symbol
 _atom_site_label
 _atom_site_symmetry_multiplicity
 _atom_site_fract_x
 _atom_site_fract_y
 _atom_site_fract_z
 _atom_site_occupancy
  Ba  Ba0  1  0.74999997  0.77146799  0.44666498  1
  Rb  Rb1  1  0.24999999  0.72853199  0.94666495  1
  Ba  Ba2  1  0.24999999  0.53527899  0.72777496  1
  Ba  Ba3  1  0.74999997  0.96472099  0.22777499  1
  Sn  Sn4  1  0.74999997  0.27146800  0.05333500  1
  Ba  Ba5  1  0.24999999  0.22853200  0.55333497  1
  Ba  Ba6  1  0.74999997  0.46472099  0.27222499  1
  Tl  Tl7  1  0.24999999  0.03527900  0.77222496  1
  Th  Th8  1  0.24999999  0.63722799  0.15077499  1
  Ba  Ba9  1  0.74999997  0.86277199  0.65077497  1
  Cl  Cl10  1  0.74999997  0.36277200  0.84922496  1
  Cl  Cl11  1  0.24999999  0.13722800  0.34922498  1
  Cl  Cl12  1  0.74999997  0.25562100  0.68315697  1
  Cl  Cl13  1  0.24999999  0.74437899  0.31684298  1
  Cl  Cl14  1  0.24999999  0.24437900  0.18315699  1
  Cl  Cl15  1  0.74999997  0.75795599  0.07071500  1
  Cl  Cl16  1  0.74999997  0.75562099  0.81684296  1
  Cl  Cl17  1  0.24999999  0.24204400  0.92928495  1
  Cl  Cl18  1  0.74999997  0.25795600  0.42928498  1
  S  S19  1  0.24999999  0.74204399  0.57071497  1
