# generated using pymatgen
data_Na4ZnFeNiOF11
_symmetry_space_group_name_H-M   'P 1'
_cell_length_a   5.38825512
_cell_length_b   5.51132584
_cell_length_c   7.79898071
_cell_angle_alpha   90.61191559
_cell_angle_beta   90.41444397
_cell_angle_gamma   91.64260864
_symmetry_Int_Tables_number   1
_chemical_formula_structural   Na4ZnFeNiOF11
_chemical_formula_sum   'Na4 Zn1 Fe1 Ni1 O1 F11'
_cell_volume   231.48692237
_cell_formula_units_Z   1
loop_
 _symmetry_equiv_pos_site_id
 _symmetry_equiv_pos_as_xyz
  1  'x, y, z'
loop_
 _atom_site_type_symbol
 _atom_site_label
 _atom_site_symmetry_multiplicity
 _atom_site_fract_x
 _atom_site_fract_y
 _atom_site_fract_z
 _atom_site_occupancy
  Na  Na0  1  0.01587500  0.05422400  0.74791499  1
  Na  Na1  1  0.49625501  0.54382599  0.74999298  1
  Na  Na2  1  0.50934500  0.45302899  0.24860999  1
  Na  Na3  1  0.00723302  0.50892799  0.49831600  1
  Zn  Zn4  1  0.51282099  0.00787300  0.00329999  1
  Fe  Fe5  1  0.50736002  0.99765998  0.49003499  1
  Ni  Ni6  1  0.00402902  0.51898299  0.00643600  1
  O  O7  1  0.29470300  0.27662800  0.54285799  1
  F  F8  1  0.21283802  0.79154699  0.94860099  1
  F  F9  1  0.68477201  0.70076499  0.46745498  1
  F  F10  1  0.77912899  0.21862800  0.03469898  1
  F  F11  1  0.78491299  0.21686500  0.46636698  1
  F  F12  1  0.70200501  0.69183299  0.03121899  1
  F  F13  1  0.20876702  0.78224599  0.55188899  1
  F  F14  1  0.27979700  0.30178100  0.96004599  1
  F  F15  1  0.92136299  0.47762999  0.75871097  1
  F  F16  1  0.58440502  0.98153098  0.74079899  1
  F  F17  1  0.07954501  0.52060899  0.24304600  1
  F  F18  1  0.42918999  0.01120800  0.25607099  1
