# generated using pymatgen
data_V2O5
_symmetry_space_group_name_H-M   'P 1'
_cell_length_a   3.68188310
_cell_length_b   5.99826479
_cell_length_c   10.40700340
_cell_angle_alpha   90.00000000
_cell_angle_beta   90.00000000
_cell_angle_gamma   90.00000000
_symmetry_Int_Tables_number   1
_chemical_formula_structural   V2O5
_chemical_formula_sum   'V4 O10'
_cell_volume   229.83773079
_cell_formula_units_Z   2
loop_
 _symmetry_equiv_pos_site_id
 _symmetry_equiv_pos_as_xyz
  1  'x, y, z'
loop_
 _atom_site_type_symbol
 _atom_site_label
 _atom_site_symmetry_multiplicity
 _atom_site_fract_x
 _atom_site_fract_y
 _atom_site_fract_z
 _atom_site_occupancy
  V  V0  1  0.49999999  0.21269001  0.86166097  1
  V  V1  1  0.49999999  0.78731003  0.13833899  1
  V  V2  1  0.49999999  0.71269003  0.63833898  1
  V  V3  1  0.49999999  0.28731001  0.36166099  1
  O  O4  1  -0.00000000  0.28651901  0.90157697  1
  O  O5  1  -0.00000000  0.71348103  0.09842300  1
  O  O6  1  -0.00000000  0.78651903  0.59842298  1
  O  O7  1  -0.00000000  0.21348101  0.40157698  1
  O  O8  1  0.49999999  0.52714302  0.77833997  1
  O  O9  1  0.49999999  0.47285702  0.22165999  1
  O  O10  1  0.49999999  0.02714300  0.72165997  1
  O  O11  1  0.49999999  0.97285703  0.27833999  1
  O  O12  1  0.49999999  0.00000000  -0.00000000  1
  O  O13  1  0.49999999  0.50000002  0.49999998  1
