# generated using pymatgen
data_CdCu3Se4
_symmetry_space_group_name_H-M   'P 1'
_cell_length_a   4.19108009
_cell_length_b   7.26283455
_cell_length_c   7.26283455
_cell_angle_alpha   109.26383209
_cell_angle_beta   90.00000000
_cell_angle_gamma   90.00000000
_symmetry_Int_Tables_number   1
_chemical_formula_structural   CdCu3Se4
_chemical_formula_sum   'Cd1 Cu3 Se4'
_cell_volume   208.69621911
_cell_formula_units_Z   1
loop_
 _symmetry_equiv_pos_site_id
 _symmetry_equiv_pos_as_xyz
  1  'x, y, z'
loop_
 _atom_site_type_symbol
 _atom_site_label
 _atom_site_symmetry_multiplicity
 _atom_site_fract_x
 _atom_site_fract_y
 _atom_site_fract_z
 _atom_site_occupancy
  Cd  Cd0  1  0.49999997  0.63906603  0.36093405  1
  Cu  Cu1  1  -0.00000000  0.63290803  0.89436106  1
  Cu  Cu2  1  -0.00000000  0.10563900  0.36709201  1
  Cu  Cu3  1  0.49999997  0.12385601  0.87614403  1
  Se  Se4  1  -0.00000000  0.49871002  0.50129004  1
  Se  Se5  1  -0.00000000  0.99952204  0.00047806  1
  Se  Se6  1  0.49999997  0.99994104  0.49964107  1
  Se  Se7  1  0.49999997  0.50035902  0.00005903  1
