# generated using pymatgen
data_Ba2Zr2Ta(WO6)2
_symmetry_space_group_name_H-M   'P 1'
_cell_length_a   5.73196316
_cell_length_b   5.73196316
_cell_length_c   9.80513000
_cell_angle_alpha   73.00464630
_cell_angle_beta   73.00464630
_cell_angle_gamma   60.00000763
_symmetry_Int_Tables_number   1
_chemical_formula_structural   Ba2Zr2Ta(WO6)2
_chemical_formula_sum   'Ba2 Zr2 Ta1 W2 O12'
_cell_volume   262.62049499
_cell_formula_units_Z   1
loop_
 _symmetry_equiv_pos_site_id
 _symmetry_equiv_pos_as_xyz
  1  'x, y, z'
loop_
 _atom_site_type_symbol
 _atom_site_label
 _atom_site_symmetry_multiplicity
 _atom_site_fract_x
 _atom_site_fract_y
 _atom_site_fract_z
 _atom_site_occupancy
  Ba  Ba0  1  0.85899604  0.85899603  0.42301193  1
  Ba  Ba1  1  0.14070201  0.14070200  0.57789399  1
  Zr  Zr2  1  0.71460203  0.71460202  0.85619395  1
  Ta  Ta3  1  0.28528501  0.28528501  0.14414498  1
  Zr  Zr4  1  0.57652603  0.57652602  0.27042196  1
  W  W5  1  0.42447502  0.42447501  0.72657497  1
  W  W6  1  0.00131900  0.00131900  0.99604300  1
  O  O7  1  0.88705703  0.31312001  0.35754895  1
  O  O8  1  0.31312001  0.44227401  0.35754897  1
  O  O9  1  0.44227402  0.88705703  0.35754895  1
  O  O10  1  0.12257901  0.68672002  0.63626897  1
  O  O11  1  0.68672003  0.55443202  0.63626895  1
  O  O12  1  0.55443202  0.12257900  0.63626898  1
  O  O13  1  0.70170403  0.15389801  0.88546597  1
  O  O14  1  0.15389801  0.25893201  0.88546599  1
  O  O15  1  0.25893201  0.70170402  0.88546596  1
  O  O16  1  0.29252802  0.86197103  0.12262196  1
  O  O17  1  0.86197104  0.72287902  0.12262194  1
  O  O18  1  0.72287903  0.29252801  0.12262196  1
