# generated using pymatgen
data_NaZn(SbAs2)2
_symmetry_space_group_name_H-M   'P 1'
_cell_length_a   4.02718019
_cell_length_b   4.02718019
_cell_length_c   14.24187374
_cell_angle_alpha   90.00000000
_cell_angle_beta   90.00000000
_cell_angle_gamma   90.00000000
_symmetry_Int_Tables_number   1
_chemical_formula_structural   NaZn(SbAs2)2
_chemical_formula_sum   'Na1 Zn1 Sb2 As4'
_cell_volume   230.97727645
_cell_formula_units_Z   1
loop_
 _symmetry_equiv_pos_site_id
 _symmetry_equiv_pos_as_xyz
  1  'x, y, z'
loop_
 _atom_site_type_symbol
 _atom_site_label
 _atom_site_symmetry_multiplicity
 _atom_site_fract_x
 _atom_site_fract_y
 _atom_site_fract_z
 _atom_site_occupancy
  Na  Na0  1  0.49999998  0.00000000  0.40781801  1
  Zn  Zn1  1  -0.00000000  0.49999998  0.59218201  1
  Sb  Sb2  1  -0.00000000  0.49999998  0.08466500  1
  Sb  Sb3  1  0.49999998  0.00000000  0.91533502  1
  As  As4  1  -0.00000000  0.49999998  0.38580701  1
  As  As5  1  0.49999998  0.00000000  0.61419301  1
  As  As6  1  0.00000000  0.00000000  0.00000000  1
  As  As7  1  0.49999998  0.49999998  0.00000000  1
