# generated using pymatgen
data_Li4AgF7
_symmetry_space_group_name_H-M   'P 1'
_cell_length_a   3.09363651
_cell_length_b   4.67859745
_cell_length_c   9.35744667
_cell_angle_alpha   91.14693451
_cell_angle_beta   90.01686859
_cell_angle_gamma   90.01904297
_symmetry_Int_Tables_number   1
_chemical_formula_structural   Li4AgF7
_chemical_formula_sum   'Li4 Ag1 F7'
_cell_volume   135.41141067
_cell_formula_units_Z   1
loop_
 _symmetry_equiv_pos_site_id
 _symmetry_equiv_pos_as_xyz
  1  'x, y, z'
loop_
 _atom_site_type_symbol
 _atom_site_label
 _atom_site_symmetry_multiplicity
 _atom_site_fract_x
 _atom_site_fract_y
 _atom_site_fract_z
 _atom_site_occupancy
  Li  Li0  1  0.50006404  0.99741401  0.99890305  1
  Li  Li1  1  0.50006404  0.99741301  0.49890203  1
  Li  Li2  1  0.00000802  0.49747800  0.24892602  1
  Li  Li3  1  0.00000802  0.49747700  0.74892603  1
  Ag  Ag4  1  0.99999803  0.80386901  0.59571803  1
  F  F5  1  0.99999803  0.80387201  0.09571902  1
  F  F6  1  0.00003801  0.19017000  0.90169903  1
  F  F7  1  0.00003801  0.19016700  0.40169701  1
  F  F8  1  0.49961701  0.29980300  0.64966002  1
  F  F9  1  0.49961701  0.29980000  0.14966001  1
  F  F10  1  0.50038203  0.69485500  0.84802704  1
  F  F11  1  0.50038203  0.69485900  0.34802702  1
