# generated using pymatgen
data_LiMn4CoO6
_symmetry_space_group_name_H-M   'P 1'
_cell_length_a   4.89343214
_cell_length_b   5.04383707
_cell_length_c   7.64855623
_cell_angle_alpha   90.00000000
_cell_angle_beta   90.00000000
_cell_angle_gamma   90.00000000
_symmetry_Int_Tables_number   1
_chemical_formula_structural   LiMn4CoO6
_chemical_formula_sum   'Li1 Mn4 Co1 O6'
_cell_volume   188.77917480
_cell_formula_units_Z   1
loop_
 _symmetry_equiv_pos_site_id
 _symmetry_equiv_pos_as_xyz
  1  'x, y, z'
loop_
 _atom_site_type_symbol
 _atom_site_label
 _atom_site_symmetry_multiplicity
 _atom_site_fract_x
 _atom_site_fract_y
 _atom_site_fract_z
 _atom_site_occupancy
  Mn  Mn0  1  0.71440998  0.53057499  0.37818499  1
  Li  Li1  1  0.28558999  0.03057500  0.12181500  1
  Mn  Mn2  1  0.21440999  0.96942499  0.62181498  1
  Mn  Mn3  1  0.78558998  0.46942499  0.87818497  1
  Mn  Mn4  1  0.52944998  0.13374900  0.93876997  1
  Co  Co5  1  0.02945000  0.36625099  0.06123000  1
  O  O6  1  0.40696999  0.23500000  0.31764399  1
  O  O7  1  0.47054999  0.63374899  0.56122998  1
  O  O8  1  0.97054997  0.86625099  0.43876999  1
  O  O9  1  0.09303000  0.76499999  0.81764398  1
  O  O10  1  0.59302998  0.73499999  0.18235599  1
  O  O11  1  0.90696997  0.26500000  0.68235598  1
