# generated using pymatgen
data_Sr5CaTaMoO12
_symmetry_space_group_name_H-M   'P 1'
_cell_length_a   5.70720482
_cell_length_b   7.59705353
_cell_length_c   7.59705353
_cell_angle_alpha   102.88836670
_cell_angle_beta   90.00000000
_cell_angle_gamma   90.00000000
_symmetry_Int_Tables_number   1
_chemical_formula_structural   Sr5CaTaMoO12
_chemical_formula_sum   'Sr5 Ca1 Ta1 Mo1 O12'
_cell_volume   321.09404339
_cell_formula_units_Z   1
loop_
 _symmetry_equiv_pos_site_id
 _symmetry_equiv_pos_as_xyz
  1  'x, y, z'
loop_
 _atom_site_type_symbol
 _atom_site_label
 _atom_site_symmetry_multiplicity
 _atom_site_fract_x
 _atom_site_fract_y
 _atom_site_fract_z
 _atom_site_occupancy
  Sr  Sr0  1  0.53285002  0.30032601  0.08653402  1
  Sr  Sr1  1  0.03285000  0.08653400  0.30032601  1
  Sr  Sr2  1  0.57290302  0.39569801  0.60430203  1
  Sr  Sr3  1  0.07290300  0.60430201  0.39569803  1
  Ca  Ca4  1  0.53285002  0.91346602  0.69967405  1
  Sr  Sr5  1  0.03285000  0.69967402  0.91346605  1
  Ta  Ta6  1  0.99563803  0.19364200  0.80635802  1
  Mo  Mo7  1  0.49563802  0.80635802  0.19364204  1
  O  O8  1  0.80036903  0.35408401  0.32645802  1
  O  O9  1  0.30036901  0.32645801  0.35408402  1
  O  O10  1  0.33008201  0.58570301  0.11070103  1
  O  O11  1  0.83008203  0.11070100  0.58570301  1
  O  O12  1  0.87118703  0.04618200  0.95381801  1
  O  O13  1  0.31972301  0.21482000  0.78518002  1
  O  O14  1  0.81972303  0.78518002  0.21482004  1
  O  O15  1  0.37118701  0.95381802  0.04618205  1
  O  O16  1  0.33008201  0.88929902  0.41429705  1
  O  O17  1  0.83008203  0.41429701  0.88929903  1
  O  O18  1  0.80036903  0.67354201  0.64591604  1
  O  O19  1  0.30036901  0.64591601  0.67354204  1
