# generated using pymatgen
data_Li2MnNi3O3F7
_symmetry_space_group_name_H-M   'P 1'
_cell_length_a   3.69375420
_cell_length_b   5.32782507
_cell_length_c   10.22384739
_cell_angle_alpha   89.89881134
_cell_angle_beta   89.64704132
_cell_angle_gamma   69.72106171
_symmetry_Int_Tables_number   1
_chemical_formula_structural   Li2MnNi3O3F7
_chemical_formula_sum   'Li2 Mn1 Ni3 O3 F7'
_cell_volume   188.72718654
_cell_formula_units_Z   1
loop_
 _symmetry_equiv_pos_site_id
 _symmetry_equiv_pos_as_xyz
  1  'x, y, z'
loop_
 _atom_site_type_symbol
 _atom_site_label
 _atom_site_symmetry_multiplicity
 _atom_site_fract_x
 _atom_site_fract_y
 _atom_site_fract_z
 _atom_site_occupancy
  Li  Li0  1  0.87052898  0.27104802  0.08050900  1
  Li  Li1  1  0.14238894  0.72901104  0.58018900  1
  Ni  Ni2  1  0.81862797  0.36504002  0.75164302  1
  Mn  Mn3  1  0.18697195  0.63469404  0.25158699  1
  Ni  Ni4  1  0.09928794  0.72330304  0.94082300  1
  Ni  Ni5  1  0.82587997  0.27632302  0.44068801  1
  O  O6  1  0.34475397  0.31698102  0.43172100  1
  O  O7  1  0.65942894  0.68268504  0.93159901  1
  F  F8  1  0.97195499  0.07829600  0.87612703  1
  O  O9  1  0.05494692  0.92142205  0.37589998  1
  F  F10  1  0.94817799  0.10830601  0.60924402  1
  F  F11  1  0.05156192  0.89210505  0.10915598  1
  F  F12  1  0.31176197  0.39078002  0.04801199  1
  F  F13  1  0.70195495  0.61033903  0.54785900  1
  F  F14  1  0.77946096  0.45505803  0.26252700  1
  F  F15  1  0.23231395  0.54460803  0.76241801  1
