# generated using pymatgen
data_RbTl(GaTe2)2
_symmetry_space_group_name_H-M   'P 1'
_cell_length_a   6.73509789
_cell_length_b   6.73509789
_cell_length_c   6.75000715
_cell_angle_alpha   106.00965881
_cell_angle_beta   106.00965881
_cell_angle_gamma   116.56290436
_symmetry_Int_Tables_number   1
_chemical_formula_structural   RbTl(GaTe2)2
_chemical_formula_sum   'Rb1 Tl1 Ga2 Te4'
_cell_volume   233.16170267
_cell_formula_units_Z   1
loop_
 _symmetry_equiv_pos_site_id
 _symmetry_equiv_pos_as_xyz
  1  'x, y, z'
loop_
 _atom_site_type_symbol
 _atom_site_label
 _atom_site_symmetry_multiplicity
 _atom_site_fract_x
 _atom_site_fract_y
 _atom_site_fract_z
 _atom_site_occupancy
  Rb  Rb0  1  0.24999999  0.25000000  -0.00000003  1
  Tl  Tl1  1  0.74999997  0.74999999  0.99999987  1
  Ga  Ga2  1  0.75555700  0.25555700  0.49999992  1
  Ga  Ga3  1  0.24444297  0.74444299  0.49999991  1
  Te  Te4  1  0.67705100  0.17705100  0.85410192  1
  Te  Te5  1  0.32294897  0.82294899  0.14589791  1
  Te  Te6  1  0.83061098  0.66938899  0.49999988  1
  Te  Te7  1  0.16938899  0.33061100  0.49999995  1
