# generated using pymatgen
data_LaNbO5
_symmetry_space_group_name_H-M   'P 1'
_cell_length_a   6.33002424
_cell_length_b   6.33002424
_cell_length_c   6.96403694
_cell_angle_alpha   75.46791840
_cell_angle_beta   75.46791840
_cell_angle_gamma   70.65258026
_symmetry_Int_Tables_number   1
_chemical_formula_structural   LaNbO5
_chemical_formula_sum   'La2 Nb2 O10'
_cell_volume   250.52406678
_cell_formula_units_Z   2
loop_
 _symmetry_equiv_pos_site_id
 _symmetry_equiv_pos_as_xyz
  1  'x, y, z'
loop_
 _atom_site_type_symbol
 _atom_site_label
 _atom_site_symmetry_multiplicity
 _atom_site_fract_x
 _atom_site_fract_y
 _atom_site_fract_z
 _atom_site_occupancy
  La  La0  1  0.22243000  0.22243001  0.88063502  1
  La  La1  1  0.77756999  0.77757002  0.11936502  1
  Nb  Nb2  1  0.36294100  0.36294101  0.26556801  1
  Nb  Nb3  1  0.63705899  0.63705901  0.73443202  1
  O  O4  1  0.01132800  0.01132800  0.22709200  1
  O  O5  1  0.98867199  0.98867202  0.77290803  1
  O  O6  1  0.29552600  0.29552601  0.53632901  1
  O  O7  1  0.70447399  0.70447402  0.46367102  1
  O  O8  1  0.45306099  0.45306101  0.80726602  1
  O  O9  1  0.54693899  0.54693901  0.19273401  1
  O  O10  1  0.50708198  0.89476902  0.84452303  1
  O  O11  1  0.89476900  0.50708201  0.84452302  1
  O  O12  1  0.49291800  0.10523100  0.15547701  1
  O  O13  1  0.10523099  0.49291801  0.15547701  1
