# generated using pymatgen
data_CeTmN2Cl
_symmetry_space_group_name_H-M   'P 1'
_cell_length_a   3.90932989
_cell_length_b   3.90932989
_cell_length_c   6.91867590
_cell_angle_alpha   90.00000000
_cell_angle_beta   90.00000000
_cell_angle_gamma   120.00000000
_symmetry_Int_Tables_number   1
_chemical_formula_structural   CeTmN2Cl
_chemical_formula_sum   'Ce1 Tm1 N2 Cl1'
_cell_volume   91.57106368
_cell_formula_units_Z   1
loop_
 _symmetry_equiv_pos_site_id
 _symmetry_equiv_pos_as_xyz
  1  'x, y, z'
loop_
 _atom_site_type_symbol
 _atom_site_label
 _atom_site_symmetry_multiplicity
 _atom_site_fract_x
 _atom_site_fract_y
 _atom_site_fract_z
 _atom_site_occupancy
  Ce  Ce0  1  0.33333333  0.66666667  0.28969700  1
  Tm  Tm1  1  0.66666668  0.33333333  0.71030301  1
  Cl  Cl2  1  0.00000000  0.00000000  0.00000000  1
  N  N3  1  0.33333333  0.66666667  0.62557401  1
  N  N4  1  0.66666668  0.33333333  0.37442601  1
