# generated using pymatgen
data_TbWClO4
_symmetry_space_group_name_H-M   'P 1'
_cell_length_a   6.28371286
_cell_length_b   6.28371286
_cell_length_c   6.89364147
_cell_angle_alpha   75.85189056
_cell_angle_beta   75.85189056
_cell_angle_gamma   70.72364807
_symmetry_Int_Tables_number   1
_chemical_formula_structural   TbWClO4
_chemical_formula_sum   'Tb2 W2 Cl2 O8'
_cell_volume   245.12332268
_cell_formula_units_Z   2
loop_
 _symmetry_equiv_pos_site_id
 _symmetry_equiv_pos_as_xyz
  1  'x, y, z'
loop_
 _atom_site_type_symbol
 _atom_site_label
 _atom_site_symmetry_multiplicity
 _atom_site_fract_x
 _atom_site_fract_y
 _atom_site_fract_z
 _atom_site_occupancy
  Tb  Tb0  1  0.22160799  0.22160800  0.88751396  1
  Tb  Tb1  1  0.77839196  0.77839200  0.11248594  1
  W  W2  1  0.63782696  0.63782700  0.73087094  1
  W  W3  1  0.36217298  0.36217300  0.26912897  1
  Cl  Cl4  1  0.01023800  0.01023800  0.23213299  1
  Cl  Cl5  1  0.98976195  0.98976200  0.76786691  1
  O  O6  1  0.89251097  0.50833500  0.84644793  1
  O  O7  1  0.10748898  0.49166500  0.15355198  1
  O  O8  1  0.49166499  0.10748900  0.15355197  1
  O  O9  1  0.54420997  0.54421000  0.20076996  1
  O  O10  1  0.29337298  0.29337300  0.53723096  1
  O  O11  1  0.50833496  0.89251100  0.84644793  1
  O  O12  1  0.70662696  0.70662700  0.46276894  1
  O  O13  1  0.45578997  0.45579000  0.79922995  1
