# generated using pymatgen
data_NdZrO3
_symmetry_space_group_name_H-M   'P 1'
_cell_length_a   5.82449389
_cell_length_b   5.96318007
_cell_length_c   8.34654617
_cell_angle_alpha   90.00000000
_cell_angle_beta   90.00000000
_cell_angle_gamma   90.00000000
_symmetry_Int_Tables_number   1
_chemical_formula_structural   NdZrO3
_chemical_formula_sum   'Nd4 Zr4 O12'
_cell_volume   289.89646357
_cell_formula_units_Z   4
loop_
 _symmetry_equiv_pos_site_id
 _symmetry_equiv_pos_as_xyz
  1  'x, y, z'
loop_
 _atom_site_type_symbol
 _atom_site_label
 _atom_site_symmetry_multiplicity
 _atom_site_fract_x
 _atom_site_fract_y
 _atom_site_fract_z
 _atom_site_occupancy
  Nd  Nd0  1  0.50662501  0.52994199  0.24999999  1
  Nd  Nd1  1  0.00662500  0.97005799  0.74999998  1
  Nd  Nd2  1  0.99337502  0.02994200  0.24999999  1
  Nd  Nd3  1  0.49337501  0.47005799  0.74999998  1
  Zr  Zr4  1  -0.00000000  0.49999999  0.00000000  1
  Zr  Zr5  1  0.50000001  0.00000000  -0.00000000  1
  Zr  Zr6  1  0.50000001  0.00000000  0.49999999  1
  Zr  Zr7  1  -0.00000000  0.49999999  0.49999999  1
  O  O8  1  0.70086901  0.29672300  0.45084199  1
  O  O9  1  0.20086900  0.20327700  0.54915799  1
  O  O10  1  0.79913102  0.79672299  0.04915800  1
  O  O11  1  0.29913101  0.70327699  0.95084198  1
  O  O12  1  0.29913101  0.70327699  0.54915799  1
  O  O13  1  0.79913102  0.79672299  0.45084199  1
  O  O14  1  0.20086900  0.20327700  0.95084198  1
  O  O15  1  0.70086901  0.29672300  0.04915800  1
  O  O16  1  0.09427800  0.46955199  0.24999999  1
  O  O17  1  0.59427801  0.03044800  0.74999998  1
  O  O18  1  0.40572201  0.96955199  0.24999999  1
  O  O19  1  0.90572202  0.53044799  0.74999998  1
