# generated using pymatgen
data_MnF2
_symmetry_space_group_name_H-M   'P 1'
_cell_length_a   4.88890219
_cell_length_b   5.22774696
_cell_length_c   5.88188696
_cell_angle_alpha   90.00000000
_cell_angle_beta   90.00000000
_cell_angle_gamma   91.32183075
_symmetry_Int_Tables_number   1
_chemical_formula_structural   MnF2
_chemical_formula_sum   'Mn4 F8'
_cell_volume   150.28893129
_cell_formula_units_Z   4
loop_
 _symmetry_equiv_pos_site_id
 _symmetry_equiv_pos_as_xyz
  1  'x, y, z'
loop_
 _atom_site_type_symbol
 _atom_site_label
 _atom_site_symmetry_multiplicity
 _atom_site_fract_x
 _atom_site_fract_y
 _atom_site_fract_z
 _atom_site_occupancy
  Mn  Mn0  1  -0.00000000  0.25000001  0.17096100  1
  Mn  Mn1  1  -0.00000000  0.75000003  0.82903901  1
  Mn  Mn2  1  0.49999998  0.25000001  0.67558900  1
  Mn  Mn3  1  0.49999998  0.75000003  0.32441100  1
  F  F4  1  0.25931799  0.39979201  0.37765300  1
  F  F5  1  0.74068197  0.10020800  0.37765300  1
  F  F6  1  0.74068197  0.60020802  0.62234700  1
  F  F7  1  0.25931799  0.89979203  0.62234700  1
  F  F8  1  0.21311999  0.43608801  0.89639801  1
  F  F9  1  0.78687997  0.06391200  0.89639801  1
  F  F10  1  0.78687997  0.56391202  0.10360200  1
  F  F11  1  0.21311999  0.93608803  0.10360200  1
