# generated using pymatgen
data_Cs2CuAsS4
_symmetry_space_group_name_H-M   'P 1'
_cell_length_a   5.92952013
_cell_length_b   7.60781145
_cell_length_c   12.73297310
_cell_angle_alpha   84.79393005
_cell_angle_beta   76.53559875
_cell_angle_gamma   67.06420135
_symmetry_Int_Tables_number   1
_chemical_formula_structural   Cs2CuAsS4
_chemical_formula_sum   'Cs4 Cu2 As2 S8'
_cell_volume   514.44345354
_cell_formula_units_Z   2
loop_
 _symmetry_equiv_pos_site_id
 _symmetry_equiv_pos_as_xyz
  1  'x, y, z'
loop_
 _atom_site_type_symbol
 _atom_site_label
 _atom_site_symmetry_multiplicity
 _atom_site_fract_x
 _atom_site_fract_y
 _atom_site_fract_z
 _atom_site_occupancy
  Cs  Cs0  1  0.82271399  0.00000000  0.35457200  1
  Cs  Cs1  1  0.92728600  0.50000001  0.14542798  1
  Cs  Cs2  1  0.17728600  0.00000000  0.64542802  1
  Cs  Cs3  1  0.57271401  0.50000001  0.85457201  1
  Cu  Cu4  1  0.49999999  0.00000000  -0.00000001  1
  Cu  Cu5  1  0.25000001  0.50000001  0.50000000  1
  As  As6  1  0.00000000  0.00000000  0.00000000  1
  As  As7  1  0.75000000  0.50000001  0.50000000  1
  S  S8  1  0.57505700  0.32235301  0.59974500  1
  S  S9  1  0.82519801  0.67764701  0.59974499  1
  S  S10  1  0.25284502  0.82235302  0.09974499  1
  S  S11  1  0.64741000  0.17764700  0.09974499  1
  S  S12  1  0.10259001  0.32235301  0.40025501  1
  S  S13  1  0.49715501  0.67764701  0.40025499  1
  S  S14  1  0.92480201  0.82235302  0.90025500  1
  S  S15  1  0.17494300  0.17764700  0.90025502  1
