# generated using pymatgen
data_RbDyPt3Se
_symmetry_space_group_name_H-M   'P 1'
_cell_length_a   5.63066483
_cell_length_b   6.28977394
_cell_length_c   6.28977394
_cell_angle_alpha   120.00000000
_cell_angle_beta   90.00000000
_cell_angle_gamma   90.00000000
_symmetry_Int_Tables_number   1
_chemical_formula_structural   RbDyPt3Se
_chemical_formula_sum   'Rb1 Dy1 Pt3 Se1'
_cell_volume   192.91250545
_cell_formula_units_Z   1
loop_
 _symmetry_equiv_pos_site_id
 _symmetry_equiv_pos_as_xyz
  1  'x, y, z'
loop_
 _atom_site_type_symbol
 _atom_site_label
 _atom_site_symmetry_multiplicity
 _atom_site_fract_x
 _atom_site_fract_y
 _atom_site_fract_z
 _atom_site_occupancy
  Rb  Rb0  1  0.50000002  0.00000000  0.00000000  1
  Dy  Dy1  1  0.00000000  0.00000000  0.50000000  1
  Pt  Pt2  1  0.00000000  0.50000000  0.50000000  1
  Pt  Pt3  1  0.00000000  0.50000000  -0.00000000  1
  Pt  Pt4  1  0.30102501  0.66666667  0.33333333  1
  Se  Se5  1  0.69897502  0.33333334  0.66666666  1
