# generated using pymatgen
data_NaCa3Si2(ClO3)2
_symmetry_space_group_name_H-M   'P 1'
_cell_length_a   3.78824401
_cell_length_b   3.78824401
_cell_length_c   13.21042061
_cell_angle_alpha   90.00000000
_cell_angle_beta   90.00000000
_cell_angle_gamma   90.00000000
_symmetry_Int_Tables_number   1
_chemical_formula_structural   NaCa3Si2(ClO3)2
_chemical_formula_sum   'Na1 Ca3 Si2 Cl2 O6'
_cell_volume   189.58000726
_cell_formula_units_Z   1
loop_
 _symmetry_equiv_pos_site_id
 _symmetry_equiv_pos_as_xyz
  1  'x, y, z'
loop_
 _atom_site_type_symbol
 _atom_site_label
 _atom_site_symmetry_multiplicity
 _atom_site_fract_x
 _atom_site_fract_y
 _atom_site_fract_z
 _atom_site_occupancy
  Ca  Ca0  1  0.50000000  0.00000000  0.58330702  1
  Ca  Ca1  1  -0.00000000  0.50000000  0.41669301  1
  Na  Na2  1  -0.00000000  0.50000000  0.10919400  1
  Ca  Ca3  1  0.50000000  0.00000000  0.89080603  1
  Si  Si4  1  0.50000000  0.00000000  0.27496201  1
  Si  Si5  1  -0.00000000  0.50000000  0.72503802  1
  Cl  Cl6  1  -0.00000000  0.50000000  0.93069703  1
  Cl  Cl7  1  0.50000000  0.00000000  0.06930300  1
  O  O8  1  -0.00000000  0.50000000  0.59187602  1
  O  O9  1  0.50000000  0.00000000  0.40812401  1
  O  O10  1  0.00000000  0.00000000  0.23866901  1
  O  O11  1  0.50000000  0.50000000  0.23866901  1
  O  O12  1  0.00000000  0.00000000  0.76133102  1
  O  O13  1  0.50000000  0.50000000  0.76133102  1
