# generated using pymatgen
data_NaLi(GaTe2)2
_symmetry_space_group_name_H-M   'P 1'
_cell_length_a   6.73303652
_cell_length_b   6.73303556
_cell_length_c   6.73303604
_cell_angle_alpha   105.08067322
_cell_angle_beta   105.08068085
_cell_angle_gamma   118.66204071
_symmetry_Int_Tables_number   1
_chemical_formula_structural   NaLi(GaTe2)2
_chemical_formula_sum   'Na1 Li1 Ga2 Te4'
_cell_volume   230.36979758
_cell_formula_units_Z   1
loop_
 _symmetry_equiv_pos_site_id
 _symmetry_equiv_pos_as_xyz
  1  'x, y, z'
loop_
 _atom_site_type_symbol
 _atom_site_label
 _atom_site_symmetry_multiplicity
 _atom_site_fract_x
 _atom_site_fract_y
 _atom_site_fract_z
 _atom_site_occupancy
  Na  Na0  1  0.00000002  0.50000002  0.50000002  1
  Li  Li1  1  0.50000005  1.00000004  0.50000005  1
  Ga  Ga2  1  0.00000000  0.00000000  0.00000000  1
  Ga  Ga3  1  0.50000003  0.50000002  0.00000003  1
  Te  Te4  1  0.04474801  0.36368701  0.00000001  1
  Te  Te5  1  0.36368701  0.04474800  0.00000001  1
  Te  Te6  1  0.63631304  0.63631302  0.68106105  1
  Te  Te7  1  0.95525206  0.95525203  0.31893906  1
