# generated using pymatgen
data_LiCu(PO4)2
_symmetry_space_group_name_H-M   'P 1'
_cell_length_a   5.08249187
_cell_length_b   5.19726133
_cell_length_c   6.20491648
_cell_angle_alpha   78.80905151
_cell_angle_beta   88.32565308
_cell_angle_gamma   72.93527985
_symmetry_Int_Tables_number   1
_chemical_formula_structural   LiCu(PO4)2
_chemical_formula_sum   'Li1 Cu1 P2 O8'
_cell_volume   153.64058396
_cell_formula_units_Z   1
loop_
 _symmetry_equiv_pos_site_id
 _symmetry_equiv_pos_as_xyz
  1  'x, y, z'
loop_
 _atom_site_type_symbol
 _atom_site_label
 _atom_site_symmetry_multiplicity
 _atom_site_fract_x
 _atom_site_fract_y
 _atom_site_fract_z
 _atom_site_occupancy
  Li  Li0  1  0.87886796  0.74015799  0.29118102  1
  Cu  Cu1  1  0.12113198  0.25984200  0.70881902  1
  P  P2  1  0.29828599  0.15324500  0.21437401  1
  P  P3  1  0.70171395  0.84675499  0.78562602  1
  O  O4  1  0.60741401  0.08120600  0.28550303  1
  O  O5  1  0.19914193  0.89944399  0.25093597  1
  O  O6  1  0.13766397  0.35991100  0.36662400  1
  O  O7  1  0.25851698  0.31644500  0.97525803  1
  O  O8  1  0.80085801  0.10055600  0.74906406  1
  O  O9  1  0.74148296  0.68355499  0.02474200  1
  O  O10  1  0.86233597  0.64008899  0.63337603  1
  O  O11  1  0.39258593  0.91879399  0.71449700  1
