# generated using pymatgen
data_Cs3Tl2Br9
_symmetry_space_group_name_H-M   'P 1'
_cell_length_a   8.21598816
_cell_length_b   8.21598816
_cell_length_c   10.06980133
_cell_angle_alpha   90.00000000
_cell_angle_beta   90.00000000
_cell_angle_gamma   120.00000000
_symmetry_Int_Tables_number   1
_chemical_formula_structural   Cs3Tl2Br9
_chemical_formula_sum   'Cs3 Tl2 Br9'
_cell_volume   588.66896944
_cell_formula_units_Z   1
loop_
 _symmetry_equiv_pos_site_id
 _symmetry_equiv_pos_as_xyz
  1  'x, y, z'
loop_
 _atom_site_type_symbol
 _atom_site_label
 _atom_site_symmetry_multiplicity
 _atom_site_fract_x
 _atom_site_fract_y
 _atom_site_fract_z
 _atom_site_occupancy
  Cs  Cs0  1  0.66666667  0.33333336  0.66578798  1
  Cs  Cs1  1  0.33333336  0.66666672  0.33421199  1
  Cs  Cs2  1  0.00000000  0.00000000  0.00000000  1
  Tl  Tl3  1  0.66666667  0.33333336  0.18650599  1
  Tl  Tl4  1  0.33333336  0.66666672  0.81349397  1
  Br  Br5  1  0.82932699  0.17067201  0.33563099  1
  Br  Br6  1  0.34134500  0.17067201  0.33563099  1
  Br  Br7  1  0.82932701  0.65865405  0.33563099  1
  Br  Br8  1  0.17067304  0.82932806  0.66436898  1
  Br  Br9  1  0.17067301  0.34134603  0.66436898  1
  Br  Br10  1  0.49999999  0.00000000  0.00000000  1
  Br  Br11  1  0.50000001  0.50000004  0.00000000  1
  Br  Br12  1  1.00000000  0.50000004  0.99999997  1
  Br  Br13  1  0.65865503  0.82932806  0.66436898  1
