# generated using pymatgen
data_H8ClO11
_symmetry_space_group_name_H-M   'P 1'
_cell_length_a   4.45710945
_cell_length_b   6.51843214
_cell_length_c   6.51843214
_cell_angle_alpha   92.79828644
_cell_angle_beta   109.01882172
_cell_angle_gamma   109.01882172
_symmetry_Int_Tables_number   1
_chemical_formula_structural   H8ClO11
_chemical_formula_sum   'H8 Cl1 O11'
_cell_volume   166.70531296
_cell_formula_units_Z   1
loop_
 _symmetry_equiv_pos_site_id
 _symmetry_equiv_pos_as_xyz
  1  'x, y, z'
loop_
 _atom_site_type_symbol
 _atom_site_label
 _atom_site_symmetry_multiplicity
 _atom_site_fract_x
 _atom_site_fract_y
 _atom_site_fract_z
 _atom_site_occupancy
  H  H0  1  0.98005600  0.22129099  0.16525594  1
  H  H1  1  0.01994389  0.77870896  0.83474392  1
  H  H2  1  0.51994390  0.83474396  0.77870889  1
  H  H3  1  0.48005599  0.16525599  0.22129097  1
  H  H4  1  0.57310295  0.46455398  0.74849093  1
  H  H5  1  0.42689694  0.53544597  0.25150893  1
  H  H6  1  0.92689699  0.25150899  0.53544594  1
  Cl  Cl7  1  0.07310290  0.74849096  0.46455392  1
  O  O8  1  0.89330993  0.71973697  0.04046390  1
  H  H9  1  0.10668996  0.28026299  0.95953596  1
  O  O10  1  0.60668989  0.95953595  0.28026289  1
  O  O11  1  0.39331001  0.04046400  0.71973697  1
  O  O12  1  0.90674794  0.67311297  0.31064590  1
  O  O13  1  0.09325196  0.32688698  0.68935396  1
  O  O14  1  0.59325192  0.68935397  0.32688691  1
  O  O15  1  0.40674797  0.31064599  0.67311295  1
  O  O16  1  0.81740793  0.71538197  0.87804589  1
  O  O17  1  0.18259197  0.28461799  0.12195397  1
  O  O18  1  0.68259200  0.12195399  0.28461796  1
  O  O19  1  0.31740789  0.87804596  0.71538190  1
