# generated using pymatgen
data_PbO
_symmetry_space_group_name_H-M   'P 1'
_cell_length_a   3.74730611
_cell_length_b   3.74730587
_cell_length_c   8.89903545
_cell_angle_alpha   90.00000000
_cell_angle_beta   90.00000000
_cell_angle_gamma   120.00000000
_symmetry_Int_Tables_number   1
_chemical_formula_structural   PbO
_chemical_formula_sum   'Pb3 O3'
_cell_volume   108.22108484
_cell_formula_units_Z   3
loop_
 _symmetry_equiv_pos_site_id
 _symmetry_equiv_pos_as_xyz
  1  'x, y, z'
loop_
 _atom_site_type_symbol
 _atom_site_label
 _atom_site_symmetry_multiplicity
 _atom_site_fract_x
 _atom_site_fract_y
 _atom_site_fract_z
 _atom_site_occupancy
  Pb  Pb0  1  0.23467299  0.00000000  0.00000000  1
  Pb  Pb1  1  0.76532695  0.76532698  0.33333332  1
  Pb  Pb2  1  -0.00000001  0.23467299  0.66666663  1
  O  O3  1  0.55507495  0.99999997  0.49999997  1
  O  O4  1  0.44492497  0.44492499  0.83333296  1
  O  O5  1  0.99999995  0.55507499  0.16666699  1
