# generated using pymatgen
data_NdPdS10
_symmetry_space_group_name_H-M   'P 1'
_cell_length_a   4.92079782
_cell_length_b   5.31756496
_cell_length_c   9.36171246
_cell_angle_alpha   90.00000000
_cell_angle_beta   90.00000000
_cell_angle_gamma   102.34439087
_symmetry_Int_Tables_number   1
_chemical_formula_structural   NdPdS10
_chemical_formula_sum   'Nd1 Pd1 S10'
_cell_volume   239.30123811
_cell_formula_units_Z   1
loop_
 _symmetry_equiv_pos_site_id
 _symmetry_equiv_pos_as_xyz
  1  'x, y, z'
loop_
 _atom_site_type_symbol
 _atom_site_label
 _atom_site_symmetry_multiplicity
 _atom_site_fract_x
 _atom_site_fract_y
 _atom_site_fract_z
 _atom_site_occupancy
  Nd  Nd0  1  0.00253799  0.34672099  0.74999996  1
  Pd  Pd1  1  0.99746202  0.65327899  0.24999999  1
  S  S2  1  0.27141098  0.89090298  0.74999996  1
  S  S3  1  0.72858902  0.10909700  0.24999999  1
  S  S4  1  0.61665599  0.95677198  0.59339297  1
  S  S5  1  0.38334401  0.04322800  0.09339300  1
  S  S6  1  0.38334401  0.04322800  0.40660698  1
  S  S7  1  0.61665599  0.95677198  0.90660696  1
  S  S8  1  0.71665701  0.59452899  0.52837497  1
  S  S9  1  0.28334300  0.40547099  0.02837500  1
  S  S10  1  0.28334300  0.40547099  0.47162498  1
  S  S11  1  0.71665701  0.59452899  0.97162495  1
