# generated using pymatgen
data_MnVCd3Au2S11
_symmetry_space_group_name_H-M   'P 1'
_cell_length_a   7.85094786
_cell_length_b   7.90856218
_cell_length_c   7.85094786
_cell_angle_alpha   60.24069595
_cell_angle_beta   90.00000000
_cell_angle_gamma   119.75930023
_symmetry_Int_Tables_number   1
_chemical_formula_structural   MnVCd3Au2S11
_chemical_formula_sum   'Mn1 V1 Cd3 Au2 S11'
_cell_volume   347.18136948
_cell_formula_units_Z   1
loop_
 _symmetry_equiv_pos_site_id
 _symmetry_equiv_pos_as_xyz
  1  'x, y, z'
loop_
 _atom_site_type_symbol
 _atom_site_label
 _atom_site_symmetry_multiplicity
 _atom_site_fract_x
 _atom_site_fract_y
 _atom_site_fract_z
 _atom_site_occupancy
  V  V0  1  0.49999995  1.00000000  -0.00000000  1
  Cd  Cd1  1  1.00000002  0.00000000  0.50000001  1
  Mn  Mn2  1  0.28659197  0.57318400  0.71340801  1
  Cd  Cd3  1  0.71340799  0.42681600  0.28659201  1
  Cd  Cd4  1  0.75095396  1.00000000  0.59372501  1
  Au  Au5  1  0.40627501  0.00000000  0.75095401  1
  S  S6  1  0.59372495  1.00000000  0.24904600  1
  Au  Au7  1  0.24904600  0.00000000  0.40627501  1
  S  S8  1  0.87952697  0.75905400  0.12047300  1
  S  S9  1  0.12047299  0.24094600  0.87952702  1
  S  S10  1  0.79986699  0.48007800  0.49473201  1
  S  S11  1  0.50526798  0.48007800  0.31978901  1
  S  S12  1  0.97480999  0.48007800  0.20013300  1
  S  S13  1  0.68021098  0.48007800  0.02519000  1
  S  S14  1  0.20013297  0.51992200  0.50526801  1
  S  S15  1  0.49473198  0.51992200  0.68021101  1
  S  S16  1  0.02518997  0.51992200  0.79986701  1
  S  S17  1  0.31978898  0.51992200  0.97481002  1
