# generated using pymatgen
data_GdCuS2
_symmetry_space_group_name_H-M   'P 1'
_cell_length_a   6.61893702
_cell_length_b   7.34168911
_cell_length_c   7.10123301
_cell_angle_alpha   90.00000000
_cell_angle_beta   83.92698669
_cell_angle_gamma   90.00000000
_symmetry_Int_Tables_number   1
_chemical_formula_structural   GdCuS2
_chemical_formula_sum   'Gd4 Cu4 S8'
_cell_volume   343.14195861
_cell_formula_units_Z   4
loop_
 _symmetry_equiv_pos_site_id
 _symmetry_equiv_pos_as_xyz
  1  'x, y, z'
loop_
 _atom_site_type_symbol
 _atom_site_label
 _atom_site_symmetry_multiplicity
 _atom_site_fract_x
 _atom_site_fract_y
 _atom_site_fract_z
 _atom_site_occupancy
  Gd  Gd0  1  0.19600600  0.45808899  0.70106099  1
  Gd  Gd1  1  0.80399400  0.95808899  0.79893899  1
  Gd  Gd2  1  0.80399400  0.54191099  0.29893899  1
  Gd  Gd3  1  0.19600600  0.04191100  0.20106100  1
  Cu  Cu4  1  0.42574300  0.65884699  0.04497000  1
  Cu  Cu5  1  0.57425700  0.34115299  0.95502999  1
  Cu  Cu6  1  0.42574300  0.84115299  0.54496999  1
  Cu  Cu7  1  0.57425700  0.15884700  0.45502999  1
  S  S8  1  0.92864100  0.22432700  0.49727099  1
  S  S9  1  0.92864100  0.27567300  0.99727098  1
  S  S10  1  0.07135900  0.72432699  0.00272900  1
  S  S11  1  0.07135900  0.77567299  0.50272899  1
  S  S12  1  0.59988600  0.61201599  0.71774499  1
  S  S13  1  0.40011400  0.11201600  0.78225499  1
  S  S14  1  0.40011400  0.38798399  0.28225499  1
  S  S15  1  0.59988600  0.88798399  0.21774499  1
