# generated using pymatgen
data_In2CuSe4
_symmetry_space_group_name_H-M   'P 1'
_cell_length_a   7.87847805
_cell_length_b   7.90651560
_cell_length_c   7.90651560
_cell_angle_alpha   60.24130630
_cell_angle_beta   60.11723709
_cell_angle_gamma   60.11723709
_symmetry_Int_Tables_number   1
_chemical_formula_structural   In2CuSe4
_chemical_formula_sum   'In4 Cu2 Se8'
_cell_volume   349.50506755
_cell_formula_units_Z   2
loop_
 _symmetry_equiv_pos_site_id
 _symmetry_equiv_pos_as_xyz
  1  'x, y, z'
loop_
 _atom_site_type_symbol
 _atom_site_label
 _atom_site_symmetry_multiplicity
 _atom_site_fract_x
 _atom_site_fract_y
 _atom_site_fract_z
 _atom_site_occupancy
  In  In0  1  0.11642900  0.38357101  0.38357100  1
  In  In1  1  0.87654799  0.12345200  0.12345201  1
  In  In2  1  0.50351700  0.24622500  0.74674101  1
  In  In3  1  0.50351700  0.74674101  0.24622499  1
  Cu  Cu4  1  0.99402300  0.74987501  0.74987501  1
  Cu  Cu5  1  0.50622700  0.74987501  0.74987500  1
  Se  Se6  1  0.25865401  0.97490501  0.50778599  1
  Se  Se7  1  0.25865500  0.50778501  0.97490500  1
  Se  Se8  1  0.71844600  0.51018801  0.51018800  1
  Se  Se9  1  0.26117800  0.51018701  0.51018800  1
  Se  Se10  1  0.74072800  0.52824901  0.99029501  1
  Se  Se11  1  0.74072801  0.99029501  0.52824900  1
  Se  Se12  1  0.28158201  0.98932601  0.98932600  1
  Se  Se13  1  0.73976601  0.98932601  0.98932600  1
