# generated using pymatgen
data_KAlPO4
_symmetry_space_group_name_H-M   'P 1'
_cell_length_a   5.21389008
_cell_length_b   5.21389055
_cell_length_c   8.81270027
_cell_angle_alpha   90.00000000
_cell_angle_beta   90.00000000
_cell_angle_gamma   119.99999237
_symmetry_Int_Tables_number   1
_chemical_formula_structural   KAlPO4
_chemical_formula_sum   'K2 Al2 P2 O8'
_cell_volume   207.47388812
_cell_formula_units_Z   2
loop_
 _symmetry_equiv_pos_site_id
 _symmetry_equiv_pos_as_xyz
  1  'x, y, z'
loop_
 _atom_site_type_symbol
 _atom_site_label
 _atom_site_symmetry_multiplicity
 _atom_site_fract_x
 _atom_site_fract_y
 _atom_site_fract_z
 _atom_site_occupancy
  K  K0  1  0.00000000  0.00000000  0.81971197  1
  K  K1  1  0.00000000  0.00000000  0.31971199  1
  Al  Al2  1  0.66666664  0.33333333  0.50676598  1
  Al  Al3  1  0.33333329  0.66666666  0.00676600  1
  P  P4  1  0.66666664  0.33333333  0.11694400  1
  P  P5  1  0.33333329  0.66666666  0.61694398  1
  O  O6  1  0.05977097  0.39922200  0.56198498  1
  O  O7  1  0.39922199  0.05977100  0.06198500  1
  O  O8  1  0.33945093  0.94022900  0.56198498  1
  O  O9  1  0.60077795  0.66054900  0.56198498  1
  O  O10  1  0.66666664  0.33333333  0.28612199  1
  O  O11  1  0.33333329  0.66666666  0.78612198  1
  O  O12  1  0.66054895  0.60077800  0.06198500  1
  O  O13  1  0.94022896  0.33945100  0.06198500  1
