# generated using pymatgen
data_Li3IrF10
_symmetry_space_group_name_H-M   'P 1'
_cell_length_a   5.75836182
_cell_length_b   5.85756159
_cell_length_c   5.85755014
_cell_angle_alpha   61.43241501
_cell_angle_beta   60.55802917
_cell_angle_gamma   60.55805206
_symmetry_Int_Tables_number   1
_chemical_formula_structural   Li3IrF10
_chemical_formula_sum   'Li3 Ir1 F10'
_cell_volume   142.36086872
_cell_formula_units_Z   1
loop_
 _symmetry_equiv_pos_site_id
 _symmetry_equiv_pos_as_xyz
  1  'x, y, z'
loop_
 _atom_site_type_symbol
 _atom_site_label
 _atom_site_symmetry_multiplicity
 _atom_site_fract_x
 _atom_site_fract_y
 _atom_site_fract_z
 _atom_site_occupancy
  Li  Li0  1  0.50000000  0.50000101  0.00000001  1
  Li  Li1  1  0.50000000  0.49999901  0.50000003  1
  Li  Li2  1  1.00000003  0.49999901  0.50000001  1
  Ir  Ir3  1  0.99999903  0.50000101  1.00000003  1
  F  F4  1  1.00000005  0.00000100  -0.00000003  1
  F  F5  1  0.50000002  0.00000000  -0.00000001  1
  F  F6  1  0.74999102  0.29416001  0.20586000  1
  F  F7  1  0.24999000  0.29416001  0.20586001  1
  F  F8  1  0.75001101  0.70584002  0.79413904  1
  F  F9  1  0.25000998  0.70584002  0.79413906  1
  F  F10  1  0.77287901  0.72712102  0.22712102  1
  F  F11  1  0.27287798  0.72712002  0.22712204  1
  F  F12  1  0.72712202  0.27288001  0.77287702  1
  F  F13  1  0.22712200  0.27287801  0.77287904  1
