# generated using pymatgen
data_Na3ZrBi3TeO12
_symmetry_space_group_name_H-M   'P 1'
_cell_length_a   5.61574316
_cell_length_b   5.63043356
_cell_length_c   9.69364834
_cell_angle_alpha   89.93485260
_cell_angle_beta   73.93240356
_cell_angle_gamma   60.25302124
_symmetry_Int_Tables_number   1
_chemical_formula_structural   Na3ZrBi3TeO12
_chemical_formula_sum   'Na3 Zr1 Bi3 Te1 O12'
_cell_volume   252.28907814
_cell_formula_units_Z   1
loop_
 _symmetry_equiv_pos_site_id
 _symmetry_equiv_pos_as_xyz
  1  'x, y, z'
loop_
 _atom_site_type_symbol
 _atom_site_label
 _atom_site_symmetry_multiplicity
 _atom_site_fract_x
 _atom_site_fract_y
 _atom_site_fract_z
 _atom_site_occupancy
  Na  Na0  1  0.19736499  0.40879901  0.13576801  1
  Na  Na1  1  0.19449397  0.91060603  0.63691403  1
  Zr  Zr2  1  0.70531699  0.65453802  0.88451803  1
  Na  Na3  1  0.70267001  0.15770801  0.38495502  1
  Bi  Bi4  1  0.50577500  0.25497601  0.75076202  1
  Bi  Bi5  1  0.50584998  0.75645803  0.25123302  1
  Te  Te6  1  0.02117097  0.99699104  0.99932503  1
  Bi  Bi7  1  0.01949898  0.49835502  0.49847002  1
  O  O8  1  0.80053898  0.89217703  0.57054103  1
  O  O9  1  0.80488600  0.39078701  0.07063002  1
  O  O10  1  0.79377200  0.52546602  0.37265602  1
  O  O11  1  0.79663101  0.02334700  0.87454902  1
  O  O12  1  0.79417700  0.41520602  0.66031403  1
  O  O13  1  0.79986398  0.91465703  0.16107603  1
  O  O14  1  0.27444000  0.09606200  0.42785601  1
  O  O15  1  0.27838698  0.59551102  0.92707303  1
  O  O16  1  0.28214299  0.54578402  0.33318102  1
  O  O17  1  0.28656200  0.04623300  0.83365001  1
  O  O18  1  0.28319599  0.46017202  0.60777602  1
  O  O19  1  0.28757097  0.95689704  0.10910702  1
