# generated using pymatgen
data_USn(BrO)2
_symmetry_space_group_name_H-M   'P 1'
_cell_length_a   3.82852769
_cell_length_b   3.82852769
_cell_length_c   10.26721954
_cell_angle_alpha   79.25465393
_cell_angle_beta   79.25465393
_cell_angle_gamma   60.00000763
_symmetry_Int_Tables_number   1
_chemical_formula_structural   USn(BrO)2
_chemical_formula_sum   'U1 Sn1 Br2 O2'
_cell_volume   127.27465316
_cell_formula_units_Z   1
loop_
 _symmetry_equiv_pos_site_id
 _symmetry_equiv_pos_as_xyz
  1  'x, y, z'
loop_
 _atom_site_type_symbol
 _atom_site_label
 _atom_site_symmetry_multiplicity
 _atom_site_fract_x
 _atom_site_fract_y
 _atom_site_fract_z
 _atom_site_occupancy
  U  U0  1  0.11976800  0.11976800  0.64069599  1
  Sn  Sn1  1  0.88023197  0.88023197  0.35930402  1
  Br  Br2  1  0.38894799  0.38894799  0.83315599  1
  Br  Br3  1  0.61105198  0.61105198  0.16684401  1
  O  O4  1  0.80500698  0.80500697  0.58497901  1
  O  O5  1  0.19499299  0.19499299  0.41502100  1
