# generated using pymatgen
data_Co3PtSe8
_symmetry_space_group_name_H-M   'P 1'
_cell_length_a   5.85085583
_cell_length_b   5.85085583
_cell_length_c   5.85085583
_cell_angle_alpha   90.00000000
_cell_angle_beta   90.00000000
_cell_angle_gamma   90.00000000
_symmetry_Int_Tables_number   1
_chemical_formula_structural   Co3PtSe8
_chemical_formula_sum   'Co3 Pt1 Se8'
_cell_volume   200.28950351
_cell_formula_units_Z   1
loop_
 _symmetry_equiv_pos_site_id
 _symmetry_equiv_pos_as_xyz
  1  'x, y, z'
loop_
 _atom_site_type_symbol
 _atom_site_label
 _atom_site_symmetry_multiplicity
 _atom_site_fract_x
 _atom_site_fract_y
 _atom_site_fract_z
 _atom_site_occupancy
  Co  Co0  1  0.11691300  0.88308703  0.38308701  1
  Co  Co1  1  0.88308703  0.38308701  0.11691300  1
  Co  Co2  1  0.38308701  0.11691300  0.88308703  1
  Pt  Pt3  1  0.61691302  0.61691302  0.61691302  1
  Se  Se4  1  0.49615701  0.50384301  0.00384300  1
  Se  Se5  1  0.50384301  0.00384300  0.49615701  1
  Se  Se6  1  0.00384300  0.49615701  0.50384301  1
  Se  Se7  1  0.99615703  0.99615703  0.99615703  1
  Se  Se8  1  0.88600703  0.11399300  0.61399302  1
  Se  Se9  1  0.11399300  0.61399302  0.88600703  1
  Se  Se10  1  0.61399302  0.88600703  0.11399300  1
  Se  Se11  1  0.38600701  0.38600701  0.38600701  1
