# generated using pymatgen
data_SrCa3(BiO3)4
_symmetry_space_group_name_H-M   'P 1'
_cell_length_a   5.86400366
_cell_length_b   6.03807116
_cell_length_c   8.41767883
_cell_angle_alpha   89.96695709
_cell_angle_beta   89.80928802
_cell_angle_gamma   89.95900726
_symmetry_Int_Tables_number   1
_chemical_formula_structural   SrCa3(BiO3)4
_chemical_formula_sum   'Sr1 Ca3 Bi4 O12'
_cell_volume   298.04526203
_cell_formula_units_Z   1
loop_
 _symmetry_equiv_pos_site_id
 _symmetry_equiv_pos_as_xyz
  1  'x, y, z'
loop_
 _atom_site_type_symbol
 _atom_site_label
 _atom_site_symmetry_multiplicity
 _atom_site_fract_x
 _atom_site_fract_y
 _atom_site_fract_z
 _atom_site_occupancy
  Sr  Sr0  1  0.51073444  0.54982514  0.25006633  1
  Ca  Ca1  1  0.48926558  0.45017484  0.74993371  1
  Ca  Ca2  1  0.98593174  0.04877272  0.24852819  1
  Ca  Ca3  1  0.01406828  0.95122727  0.75147184  1
  Bi  Bi4  1  0.50000001  0.00000000  0.00000001  1
  Bi  Bi5  1  0.00000000  0.49999999  0.50000001  1
  Bi  Bi6  1  0.00000000  0.49999999  -0.00000001  1
  Bi  Bi7  1  0.50000001  0.00000000  0.50000003  1
  O  O8  1  0.18612776  0.20385424  0.93733313  1
  O  O9  1  0.30971299  0.70760835  0.55395396  1
  O  O10  1  0.81387225  0.79614575  0.06266691  1
  O  O11  1  0.69028703  0.29239164  0.44604607  1
  O  O12  1  0.29421215  0.69598755  0.94978723  1
  O  O13  1  0.20458019  0.19163696  0.56350111  1
  O  O14  1  0.70578787  0.30401244  0.05021281  1
  O  O15  1  0.79541982  0.80836303  0.43649892  1
  O  O16  1  0.38068452  0.96629139  0.25818189  1
  O  O17  1  0.09819106  0.44156409  0.24232631  1
  O  O18  1  0.61931550  0.03370860  0.74181815  1
  O  O19  1  0.90180895  0.55843589  0.75767372  1
