# generated using pymatgen
data_V2CoO4
_symmetry_space_group_name_H-M   'P 1'
_cell_length_a   5.99038219
_cell_length_b   6.01145697
_cell_length_c   6.01148701
_cell_angle_alpha   61.80648041
_cell_angle_beta   60.11626816
_cell_angle_gamma   60.11682892
_symmetry_Int_Tables_number   1
_chemical_formula_structural   V2CoO4
_chemical_formula_sum   'V4 Co2 O8'
_cell_volume   155.33375217
_cell_formula_units_Z   2
loop_
 _symmetry_equiv_pos_site_id
 _symmetry_equiv_pos_as_xyz
  1  'x, y, z'
loop_
 _atom_site_type_symbol
 _atom_site_label
 _atom_site_symmetry_multiplicity
 _atom_site_fract_x
 _atom_site_fract_y
 _atom_site_fract_z
 _atom_site_occupancy
  Co  Co0  1  0.50006101  0.50000898  0.49998901  1
  V  V1  1  0.99995202  0.50000598  0.49998902  1
  V  V2  1  0.00005400  0.99958396  0.50015800  1
  V  V3  1  0.00003700  0.50015398  0.99981298  1
  V  V4  1  0.62154901  0.12847600  0.12843202  1
  Co  Co5  1  0.37840101  0.87162297  0.87158600  1
  O  O6  1  0.74454301  0.25014699  0.25012302  1
  O  O7  1  0.25872600  0.22207599  0.76048699  1
  O  O8  1  0.74126001  0.23953499  0.77795100  1
  O  O9  1  0.25519800  0.25013999  0.25012600  1
  O  O10  1  0.74475701  0.74989097  0.74988001  1
  O  O11  1  0.25872601  0.76049497  0.22206301  1
  O  O12  1  0.74125501  0.77796597  0.23952902  1
  O  O13  1  0.25548001  0.74989897  0.74987299  1
