# generated using pymatgen
data_Ca3Si2SnI14
_symmetry_space_group_name_H-M   'P 1'
_cell_length_a   8.78791809
_cell_length_b   8.78791809
_cell_length_c   11.05620766
_cell_angle_alpha   90.00000000
_cell_angle_beta   90.00000000
_cell_angle_gamma   120.00000000
_symmetry_Int_Tables_number   1
_chemical_formula_structural   Ca3Si2SnI14
_chemical_formula_sum   'Ca3 Si2 Sn1 I14'
_cell_volume   739.45001043
_cell_formula_units_Z   1
loop_
 _symmetry_equiv_pos_site_id
 _symmetry_equiv_pos_as_xyz
  1  'x, y, z'
loop_
 _atom_site_type_symbol
 _atom_site_label
 _atom_site_symmetry_multiplicity
 _atom_site_fract_x
 _atom_site_fract_y
 _atom_site_fract_z
 _atom_site_occupancy
  Ca  Ca0  1  0.66666665  0.33333332  0.12158300  1
  Ca  Ca1  1  0.33333332  0.66666664  0.87841703  1
  Sn  Sn2  1  0.00000000  0.00000000  0.74170102  1
  Ca  Ca3  1  0.00000000  0.00000000  0.25829901  1
  Si  Si4  1  0.66666665  0.33333332  0.74866402  1
  Si  Si5  1  0.33333332  0.66666664  0.25133601  1
  I  I6  1  0.66666665  0.33333332  0.49616502  1
  I  I7  1  0.33333332  0.66666664  0.50383502  1
  I  I8  1  0.71542899  0.10449500  0.87337903  1
  I  I9  1  0.38906599  0.28457199  0.87337903  1
  I  I10  1  0.89550598  0.61093498  0.87337903  1
  I  I11  1  0.28457098  0.89550496  0.12662100  1
  I  I12  1  0.61093398  0.71542797  0.12662100  1
  I  I13  1  0.10449399  0.38906498  0.12662100  1
  I  I14  1  0.90721598  0.60657998  0.37548401  1
  I  I15  1  0.69936399  0.09278400  0.37548401  1
  I  I16  1  0.39341999  0.30063599  0.37548401  1
  I  I17  1  0.09278399  0.39341998  0.62451602  1
  I  I18  1  0.30063598  0.90721596  0.62451602  1
  I  I19  1  0.60657998  0.69936397  0.62451602  1
