# generated using pymatgen
data_Al(CrS2)2
_symmetry_space_group_name_H-M   'P 1'
_cell_length_a   7.31934166
_cell_length_b   7.31934166
_cell_length_c   7.31934166
_cell_angle_alpha   60.00000000
_cell_angle_beta   60.00000000
_cell_angle_gamma   60.00000000
_symmetry_Int_Tables_number   1
_chemical_formula_structural   Al(CrS2)2
_chemical_formula_sum   'Al2 Cr4 S8'
_cell_volume   277.26883801
_cell_formula_units_Z   2
loop_
 _symmetry_equiv_pos_site_id
 _symmetry_equiv_pos_as_xyz
  1  'x, y, z'
loop_
 _atom_site_type_symbol
 _atom_site_label
 _atom_site_symmetry_multiplicity
 _atom_site_fract_x
 _atom_site_fract_y
 _atom_site_fract_z
 _atom_site_occupancy
  Al  Al0  1  0.24999999  0.24999999  0.24999999  1
  Al  Al1  1  0.49999999  0.49999999  0.49999999  1
  Cr  Cr2  1  0.87499998  0.37499999  0.87499998  1
  Cr  Cr3  1  0.87499998  0.87499998  0.37499999  1
  Cr  Cr4  1  0.87499998  0.87499998  0.87499998  1
  Cr  Cr5  1  0.37499999  0.87499998  0.87499998  1
  S  S6  1  0.66845498  0.11051500  0.11051500  1
  S  S7  1  0.11051400  0.11051500  0.11051500  1
  S  S8  1  0.11051400  0.11051500  0.66845598  1
  S  S9  1  0.63948599  0.08154400  0.63948499  1
  S  S10  1  0.11051400  0.66845598  0.11051500  1
  S  S11  1  0.63948599  0.63948499  0.08154400  1
  S  S12  1  0.63948599  0.63948499  0.63948499  1
  S  S13  1  0.08154500  0.63948499  0.63948499  1
