# generated using pymatgen
data_BaPO3
_symmetry_space_group_name_H-M   'P 1'
_cell_length_a   4.70904398
_cell_length_b   5.81599712
_cell_length_c   7.15126181
_cell_angle_alpha   90.00000000
_cell_angle_beta   108.34580231
_cell_angle_gamma   90.00000000
_symmetry_Int_Tables_number   1
_chemical_formula_structural   BaPO3
_chemical_formula_sum   'Ba2 P2 O6'
_cell_volume   185.90262314
_cell_formula_units_Z   2
loop_
 _symmetry_equiv_pos_site_id
 _symmetry_equiv_pos_as_xyz
  1  'x, y, z'
loop_
 _atom_site_type_symbol
 _atom_site_label
 _atom_site_symmetry_multiplicity
 _atom_site_fract_x
 _atom_site_fract_y
 _atom_site_fract_z
 _atom_site_occupancy
  Ba  Ba0  1  0.84352801  0.74999998  0.71063901  1
  Ba  Ba1  1  0.15647200  0.24999999  0.28936100  1
  P  P2  1  0.60055301  0.74999998  0.18462101  1
  P  P3  1  0.39944700  0.24999999  0.81537900  1
  O  O4  1  0.66545601  0.53977999  0.30758301  1
  O  O5  1  0.33454400  0.03978000  0.69241700  1
  O  O6  1  0.33454400  0.46021999  0.69241700  1
  O  O7  1  0.66545601  0.96021998  0.30758301  1
  O  O8  1  0.80895201  0.24999999  0.88297001  1
  O  O9  1  0.19104800  0.74999998  0.11703100  1
