# generated using pymatgen
data_Sn2I3O13
_symmetry_space_group_name_H-M   'P 1'
_cell_length_a   5.45055342
_cell_length_b   5.84650898
_cell_length_c   7.46461582
_cell_angle_alpha   90.00000000
_cell_angle_beta   95.13343048
_cell_angle_gamma   90.00000000
_symmetry_Int_Tables_number   1
_chemical_formula_structural   Sn2I3O13
_chemical_formula_sum   'Sn2 I3 O13'
_cell_volume   236.91864313
_cell_formula_units_Z   1
loop_
 _symmetry_equiv_pos_site_id
 _symmetry_equiv_pos_as_xyz
  1  'x, y, z'
loop_
 _atom_site_type_symbol
 _atom_site_label
 _atom_site_symmetry_multiplicity
 _atom_site_fract_x
 _atom_site_fract_y
 _atom_site_fract_z
 _atom_site_occupancy
  Sn  Sn0  1  -0.00000000  0.50000000  -0.00000000  1
  Sn  Sn1  1  0.00000000  0.00000000  0.00000000  1
  I  I2  1  0.50443099  0.25000000  0.99551804  1
  I  I3  1  0.49556899  0.75000000  0.00448201  1
  O  O4  1  0.22108499  0.25000000  0.40141602  1
  I  I5  1  0.77891498  0.75000000  0.59858404  1
  O  O6  1  0.89870197  0.25000000  0.87266005  1
  O  O7  1  0.10129800  0.75000000  0.12734001  1
  O  O8  1  0.30879499  0.49721000  0.90701104  1
  O  O9  1  0.69120498  0.99721000  0.09298902  1
  O  O10  1  0.69120498  0.50279000  0.09298902  1
  O  O11  1  0.30879499  0.00279000  0.90701104  1
  O  O12  1  0.18809799  0.25000000  0.22673201  1
  O  O13  1  0.81190198  0.75000000  0.77326805  1
  O  O14  1  0.23709899  0.43621100  0.47968702  1
  O  O15  1  0.76290098  0.93621100  0.52031304  1
  O  O16  1  0.76290098  0.56378900  0.52031304  1
  O  O17  1  0.23709899  0.06378900  0.47968702  1
