# generated using pymatgen
data_Zn4CuO11
_symmetry_space_group_name_H-M   'P 1'
_cell_length_a   6.39851856
_cell_length_b   6.39851856
_cell_length_c   6.39851856
_cell_angle_alpha   60.00000000
_cell_angle_beta   60.00000000
_cell_angle_gamma   60.00000000
_symmetry_Int_Tables_number   1
_chemical_formula_structural   Zn4CuO11
_chemical_formula_sum   'Zn4 Cu1 O11'
_cell_volume   185.23510879
_cell_formula_units_Z   1
loop_
 _symmetry_equiv_pos_site_id
 _symmetry_equiv_pos_as_xyz
  1  'x, y, z'
loop_
 _atom_site_type_symbol
 _atom_site_label
 _atom_site_symmetry_multiplicity
 _atom_site_fract_x
 _atom_site_fract_y
 _atom_site_fract_z
 _atom_site_occupancy
  Zn  Zn0  1  0.87500003  0.87500003  0.37500001  1
  Zn  Zn1  1  0.87500003  0.87500003  0.87500003  1
  Zn  Zn2  1  0.87500003  0.37500001  0.87500003  1
  Zn  Zn3  1  0.37500001  0.87500003  0.87500003  1
  O  O4  1  0.80373002  0.80373002  0.19627001  1
  Cu  Cu5  1  0.19627001  0.19627001  0.80373002  1
  O  O6  1  0.80373002  0.19627001  0.19627001  1
  O  O7  1  0.19627001  0.80373002  0.80373002  1
  O  O8  1  0.80373002  0.19627001  0.80373002  1
  O  O9  1  0.19627001  0.80373002  0.19627001  1
  O  O10  1  0.94627003  0.94627003  0.55373002  1
  O  O11  1  0.55373002  0.55373002  0.94627003  1
  O  O12  1  0.94627003  0.55373002  0.55373002  1
  O  O13  1  0.55373002  0.94627003  0.94627003  1
  O  O14  1  0.94627003  0.55373002  0.94627003  1
  O  O15  1  0.55373002  0.94627003  0.55373002  1
