# generated using pymatgen
data_Nd4Se3S5
_symmetry_space_group_name_H-M   'P 1'
_cell_length_a   4.03437424
_cell_length_b   4.03437424
_cell_length_c   18.13704491
_cell_angle_alpha   90.00000000
_cell_angle_beta   90.00000000
_cell_angle_gamma   89.72952271
_symmetry_Int_Tables_number   1
_chemical_formula_structural   Nd4Se3S5
_chemical_formula_sum   'Nd4 Se3 S5'
_cell_volume   295.19843637
_cell_formula_units_Z   1
loop_
 _symmetry_equiv_pos_site_id
 _symmetry_equiv_pos_as_xyz
  1  'x, y, z'
loop_
 _atom_site_type_symbol
 _atom_site_label
 _atom_site_symmetry_multiplicity
 _atom_site_fract_x
 _atom_site_fract_y
 _atom_site_fract_z
 _atom_site_occupancy
  Nd  Nd0  1  0.75600802  0.24399201  0.13957599  1
  Nd  Nd1  1  0.74399202  0.25600801  0.63957597  1
  Nd  Nd2  1  0.24399202  0.75600802  0.86042396  1
  Nd  Nd3  1  0.25600802  0.74399202  0.36042398  1
  Se  Se4  1  0.78049503  0.78049502  0.49999998  1
  Se  Se5  1  0.71950503  0.71950502  -0.00000000  1
  S  S6  1  0.21950501  0.21950501  0.49999998  1
  Se  Se7  1  0.28049501  0.28049501  -0.00000000  1
  S  S8  1  0.75393602  0.24606401  0.31267098  1
  S  S9  1  0.74606402  0.25393601  0.81267096  1
  S  S10  1  0.24606402  0.75393602  0.68732897  1
  S  S11  1  0.25393602  0.74606402  0.18732899  1
