# generated using pymatgen
data_Sr4S2OF
_symmetry_space_group_name_H-M   'P 1'
_cell_length_a   4.02397203
_cell_length_b   4.44251108
_cell_length_c   11.43265247
_cell_angle_alpha   90.00000000
_cell_angle_beta   90.00000000
_cell_angle_gamma   90.00000000
_symmetry_Int_Tables_number   1
_chemical_formula_structural   Sr4S2OF
_chemical_formula_sum   'Sr4 S2 O1 F1'
_cell_volume   204.37627331
_cell_formula_units_Z   1
loop_
 _symmetry_equiv_pos_site_id
 _symmetry_equiv_pos_as_xyz
  1  'x, y, z'
loop_
 _atom_site_type_symbol
 _atom_site_label
 _atom_site_symmetry_multiplicity
 _atom_site_fract_x
 _atom_site_fract_y
 _atom_site_fract_z
 _atom_site_occupancy
  Sr  Sr0  1  0.25000000  0.37397599  0.62123797  1
  Sr  Sr1  1  0.74999999  0.62602399  0.37876198  1
  Sr  Sr2  1  0.74999999  0.87397598  0.87876196  1
  Sr  Sr3  1  0.25000000  0.12602400  0.12123799  1
  S  S4  1  0.25000000  0.01986700  0.34982999  1
  F  F5  1  0.74999999  0.98013298  0.65016997  1
  O  O6  1  0.74999999  0.51986699  0.15016999  1
  S  S7  1  0.25000000  0.48013299  0.84982996  1
