# generated using pymatgen
data_Co3PtSe8
_symmetry_space_group_name_H-M   'P 1'
_cell_length_a   5.86648798
_cell_length_b   5.86648798
_cell_length_c   5.86648798
_cell_angle_alpha   90.00000000
_cell_angle_beta   90.00000000
_cell_angle_gamma   90.00000000
_symmetry_Int_Tables_number   1
_chemical_formula_structural   Co3PtSe8
_chemical_formula_sum   'Co3 Pt1 Se8'
_cell_volume   201.89918019
_cell_formula_units_Z   1
loop_
 _symmetry_equiv_pos_site_id
 _symmetry_equiv_pos_as_xyz
  1  'x, y, z'
loop_
 _atom_site_type_symbol
 _atom_site_label
 _atom_site_symmetry_multiplicity
 _atom_site_fract_x
 _atom_site_fract_y
 _atom_site_fract_z
 _atom_site_occupancy
  Co  Co0  1  0.88581900  0.38581900  0.11418100  1
  Co  Co1  1  0.38581900  0.11418100  0.88581900  1
  Co  Co2  1  0.11418100  0.88581900  0.38581900  1
  Pt  Pt3  1  0.61418100  0.61418100  0.61418100  1
  Se  Se4  1  0.48588600  0.98588600  0.51411400  1
  Se  Se5  1  0.98588600  0.51411400  0.48588600  1
  Se  Se6  1  0.51411400  0.48588600  0.98588600  1
  Se  Se7  1  0.01411400  0.01411400  0.01411400  1
  Se  Se8  1  0.11569200  0.61569200  0.88430800  1
  Se  Se9  1  0.61569200  0.88430800  0.11569200  1
  Se  Se10  1  0.88430800  0.11569200  0.61569200  1
  Se  Se11  1  0.38430800  0.38430800  0.38430800  1
