# generated using pymatgen
data_La2CeZr(PO5)2
_symmetry_space_group_name_H-M   'P 1'
_cell_length_a   5.81083202
_cell_length_b   7.18367624
_cell_length_c   7.56453705
_cell_angle_alpha   112.86429596
_cell_angle_beta   112.58686829
_cell_angle_gamma   90.00000000
_symmetry_Int_Tables_number   1
_chemical_formula_structural   La2CeZr(PO5)2
_chemical_formula_sum   'La2 Ce1 Zr1 P2 O10'
_cell_volume   264.47459694
_cell_formula_units_Z   1
loop_
 _symmetry_equiv_pos_site_id
 _symmetry_equiv_pos_as_xyz
  1  'x, y, z'
loop_
 _atom_site_type_symbol
 _atom_site_label
 _atom_site_symmetry_multiplicity
 _atom_site_fract_x
 _atom_site_fract_y
 _atom_site_fract_z
 _atom_site_occupancy
  Zr  Zr0  1  0.52524897  0.26893200  0.05049796  1
  La  La1  1  0.47475095  0.73106800  0.94950197  1
  La  La2  1  0.14560499  0.10099100  0.29121000  1
  Ce  Ce3  1  0.85439493  0.89900899  0.70878993  1
  P  P4  1  0.82757696  0.34296500  0.65515396  1
  P  P5  1  0.17242296  0.65703500  0.34484597  1
  O  O6  1  0.25263699  0.00000000  -0.00000001  1
  O  O7  1  0.74736298  0.00000000  -0.00000003  1
  O  O8  1  0.71134296  0.28761500  0.42268596  1
  O  O9  1  0.28865695  0.71238500  0.57731397  1
  O  O10  1  0.35627995  0.74765600  0.29286095  1
  O  O11  1  0.06341898  0.25234400  0.70713900  1
  O  O12  1  0.88906194  0.57070700  0.77812395  1
  O  O13  1  0.11093797  0.42929300  0.22187598  1
  O  O14  1  0.93658093  0.74765600  0.29286093  1
  O  O15  1  0.64371997  0.25234400  0.70713898  1
