# generated using pymatgen
data_KP
_symmetry_space_group_name_H-M   'P 1'
_cell_length_a   6.19737005
_cell_length_b   8.96560574
_cell_length_c   8.96560574
_cell_angle_alpha   120.00000000
_cell_angle_beta   90.00000000
_cell_angle_gamma   90.00000000
_symmetry_Int_Tables_number   1
_chemical_formula_structural   KP
_chemical_formula_sum   'K6 P6'
_cell_volume   431.41707937
_cell_formula_units_Z   6
loop_
 _symmetry_equiv_pos_site_id
 _symmetry_equiv_pos_as_xyz
  1  'x, y, z'
loop_
 _atom_site_type_symbol
 _atom_site_label
 _atom_site_symmetry_multiplicity
 _atom_site_fract_x
 _atom_site_fract_y
 _atom_site_fract_z
 _atom_site_occupancy
  K  K0  1  0.50000000  0.00000000  0.30429299  1
  K  K1  1  0.50000000  0.30429300  0.99999997  1
  K  K2  1  0.50000000  0.69570701  0.69570696  1
  K  K3  1  0.00000000  0.00000000  0.64025498  1
  K  K4  1  0.99999999  0.64025501  0.99999995  1
  K  K5  1  0.99999999  0.35974500  0.35974498  1
  P  P6  1  0.67285499  0.33333334  0.66666664  1
  P  P7  1  0.32714500  0.33333334  0.66666664  1
  P  P8  1  0.32714500  0.66666667  0.33333330  1
  P  P9  1  0.67285499  0.66666667  0.33333330  1
  P  P10  1  0.17171200  0.00000000  0.00000000  1
  P  P11  1  0.82828799  0.00000000  -0.00000000  1
