# generated using pymatgen
data_LiCrF5
_symmetry_space_group_name_H-M   'P 1'
_cell_length_a   5.17214441
_cell_length_b   5.29826450
_cell_length_c   7.47436333
_cell_angle_alpha   102.28218842
_cell_angle_beta   108.39600372
_cell_angle_gamma   102.90674591
_symmetry_Int_Tables_number   1
_chemical_formula_structural   LiCrF5
_chemical_formula_sum   'Li2 Cr2 F10'
_cell_volume   180.34567524
_cell_formula_units_Z   2
loop_
 _symmetry_equiv_pos_site_id
 _symmetry_equiv_pos_as_xyz
  1  'x, y, z'
loop_
 _atom_site_type_symbol
 _atom_site_label
 _atom_site_symmetry_multiplicity
 _atom_site_fract_x
 _atom_site_fract_y
 _atom_site_fract_z
 _atom_site_occupancy
  Li  Li0  1  0.04382000  0.35308299  0.81740398  1
  Li  Li1  1  0.54379501  0.35306699  0.31736299  1
  Cr  Cr2  1  0.55895301  0.66400498  0.74929098  1
  Cr  Cr3  1  0.05895899  0.66402498  0.24927700  1
  F  F4  1  0.75825702  0.24770699  0.21091599  1
  F  F5  1  0.25832501  0.24773199  0.71090898  1
  F  F6  1  0.23245700  0.41436199  0.10826800  1
  F  F7  1  0.73244602  0.41435999  0.60824398  1
  F  F8  1  0.77623801  0.99687097  0.78781698  1
  F  F9  1  0.27622699  0.99688097  0.28783000  1
  F  F10  1  0.30583600  0.73232898  0.85635098  1
  F  F11  1  0.80579602  0.73235898  0.35638399  1
  F  F12  1  0.82445002  0.59161298  0.96997897  1
  F  F13  1  0.32443700  0.59160398  0.46996799  1
