# generated using pymatgen
data_K2Ti2N3O5
_symmetry_space_group_name_H-M   'P 1'
_cell_length_a   5.45708418
_cell_length_b   5.45708418
_cell_length_c   6.58152390
_cell_angle_alpha   90.00000000
_cell_angle_beta   90.00000000
_cell_angle_gamma   90.00000000
_symmetry_Int_Tables_number   1
_chemical_formula_structural   K2Ti2N3O5
_chemical_formula_sum   'K2 Ti2 N3 O5'
_cell_volume   195.99625295
_cell_formula_units_Z   1
loop_
 _symmetry_equiv_pos_site_id
 _symmetry_equiv_pos_as_xyz
  1  'x, y, z'
loop_
 _atom_site_type_symbol
 _atom_site_label
 _atom_site_symmetry_multiplicity
 _atom_site_fract_x
 _atom_site_fract_y
 _atom_site_fract_z
 _atom_site_occupancy
  K  K0  1  0.49999998  0.00000000  0.50000001  1
  K  K1  1  -0.00000000  0.49999998  0.50000001  1
  Ti  Ti2  1  0.49999998  0.49999998  0.00000000  1
  Ti  Ti3  1  0.00000000  0.00000000  0.00000000  1
  N  N4  1  0.49999998  0.49999998  0.29072400  1
  N  N5  1  0.00000000  0.00000000  0.70927601  1
  N  N6  1  0.49999998  0.49999998  0.70927601  1
  O  O7  1  0.00000000  0.00000000  0.29072400  1
  O  O8  1  0.31100599  0.81100597  0.00000000  1
  O  O9  1  0.18899399  0.31100599  0.00000000  1
  O  O10  1  0.81100597  0.68899398  0.00000000  1
  O  O11  1  0.68899398  0.18899399  0.00000000  1
