# generated using pymatgen
data_V4TeO12
_symmetry_space_group_name_H-M   'P 1'
_cell_length_a   5.17831612
_cell_length_b   5.40523529
_cell_length_c   7.49189949
_cell_angle_alpha   93.07172394
_cell_angle_beta   89.95668030
_cell_angle_gamma   89.98246765
_symmetry_Int_Tables_number   1
_chemical_formula_structural   V4TeO12
_chemical_formula_sum   'V4 Te1 O12'
_cell_volume   209.39703492
_cell_formula_units_Z   1
loop_
 _symmetry_equiv_pos_site_id
 _symmetry_equiv_pos_as_xyz
  1  'x, y, z'
loop_
 _atom_site_type_symbol
 _atom_site_label
 _atom_site_symmetry_multiplicity
 _atom_site_fract_x
 _atom_site_fract_y
 _atom_site_fract_z
 _atom_site_occupancy
  V  V0  1  0.50069799  0.06906400  0.71704896  1
  V  V1  1  0.50575299  0.49678100  0.49358896  1
  V  V2  1  0.00403400  0.99265899  0.50466697  1
  V  V3  1  0.49630999  0.49476000  0.00135097  1
  Te  Te4  1  0.99507498  0.99335099  0.00866294  1
  O  O5  1  0.30351399  0.18720100  0.94356696  1
  O  O6  1  0.69804198  0.17876400  0.46017696  1
  O  O7  1  0.20212700  0.28448100  0.55976898  1
  O  O8  1  0.79632898  0.29112200  0.05659596  1
  O  O9  1  0.60156599  0.48155800  0.75878595  1
  O  O10  1  0.38886199  0.49277800  0.24524197  1
  O  O11  1  0.20094300  0.70028899  0.94962496  1
  O  O12  1  0.81673598  0.68990399  0.45100895  1
  O  O13  1  0.30777599  0.80873099  0.56612596  1
  O  O14  1  0.69836598  0.79229999  0.05392796  1
  O  O15  1  0.88090398  0.98859999  0.75498593  1
  O  O16  1  0.10160600  0.99651899  0.25230097  1
