# generated using pymatgen
data_RbMgAlF6
_symmetry_space_group_name_H-M   'P 1'
_cell_length_a   7.33756208
_cell_length_b   7.36418915
_cell_length_c   7.36418915
_cell_angle_alpha   60.17739487
_cell_angle_beta   60.11953735
_cell_angle_gamma   60.11953735
_symmetry_Int_Tables_number   1
_chemical_formula_structural   RbMgAlF6
_chemical_formula_sum   'Rb2 Mg2 Al2 F12'
_cell_volume   282.26039874
_cell_formula_units_Z   2
loop_
 _symmetry_equiv_pos_site_id
 _symmetry_equiv_pos_as_xyz
  1  'x, y, z'
loop_
 _atom_site_type_symbol
 _atom_site_label
 _atom_site_symmetry_multiplicity
 _atom_site_fract_x
 _atom_site_fract_y
 _atom_site_fract_z
 _atom_site_occupancy
  Rb  Rb0  1  0.62140799  0.12859200  0.62859200  1
  Rb  Rb1  1  0.37859202  0.87140798  0.37140798  1
  Mg  Mg2  1  0.50000000  0.49999999  0.00000000  1
  Mg  Mg3  1  0.99999999  0.49999999  1.00000000  1
  Al  Al4  1  0.00000000  0.00000000  0.00000000  1
  Al  Al5  1  0.00000002  0.49999999  0.49999998  1
  F  F6  1  0.06612600  0.18387400  0.68387398  1
  F  F7  1  0.68170300  0.56829699  0.06829701  1
  F  F8  1  0.06514202  0.56770599  0.67429397  1
  F  F9  1  0.69285899  0.17429400  0.06770502  1
  F  F10  1  0.69285900  0.56770499  0.67429399  1
  F  F11  1  0.06514200  0.17429500  0.06770500  1
  F  F12  1  0.93387400  0.81612598  0.31612600  1
  F  F13  1  0.31829700  0.43170299  0.93170298  1
  F  F14  1  0.93485799  0.43229399  0.32570601  1
  F  F15  1  0.30714102  0.82570598  0.93229497  1
  F  F16  1  0.30714100  0.43229499  0.32570599  1
  F  F17  1  0.93485800  0.82570498  0.93229499  1
