# generated using pymatgen
data_Na3CO3
_symmetry_space_group_name_H-M   'P 1'
_cell_length_a   3.57110190
_cell_length_b   3.57110190
_cell_length_c   8.16881180
_cell_angle_alpha   90.00000000
_cell_angle_beta   90.00000000
_cell_angle_gamma   90.00000000
_symmetry_Int_Tables_number   1
_chemical_formula_structural   Na3CO3
_chemical_formula_sum   'Na3 C1 O3'
_cell_volume   104.17496830
_cell_formula_units_Z   1
loop_
 _symmetry_equiv_pos_site_id
 _symmetry_equiv_pos_as_xyz
  1  'x, y, z'
loop_
 _atom_site_type_symbol
 _atom_site_label
 _atom_site_symmetry_multiplicity
 _atom_site_fract_x
 _atom_site_fract_y
 _atom_site_fract_z
 _atom_site_occupancy
  Na  Na0  1  0.00000000  0.00000000  0.00000000  1
  Na  Na1  1  0.50000001  0.50000001  0.72316402  1
  Na  Na2  1  0.50000001  0.50000001  0.27683601  1
  C  C3  1  0.00000000  0.00000000  0.50000001  1
  O  O4  1  0.00000000  0.00000000  0.66576102  1
  O  O5  1  0.00000000  0.00000000  0.33423901  1
  O  O6  1  0.50000001  0.50000001  0.00000000  1
