# generated using pymatgen
data_GePO4
_symmetry_space_group_name_H-M   'P 1'
_cell_length_a   5.08324003
_cell_length_b   5.17722416
_cell_length_c   5.08324003
_cell_angle_alpha   119.40128326
_cell_angle_beta   90.00000000
_cell_angle_gamma   119.40128326
_symmetry_Int_Tables_number   1
_chemical_formula_structural   GePO4
_chemical_formula_sum   'Ge1 P1 O4'
_cell_volume   96.28050169
_cell_formula_units_Z   1
loop_
 _symmetry_equiv_pos_site_id
 _symmetry_equiv_pos_as_xyz
  1  'x, y, z'
loop_
 _atom_site_type_symbol
 _atom_site_label
 _atom_site_symmetry_multiplicity
 _atom_site_fract_x
 _atom_site_fract_y
 _atom_site_fract_z
 _atom_site_occupancy
  Ge  Ge0  1  0.00000000  0.00000000  0.00000000  1
  P  P1  1  0.24999996  0.49999996  0.74999995  1
  O  O2  1  0.13666194  0.73509493  0.95990393  1
  O  O3  1  0.22480898  0.26490398  0.86333697  1
  O  O4  1  0.59843293  0.73509493  0.77519093  1
  O  O5  1  0.04009598  0.26490598  0.40156797  1
