# generated using pymatgen
data_DyLuO3
_symmetry_space_group_name_H-M   'P 1'
_cell_length_a   5.49373913
_cell_length_b   6.02797222
_cell_length_c   7.93753576
_cell_angle_alpha   90.00000000
_cell_angle_beta   90.00000000
_cell_angle_gamma   90.00000000
_symmetry_Int_Tables_number   1
_chemical_formula_structural   DyLuO3
_chemical_formula_sum   'Dy4 Lu4 O12'
_cell_volume   262.86028249
_cell_formula_units_Z   4
loop_
 _symmetry_equiv_pos_site_id
 _symmetry_equiv_pos_as_xyz
  1  'x, y, z'
loop_
 _atom_site_type_symbol
 _atom_site_label
 _atom_site_symmetry_multiplicity
 _atom_site_fract_x
 _atom_site_fract_y
 _atom_site_fract_z
 _atom_site_occupancy
  Dy  Dy0  1  0.03118700  0.91445897  0.75000002  1
  Dy  Dy1  1  0.53118699  0.58554098  0.25000001  1
  Dy  Dy2  1  0.46881299  0.41445898  0.75000002  1
  Dy  Dy3  1  0.96881298  0.08554100  0.25000001  1
  Lu  Lu4  1  -0.00000000  0.49999998  0.50000001  1
  Lu  Lu5  1  0.49999999  0.00000000  0.50000001  1
  Lu  Lu6  1  0.49999999  0.00000000  -0.00000000  1
  Lu  Lu7  1  -0.00000000  0.49999998  0.00000000  1
  O  O8  1  0.69640098  0.31978199  0.42773801  1
  O  O9  1  0.19640100  0.18021799  0.57226202  1
  O  O10  1  0.80359898  0.81978197  0.07226200  1
  O  O11  1  0.30359899  0.68021798  0.92773803  1
  O  O12  1  0.30359899  0.68021798  0.57226202  1
  O  O13  1  0.80359898  0.81978197  0.42773801  1
  O  O14  1  0.19640100  0.18021799  0.92773803  1
  O  O15  1  0.69640098  0.31978199  0.07226200  1
  O  O16  1  0.14866200  0.43622398  0.25000001  1
  O  O17  1  0.64866198  0.06377600  0.75000002  1
  O  O18  1  0.35133799  0.93622397  0.25000001  1
  O  O19  1  0.85133798  0.56377598  0.75000002  1
