# generated using pymatgen
data_K2RbNa5I8
_symmetry_space_group_name_H-M   'P 1'
_cell_length_a   8.41460991
_cell_length_b   8.82415867
_cell_length_c   10.18074322
_cell_angle_alpha   76.71914673
_cell_angle_beta   89.87203979
_cell_angle_gamma   75.97796631
_symmetry_Int_Tables_number   1
_chemical_formula_structural   K2RbNa5I8
_chemical_formula_sum   'K2 Rb1 Na5 I8'
_cell_volume   712.65586166
_cell_formula_units_Z   1
loop_
 _symmetry_equiv_pos_site_id
 _symmetry_equiv_pos_as_xyz
  1  'x, y, z'
loop_
 _atom_site_type_symbol
 _atom_site_label
 _atom_site_symmetry_multiplicity
 _atom_site_fract_x
 _atom_site_fract_y
 _atom_site_fract_z
 _atom_site_occupancy
  Na  Na0  1  0.80987703  0.75891402  0.81865900  1
  Na  Na1  1  0.19012301  0.24108601  0.18134100  1
  Na  Na2  1  0.51179501  0.00533300  0.80153603  1
  K  K3  1  0.48820504  0.99466703  0.19846396  1
  K  K4  1  0.68588602  0.25073101  0.71976802  1
  Na  Na5  1  0.31411403  0.74926902  0.28023198  1
  Rb  Rb6  1  0.98690301  0.00425000  0.80295703  1
  Na  Na7  1  0.01309703  0.99575003  0.19704296  1
  I  I8  1  0.82057303  0.70745202  0.55878399  1
  I  I9  1  0.17942701  0.29254801  0.44121600  1
  I  I10  1  0.68066002  0.28795601  0.44088301  1
  I  I11  1  0.31934003  0.71204402  0.55911699  1
  I  I12  1  0.17641001  0.27263901  0.81341101  1
  I  I13  1  0.82359003  0.72736102  0.18658898  1
  I  I14  1  0.31433303  0.73049602  0.91344300  1
  I  I15  1  0.68566702  0.26950401  0.08655700  1
