# generated using pymatgen
data_TbSm3Cl3F5
_symmetry_space_group_name_H-M   'P 1'
_cell_length_a   4.17469501
_cell_length_b   6.84929705
_cell_length_c   7.88257980
_cell_angle_alpha   90.00000000
_cell_angle_beta   90.00000000
_cell_angle_gamma   90.00000000
_symmetry_Int_Tables_number   1
_chemical_formula_structural   TbSm3Cl3F5
_chemical_formula_sum   'Tb1 Sm3 Cl3 F5'
_cell_volume   225.39232894
_cell_formula_units_Z   1
loop_
 _symmetry_equiv_pos_site_id
 _symmetry_equiv_pos_as_xyz
  1  'x, y, z'
loop_
 _atom_site_type_symbol
 _atom_site_label
 _atom_site_symmetry_multiplicity
 _atom_site_fract_x
 _atom_site_fract_y
 _atom_site_fract_z
 _atom_site_occupancy
  Tb  Tb0  1  0.25000000  0.76080299  0.38756201  1
  Sm  Sm1  1  0.75000000  0.23919700  0.61243802  1
  Sm  Sm2  1  0.25000000  0.26080300  0.11243800  1
  Sm  Sm3  1  0.75000000  0.73919699  0.88756202  1
  Cl  Cl4  1  0.25000000  0.52814900  0.68051402  1
  Cl  Cl5  1  0.75000000  0.47185100  0.31948601  1
  F  F6  1  0.25000000  0.02814900  0.81948602  1
  Cl  Cl7  1  0.75000000  0.97185099  0.18051400  1
  F  F8  1  0.75000000  0.35500000  0.92838102  1
  F  F9  1  0.25000000  0.64500000  0.07161900  1
  F  F10  1  0.75000000  0.85499999  0.57161901  1
  F  F11  1  0.25000000  0.14500000  0.42838101  1
