# generated using pymatgen
data_Na5TbPaF12
_symmetry_space_group_name_H-M   'P 1'
_cell_length_a   7.05589104
_cell_length_b   7.05589104
_cell_length_c   7.06564856
_cell_angle_alpha   108.67913055
_cell_angle_beta   110.05150604
_cell_angle_gamma   109.63034058
_symmetry_Int_Tables_number   1
_chemical_formula_structural   Na5TbPaF12
_chemical_formula_sum   'Na5 Tb1 Pa1 F12'
_cell_volume   270.93616222
_cell_formula_units_Z   1
loop_
 _symmetry_equiv_pos_site_id
 _symmetry_equiv_pos_as_xyz
  1  'x, y, z'
loop_
 _atom_site_type_symbol
 _atom_site_label
 _atom_site_symmetry_multiplicity
 _atom_site_fract_x
 _atom_site_fract_y
 _atom_site_fract_z
 _atom_site_occupancy
  Na  Na0  1  0.00007500  0.00047700  0.00055200  1
  Na  Na1  1  0.49910707  0.55009504  0.04920208  1
  Na  Na2  1  0.95903308  0.49884203  0.45787510  1
  Na  Na3  1  0.99489408  0.49797803  0.99471309  1
  Na  Na4  1  0.00489400  0.00713300  0.50426600  1
  Tb  Tb5  1  0.49713307  0.49937203  0.50426607  1
  Pa  Pa6  1  0.49673512  0.99981907  0.99471310  1
  F  F7  1  0.51880609  0.70980705  0.81147308  1
  F  F8  1  0.49190004  0.29738002  0.19712305  1
  F  F9  1  0.10166603  0.29266702  0.81147302  1
  F  F10  1  0.89974310  0.70522305  0.19712311  1
  F  F11  1  0.80596603  0.09561201  0.28646206  1
  F  F12  1  0.18802510  0.90059006  0.70965708  1
  F  F13  1  0.80906708  0.52163203  0.70965709  1
  F  F14  1  0.19085006  0.48049603  0.28646205  1
  F  F15  1  0.71907204  0.20592101  0.92499305  1
  F  F16  1  0.28691609  0.78863905  0.07555508  1
  F  F17  1  0.28145903  0.20271701  0.48417603  1
  F  F18  1  0.71365510  0.78660005  0.50025510  1
