# generated using pymatgen
data_Li3CdF4
_symmetry_space_group_name_H-M   'P 1'
_cell_length_a   3.63533807
_cell_length_b   6.15623093
_cell_length_c   6.69401884
_cell_angle_alpha   116.07077026
_cell_angle_beta   90.00000000
_cell_angle_gamma   90.00000000
_symmetry_Int_Tables_number   1
_chemical_formula_structural   Li3CdF4
_chemical_formula_sum   'Li3 Cd1 F4'
_cell_volume   134.56892391
_cell_formula_units_Z   1
loop_
 _symmetry_equiv_pos_site_id
 _symmetry_equiv_pos_as_xyz
  1  'x, y, z'
loop_
 _atom_site_type_symbol
 _atom_site_label
 _atom_site_symmetry_multiplicity
 _atom_site_fract_x
 _atom_site_fract_y
 _atom_site_fract_z
 _atom_site_occupancy
  Li  Li0  1  0.25000000  0.02747800  0.66838299  1
  Li  Li1  1  0.74999999  0.97252201  0.33161698  1
  Li  Li2  1  0.25000000  0.43214200  0.23537799  1
  Cd  Cd3  1  0.74999999  0.56785800  0.76462198  1
  F  F4  1  0.25000000  0.36030800  0.80414299  1
  F  F5  1  0.74999999  0.29904700  0.41123299  1
  F  F6  1  0.25000000  0.70095300  0.58876698  1
  F  F7  1  0.74999999  0.63969200  0.19585699  1
