# generated using pymatgen
data_Li3V2OF8
_symmetry_space_group_name_H-M   'P 1'
_cell_length_a   5.29664803
_cell_length_b   5.68048429
_cell_length_c   7.43985558
_cell_angle_alpha   95.42496490
_cell_angle_beta   90.00000000
_cell_angle_gamma   117.78884888
_symmetry_Int_Tables_number   1
_chemical_formula_structural   Li3V2OF8
_chemical_formula_sum   'Li3 V2 O1 F8'
_cell_volume   196.89692135
_cell_formula_units_Z   1
loop_
 _symmetry_equiv_pos_site_id
 _symmetry_equiv_pos_as_xyz
  1  'x, y, z'
loop_
 _atom_site_type_symbol
 _atom_site_label
 _atom_site_symmetry_multiplicity
 _atom_site_fract_x
 _atom_site_fract_y
 _atom_site_fract_z
 _atom_site_occupancy
  Li  Li0  1  0.18430101  0.71999502  0.53826400  1
  Li  Li1  1  0.03078400  0.00000000  0.99999999  1
  Li  Li2  1  0.46430600  0.28000501  0.46173600  1
  V  V3  1  0.37769601  0.71297202  0.15229500  1
  V  V4  1  0.66472400  0.28702801  0.84770499  1
  O  O5  1  0.97343700  0.51820601  0.04566600  1
  F  F6  1  0.28872301  0.92701703  0.33321300  1
  F  F7  1  0.32389800  0.48907601  0.35462900  1
  F  F8  1  0.77946701  0.91602903  0.18949200  1
  F  F9  1  0.45523100  0.48179401  0.95433399  1
  F  F10  1  0.36170600  0.07298300  0.66678700  1
  F  F11  1  0.39726500  0.00000000  0.99999999  1
  F  F12  1  0.83482200  0.51092401  0.64537100  1
  F  F13  1  0.86343800  0.08397100  0.81050799  1
