# generated using pymatgen
data_MgZnSeI3
_symmetry_space_group_name_H-M   'P 1'
_cell_length_a   3.86678410
_cell_length_b   6.62686205
_cell_length_c   6.84873867
_cell_angle_alpha   89.63047791
_cell_angle_beta   90.00000000
_cell_angle_gamma   90.00000000
_symmetry_Int_Tables_number   1
_chemical_formula_structural   MgZnSeI3
_chemical_formula_sum   'Mg1 Zn1 Se1 I3'
_cell_volume   175.49284576
_cell_formula_units_Z   1
loop_
 _symmetry_equiv_pos_site_id
 _symmetry_equiv_pos_as_xyz
  1  'x, y, z'
loop_
 _atom_site_type_symbol
 _atom_site_label
 _atom_site_symmetry_multiplicity
 _atom_site_fract_x
 _atom_site_fract_y
 _atom_site_fract_z
 _atom_site_occupancy
  Mg  Mg0  1  0.49999999  0.00000000  0.49999998  1
  Zn  Zn1  1  0.00000000  0.00000000  0.00000000  1
  Se  Se2  1  -0.00000000  0.76474199  0.34334701  1
  I  I3  1  0.49999999  0.24240700  0.18278000  1
  I  I4  1  0.49999999  0.75759299  0.81721999  1
  I  I5  1  -0.00000000  0.23525800  0.65665298  1
