# generated using pymatgen
data_FeBO3
_symmetry_space_group_name_H-M   'P 1'
_cell_length_a   4.76885700
_cell_length_b   4.76885700
_cell_length_c   5.75690126
_cell_angle_alpha   65.53192139
_cell_angle_beta   65.53192139
_cell_angle_gamma   60.00001144
_symmetry_Int_Tables_number   1
_chemical_formula_structural   FeBO3
_chemical_formula_sum   'Fe2 B2 O6'
_cell_volume   99.57498633
_cell_formula_units_Z   2
loop_
 _symmetry_equiv_pos_site_id
 _symmetry_equiv_pos_as_xyz
  1  'x, y, z'
loop_
 _atom_site_type_symbol
 _atom_site_label
 _atom_site_symmetry_multiplicity
 _atom_site_fract_x
 _atom_site_fract_y
 _atom_site_fract_z
 _atom_site_occupancy
  Fe  Fe0  1  0.00000000  0.00000000  0.00000000  1
  Fe  Fe1  1  0.50000003  0.50000002  0.49999995  1
  B  B2  1  0.75239605  0.75239603  0.74281193  1
  B  B3  1  0.24760402  0.24760401  0.25718798  1
  O  O4  1  0.74993205  0.46165202  0.74520094  1
  O  O5  1  0.04321502  0.74993203  0.74520095  1
  O  O6  1  0.53834804  0.95678504  0.25479895  1
  O  O7  1  0.25006802  0.53834802  0.25479897  1
  O  O8  1  0.95678505  0.25006801  0.25479896  1
  O  O9  1  0.46165202  0.04321500  0.74520096  1
