# generated using pymatgen
data_Ba2Ag
_symmetry_space_group_name_H-M   'P 1'
_cell_length_a   5.57099915
_cell_length_b   6.27205086
_cell_length_c   7.82638121
_cell_angle_alpha   90.00000000
_cell_angle_beta   90.00000000
_cell_angle_gamma   90.00000000
_symmetry_Int_Tables_number   1
_chemical_formula_structural   Ba2Ag
_chemical_formula_sum   'Ba4 Ag2'
_cell_volume   273.46620305
_cell_formula_units_Z   2
loop_
 _symmetry_equiv_pos_site_id
 _symmetry_equiv_pos_as_xyz
  1  'x, y, z'
loop_
 _atom_site_type_symbol
 _atom_site_label
 _atom_site_symmetry_multiplicity
 _atom_site_fract_x
 _atom_site_fract_y
 _atom_site_fract_z
 _atom_site_occupancy
  Ba  Ba0  1  0.49999999  0.26225201  0.74999998  1
  Ba  Ba1  1  0.49999999  0.73774802  0.24999999  1
  Ba  Ba2  1  -0.00000000  0.27781001  0.24999999  1
  Ba  Ba3  1  -0.00000000  0.72219002  0.74999998  1
  Ag  Ag4  1  0.00000000  0.00000000  0.00000000  1
  Ag  Ag5  1  -0.00000000  1.00000002  0.49999999  1
