# generated using pymatgen
data_Na5CaSn2AuS9
_symmetry_space_group_name_H-M   'P 1'
_cell_length_a   6.47499132
_cell_length_b   8.02003765
_cell_length_c   8.02003765
_cell_angle_alpha   75.84443665
_cell_angle_beta   89.59854889
_cell_angle_gamma   89.59854889
_symmetry_Int_Tables_number   1
_chemical_formula_structural   Na5CaSn2AuS9
_chemical_formula_sum   'Na5 Ca1 Sn2 Au1 S9'
_cell_volume   403.81578903
_cell_formula_units_Z   1
loop_
 _symmetry_equiv_pos_site_id
 _symmetry_equiv_pos_as_xyz
  1  'x, y, z'
loop_
 _atom_site_type_symbol
 _atom_site_label
 _atom_site_symmetry_multiplicity
 _atom_site_fract_x
 _atom_site_fract_y
 _atom_site_fract_z
 _atom_site_occupancy
  Na  Na0  1  0.02994596  0.99169797  0.24930800  1
  Na  Na1  1  0.47005398  0.75069198  0.00830199  1
  Na  Na2  1  0.97005401  0.00830200  0.75069195  1
  Na  Na3  1  0.52994600  0.24930799  0.99169796  1
  Na  Na4  1  0.74999999  0.59895698  0.40104297  1
  Ca  Ca5  1  0.24999999  0.40104299  0.59895698  1
  Sn  Sn6  1  0.58794500  0.17225500  0.42046797  1
  Sn  Sn7  1  0.91205499  0.57953198  0.82774495  1
  Au  Au8  1  0.41205497  0.82774498  0.57953198  1
  S  S9  1  0.08794498  0.42046799  0.17225499  1
  S  S10  1  0.52329397  0.94136098  0.28444598  1
  S  S11  1  0.97670599  0.71555398  0.05863897  1
  S  S12  1  0.47670600  0.05863900  0.71555397  1
  S  S13  1  0.02329399  0.28444599  0.94136098  1
  S  S14  1  0.93675900  0.25776599  0.43077196  1
  S  S15  1  0.56324099  0.56922799  0.74223397  1
  S  S16  1  0.06324097  0.74223398  0.56922799  1
  S  S17  1  0.43675899  0.43077199  0.25776598  1
