# generated using pymatgen
data_K3NbWO8
_symmetry_space_group_name_H-M   'P 1'
_cell_length_a   6.17078304
_cell_length_b   6.17078304
_cell_length_c   8.02686024
_cell_angle_alpha   67.39453125
_cell_angle_beta   67.39453125
_cell_angle_gamma   59.99998856
_symmetry_Int_Tables_number   1
_chemical_formula_structural   K3NbWO8
_chemical_formula_sum   'K3 Nb1 W1 O8'
_cell_volume   237.19983897
_cell_formula_units_Z   1
loop_
 _symmetry_equiv_pos_site_id
 _symmetry_equiv_pos_as_xyz
  1  'x, y, z'
loop_
 _atom_site_type_symbol
 _atom_site_label
 _atom_site_symmetry_multiplicity
 _atom_site_fract_x
 _atom_site_fract_y
 _atom_site_fract_z
 _atom_site_occupancy
  K  K0  1  0.00000000  0.00000000  0.00000000  1
  K  K1  1  0.80081502  0.80081501  0.59755492  1
  K  K2  1  0.19918500  0.19918500  0.40244497  1
  Nb  Nb3  1  0.40580101  0.40580100  0.78259695  1
  W  W4  1  0.59419901  0.59419900  0.21740295  1
  O  O5  1  0.26803901  0.26803900  0.69664496  1
  O  O6  1  0.76727701  0.26803900  0.69664494  1
  O  O7  1  0.26803901  0.76727701  0.69664494  1
  O  O8  1  0.73196102  0.73196101  0.30335493  1
  O  O9  1  0.23272301  0.73196101  0.30335495  1
  O  O10  1  0.73196101  0.23272300  0.30335495  1
  O  O11  1  0.31948901  0.31948900  0.04153297  1
  O  O12  1  0.68051102  0.68051100  0.95846692  1
