# generated using pymatgen
data_TmPO4
_symmetry_space_group_name_H-M   'P 1'
_cell_length_a   5.80620098
_cell_length_b   5.80620098
_cell_length_c   5.80620098
_cell_angle_alpha   105.92861176
_cell_angle_beta   105.92861176
_cell_angle_gamma   116.81562805
_symmetry_Int_Tables_number   1
_chemical_formula_structural   TmPO4
_chemical_formula_sum   'Tm2 P2 O8'
_cell_volume   148.80008091
_cell_formula_units_Z   2
loop_
 _symmetry_equiv_pos_site_id
 _symmetry_equiv_pos_as_xyz
  1  'x, y, z'
loop_
 _atom_site_type_symbol
 _atom_site_label
 _atom_site_symmetry_multiplicity
 _atom_site_fract_x
 _atom_site_fract_y
 _atom_site_fract_z
 _atom_site_occupancy
  Tm  Tm0  1  0.00000000  0.00000000  0.00000000  1
  Tm  Tm1  1  0.74999997  0.24999999  0.49999994  1
  P  P2  1  0.24999993  0.74999996  0.49999992  1
  P  P3  1  0.49999995  0.49999997  -0.00000007  1
  O  O4  1  0.65935495  0.48552497  0.82616993  1
  O  O5  1  0.23552591  0.90935595  0.32617090  1
  O  O6  1  0.58318491  0.90935495  0.67382989  1
  O  O7  1  0.65935492  0.83318495  0.17382889  1
  O  O8  1  0.51447397  0.34064398  0.17382894  1
  O  O9  1  0.09064493  0.76447496  0.67382993  1
  O  O10  1  0.09064496  0.41681498  0.32617096  1
  O  O11  1  0.16681497  0.34064498  0.82616997  1
