# generated using pymatgen
data_HfTl3(PS3)2
_symmetry_space_group_name_H-M   'P 1'
_cell_length_a   3.76394391
_cell_length_b   7.40059185
_cell_length_c   9.83612919
_cell_angle_alpha   90.00000000
_cell_angle_beta   90.00000000
_cell_angle_gamma   104.73212433
_symmetry_Int_Tables_number   1
_chemical_formula_structural   HfTl3(PS3)2
_chemical_formula_sum   'Hf1 Tl3 P2 S6'
_cell_volume   264.98212351
_cell_formula_units_Z   1
loop_
 _symmetry_equiv_pos_site_id
 _symmetry_equiv_pos_as_xyz
  1  'x, y, z'
loop_
 _atom_site_type_symbol
 _atom_site_label
 _atom_site_symmetry_multiplicity
 _atom_site_fract_x
 _atom_site_fract_y
 _atom_site_fract_z
 _atom_site_occupancy
  Tl  Tl0  1  0.25466704  0.50933401  0.74999999  1
  Tl  Tl1  1  0.74533305  0.49066601  0.25000000  1
  Hf  Hf2  1  0.00000000  0.00000000  0.00000000  1
  Tl  Tl3  1  0.00000000  0.00000000  0.49999999  1
  P  P4  1  0.53256802  0.06513600  0.74999999  1
  P  P5  1  0.46743207  0.93486403  0.25000000  1
  S  S6  1  0.93543808  0.87087603  0.74999999  1
  S  S7  1  0.06456201  0.12912400  0.25000000  1
  S  S8  1  0.37993306  0.75986602  0.44522899  1
  S  S9  1  0.37993306  0.75986602  0.05477100  1
  S  S10  1  0.62006703  0.24013401  0.94522898  1
  S  S11  1  0.62006703  0.24013401  0.55477099  1
