# generated using pymatgen
data_BiH5O8
_symmetry_space_group_name_H-M   'P 1'
_cell_length_a   5.63781214
_cell_length_b   5.83734131
_cell_length_c   6.02886772
_cell_angle_alpha   76.95049286
_cell_angle_beta   62.12344742
_cell_angle_gamma   61.12441635
_symmetry_Int_Tables_number   1
_chemical_formula_structural   BiH5O8
_chemical_formula_sum   'Bi1 H5 O8'
_cell_volume   153.57950868
_cell_formula_units_Z   1
loop_
 _symmetry_equiv_pos_site_id
 _symmetry_equiv_pos_as_xyz
  1  'x, y, z'
loop_
 _atom_site_type_symbol
 _atom_site_label
 _atom_site_symmetry_multiplicity
 _atom_site_fract_x
 _atom_site_fract_y
 _atom_site_fract_z
 _atom_site_occupancy
  Bi  Bi0  1  0.50000000  0.00000000  -0.00000002  1
  H  H1  1  0.24999996  0.50000000  0.50000002  1
  H  H2  1  0.86902895  0.50000000  0.26194201  1
  H  H3  1  0.63097095  0.50000000  0.73805799  1
  H  H4  1  0.88097099  0.00000000  0.23805796  1
  H  H5  1  0.11902900  0.00000000  0.76194197  1
  O  O6  1  0.09857697  0.36153600  0.26419302  1
  O  O7  1  0.72430594  0.63846400  0.73580700  1
  O  O8  1  0.53988697  0.36153600  0.73580699  1
  O  O9  1  0.63722994  0.63846400  0.26419303  1
  O  O10  1  0.65142298  0.13846400  0.23580698  1
  O  O11  1  0.02569393  0.86153600  0.76419304  1
  O  O12  1  0.21011299  0.13846400  0.76419298  1
  O  O13  1  0.11276993  0.86153600  0.23580706  1
