# generated using pymatgen
data_NaTa2(CO2)5
_symmetry_space_group_name_H-M   'P 1'
_cell_length_a   5.65450621
_cell_length_b   5.65450621
_cell_length_c   7.82187462
_cell_angle_alpha   98.85180664
_cell_angle_beta   109.11793518
_cell_angle_gamma   109.51717377
_symmetry_Int_Tables_number   1
_chemical_formula_structural   NaTa2(CO2)5
_chemical_formula_sum   'Na1 Ta2 C5 O10'
_cell_volume   212.76451462
_cell_formula_units_Z   1
loop_
 _symmetry_equiv_pos_site_id
 _symmetry_equiv_pos_as_xyz
  1  'x, y, z'
loop_
 _atom_site_type_symbol
 _atom_site_label
 _atom_site_symmetry_multiplicity
 _atom_site_fract_x
 _atom_site_fract_y
 _atom_site_fract_z
 _atom_site_occupancy
  Na  Na0  1  0.00034198  0.49916501  0.49950700  1
  Ta  Ta1  1  0.99055600  0.50340901  0.99546494  1
  Ta  Ta2  1  0.49205601  0.00490900  0.99546495  1
  C  C3  1  0.51417898  0.70095402  0.21513299  1
  C  C4  1  0.49245000  0.30110201  0.79355196  1
  C  C5  1  0.49127499  0.52554501  0.01681999  1
  C  C6  1  0.20462800  0.07217500  0.27680299  1
  C  C7  1  0.79403498  0.92812703  0.72216097  1
  O  O8  1  0.44511800  0.15394100  0.21956698  1
  O  O9  1  0.06562597  0.77444902  0.21956701  1
  O  O10  1  0.55543598  0.84494202  0.78043598  1
  O  O11  1  0.93549401  0.22500001  0.78043594  1
  O  O12  1  0.42083598  0.65501202  0.07584800  1
  O  O13  1  0.59077400  0.34114901  0.93192296  1
  O  O14  1  0.00635299  0.17655500  0.18290800  1
  O  O15  1  0.99339298  0.82272502  0.81611796  1
  O  O16  1  0.31340900  0.17054800  0.48395698  1
  O  O17  1  0.68734298  0.82799202  0.51533498  1
