# generated using pymatgen
data_WO4
_symmetry_space_group_name_H-M   'P 1'
_cell_length_a   5.42948008
_cell_length_b   5.99007559
_cell_length_c   7.32589960
_cell_angle_alpha   94.54921722
_cell_angle_beta   99.24876404
_cell_angle_gamma   97.52179718
_symmetry_Int_Tables_number   1
_chemical_formula_structural   WO4
_chemical_formula_sum   'W3 O12'
_cell_volume   231.90988358
_cell_formula_units_Z   3
loop_
 _symmetry_equiv_pos_site_id
 _symmetry_equiv_pos_as_xyz
  1  'x, y, z'
loop_
 _atom_site_type_symbol
 _atom_site_label
 _atom_site_symmetry_multiplicity
 _atom_site_fract_x
 _atom_site_fract_y
 _atom_site_fract_z
 _atom_site_occupancy
  W  W0  1  0.94194799  0.01183900  0.97100998  1
  W  W1  1  0.37369800  0.82966103  0.62918701  1
  W  W2  1  0.60364099  0.15964601  0.36647399  1
  O  O3  1  0.66753299  0.01671400  0.84042998  1
  O  O4  1  0.12594100  0.27612401  0.96373499  1
  O  O5  1  0.45364400  0.59895702  0.74638900  1
  O  O6  1  0.11417301  0.89486003  0.77716101  1
  O  O7  1  0.36381100  0.13432001  0.54114099  1
  O  O8  1  0.85976499  0.26661901  0.54607299  1
  O  O9  1  0.13491801  0.71019903  0.44165101  1
  O  O10  1  0.62751700  0.84460303  0.47703100  1
  O  O11  1  0.87218799  0.12180600  0.20394899  1
  O  O12  1  0.53322700  0.42115902  0.28614600  1
  O  O13  1  0.38320601  0.99277804  0.17564801  1
  O  O14  1  0.92853199  0.73661403  0.04107601  1
