# generated using pymatgen
data_AlCr2O4
_symmetry_space_group_name_H-M   'P 1'
_cell_length_a   3.11005592
_cell_length_b   8.12041187
_cell_length_c   8.12041187
_cell_angle_alpha   120.00000000
_cell_angle_beta   90.00000000
_cell_angle_gamma   90.00000000
_symmetry_Int_Tables_number   1
_chemical_formula_structural   AlCr2O4
_chemical_formula_sum   'Al2 Cr4 O8'
_cell_volume   177.60490065
_cell_formula_units_Z   2
loop_
 _symmetry_equiv_pos_site_id
 _symmetry_equiv_pos_as_xyz
  1  'x, y, z'
loop_
 _atom_site_type_symbol
 _atom_site_label
 _atom_site_symmetry_multiplicity
 _atom_site_fract_x
 _atom_site_fract_y
 _atom_site_fract_z
 _atom_site_occupancy
  Al  Al0  1  0.25000001  0.17109700  0.40625900  1
  Cr  Cr1  1  0.75000002  0.40625901  0.23516200  1
  Cr  Cr2  1  0.75000002  0.76483801  0.17109700  1
  Cr  Cr3  1  0.25000001  0.23516200  0.82890300  1
  Cr  Cr4  1  0.25000001  0.59374101  0.76483800  1
  Al  Al5  1  0.75000002  0.82890301  0.59374100  1
  O  O6  1  0.25000001  0.33333334  0.66666667  1
  O  O7  1  0.75000002  0.66666668  0.33333333  1
  O  O8  1  0.25000001  0.33042400  0.30275000  1
  O  O9  1  0.75000002  0.30275000  0.97232601  1
  O  O10  1  0.75000002  0.02767400  0.33042400  1
  O  O11  1  0.25000001  0.97232601  0.66957600  1
  O  O12  1  0.75000002  0.66957601  0.69725000  1
  O  O13  1  0.25000001  0.69725001  0.02767400  1
