# generated using pymatgen
data_YbGa2AgSe6
_symmetry_space_group_name_H-M   'P 1'
_cell_length_a   6.61652231
_cell_length_b   6.72070599
_cell_length_c   6.72070599
_cell_angle_alpha   61.60382080
_cell_angle_beta   61.39294434
_cell_angle_gamma   61.39294434
_symmetry_Int_Tables_number   1
_chemical_formula_structural   YbGa2AgSe6
_chemical_formula_sum   'Yb1 Ga2 Ag1 Se6'
_cell_volume   218.26289098
_cell_formula_units_Z   1
loop_
 _symmetry_equiv_pos_site_id
 _symmetry_equiv_pos_as_xyz
  1  'x, y, z'
loop_
 _atom_site_type_symbol
 _atom_site_label
 _atom_site_symmetry_multiplicity
 _atom_site_fract_x
 _atom_site_fract_y
 _atom_site_fract_z
 _atom_site_occupancy
  Yb  Yb0  1  0.23965700  0.71608299  0.21234898  1
  Ag  Ag1  1  0.73965701  0.21234900  0.71608297  1
  Ga  Ga2  1  0.98432401  0.44420299  0.95309396  1
  Ga  Ga3  1  0.48432401  0.95309399  0.44420296  1
  Se  Se4  1  0.19551900  0.11667300  0.79436698  1
  Se  Se5  1  0.83009201  0.64440199  0.62940396  1
  Se  Se6  1  0.33009201  0.62940399  0.64440197  1
  Se  Se7  1  0.69551901  0.79436699  0.11667297  1
  Se  Se8  1  0.64221401  0.30141100  0.14744599  1
  Se  Se9  1  0.14221400  0.14744600  0.30141099  1
