# generated using pymatgen
data_Al2P3O8
_symmetry_space_group_name_H-M   'P 1'
_cell_length_a   4.94598198
_cell_length_b   4.94598198
_cell_length_c   7.44784212
_cell_angle_alpha   90.00000000
_cell_angle_beta   90.00000000
_cell_angle_gamma   120.00000000
_symmetry_Int_Tables_number   1
_chemical_formula_structural   Al2P3O8
_chemical_formula_sum   'Al2 P3 O8'
_cell_volume   157.78515943
_cell_formula_units_Z   1
loop_
 _symmetry_equiv_pos_site_id
 _symmetry_equiv_pos_as_xyz
  1  'x, y, z'
loop_
 _atom_site_type_symbol
 _atom_site_label
 _atom_site_symmetry_multiplicity
 _atom_site_fract_x
 _atom_site_fract_y
 _atom_site_fract_z
 _atom_site_occupancy
  Al  Al0  1  0.66666667  0.33333333  0.81084499  1
  Al  Al1  1  0.33333333  0.66666666  0.18915500  1
  P  P2  1  0.00000000  0.00000000  0.49999999  1
  P  P3  1  0.66666667  0.33333333  0.26012800  1
  P  P4  1  0.33333333  0.66666666  0.73987199  1
  O  O5  1  0.95441500  0.64034199  0.33581399  1
  O  O6  1  0.68592700  0.04558500  0.33581399  1
  O  O7  1  0.33333333  0.66666666  0.93945598  1
  O  O8  1  0.35965800  0.31407300  0.33581399  1
  O  O9  1  0.31407299  0.95441499  0.66418599  1
  O  O10  1  0.04558500  0.35965800  0.66418599  1
  O  O11  1  0.66666667  0.33333333  0.06054400  1
  O  O12  1  0.64034200  0.68592699  0.66418599  1
