# generated using pymatgen
data_MgZrTi2O6
_symmetry_space_group_name_H-M   'P 1'
_cell_length_a   5.58516026
_cell_length_b   5.58516026
_cell_length_c   5.64313030
_cell_angle_alpha   60.33923340
_cell_angle_beta   60.33923340
_cell_angle_gamma   59.99999619
_symmetry_Int_Tables_number   1
_chemical_formula_structural   MgZrTi2O6
_chemical_formula_sum   'Mg1 Zr1 Ti2 O6'
_cell_volume   125.10776576
_cell_formula_units_Z   1
loop_
 _symmetry_equiv_pos_site_id
 _symmetry_equiv_pos_as_xyz
  1  'x, y, z'
loop_
 _atom_site_type_symbol
 _atom_site_label
 _atom_site_symmetry_multiplicity
 _atom_site_fract_x
 _atom_site_fract_y
 _atom_site_fract_z
 _atom_site_occupancy
  Mg  Mg0  1  0.26771002  0.26771001  0.19686998  1
  Zr  Zr1  1  0.76771006  0.76771002  0.69686995  1
  Ti  Ti2  1  0.50752004  0.50752001  0.47743997  1
  Ti  Ti3  1  0.00752000  0.00752000  0.97743996  1
  O  O4  1  0.73199003  0.15351000  0.79352996  1
  O  O5  1  0.23199004  0.82097002  0.29352997  1
  O  O6  1  0.15351002  0.32097001  0.79352996  1
  O  O7  1  0.82097006  0.65351002  0.29352997  1
  O  O8  1  0.65351003  0.23199001  0.29352998  1
  O  O9  1  0.32097004  0.73199002  0.79352995  1
