# generated using pymatgen
data_Hg3AsCl14
_symmetry_space_group_name_H-M   'P 1'
_cell_length_a   7.97620106
_cell_length_b   8.37405205
_cell_length_c   9.53004074
_cell_angle_alpha   101.29100037
_cell_angle_beta   95.17388153
_cell_angle_gamma   90.30667877
_symmetry_Int_Tables_number   1
_chemical_formula_structural   Hg3AsCl14
_chemical_formula_sum   'Hg3 As1 Cl14'
_cell_volume   621.50533045
_cell_formula_units_Z   1
loop_
 _symmetry_equiv_pos_site_id
 _symmetry_equiv_pos_as_xyz
  1  'x, y, z'
loop_
 _atom_site_type_symbol
 _atom_site_label
 _atom_site_symmetry_multiplicity
 _atom_site_fract_x
 _atom_site_fract_y
 _atom_site_fract_z
 _atom_site_occupancy
  As  As0  1  0.30128401  0.22753900  0.76708699  1
  Hg  Hg1  1  0.69871605  0.77246100  0.23291307  1
  Hg  Hg2  1  0.07363305  0.80071300  0.56011102  1
  Hg  Hg3  1  0.92636701  0.19928700  0.43988904  1
  Cl  Cl4  1  0.55829601  0.14046400  0.86517700  1
  Cl  Cl5  1  0.44170405  0.85953600  0.13482306  1
  Cl  Cl6  1  0.64385201  0.14539800  0.45335202  1
  Cl  Cl7  1  0.35614805  0.85460200  0.54664804  1
  Cl  Cl8  1  0.96009702  0.32661900  0.68060804  1
  Cl  Cl9  1  0.03990304  0.67338100  0.31939202  1
  Cl  Cl10  1  0.21106302  0.24426800  0.42580900  1
  Cl  Cl11  1  0.78893705  0.75573200  0.57419106  1
  Cl  Cl12  1  0.89241800  0.06926800  0.20036304  1
  Cl  Cl13  1  0.10758206  0.93073200  0.79963702  1
  Cl  Cl14  1  0.20302602  0.31879300  0.99336698  1
  Cl  Cl15  1  0.79697404  0.68120700  0.00663308  1
  Cl  Cl16  1  0.58835503  0.51485100  0.24403405  1
  Cl  Cl17  1  0.41164503  0.48514900  0.75596601  1
