# generated using pymatgen
data_NaCu5S8
_symmetry_space_group_name_H-M   'P 1'
_cell_length_a   6.68122530
_cell_length_b   7.58335638
_cell_length_c   7.58335638
_cell_angle_alpha   60.59734344
_cell_angle_beta   65.52252960
_cell_angle_gamma   65.52252960
_symmetry_Int_Tables_number   1
_chemical_formula_structural   NaCu5S8
_chemical_formula_sum   'Na1 Cu5 S8'
_cell_volume   293.66783022
_cell_formula_units_Z   1
loop_
 _symmetry_equiv_pos_site_id
 _symmetry_equiv_pos_as_xyz
  1  'x, y, z'
loop_
 _atom_site_type_symbol
 _atom_site_label
 _atom_site_symmetry_multiplicity
 _atom_site_fract_x
 _atom_site_fract_y
 _atom_site_fract_z
 _atom_site_occupancy
  Na  Na0  1  0.02583202  0.70866900  0.70866902  1
  Cu  Cu1  1  0.80359700  0.41045300  0.41045304  1
  Cu  Cu2  1  0.00237400  0.00069000  0.00069000  1
  Cu  Cu3  1  0.04571800  0.18888900  0.18888901  1
  S  S4  1  0.05506401  0.50760500  0.50760502  1
  S  S5  1  0.72633102  0.91806700  0.91806705  1
  Cu  Cu6  1  0.53074000  0.22443700  0.73518104  1
  Cu  Cu7  1  0.53074002  0.73518100  0.22443703  1
  S  S8  1  0.50259300  0.08946900  0.38594603  1
  S  S9  1  0.50259301  0.38594600  0.08946903  1
  S  S10  1  0.27117402  0.94470100  0.38995103  1
  S  S11  1  0.27117401  0.38995100  0.94470103  1
  S  S12  1  0.26623500  0.19117400  0.64876702  1
  S  S13  1  0.26623501  0.64876700  0.19117402  1
