# generated using pymatgen
data_Na2LaPb3O8
_symmetry_space_group_name_H-M   'P 1'
_cell_length_a   4.94053793
_cell_length_b   5.93944502
_cell_length_c   8.11102486
_cell_angle_alpha   78.38046265
_cell_angle_beta   75.35588837
_cell_angle_gamma   84.33663940
_symmetry_Int_Tables_number   1
_chemical_formula_structural   Na2LaPb3O8
_chemical_formula_sum   'Na2 La1 Pb3 O8'
_cell_volume   225.27269041
_cell_formula_units_Z   1
loop_
 _symmetry_equiv_pos_site_id
 _symmetry_equiv_pos_as_xyz
  1  'x, y, z'
loop_
 _atom_site_type_symbol
 _atom_site_label
 _atom_site_symmetry_multiplicity
 _atom_site_fract_x
 _atom_site_fract_y
 _atom_site_fract_z
 _atom_site_occupancy
  Na  Na0  1  0.37324806  0.80845602  0.99439595  1
  Na  Na1  1  0.62675203  0.19154401  0.00560399  1
  La  La2  1  0.57644807  0.79912402  0.31245896  1
  Pb  Pb3  1  0.42355202  0.20087601  0.68754097  1
  Pb  Pb4  1  0.06324902  0.28966101  0.32321298  1
  Pb  Pb5  1  0.93675107  0.71033902  0.67678695  1
  O  O6  1  0.76885302  0.03316800  0.18943398  1
  O  O7  1  0.23114707  0.96683203  0.81056595  1
  O  O8  1  0.22459703  0.37432701  0.56231397  1
  O  O9  1  0.49353004  0.36928601  0.82386996  1
  O  O10  1  0.72904702  0.09284500  0.56524597  1
  O  O11  1  0.27095307  0.90715503  0.43475396  1
  O  O12  1  0.77540306  0.62567302  0.43768596  1
  O  O13  1  0.50647005  0.63071402  0.17612997  1
