# generated using pymatgen
data_LiFeF4
_symmetry_space_group_name_H-M   'P 1'
_cell_length_a   3.82995796
_cell_length_b   6.52683926
_cell_length_c   6.68174362
_cell_angle_alpha   105.38040924
_cell_angle_beta   90.00000000
_cell_angle_gamma   107.06166077
_symmetry_Int_Tables_number   1
_chemical_formula_structural   LiFeF4
_chemical_formula_sum   'Li2 Fe2 F8'
_cell_volume   153.40783545
_cell_formula_units_Z   2
loop_
 _symmetry_equiv_pos_site_id
 _symmetry_equiv_pos_as_xyz
  1  'x, y, z'
loop_
 _atom_site_type_symbol
 _atom_site_label
 _atom_site_symmetry_multiplicity
 _atom_site_fract_x
 _atom_site_fract_y
 _atom_site_fract_z
 _atom_site_occupancy
  Li  Li0  1  0.69624602  0.39249199  0.27228701  1
  Li  Li1  1  0.39957003  0.79913998  0.31637501  1
  Fe  Fe2  1  0.60112101  0.20224199  0.68486102  1
  Fe  Fe3  1  0.30589702  0.61179398  0.73388102  1
  F  F4  1  0.13571801  0.27143599  0.69867202  1
  F  F5  1  0.23296702  0.46593399  0.34645701  1
  F  F6  1  0.36053203  0.72106398  0.99399203  1
  F  F7  1  0.44217503  0.88434998  0.62961502  1
  F  F8  1  0.56465101  0.12930200  0.37603401  1
  F  F9  1  0.63428802  0.26857599  0.99328003  1
  F  F10  1  0.76420002  0.52839999  0.65653602  1
  F  F11  1  0.86263603  0.72527198  0.29801101  1
