# generated using pymatgen
data_CrCuTe4P
_symmetry_space_group_name_H-M   'P 1'
_cell_length_a   5.89219618
_cell_length_b   5.89219618
_cell_length_c   6.81530714
_cell_angle_alpha   115.61212921
_cell_angle_beta   115.61212921
_cell_angle_gamma   90.00000000
_symmetry_Int_Tables_number   1
_chemical_formula_structural   CrCuTe4P
_chemical_formula_sum   'Cr1 Cu1 Te4 P1'
_cell_volume   187.25005231
_cell_formula_units_Z   1
loop_
 _symmetry_equiv_pos_site_id
 _symmetry_equiv_pos_as_xyz
  1  'x, y, z'
loop_
 _atom_site_type_symbol
 _atom_site_label
 _atom_site_symmetry_multiplicity
 _atom_site_fract_x
 _atom_site_fract_y
 _atom_site_fract_z
 _atom_site_occupancy
  Cr  Cr0  1  0.74999998  0.24999999  0.49999999  1
  Cu  Cu1  1  0.25000000  0.74999998  0.50000000  1
  P  P2  1  0.49999999  0.49999999  0.00000001  1
  Te  Te3  1  0.15203500  0.64911699  0.77018499  1
  Te  Te4  1  0.61814999  0.12106800  0.77018598  1
  Te  Te5  1  0.35088200  0.38184999  0.22981500  1
  Te  Te6  1  0.87893199  0.84796398  0.22981401  1
