# generated using pymatgen
data_Mg5Al(BO3)2
_symmetry_space_group_name_H-M   'P 1'
_cell_length_a   3.56454802
_cell_length_b   3.56454802
_cell_length_c   16.16081429
_cell_angle_alpha   90.00000000
_cell_angle_beta   90.00000000
_cell_angle_gamma   120.00000000
_symmetry_Int_Tables_number   1
_chemical_formula_structural   Mg5Al(BO3)2
_chemical_formula_sum   'Mg5 Al1 B2 O6'
_cell_volume   177.82909142
_cell_formula_units_Z   1
loop_
 _symmetry_equiv_pos_site_id
 _symmetry_equiv_pos_as_xyz
  1  'x, y, z'
loop_
 _atom_site_type_symbol
 _atom_site_label
 _atom_site_symmetry_multiplicity
 _atom_site_fract_x
 _atom_site_fract_y
 _atom_site_fract_z
 _atom_site_occupancy
  Mg  Mg0  1  0.66666666  0.33333332  0.62249703  1
  Mg  Mg1  1  0.33333332  0.66666664  0.12249701  1
  Mg  Mg2  1  0.33333332  0.66666664  0.37750302  1
  Mg  Mg3  1  0.66666666  0.33333332  0.87750304  1
  Mg  Mg4  1  0.00000000  0.00000000  0.25000001  1
  Al  Al5  1  0.00000000  0.00000000  0.75000003  1
  B  B6  1  0.00000000  0.00000000  0.50000002  1
  B  B7  1  0.00000000  0.00000000  0.00000000  1
  O  O8  1  0.00000000  0.00000000  0.58336903  1
  O  O9  1  0.00000000  0.00000000  0.08336900  1
  O  O10  1  0.00000000  0.00000000  0.41663102  1
  O  O11  1  0.00000000  0.00000000  0.91663104  1
  O  O12  1  0.66666666  0.33333332  0.75000003  1
  O  O13  1  0.33333332  0.66666664  0.25000001  1
