# generated using pymatgen
data_Ce6(SbMo)7
_symmetry_space_group_name_H-M   'P 1'
_cell_length_a   8.56574821
_cell_length_b   8.56574821
_cell_length_c   8.56574821
_cell_angle_alpha   109.47122192
_cell_angle_beta   109.47122192
_cell_angle_gamma   109.47122192
_symmetry_Int_Tables_number   1
_chemical_formula_structural   Ce6(SbMo)7
_chemical_formula_sum   'Ce6 Sb7 Mo7'
_cell_volume   483.80906543
_cell_formula_units_Z   1
loop_
 _symmetry_equiv_pos_site_id
 _symmetry_equiv_pos_as_xyz
  1  'x, y, z'
loop_
 _atom_site_type_symbol
 _atom_site_label
 _atom_site_symmetry_multiplicity
 _atom_site_fract_x
 _atom_site_fract_y
 _atom_site_fract_z
 _atom_site_occupancy
  Ce  Ce0  1  0.87500001  0.12500000  0.75000002  1
  Ce  Ce1  1  0.62500002  0.37500001  0.25000003  1
  Ce  Ce2  1  0.12500002  0.25000001  0.37500001  1
  Ce  Ce3  1  0.37500005  0.75000002  0.12500005  1
  Ce  Ce4  1  0.75000004  0.62500002  0.87500005  1
  Ce  Ce5  1  0.25000006  0.87500003  0.62500005  1
  Mo  Mo6  1  0.37500004  0.62500002  0.75000004  1
  Mo  Mo7  1  0.12500006  0.87500003  0.25000005  1
  Mo  Mo8  1  0.62500002  0.25000001  0.87500002  1
  Mo  Mo9  1  0.87500005  0.75000002  0.62500006  1
  Mo  Mo10  1  0.75000001  0.12500000  0.37500002  1
  Mo  Mo11  1  0.25000002  0.37500001  0.12500003  1
  Mo  Mo12  1  1.00000003  0.50000002  0.65942605  1
  Sb  Sb13  1  0.34057402  0.34057401  0.84057402  1
  Sb  Sb14  1  0.50000001  0.15942601  0.50000002  1
  Sb  Sb15  1  0.15942600  0.00000000  1.00000000  1
  Sb  Sb16  1  0.84057405  0.84057403  0.34057406  1
  Sb  Sb17  1  1.00000003  0.50000002  0.15942605  1
  Sb  Sb18  1  0.50000004  0.65942602  0.50000004  1
  Sb  Sb19  1  0.65942606  1.00000003  1.00000006  1
