# generated using pymatgen
data_Mn3Cr(CoTe4)2
_symmetry_space_group_name_H-M   'P 1'
_cell_length_a   7.82439995
_cell_length_b   7.89061832
_cell_length_c   7.89061832
_cell_angle_alpha   61.07649612
_cell_angle_beta   60.27721786
_cell_angle_gamma   60.27721786
_symmetry_Int_Tables_number   1
_chemical_formula_structural   Mn3Cr(CoTe4)2
_chemical_formula_sum   'Mn3 Cr1 Co2 Te8'
_cell_volume   348.66169628
_cell_formula_units_Z   1
loop_
 _symmetry_equiv_pos_site_id
 _symmetry_equiv_pos_as_xyz
  1  'x, y, z'
loop_
 _atom_site_type_symbol
 _atom_site_label
 _atom_site_symmetry_multiplicity
 _atom_site_fract_x
 _atom_site_fract_y
 _atom_site_fract_z
 _atom_site_occupancy
  Cr  Cr0  1  0.49999999  0.49999999  0.99999999  1
  Mn  Mn1  1  1.00000000  0.49999999  -0.00000001  1
  Co  Co2  1  0.63597701  0.11402300  0.61402297  1
  Mn  Mn3  1  0.36402298  0.88597698  0.38597702  1
  Co  Co4  1  0.00000000  0.00000000  0.00000000  1
  Mn  Mn5  1  -0.00000002  0.49999999  0.50000001  1
  Te  Te6  1  0.23419200  0.24899199  0.74899199  1
  Te  Te7  1  0.76782401  0.24899199  0.74899197  1
  Te  Te8  1  0.76197099  0.73154598  0.74451199  1
  Te  Te9  1  0.76197101  0.24451199  0.23154598  1
  Te  Te10  1  0.76580799  0.75100798  0.25100800  1
  Te  Te11  1  0.23217598  0.75100798  0.25100802  1
  Te  Te12  1  0.23802900  0.26845399  0.25548800  1
  Te  Te13  1  0.23802898  0.75548798  0.76845401  1
