# generated using pymatgen
data_LiFeF4
_symmetry_space_group_name_H-M   'P 1'
_cell_length_a   3.09756088
_cell_length_b   4.70962381
_cell_length_c   4.70962381
_cell_angle_alpha   89.60184479
_cell_angle_beta   90.00000000
_cell_angle_gamma   90.00000000
_symmetry_Int_Tables_number   1
_chemical_formula_structural   LiFeF4
_chemical_formula_sum   'Li1 Fe1 F4'
_cell_volume   68.70396516
_cell_formula_units_Z   1
loop_
 _symmetry_equiv_pos_site_id
 _symmetry_equiv_pos_as_xyz
  1  'x, y, z'
loop_
 _atom_site_type_symbol
 _atom_site_label
 _atom_site_symmetry_multiplicity
 _atom_site_fract_x
 _atom_site_fract_y
 _atom_site_fract_z
 _atom_site_occupancy
  Li  Li0  1  0.50000002  0.50000003  0.50000003  1
  Fe  Fe1  1  0.00000000  0.00000000  0.00000000  1
  F  F2  1  0.50000002  0.20682401  0.20682401  1
  F  F3  1  0.50000002  0.79317604  0.79317605  1
  F  F4  1  1.00000004  0.69223303  0.30776702  1
  F  F5  1  1.00000004  0.30776702  0.69223304  1
