# generated using pymatgen
data_V2(OF)5
_symmetry_space_group_name_H-M   'P 1'
_cell_length_a   4.73365021
_cell_length_b   4.73365021
_cell_length_c   7.60492706
_cell_angle_alpha   90.00000000
_cell_angle_beta   90.00000000
_cell_angle_gamma   98.88794708
_symmetry_Int_Tables_number   1
_chemical_formula_structural   V2(OF)5
_chemical_formula_sum   'V2 O5 F5'
_cell_volume   168.36079880
_cell_formula_units_Z   1
loop_
 _symmetry_equiv_pos_site_id
 _symmetry_equiv_pos_as_xyz
  1  'x, y, z'
loop_
 _atom_site_type_symbol
 _atom_site_label
 _atom_site_symmetry_multiplicity
 _atom_site_fract_x
 _atom_site_fract_y
 _atom_site_fract_z
 _atom_site_occupancy
  V  V0  1  0.17955295  0.82044698  0.31154000  1
  V  V1  1  0.82044697  0.17955299  0.81153999  1
  O  O2  1  0.46737499  0.08857300  0.31648800  1
  O  O3  1  0.53262493  0.91142697  0.81648799  1
  O  O4  1  0.08857297  0.46737499  0.81648799  1
  O  O5  1  0.91142695  0.53262498  0.31648800  1
  O  O6  1  0.34372295  0.65627698  0.15191500  1
  F  F7  1  0.65627697  0.34372299  0.65191499  1
  F  F8  1  0.34850795  0.65149198  0.45493000  1
  F  F9  1  0.65149197  0.34850799  0.95492999  1
  F  F10  1  0.02970794  0.97029197  0.49263900  1
  F  F11  1  0.97029198  0.02970800  0.99263899  1
