# generated using pymatgen
data_LiCaFeF6
_symmetry_space_group_name_H-M   'P 1'
_cell_length_a   5.10063410
_cell_length_b   5.10063410
_cell_length_c   9.81474209
_cell_angle_alpha   90.00000000
_cell_angle_beta   90.00000000
_cell_angle_gamma   120.00000000
_symmetry_Int_Tables_number   1
_chemical_formula_structural   LiCaFeF6
_chemical_formula_sum   'Li2 Ca2 Fe2 F12'
_cell_volume   221.13519217
_cell_formula_units_Z   2
loop_
 _symmetry_equiv_pos_site_id
 _symmetry_equiv_pos_as_xyz
  1  'x, y, z'
loop_
 _atom_site_type_symbol
 _atom_site_label
 _atom_site_symmetry_multiplicity
 _atom_site_fract_x
 _atom_site_fract_y
 _atom_site_fract_z
 _atom_site_occupancy
  Li  Li0  1  0.66666667  0.33333336  0.74999999  1
  Li  Li1  1  0.33333336  0.66666671  0.25000000  1
  Ca  Ca2  1  0.00000000  0.00000000  0.00000000  1
  Ca  Ca3  1  0.00000000  0.00000000  0.50000000  1
  Fe  Fe4  1  0.33333336  0.66666671  0.74999999  1
  Fe  Fe5  1  0.66666667  0.33333336  0.25000000  1
  F  F6  1  0.34576301  0.37148402  0.64178399  1
  F  F7  1  0.97427900  0.34576302  0.35821600  1
  F  F8  1  0.37148401  0.34576302  0.14178400  1
  F  F9  1  0.97427901  0.62851604  0.14178400  1
  F  F10  1  0.65423699  0.02572100  0.14178400  1
  F  F11  1  0.02572102  0.37148402  0.85821599  1
  F  F12  1  0.37148399  0.02572100  0.35821600  1
  F  F13  1  0.62851602  0.65423704  0.85821599  1
  F  F14  1  0.02572103  0.65423704  0.64178399  1
  F  F15  1  0.62851603  0.97427907  0.64178399  1
  F  F16  1  0.65423701  0.62851604  0.35821600  1
  F  F17  1  0.34576304  0.97427907  0.85821599  1
