# generated using pymatgen
data_TbThZrO6
_symmetry_space_group_name_H-M   'P 1'
_cell_length_a   3.78490400
_cell_length_b   3.78490400
_cell_length_c   8.48868656
_cell_angle_alpha   102.88166046
_cell_angle_beta   102.88166046
_cell_angle_gamma   90.00000000
_symmetry_Int_Tables_number   1
_chemical_formula_structural   TbThZrO6
_chemical_formula_sum   'Tb1 Th1 Zr1 O6'
_cell_volume   115.40258422
_cell_formula_units_Z   1
loop_
 _symmetry_equiv_pos_site_id
 _symmetry_equiv_pos_as_xyz
  1  'x, y, z'
loop_
 _atom_site_type_symbol
 _atom_site_label
 _atom_site_symmetry_multiplicity
 _atom_site_fract_x
 _atom_site_fract_y
 _atom_site_fract_z
 _atom_site_occupancy
  Tb  Tb0  1  0.33578099  0.33578099  0.67156195  1
  Th  Th1  1  0.66421897  0.66421899  0.32843795  1
  Zr  Zr2  1  0.00000000  0.00000000  0.00000000  1
  O  O3  1  0.42180797  0.92180799  0.84361592  1
  O  O4  1  0.74999998  0.25000000  0.49999995  1
  O  O5  1  0.07819198  0.57819199  0.15638397  1
  O  O6  1  0.92180798  0.42180799  0.84361593  1
  O  O7  1  0.24999998  0.74999999  0.49999995  1
  O  O8  1  0.57819199  0.07819200  0.15638398  1
