# generated using pymatgen
data_Li2V2O3F5
_symmetry_space_group_name_H-M   'P 1'
_cell_length_a   5.73726797
_cell_length_b   5.75504160
_cell_length_c   5.75882196
_cell_angle_alpha   67.09819794
_cell_angle_beta   74.18280029
_cell_angle_gamma   109.74429321
_symmetry_Int_Tables_number   1
_chemical_formula_structural   Li2V2O3F5
_chemical_formula_sum   'Li2 V2 O3 F5'
_cell_volume   145.86508790
_cell_formula_units_Z   1
loop_
 _symmetry_equiv_pos_site_id
 _symmetry_equiv_pos_as_xyz
  1  'x, y, z'
loop_
 _atom_site_type_symbol
 _atom_site_label
 _atom_site_symmetry_multiplicity
 _atom_site_fract_x
 _atom_site_fract_y
 _atom_site_fract_z
 _atom_site_occupancy
  Li  Li0  1  0.50011901  0.75158902  0.74834605  1
  Li  Li1  1  0.49759100  0.24178601  0.25589102  1
  V  V2  1  0.96033601  0.95638203  0.00418604  1
  V  V3  1  0.03422101  0.53717602  0.49696403  1
  O  O4  1  0.32369301  0.84053602  0.48198004  1
  F  F5  1  0.68092501  0.66503902  0.01720503  1
  O  O6  1  0.28242900  0.26697401  0.01538601  1
  O  O7  1  0.72168900  0.23854101  0.48315203  1
  F  F8  1  0.19288200  0.23342801  0.57360902  1
  F  F9  1  0.19683501  0.76687302  0.03550602  1
  F  F10  1  0.80707600  0.23445201  0.95864304  1
  F  F11  1  0.80220401  0.76722302  0.42913105  1
