# generated using pymatgen
data_ZnSiAg5PS8
_symmetry_space_group_name_H-M   'P 1'
_cell_length_a   6.61613989
_cell_length_b   6.91924095
_cell_length_c   7.75803423
_cell_angle_alpha   90.00000000
_cell_angle_beta   90.00000000
_cell_angle_gamma   90.00000000
_symmetry_Int_Tables_number   1
_chemical_formula_structural   ZnSiAg5PS8
_chemical_formula_sum   'Zn1 Si1 Ag5 P1 S8'
_cell_volume   355.15245826
_cell_formula_units_Z   1
loop_
 _symmetry_equiv_pos_site_id
 _symmetry_equiv_pos_as_xyz
  1  'x, y, z'
loop_
 _atom_site_type_symbol
 _atom_site_label
 _atom_site_symmetry_multiplicity
 _atom_site_fract_x
 _atom_site_fract_y
 _atom_site_fract_z
 _atom_site_occupancy
  Ag  Ag0  1  0.92449402  0.80991701  0.26518699  1
  Ag  Ag1  1  0.42449401  0.19008300  0.23481299  1
  Zn  Zn2  1  0.42449401  0.19008300  0.76518698  1
  Ag  Ag3  1  0.92449402  0.80991701  0.73481298  1
  Ag  Ag4  1  0.39245801  0.64060700  0.49999999  1
  Ag  Ag5  1  0.89245802  0.35939300  0.00000000  1
  P  P6  1  0.40416201  0.68767300  0.00000000  1
  Si  Si7  1  0.90416202  0.31232700  0.49999999  1
  S  S8  1  0.30378501  0.83289901  0.78007098  1
  S  S9  1  0.80378501  0.16710100  0.71992898  1
  S  S10  1  0.78362201  0.58925200  0.49999999  1
  S  S11  1  0.28362200  0.41074800  0.00000000  1
  S  S12  1  0.80378501  0.16710100  0.28007099  1
  S  S13  1  0.30378501  0.83289901  0.21992899  1
  S  S14  1  0.71610201  0.69068900  -0.00000000  1
  S  S15  1  0.21610200  0.30931100  0.49999999  1
