# generated using pymatgen
data_InSnBr4
_symmetry_space_group_name_H-M   'P 1'
_cell_length_a   4.42539692
_cell_length_b   6.71951199
_cell_length_c   6.71951199
_cell_angle_alpha   90.00000000
_cell_angle_beta   90.00000000
_cell_angle_gamma   90.00000000
_symmetry_Int_Tables_number   1
_chemical_formula_structural   InSnBr4
_chemical_formula_sum   'In1 Sn1 Br4'
_cell_volume   199.81481951
_cell_formula_units_Z   1
loop_
 _symmetry_equiv_pos_site_id
 _symmetry_equiv_pos_as_xyz
  1  'x, y, z'
loop_
 _atom_site_type_symbol
 _atom_site_label
 _atom_site_symmetry_multiplicity
 _atom_site_fract_x
 _atom_site_fract_y
 _atom_site_fract_z
 _atom_site_occupancy
  In  In0  1  0.00000000  0.00000000  0.00000000  1
  Sn  Sn1  1  0.50000001  0.50000000  0.50000000  1
  Br  Br2  1  -0.00000000  0.30388800  0.30388800  1
  Br  Br3  1  1.00000002  0.69611200  0.69611200  1
  Br  Br4  1  0.50000001  0.19611200  0.80388800  1
  Br  Br5  1  0.50000001  0.80388800  0.19611200  1
