# generated using pymatgen
data_NaSc(SiO3)2
_symmetry_space_group_name_H-M   'P 1'
_cell_length_a   5.32473469
_cell_length_b   6.74657440
_cell_length_c   6.74657440
_cell_angle_alpha   84.79788208
_cell_angle_beta   78.02277374
_cell_angle_gamma   78.02277374
_symmetry_Int_Tables_number   1
_chemical_formula_structural   NaSc(SiO3)2
_chemical_formula_sum   'Na2 Sc2 Si4 O12'
_cell_volume   231.63739349
_cell_formula_units_Z   2
loop_
 _symmetry_equiv_pos_site_id
 _symmetry_equiv_pos_as_xyz
  1  'x, y, z'
loop_
 _atom_site_type_symbol
 _atom_site_label
 _atom_site_symmetry_multiplicity
 _atom_site_fract_x
 _atom_site_fract_y
 _atom_site_fract_z
 _atom_site_occupancy
  Na  Na0  1  0.74999997  0.70271800  0.29728201  1
  Na  Na1  1  0.24999999  0.29728200  0.70271800  1
  Sc  Sc2  1  0.75000001  0.09600300  0.90399697  1
  Sc  Sc3  1  0.24999995  0.90399699  0.09600303  1
  Si  Si4  1  0.26933798  0.37835800  0.19409601  1
  Si  Si5  1  0.23066196  0.80590399  0.62164202  1
  Si  Si6  1  0.73066197  0.62164200  0.80590400  1
  Si  Si7  1  0.76933800  0.19409600  0.37835798  1
  O  O8  1  0.50285699  0.36634500  0.33137100  1
  O  O9  1  0.99714297  0.66862900  0.63365499  1
  O  O10  1  0.49714297  0.63365500  0.66862901  1
  O  O11  1  0.00285698  0.33137100  0.36634501  1
  O  O12  1  0.17662697  0.60821800  0.11429802  1
  O  O13  1  0.32337295  0.88570199  0.39178203  1
  O  O14  1  0.82337299  0.39178200  0.88570198  1
  O  O15  1  0.67662700  0.11429800  0.60821798  1
  O  O16  1  0.85613201  0.02688600  0.20587497  1
  O  O17  1  0.64386796  0.79412499  0.97311400  1
  O  O18  1  0.14386794  0.97311399  0.79412503  1
  O  O19  1  0.35613199  0.20587500  0.02688600  1
