# generated using pymatgen
data_Li2O
_symmetry_space_group_name_H-M   'P 1'
_cell_length_a   3.54509592
_cell_length_b   3.79468942
_cell_length_c   3.54509592
_cell_angle_alpha   117.84704590
_cell_angle_beta   90.00000000
_cell_angle_gamma   117.84704590
_symmetry_Int_Tables_number   1
_chemical_formula_structural   Li2O
_chemical_formula_sum   'Li2 O1'
_cell_volume   35.80321582
_cell_formula_units_Z   1
loop_
 _symmetry_equiv_pos_site_id
 _symmetry_equiv_pos_as_xyz
  1  'x, y, z'
loop_
 _atom_site_type_symbol
 _atom_site_label
 _atom_site_symmetry_multiplicity
 _atom_site_fract_x
 _atom_site_fract_y
 _atom_site_fract_z
 _atom_site_occupancy
  Li  Li0  1  0.05375501  0.10751001  0.05375501  1
  Li  Li1  1  0.63905603  0.27811201  0.63905603  1
  O  O2  1  0.45719005  0.91438004  0.45719005  1
