# generated using pymatgen
data_NaCuHg4F10
_symmetry_space_group_name_H-M   'P 1'
_cell_length_a   5.82848597
_cell_length_b   7.26171112
_cell_length_c   7.60967445
_cell_angle_alpha   111.01116943
_cell_angle_beta   112.51749420
_cell_angle_gamma   90.00000000
_symmetry_Int_Tables_number   1
_chemical_formula_structural   NaCuHg4F10
_chemical_formula_sum   'Na1 Cu1 Hg4 F10'
_cell_volume   274.19763906
_cell_formula_units_Z   1
loop_
 _symmetry_equiv_pos_site_id
 _symmetry_equiv_pos_as_xyz
  1  'x, y, z'
loop_
 _atom_site_type_symbol
 _atom_site_label
 _atom_site_symmetry_multiplicity
 _atom_site_fract_x
 _atom_site_fract_y
 _atom_site_fract_z
 _atom_site_occupancy
  Na  Na0  1  0.82625400  0.84364104  0.65250802  1
  Hg  Hg1  1  0.17374600  0.15635901  0.34749201  1
  Hg  Hg2  1  0.51484900  0.75972303  0.02969801  1
  Hg  Hg3  1  0.48515100  0.24027701  0.97030201  1
  Cu  Cu4  1  0.85804400  0.39331502  0.71608800  1
  Hg  Hg5  1  0.14195600  0.60668503  0.28391202  1
  F  F6  1  0.25294900  0.50000002  0.00000001  1
  F  F7  1  0.74705100  0.50000002  0.00000000  1
  F  F8  1  0.38072000  0.26872901  0.30064100  1
  F  F9  1  0.08007900  0.73127103  0.69935903  1
  F  F10  1  0.61928000  0.73127103  0.69935902  1
  F  F11  1  0.91992100  0.26872901  0.30064099  1
  F  F12  1  0.09930100  0.91149104  0.19860203  1
  F  F13  1  0.90069900  0.08850900  0.80139799  1
  F  F14  1  0.70157100  0.80905104  0.40314202  1
  F  F15  1  0.29842900  0.19094901  0.59685801  1
