# generated using pymatgen
data_Rb2Ba3XeBr10
_symmetry_space_group_name_H-M   'P 1'
_cell_length_a   8.87535572
_cell_length_b   10.09628105
_cell_length_c   8.87535572
_cell_angle_alpha   63.92572403
_cell_angle_beta   90.00000000
_cell_angle_gamma   116.07427216
_symmetry_Int_Tables_number   1
_chemical_formula_structural   Rb2Ba3XeBr10
_chemical_formula_sum   'Rb2 Ba3 Xe1 Br10'
_cell_volume   622.99051808
_cell_formula_units_Z   1
loop_
 _symmetry_equiv_pos_site_id
 _symmetry_equiv_pos_as_xyz
  1  'x, y, z'
loop_
 _atom_site_type_symbol
 _atom_site_label
 _atom_site_symmetry_multiplicity
 _atom_site_fract_x
 _atom_site_fract_y
 _atom_site_fract_z
 _atom_site_occupancy
  Rb  Rb0  1  0.24999998  0.49999998  0.75000001  1
  Rb  Rb1  1  0.75000000  0.49999998  0.25000000  1
  Xe  Xe2  1  0.66680097  0.99999995  0.16680099  1
  Ba  Ba3  1  0.33319901  0.00000000  0.83319903  1
  Ba  Ba4  1  0.16680101  0.00000000  0.33319901  1
  Ba  Ba5  1  0.83319898  0.99999995  0.66680100  1
  Br  Br6  1  0.00000000  0.00000000  0.00000000  1
  Br  Br7  1  0.49999997  0.99999995  0.50000000  1
  Br  Br8  1  0.29716100  0.27274199  0.52441901  1
  Br  Br9  1  0.70283899  0.72725797  0.47558100  1
  Br  Br10  1  0.97558102  0.27274199  0.20283900  1
  Br  Br11  1  0.79716101  0.27274199  0.70283902  1
  Br  Br12  1  0.52441898  0.72725797  0.97558102  1
  Br  Br13  1  0.02441896  0.72725797  0.79716101  1
  Br  Br14  1  0.20283897  0.72725797  0.29716100  1
  Br  Br15  1  0.47558100  0.27274199  0.02441900  1
