# generated using pymatgen
data_Li3MnF5
_symmetry_space_group_name_H-M   'P 1'
_cell_length_a   5.22439003
_cell_length_b   5.46122217
_cell_length_c   5.64784336
_cell_angle_alpha   61.08716202
_cell_angle_beta   90.00000000
_cell_angle_gamma   90.00000000
_symmetry_Int_Tables_number   1
_chemical_formula_structural   Li3MnF5
_chemical_formula_sum   'Li3 Mn1 F5'
_cell_volume   141.05643429
_cell_formula_units_Z   1
loop_
 _symmetry_equiv_pos_site_id
 _symmetry_equiv_pos_as_xyz
  1  'x, y, z'
loop_
 _atom_site_type_symbol
 _atom_site_label
 _atom_site_symmetry_multiplicity
 _atom_site_fract_x
 _atom_site_fract_y
 _atom_site_fract_z
 _atom_site_occupancy
  Li  Li0  1  0.99999999  0.43122099  0.13755799  1
  Li  Li1  1  0.50000000  0.93982998  0.12033998  1
  Li  Li2  1  0.99999999  0.06075800  0.87848402  1
  Mn  Mn3  1  0.75876500  0.22205900  0.00542700  1
  F  F4  1  0.24123500  0.77251398  0.00542698  1
  F  F5  1  0.75876500  0.77251398  0.00542698  1
  F  F6  1  0.24123500  0.22205900  0.00542700  1
  F  F7  1  0.50000000  0.77716998  0.44566000  1
  F  F8  1  0.99999999  0.22984400  0.54031201  1
