# generated using pymatgen
data_Sn4RuPt7
_symmetry_space_group_name_H-M   'P 1'
_cell_length_a   6.38819695
_cell_length_b   6.38819695
_cell_length_c   6.38819695
_cell_angle_alpha   90.00000000
_cell_angle_beta   90.00000000
_cell_angle_gamma   90.00000000
_symmetry_Int_Tables_number   1
_chemical_formula_structural   Sn4RuPt7
_chemical_formula_sum   'Sn4 Ru1 Pt7'
_cell_volume   260.69631377
_cell_formula_units_Z   1
loop_
 _symmetry_equiv_pos_site_id
 _symmetry_equiv_pos_as_xyz
  1  'x, y, z'
loop_
 _atom_site_type_symbol
 _atom_site_label
 _atom_site_symmetry_multiplicity
 _atom_site_fract_x
 _atom_site_fract_y
 _atom_site_fract_z
 _atom_site_occupancy
  Sn  Sn0  1  0.13071500  0.63071501  0.86928501  1
  Sn  Sn1  1  0.63071501  0.86928501  0.13071500  1
  Sn  Sn2  1  0.86928501  0.13071500  0.63071501  1
  Sn  Sn3  1  0.36928500  0.36928500  0.36928500  1
  Ru  Ru4  1  0.48536300  0.98536301  0.51463700  1
  Pt  Pt5  1  0.98536301  0.51463700  0.48536300  1
  Pt  Pt6  1  0.51463700  0.48536300  0.98536301  1
  Pt  Pt7  1  0.01463700  0.01463700  0.01463700  1
  Pt  Pt8  1  0.87904901  0.37904900  0.12095100  1
  Pt  Pt9  1  0.37904900  0.12095100  0.87904901  1
  Pt  Pt10  1  0.12095100  0.87904901  0.37904900  1
  Pt  Pt11  1  0.62095101  0.62095101  0.62095101  1
