# generated using pymatgen
data_Yb2BeAl2GaO6
_symmetry_space_group_name_H-M   'P 1'
_cell_length_a   5.40471697
_cell_length_b   5.40471697
_cell_length_c   5.40471697
_cell_angle_alpha   90.00000000
_cell_angle_beta   90.00000000
_cell_angle_gamma   90.00000000
_symmetry_Int_Tables_number   1
_chemical_formula_structural   Yb2BeAl2GaO6
_chemical_formula_sum   'Yb2 Be1 Al2 Ga1 O6'
_cell_volume   157.87700096
_cell_formula_units_Z   1
loop_
 _symmetry_equiv_pos_site_id
 _symmetry_equiv_pos_as_xyz
  1  'x, y, z'
loop_
 _atom_site_type_symbol
 _atom_site_label
 _atom_site_symmetry_multiplicity
 _atom_site_fract_x
 _atom_site_fract_y
 _atom_site_fract_z
 _atom_site_occupancy
  Yb  Yb0  1  0.50000000  0.00000000  0.00000000  1
  Yb  Yb1  1  0.00000000  0.00000000  0.50000000  1
  Al  Al2  1  -0.00000000  0.50000000  0.00000000  1
  Al  Al3  1  0.50000000  0.50000000  0.50000000  1
  Be  Be4  1  0.08032400  0.41967600  0.58032400  1
  Ga  Ga5  1  0.41967600  0.58032400  0.08032400  1
  O  O6  1  0.58032400  0.08032400  0.41967600  1
  O  O7  1  0.91967601  0.91967601  0.91967601  1
  O  O8  1  0.08032400  0.08032400  0.08032400  1
  O  O9  1  0.41967600  0.91967601  0.58032400  1
  O  O10  1  0.58032400  0.41967600  0.91967601  1
  O  O11  1  0.91967601  0.58032400  0.41967600  1
