# generated using pymatgen
data_KH4IF10
_symmetry_space_group_name_H-M   'P 1'
_cell_length_a   5.99444056
_cell_length_b   6.36755276
_cell_length_c   8.69052887
_cell_angle_alpha   90.00000000
_cell_angle_beta   90.00000000
_cell_angle_gamma   103.07254791
_symmetry_Int_Tables_number   1
_chemical_formula_structural   KH4IF10
_chemical_formula_sum   'K1 H4 I1 F10'
_cell_volume   323.12013913
_cell_formula_units_Z   1
loop_
 _symmetry_equiv_pos_site_id
 _symmetry_equiv_pos_as_xyz
  1  'x, y, z'
loop_
 _atom_site_type_symbol
 _atom_site_label
 _atom_site_symmetry_multiplicity
 _atom_site_fract_x
 _atom_site_fract_y
 _atom_site_fract_z
 _atom_site_occupancy
  K  K0  1  0.08087300  0.08411800  0.25000000  1
  I  I1  1  0.91912703  0.91588203  0.75000001  1
  H  H2  1  0.45779502  0.50150102  0.16049000  1
  H  H3  1  0.54220502  0.49849902  0.66049001  1
  H  H4  1  0.54220502  0.49849902  0.83951001  1
  H  H5  1  0.45779502  0.50150102  0.33951001  1
  F  F6  1  0.18668101  0.22114401  0.94677401  1
  F  F7  1  0.81331903  0.77885603  0.44677401  1
  F  F8  1  0.81331903  0.77885603  0.05322600  1
  F  F9  1  0.18668101  0.22114401  0.55322601  1
  F  F10  1  0.86424302  0.23562301  0.25000000  1
  F  F11  1  0.13575701  0.76437703  0.75000001  1
  F  F12  1  0.30014902  0.93594904  0.25000000  1
  F  F13  1  0.69985102  0.06405100  0.75000001  1
  F  F14  1  0.37727401  0.42864402  0.25000000  1
  F  F15  1  0.62272602  0.57135602  0.75000001  1
