# generated using pymatgen
data_Sr2CaSiO
_symmetry_space_group_name_H-M   'P 1'
_cell_length_a   6.58064508
_cell_length_b   6.59302616
_cell_length_c   9.32698822
_cell_angle_alpha   90.00000000
_cell_angle_beta   90.00000000
_cell_angle_gamma   90.00000000
_symmetry_Int_Tables_number   1
_chemical_formula_structural   Sr2CaSiO
_chemical_formula_sum   'Sr8 Ca4 Si4 O4'
_cell_volume   404.66411713
_cell_formula_units_Z   4
loop_
 _symmetry_equiv_pos_site_id
 _symmetry_equiv_pos_as_xyz
  1  'x, y, z'
loop_
 _atom_site_type_symbol
 _atom_site_label
 _atom_site_symmetry_multiplicity
 _atom_site_fract_x
 _atom_site_fract_y
 _atom_site_fract_z
 _atom_site_occupancy
  Sr  Sr0  1  0.77279599  0.22715999  0.47912399  1
  Sr  Sr1  1  0.27279600  0.27283999  0.47912399  1
  Sr  Sr2  1  0.50333899  0.04095400  0.74999998  1
  Sr  Sr3  1  0.49666099  0.95904598  0.24999999  1
  Sr  Sr4  1  0.99666099  0.54095399  0.24999999  1
  Sr  Sr5  1  0.72720399  0.72715998  0.52087599  1
  Sr  Sr6  1  0.22720400  0.77283998  0.52087599  1
  Sr  Sr7  1  0.27279600  0.27283999  0.02087600  1
  Ca  Ca8  1  0.00333800  0.45904599  0.74999998  1
  Ca  Ca9  1  0.77279599  0.22715999  0.02087600  1
  Ca  Ca10  1  0.72720399  0.72715998  0.97912398  1
  Ca  Ca11  1  0.22720400  0.77283998  0.97912398  1
  Si  Si12  1  0.98772499  0.99768398  0.74999998  1
  Si  Si13  1  0.48772499  0.50231599  0.74999998  1
  Si  Si14  1  0.01227500  0.00231600  0.24999999  1
  Si  Si15  1  0.51227499  0.49768399  0.24999999  1
  O  O16  1  0.49999999  0.00000000  0.00000000  1
  O  O17  1  0.49999999  0.00000000  0.49999999  1
  O  O18  1  -0.00000000  0.49999999  0.49999999  1
  O  O19  1  -0.00000000  0.49999999  0.00000000  1
