# generated using pymatgen
data_NaSmMnWO6
_symmetry_space_group_name_H-M   'P 1'
_cell_length_a   5.45648384
_cell_length_b   5.55056906
_cell_length_c   7.75343895
_cell_angle_alpha   90.00000000
_cell_angle_beta   90.07083130
_cell_angle_gamma   90.00000000
_symmetry_Int_Tables_number   1
_chemical_formula_structural   NaSmMnWO6
_chemical_formula_sum   'Na2 Sm2 Mn2 W2 O12'
_cell_volume   234.82504999
_cell_formula_units_Z   2
loop_
 _symmetry_equiv_pos_site_id
 _symmetry_equiv_pos_as_xyz
  1  'x, y, z'
loop_
 _atom_site_type_symbol
 _atom_site_label
 _atom_site_symmetry_multiplicity
 _atom_site_fract_x
 _atom_site_fract_y
 _atom_site_fract_z
 _atom_site_occupancy
  Na  Na0  1  0.99558603  0.22613000  0.75007101  1
  Na  Na1  1  0.49558601  0.77386999  0.25007100  1
  Sm  Sm2  1  0.51281701  0.70496299  0.74999300  1
  Sm  Sm3  1  0.01281700  0.29503700  0.24999300  1
  Mn  Mn4  1  0.50597201  0.24396900  0.00022400  1
  Mn  Mn5  1  0.00597200  0.75603099  0.50022400  1
  W  W6  1  0.50637601  0.24497900  0.50304400  1
  W  W7  1  0.00637600  0.75502099  0.00304400  1
  O  O8  1  0.92521003  0.73230199  0.24805301  1
  O  O9  1  0.77685002  0.46989000  0.53785501  1
  O  O10  1  0.78012202  0.46902200  0.96101000  1
  O  O11  1  0.70607202  0.96225199  0.54319000  1
  O  O12  1  0.70816502  0.95730999  0.95564300  1
  O  O13  1  0.58283202  0.23327000  0.25091500  1
  O  O14  1  0.42521001  0.26769800  0.74805300  1
  O  O15  1  0.27685001  0.53010999  0.03785500  1
  O  O16  1  0.28012201  0.53097799  0.46101000  1
  O  O17  1  0.20607201  0.03774800  0.04319000  1
  O  O18  1  0.20816501  0.04269000  0.45564300  1
  O  O19  1  0.08283200  0.76672999  0.75091500  1
