# generated using pymatgen
data_Li5VF10
_symmetry_space_group_name_H-M   'P 1'
_cell_length_a   3.17614293
_cell_length_b   8.16463089
_cell_length_c   8.33058357
_cell_angle_alpha   90.00000000
_cell_angle_beta   90.00000000
_cell_angle_gamma   90.00000000
_symmetry_Int_Tables_number   1
_chemical_formula_structural   Li5VF10
_chemical_formula_sum   'Li5 V1 F10'
_cell_volume   216.02898215
_cell_formula_units_Z   1
loop_
 _symmetry_equiv_pos_site_id
 _symmetry_equiv_pos_as_xyz
  1  'x, y, z'
loop_
 _atom_site_type_symbol
 _atom_site_label
 _atom_site_symmetry_multiplicity
 _atom_site_fract_x
 _atom_site_fract_y
 _atom_site_fract_z
 _atom_site_occupancy
  Li  Li0  1  -0.00000000  0.39611401  0.17220601  1
  Li  Li1  1  -0.00000000  0.60388601  0.67220603  1
  Li  Li2  1  0.50000001  0.75805101  0.99155105  1
  Li  Li3  1  -0.00000000  0.89901501  0.32983402  1
  V  V4  1  -0.00000000  0.10098500  0.82983404  1
  Li  Li5  1  0.50000001  0.24194900  0.49155103  1
  F  F6  1  0.50000001  0.86566101  0.20931501  1
  F  F7  1  -0.00000000  0.88543601  0.91678805  1
  F  F8  1  -0.00000000  0.11456400  0.41678802  1
  F  F9  1  0.50000001  0.13433900  0.70931504  1
  F  F10  1  -0.00000000  0.75525401  0.50342903  1
  F  F11  1  -0.00000000  0.24474600  0.00342900  1
  F  F12  1  0.50000001  0.38007901  0.29879702  1
  F  F13  1  -0.00000000  0.38732401  0.57828003  1
  F  F14  1  -0.00000000  0.61267601  0.07828000  1
  F  F15  1  0.50000001  0.61992101  0.79879704  1
