# generated using pymatgen
data_Mg2W2O7
_symmetry_space_group_name_H-M   'P 1'
_cell_length_a   5.22093725
_cell_length_b   5.52038622
_cell_length_c   5.52038622
_cell_angle_alpha   71.01451874
_cell_angle_beta   84.07907104
_cell_angle_gamma   95.92092896
_symmetry_Int_Tables_number   1
_chemical_formula_structural   Mg2W2O7
_chemical_formula_sum   'Mg2 W2 O7'
_cell_volume   148.05911399
_cell_formula_units_Z   1
loop_
 _symmetry_equiv_pos_site_id
 _symmetry_equiv_pos_as_xyz
  1  'x, y, z'
loop_
 _atom_site_type_symbol
 _atom_site_label
 _atom_site_symmetry_multiplicity
 _atom_site_fract_x
 _atom_site_fract_y
 _atom_site_fract_z
 _atom_site_occupancy
  Mg  Mg0  1  0.99999997  0.31246700  0.31246703  1
  Mg  Mg1  1  0.99999996  0.68753300  0.68753305  1
  W  W2  1  0.39417598  0.25502700  0.74497303  1
  W  W3  1  0.60582396  0.74497300  0.25502704  1
  O  O4  1  0.19920598  0.40107500  0.94411903  1
  O  O5  1  0.19920599  0.05588100  0.59892502  1
  O  O6  1  0.73188397  0.43221600  0.56778404  1
  O  O7  1  0.49999999  0.00000000  0.00000001  1
  O  O8  1  0.26811598  0.56778400  0.43221603  1
  O  O9  1  0.80079395  0.94411901  0.40107505  1
  O  O10  1  0.80079397  0.59892500  0.05588103  1
