# generated using pymatgen
data_Cd4PO3
_symmetry_space_group_name_H-M   'P 1'
_cell_length_a   5.75021791
_cell_length_b   6.54106903
_cell_length_c   5.75021791
_cell_angle_alpha   63.92500305
_cell_angle_beta   90.00000000
_cell_angle_gamma   116.07499695
_symmetry_Int_Tables_number   1
_chemical_formula_structural   Cd4PO3
_chemical_formula_sum   'Cd4 P1 O3'
_cell_volume   169.41769021
_cell_formula_units_Z   1
loop_
 _symmetry_equiv_pos_site_id
 _symmetry_equiv_pos_as_xyz
  1  'x, y, z'
loop_
 _atom_site_type_symbol
 _atom_site_label
 _atom_site_symmetry_multiplicity
 _atom_site_fract_x
 _atom_site_fract_y
 _atom_site_fract_z
 _atom_site_occupancy
  Cd  Cd0  1  0.24999998  0.49999998  0.25000003  1
  Cd  Cd1  1  0.50000001  0.00000000  0.50000001  1
  Cd  Cd2  1  0.74999999  0.49999998  0.75000003  1
  Cd  Cd3  1  0.00000000  0.00000000  0.00000000  1
  P  P4  1  0.87500000  0.24999999  0.08242101  1
  O  O5  1  0.66757898  0.74999998  0.87500005  1
  O  O6  1  0.08242097  0.74999998  0.37500004  1
  O  O7  1  0.37500000  0.24999999  0.66757902  1
