# generated using pymatgen
data_NaCu2H3(SO5)2
_symmetry_space_group_name_H-M   'P 1'
_cell_length_a   5.45254517
_cell_length_b   5.45254517
_cell_length_c   7.38623333
_cell_angle_alpha   100.11723328
_cell_angle_beta   108.44427490
_cell_angle_gamma   109.47869873
_symmetry_Int_Tables_number   1
_chemical_formula_structural   NaCu2H3(SO5)2
_chemical_formula_sum   'Na1 Cu2 H3 S2 O10'
_cell_volume   186.43396459
_cell_formula_units_Z   1
loop_
 _symmetry_equiv_pos_site_id
 _symmetry_equiv_pos_as_xyz
  1  'x, y, z'
loop_
 _atom_site_type_symbol
 _atom_site_label
 _atom_site_symmetry_multiplicity
 _atom_site_fract_x
 _atom_site_fract_y
 _atom_site_fract_z
 _atom_site_occupancy
  Na  Na0  1  0.00000000  0.00000000  0.00000000  1
  Cu  Cu1  1  0.50000002  0.50000002  0.50000000  1
  Cu  Cu2  1  0.00000000  0.00000000  0.50000000  1
  H  H3  1  0.51386801  0.20774801  0.72161599  1
  H  H4  1  0.48613202  0.79225203  0.27838400  1
  H  H5  1  0.50000001  0.00000000  0.49999999  1
  S  S6  1  0.79023502  0.40919201  0.19942699  1
  S  S7  1  0.20976501  0.59080802  0.80057300  1
  O  O8  1  0.30832802  0.70934402  0.01767200  1
  O  O9  1  0.69167202  0.29065601  0.98232799  1
  O  O10  1  0.99823903  0.30764201  0.30588099  1
  O  O11  1  0.00176101  0.69235802  0.69411900  1
  O  O12  1  0.53768602  0.32521101  0.25614000  1
  O  O13  1  0.46231402  0.67478902  0.74386000  1
  O  O14  1  0.06907101  0.28154601  0.74386000  1
  O  O15  1  0.93092903  0.71845402  0.25613999  1
  O  O16  1  0.41736801  0.15553201  0.57289999  1
  O  O17  1  0.58263203  0.84446803  0.42710000  1
