# generated using pymatgen
data_KCeSe2
_symmetry_space_group_name_H-M   'P 1'
_cell_length_a   4.48082781
_cell_length_b   4.48082781
_cell_length_c   8.40321922
_cell_angle_alpha   74.53713226
_cell_angle_beta   74.53713226
_cell_angle_gamma   60.00000381
_symmetry_Int_Tables_number   1
_chemical_formula_structural   KCeSe2
_chemical_formula_sum   'K1 Ce1 Se2'
_cell_volume   139.01785570
_cell_formula_units_Z   1
loop_
 _symmetry_equiv_pos_site_id
 _symmetry_equiv_pos_as_xyz
  1  'x, y, z'
loop_
 _atom_site_type_symbol
 _atom_site_label
 _atom_site_symmetry_multiplicity
 _atom_site_fract_x
 _atom_site_fract_y
 _atom_site_fract_z
 _atom_site_occupancy
  K  K0  1  0.00000000  0.00000000  0.00000000  1
  Ce  Ce1  1  0.49999999  0.49999999  0.49999999  1
  Se  Se2  1  0.23369499  0.23369500  0.29891499  1
  Se  Se3  1  0.76630498  0.76630499  0.70108498  1
