# generated using pymatgen
data_CsP2O5
_symmetry_space_group_name_H-M   'P 1'
_cell_length_a   4.72205591
_cell_length_b   4.73865318
_cell_length_c   6.21221638
_cell_angle_alpha   91.04569244
_cell_angle_beta   91.32403564
_cell_angle_gamma   119.54003906
_symmetry_Int_Tables_number   1
_chemical_formula_structural   CsP2O5
_chemical_formula_sum   'Cs1 P2 O5'
_cell_volume   120.83402164
_cell_formula_units_Z   1
loop_
 _symmetry_equiv_pos_site_id
 _symmetry_equiv_pos_as_xyz
  1  'x, y, z'
loop_
 _atom_site_type_symbol
 _atom_site_label
 _atom_site_symmetry_multiplicity
 _atom_site_fract_x
 _atom_site_fract_y
 _atom_site_fract_z
 _atom_site_occupancy
  Cs  Cs0  1  0.98615801  0.99961496  0.99077400  1
  P  P1  1  0.29903100  0.69109998  0.39726800  1
  P  P2  1  0.62554701  0.35227499  0.58083700  1
  O  O3  1  0.34334500  0.66685398  0.15937100  1
  O  O4  1  0.94426001  0.42741698  0.45972700  1
  O  O5  1  0.33898301  0.03524300  0.46352199  1
  O  O6  1  0.55059200  0.64110898  0.54238600  1
  O  O7  1  0.65408401  0.31338599  0.81911499  1
