# generated using pymatgen
data_Li2ZrAlOF11
_symmetry_space_group_name_H-M   'P 1'
_cell_length_a   5.44551134
_cell_length_b   5.79688883
_cell_length_c   8.19147682
_cell_angle_alpha   85.95299530
_cell_angle_beta   88.54029846
_cell_angle_gamma   88.47991943
_symmetry_Int_Tables_number   1
_chemical_formula_structural   Li2ZrAlOF11
_chemical_formula_sum   'Li2 Zr1 Al1 O1 F11'
_cell_volume   257.77276469
_cell_formula_units_Z   1
loop_
 _symmetry_equiv_pos_site_id
 _symmetry_equiv_pos_as_xyz
  1  'x, y, z'
loop_
 _atom_site_type_symbol
 _atom_site_label
 _atom_site_symmetry_multiplicity
 _atom_site_fract_x
 _atom_site_fract_y
 _atom_site_fract_z
 _atom_site_occupancy
  Li  Li0  1  0.00000000  0.00000000  0.00000000  1
  Li  Li1  1  0.49999999  0.50000000  0.50000002  1
  Zr  Zr2  1  0.00000000  0.00000000  0.50000002  1
  Al  Al3  1  0.49999999  0.50000000  -0.00000000  1
  F  F4  1  0.05245802  0.99023601  0.25261805  1
  O  O5  1  0.82091197  0.33697300  0.45558700  1
  F  F6  1  0.75617398  0.63476301  0.08078100  1
  F  F7  1  0.65490798  0.49258500  0.80826803  1
  F  F8  1  0.62955798  0.22156700  0.06265599  1
  F  F9  1  0.65970799  0.80506001  0.47523003  1
  F  F10  1  0.34029199  0.19494000  0.52477002  1
  F  F11  1  0.37044200  0.77843301  0.93734406  1
  F  F12  1  0.34509200  0.50741500  0.19173201  1
  F  F13  1  0.24382600  0.36523700  0.91921905  1
  F  F14  1  0.17908801  0.66302701  0.54441304  1
  F  F15  1  0.94754196  0.00976400  0.74738200  1
