# generated using pymatgen
data_CaCd(PbO2)2
_symmetry_space_group_name_H-M   'P 1'
_cell_length_a   3.68432999
_cell_length_b   6.55056000
_cell_length_c   6.70136976
_cell_angle_alpha   115.77547455
_cell_angle_beta   90.00000000
_cell_angle_gamma   90.00000000
_symmetry_Int_Tables_number   1
_chemical_formula_structural   CaCd(PbO2)2
_chemical_formula_sum   'Ca1 Cd1 Pb2 O4'
_cell_volume   145.64200692
_cell_formula_units_Z   1
loop_
 _symmetry_equiv_pos_site_id
 _symmetry_equiv_pos_as_xyz
  1  'x, y, z'
loop_
 _atom_site_type_symbol
 _atom_site_label
 _atom_site_symmetry_multiplicity
 _atom_site_fract_x
 _atom_site_fract_y
 _atom_site_fract_z
 _atom_site_occupancy
  Ca  Ca0  1  0.25000000  0.06358000  0.76553002  1
  Cd  Cd1  1  0.75000000  0.93641998  0.23446997  1
  Pb  Pb2  1  0.25000000  0.47221999  0.30663999  1
  Pb  Pb3  1  0.75000000  0.52777999  0.69336000  1
  O  O4  1  0.75000000  0.87404998  0.81105999  1
  O  O5  1  0.75000000  0.18422000  0.59275001  1
  O  O6  1  0.25000000  0.81577999  0.40724998  1
  O  O7  1  0.25000000  0.12595000  0.18894000  1
