# generated using pymatgen
data_Li2NiPO4
_symmetry_space_group_name_H-M   'P 1'
_cell_length_a   4.86794281
_cell_length_b   5.39064121
_cell_length_c   6.22185802
_cell_angle_alpha   90.00000000
_cell_angle_beta   90.00000000
_cell_angle_gamma   90.00000000
_symmetry_Int_Tables_number   1
_chemical_formula_structural   Li2NiPO4
_chemical_formula_sum   'Li4 Ni2 P2 O8'
_cell_volume   163.26984912
_cell_formula_units_Z   2
loop_
 _symmetry_equiv_pos_site_id
 _symmetry_equiv_pos_as_xyz
  1  'x, y, z'
loop_
 _atom_site_type_symbol
 _atom_site_label
 _atom_site_symmetry_multiplicity
 _atom_site_fract_x
 _atom_site_fract_y
 _atom_site_fract_z
 _atom_site_occupancy
  Li  Li0  1  0.51536202  0.85466797  0.00000000  1
  Li  Li1  1  0.01536200  0.14533199  0.50000000  1
  Li  Li2  1  0.50836002  0.32205799  0.25714300  1
  Li  Li3  1  0.50836002  0.32205799  0.74285700  1
  Ni  Ni4  1  0.00836000  0.67794197  0.24285700  1
  Ni  Ni5  1  0.00836000  0.67794197  0.75714300  1
  P  P6  1  0.50283002  0.83374897  0.50000000  1
  P  P7  1  0.00283000  0.16625099  0.00000000  1
  O  O8  1  0.59602502  0.09644700  0.50000000  1
  O  O9  1  0.09602500  0.90355296  0.00000000  1
  O  O10  1  0.68731703  0.19697699  0.00000000  1
  O  O11  1  0.18731701  0.80302297  0.50000000  1
  O  O12  1  0.59757302  0.68131197  0.30289800  1
  O  O13  1  0.59757302  0.68131197  0.69710200  1
  O  O14  1  0.09757300  0.31868799  0.19710200  1
  O  O15  1  0.09757300  0.31868799  0.80289800  1
