# generated using pymatgen
data_CaThI6
_symmetry_space_group_name_H-M   'P 1'
_cell_length_a   7.82364607
_cell_length_b   7.82364607
_cell_length_c   14.21969986
_cell_angle_alpha   90.00000000
_cell_angle_beta   90.00000000
_cell_angle_gamma   120.00000000
_symmetry_Int_Tables_number   1
_chemical_formula_structural   CaThI6
_chemical_formula_sum   'Ca2 Th2 I12'
_cell_volume   753.77104734
_cell_formula_units_Z   2
loop_
 _symmetry_equiv_pos_site_id
 _symmetry_equiv_pos_as_xyz
  1  'x, y, z'
loop_
 _atom_site_type_symbol
 _atom_site_label
 _atom_site_symmetry_multiplicity
 _atom_site_fract_x
 _atom_site_fract_y
 _atom_site_fract_z
 _atom_site_occupancy
  Ca  Ca0  1  0.33333332  0.66666664  0.25000000  1
  Ca  Ca1  1  0.66666666  0.33333332  0.75000001  1
  Th  Th2  1  0.00000000  0.00000000  0.00000000  1
  Th  Th3  1  0.00000000  0.00000000  0.50000000  1
  I  I4  1  0.33744099  0.34548499  0.37414900  1
  I  I5  1  0.00804399  0.66255898  0.37414900  1
  I  I6  1  0.66255899  0.00804400  0.87414901  1
  I  I7  1  0.34548499  0.33744099  0.87414901  1
  I  I8  1  0.99195598  0.65451498  0.87414901  1
  I  I9  1  0.34548500  0.00804400  0.62585101  1
  I  I10  1  0.99195599  0.33744099  0.62585101  1
  I  I11  1  0.66255899  0.65451498  0.62585101  1
  I  I12  1  0.33744098  0.99195596  0.12585100  1
  I  I13  1  0.65451499  0.66255898  0.12585100  1
  I  I14  1  0.00804400  0.34548499  0.12585100  1
  I  I15  1  0.65451498  0.99195596  0.37414900  1
