# generated using pymatgen
data_ThU(BiO4)2
_symmetry_space_group_name_H-M   'P 1'
_cell_length_a   5.14741993
_cell_length_b   5.30178595
_cell_length_c   8.48933601
_cell_angle_alpha   90.00000000
_cell_angle_beta   90.00000000
_cell_angle_gamma   90.00000000
_symmetry_Int_Tables_number   1
_chemical_formula_structural   ThU(BiO4)2
_chemical_formula_sum   'Th1 U1 Bi2 O8'
_cell_volume   231.67838272
_cell_formula_units_Z   1
loop_
 _symmetry_equiv_pos_site_id
 _symmetry_equiv_pos_as_xyz
  1  'x, y, z'
loop_
 _atom_site_type_symbol
 _atom_site_label
 _atom_site_symmetry_multiplicity
 _atom_site_fract_x
 _atom_site_fract_y
 _atom_site_fract_z
 _atom_site_occupancy
  U  U0  1  0.25393000  0.00312100  0.62257200  1
  Bi  Bi1  1  0.75393001  0.49687901  0.37742800  1
  Th  Th2  1  0.74607001  0.50312101  0.87742800  1
  Bi  Bi3  1  0.24607000  0.99687901  0.12257200  1
  O  O4  1  0.09961100  0.75721401  0.79915300  1
  O  O5  1  0.59961101  0.74278601  0.20084700  1
  O  O6  1  0.90038901  0.25721400  0.70084700  1
  O  O7  1  0.40038901  0.24278600  0.29915300  1
  O  O8  1  0.52289101  0.13320100  0.95643300  1
  O  O9  1  0.02289100  0.36679900  0.04356700  1
  O  O10  1  0.47710901  0.63320101  0.54356700  1
  O  O11  1  0.97710901  0.86679901  0.45643300  1
