# generated using pymatgen
data_ZrTiCr3FeN4
_symmetry_space_group_name_H-M   'P 1'
_cell_length_a   5.33417606
_cell_length_b   6.05882788
_cell_length_c   5.33417606
_cell_angle_alpha   116.11656189
_cell_angle_beta   90.00000000
_cell_angle_gamma   116.11656189
_symmetry_Int_Tables_number   1
_chemical_formula_structural   ZrTiCr3FeN4
_chemical_formula_sum   'Zr1 Ti1 Cr3 Fe1 N4'
_cell_volume   134.91451586
_cell_formula_units_Z   1
loop_
 _symmetry_equiv_pos_site_id
 _symmetry_equiv_pos_as_xyz
  1  'x, y, z'
loop_
 _atom_site_type_symbol
 _atom_site_label
 _atom_site_symmetry_multiplicity
 _atom_site_fract_x
 _atom_site_fract_y
 _atom_site_fract_z
 _atom_site_occupancy
  Ti  Ti0  1  0.00000000  0.00000000  0.00000000  1
  Zr  Zr1  1  0.25000004  0.50000001  0.75000003  1
  Fe  Fe2  1  0.12500006  0.75000002  0.37500006  1
  Cr  Cr3  1  0.62500001  0.25000001  0.87500001  1
  Cr  Cr4  1  0.62500001  0.25000001  0.37500002  1
  Cr  Cr5  1  0.62500005  0.75000002  0.37500006  1
  N  N6  1  0.76107103  0.52214201  0.76107103  1
  N  N7  1  0.48892907  0.97785803  0.98892907  1
  N  N8  1  0.23892904  0.47785801  0.23892904  1
  N  N9  1  0.01107100  0.02214200  0.51107100  1
