# generated using pymatgen
data_Sr3Ca3(WO6)2
_symmetry_space_group_name_H-M   'P 1'
_cell_length_a   6.92741299
_cell_length_b   6.92741299
_cell_length_c   6.92741299
_cell_angle_alpha   91.60935211
_cell_angle_beta   91.60935211
_cell_angle_gamma   91.60935211
_symmetry_Int_Tables_number   1
_chemical_formula_structural   Sr3Ca3(WO6)2
_chemical_formula_sum   'Sr3 Ca3 W2 O12'
_cell_volume   332.03904595
_cell_formula_units_Z   1
loop_
 _symmetry_equiv_pos_site_id
 _symmetry_equiv_pos_as_xyz
  1  'x, y, z'
loop_
 _atom_site_type_symbol
 _atom_site_label
 _atom_site_symmetry_multiplicity
 _atom_site_fract_x
 _atom_site_fract_y
 _atom_site_fract_z
 _atom_site_occupancy
  Sr  Sr0  1  0.74729593  0.93532998  0.43813807  1
  Ca  Ca1  1  0.06466997  0.56186199  0.25270403  1
  Sr  Sr2  1  0.56186197  0.25270399  0.06467003  1
  Ca  Ca3  1  0.43813795  0.74729598  0.93533007  1
  Ca  Ca4  1  0.93532996  0.43813799  0.74729607  1
  Sr  Sr5  1  0.25270399  0.06467000  0.56186203  1
  W  W6  1  0.49999996  0.49999999  0.50000005  1
  W  W7  1  0.00000000  0.00000000  0.00000000  1
  O  O8  1  0.72896193  0.93252298  0.05902806  1
  O  O9  1  0.06747695  0.94097198  0.27103804  1
  O  O10  1  0.42657996  0.54657099  0.22869804  1
  O  O11  1  0.94097196  0.27103799  0.06747704  1
  O  O12  1  0.45342895  0.77130198  0.57342006  1
  O  O13  1  0.77130195  0.57341999  0.45342906  1
  O  O14  1  0.22869797  0.42657999  0.54657104  1
  O  O15  1  0.54657098  0.22869799  0.42658004  1
  O  O16  1  0.05902796  0.72896198  0.93252305  1
  O  O17  1  0.57341996  0.45342899  0.77130206  1
  O  O18  1  0.93252298  0.05902800  0.72896206  1
  O  O19  1  0.27103799  0.06747700  0.94097204  1
