# generated using pymatgen
data_Li2PHO5
_symmetry_space_group_name_H-M   'P 1'
_cell_length_a   5.17312717
_cell_length_b   5.92753601
_cell_length_c   8.08577442
_cell_angle_alpha   110.22357178
_cell_angle_beta   104.80370331
_cell_angle_gamma   96.18270874
_symmetry_Int_Tables_number   1
_chemical_formula_structural   Li2PHO5
_chemical_formula_sum   'Li4 P2 H2 O10'
_cell_volume   219.61973934
_cell_formula_units_Z   2
loop_
 _symmetry_equiv_pos_site_id
 _symmetry_equiv_pos_as_xyz
  1  'x, y, z'
loop_
 _atom_site_type_symbol
 _atom_site_label
 _atom_site_symmetry_multiplicity
 _atom_site_fract_x
 _atom_site_fract_y
 _atom_site_fract_z
 _atom_site_occupancy
  Li  Li0  1  0.07416405  0.42495601  0.82407201  1
  Li  Li1  1  0.92583608  0.57504402  0.17592804  1
  Li  Li2  1  0.50000007  0.50000002  0.50000002  1
  Li  Li3  1  0.00000000  0.00000000  0.00000000  1
  P  P4  1  0.57058811  0.86563403  0.22026305  1
  P  P5  1  0.42941202  0.13436600  0.77973700  1
  H  H6  1  0.92788605  0.25229801  0.30020903  1
  H  H7  1  0.07211408  0.74770202  0.69979102  1
  O  O8  1  0.94076810  0.69553302  0.76068104  1
  O  O9  1  0.67564103  0.13642600  0.35291101  1
  O  O10  1  0.33466704  0.31505901  0.69139601  1
  O  O11  1  0.68691110  0.80877203  0.04964405  1
  O  O12  1  0.24621209  0.79984003  0.13594704  1
  O  O13  1  0.75378804  0.20016001  0.86405301  1
  O  O14  1  0.31308903  0.19122801  0.95035600  1
  O  O15  1  0.66533309  0.68494102  0.30860404  1
  O  O16  1  0.32435910  0.86357403  0.64708904  1
  O  O17  1  0.05923203  0.30446701  0.23931901  1
