# generated using pymatgen
data_NaAl2O5
_symmetry_space_group_name_H-M   'P 1'
_cell_length_a   5.39074850
_cell_length_b   5.39074850
_cell_length_c   7.03942013
_cell_angle_alpha   104.90505981
_cell_angle_beta   104.90505981
_cell_angle_gamma   105.48564911
_symmetry_Int_Tables_number   1
_chemical_formula_structural   NaAl2O5
_chemical_formula_sum   'Na2 Al4 O10'
_cell_volume   178.46154365
_cell_formula_units_Z   2
loop_
 _symmetry_equiv_pos_site_id
 _symmetry_equiv_pos_as_xyz
  1  'x, y, z'
loop_
 _atom_site_type_symbol
 _atom_site_label
 _atom_site_symmetry_multiplicity
 _atom_site_fract_x
 _atom_site_fract_y
 _atom_site_fract_z
 _atom_site_occupancy
  Na  Na0  1  0.16436698  0.83563300  0.74999998  1
  Na  Na1  1  0.83563300  0.16436700  0.24999999  1
  Al  Al2  1  0.49999999  0.50000000  -0.00000000  1
  Al  Al3  1  0.49999999  0.50000000  0.49999998  1
  Al  Al4  1  0.81453700  0.18546300  0.74999998  1
  Al  Al5  1  0.18546298  0.81453700  0.24999999  1
  O  O6  1  0.80248000  0.39120700  0.61120198  1
  O  O7  1  0.60879300  0.19752000  0.88879798  1
  O  O8  1  0.19751999  0.60879300  0.38879799  1
  O  O9  1  0.39120698  0.80248000  0.11120199  1
  O  O10  1  0.73924398  0.86827100  0.59499298  1
  O  O11  1  0.26075600  0.13172900  0.40500699  1
  O  O12  1  0.13172899  0.26075600  0.90500698  1
  O  O13  1  0.86827099  0.73924400  0.09499299  1
  O  O14  1  0.43222199  0.56777800  0.74999998  1
  O  O15  1  0.56777799  0.43222200  0.24999999  1
