# generated using pymatgen
data_CaH2
_symmetry_space_group_name_H-M   'P 1'
_cell_length_a   3.49161601
_cell_length_b   5.84784985
_cell_length_c   6.83813906
_cell_angle_alpha   90.00000000
_cell_angle_beta   90.00000000
_cell_angle_gamma   90.00000000
_symmetry_Int_Tables_number   1
_chemical_formula_structural   CaH2
_chemical_formula_sum   'Ca4 H8'
_cell_volume   139.62417410
_cell_formula_units_Z   4
loop_
 _symmetry_equiv_pos_site_id
 _symmetry_equiv_pos_as_xyz
  1  'x, y, z'
loop_
 _atom_site_type_symbol
 _atom_site_label
 _atom_site_symmetry_multiplicity
 _atom_site_fract_x
 _atom_site_fract_y
 _atom_site_fract_z
 _atom_site_occupancy
  Ca  Ca0  1  0.75000000  0.47451201  0.66316499  1
  Ca  Ca1  1  0.75000000  0.97451203  0.83683499  1
  Ca  Ca2  1  0.25000000  0.52548801  0.33683500  1
  Ca  Ca3  1  0.25000000  0.02548800  0.16316500  1
  H  H4  1  0.75000000  0.35413601  0.06655500  1
  H  H5  1  0.75000000  0.85413602  0.43344500  1
  H  H6  1  0.25000000  0.64586402  0.93344499  1
  H  H7  1  0.25000000  0.14586400  0.56655500  1
  H  H8  1  0.75000000  0.73258702  0.12681600  1
  H  H9  1  0.75000000  0.23258701  0.37318400  1
  H  H10  1  0.25000000  0.26741301  0.87318399  1
  H  H11  1  0.25000000  0.76741302  0.62681599  1
