# generated using pymatgen
data_ScInN2
_symmetry_space_group_name_H-M   'P 1'
_cell_length_a   3.41810226
_cell_length_b   3.41810226
_cell_length_c   6.51510572
_cell_angle_alpha   74.79215240
_cell_angle_beta   74.79215240
_cell_angle_gamma   59.99999619
_symmetry_Int_Tables_number   1
_chemical_formula_structural   ScInN2
_chemical_formula_sum   'Sc1 In1 N2'
_cell_volume   62.82390006
_cell_formula_units_Z   1
loop_
 _symmetry_equiv_pos_site_id
 _symmetry_equiv_pos_as_xyz
  1  'x, y, z'
loop_
 _atom_site_type_symbol
 _atom_site_label
 _atom_site_symmetry_multiplicity
 _atom_site_fract_x
 _atom_site_fract_y
 _atom_site_fract_z
 _atom_site_occupancy
  In  In0  1  0.85503596  0.85503598  0.43489205  1
  Sc  Sc1  1  0.99866496  0.99866498  0.00400507  1
  N  N2  1  0.72555197  0.72555198  0.82334402  1
  N  N3  1  0.26774699  0.26774699  0.19675901  1
