# generated using pymatgen
data_Li6BH9
_symmetry_space_group_name_H-M   'P 1'
_cell_length_a   4.66678619
_cell_length_b   6.41248178
_cell_length_c   6.41248178
_cell_angle_alpha   90.50610352
_cell_angle_beta   90.00000000
_cell_angle_gamma   90.00000000
_symmetry_Int_Tables_number   1
_chemical_formula_structural   Li6BH9
_chemical_formula_sum   'Li6 B1 H9'
_cell_volume   191.89040091
_cell_formula_units_Z   1
loop_
 _symmetry_equiv_pos_site_id
 _symmetry_equiv_pos_as_xyz
  1  'x, y, z'
loop_
 _atom_site_type_symbol
 _atom_site_label
 _atom_site_symmetry_multiplicity
 _atom_site_fract_x
 _atom_site_fract_y
 _atom_site_fract_z
 _atom_site_occupancy
  Li  Li0  1  0.99999996  0.76005998  0.23994003  1
  Li  Li1  1  0.99999996  0.23993999  0.76005999  1
  Li  Li2  1  0.39114198  0.00000000  0.49999999  1
  Li  Li3  1  0.60885797  0.49999999  0.00000002  1
  Li  Li4  1  0.49999998  0.00000000  0.00000000  1
  Li  Li5  1  0.49999998  0.49999999  0.50000001  1
  H  H6  1  0.70568497  0.79108698  0.00497204  1
  B  B7  1  0.29431499  0.99502797  0.20891304  1
  H  H8  1  0.74096497  0.00000000  0.49999999  1
  H  H9  1  0.29431499  0.00497200  0.79108698  1
  H  H10  1  0.70568497  0.20891299  0.99502798  1
  H  H11  1  0.27050099  0.28091999  0.50716400  1
  H  H12  1  0.72949897  0.49283599  0.71908000  1
  H  H13  1  0.72949897  0.50716399  0.28092001  1
  H  H14  1  0.25903499  0.49999999  0.00000002  1
  H  H15  1  0.27050099  0.71907998  0.49283602  1
