# generated using pymatgen
data_Cs3RbCuAs3F12
_symmetry_space_group_name_H-M   'P 1'
_cell_length_a   7.85111284
_cell_length_b   7.85111284
_cell_length_c   7.86609602
_cell_angle_alpha   109.44766998
_cell_angle_beta   109.36259460
_cell_angle_gamma   109.52638245
_symmetry_Int_Tables_number   1
_chemical_formula_structural   Cs3RbCuAs3F12
_chemical_formula_sum   'Cs3 Rb1 Cu1 As3 F12'
_cell_volume   373.60374638
_cell_formula_units_Z   1
loop_
 _symmetry_equiv_pos_site_id
 _symmetry_equiv_pos_as_xyz
  1  'x, y, z'
loop_
 _atom_site_type_symbol
 _atom_site_label
 _atom_site_symmetry_multiplicity
 _atom_site_fract_x
 _atom_site_fract_y
 _atom_site_fract_z
 _atom_site_occupancy
  Cs  Cs0  1  0.99720705  0.49720702  0.50000002  1
  Cs  Cs1  1  0.49725305  0.49725302  1.00000002  1
  Cs  Cs2  1  0.00359800  0.00359800  1.00000000  1
  Rb  Rb3  1  0.50656101  0.00656100  0.50000001  1
  Cu  Cu4  1  0.02268904  0.52401502  0.03685001  1
  As  As5  1  0.50939304  0.47548202  0.50457902  1
  As  As6  1  0.97090302  0.00481400  0.49542101  1
  As  As7  1  0.48716508  0.98583904  0.96315003  1
  F  F8  1  0.26378708  0.98442304  0.78937402  1
  F  F9  1  0.80466201  0.01475100  0.27790101  1
  F  F10  1  0.22525006  0.74084303  0.05028302  1
  F  F11  1  0.19504904  0.47441302  0.21062601  1
  F  F12  1  0.96219907  0.67526403  0.21945303  1
  F  F13  1  0.31006003  0.27238201  0.50882001  1
  F  F14  1  0.69056002  0.17496701  0.94971701  1
  F  F15  1  0.73685005  0.52676102  0.72209902  1
  F  F16  1  0.52564603  0.30443101  0.29113101  1
  F  F17  1  0.01330002  0.23451501  0.70886901  1
  F  F18  1  0.76356207  0.80124003  0.49118003  1
  F  F19  1  0.45581106  0.74274603  0.78054702  1
