# generated using pymatgen
data_TiGa4SiP14
_symmetry_space_group_name_H-M   'P 1'
_cell_length_a   5.05620813
_cell_length_b   5.78798008
_cell_length_c   11.09396744
_cell_angle_alpha   89.57826996
_cell_angle_beta   89.03443909
_cell_angle_gamma   64.10105896
_symmetry_Int_Tables_number   1
_chemical_formula_structural   TiGa4SiP14
_chemical_formula_sum   'Ti1 Ga4 Si1 P14'
_cell_volume   292.01835245
_cell_formula_units_Z   1
loop_
 _symmetry_equiv_pos_site_id
 _symmetry_equiv_pos_as_xyz
  1  'x, y, z'
loop_
 _atom_site_type_symbol
 _atom_site_label
 _atom_site_symmetry_multiplicity
 _atom_site_fract_x
 _atom_site_fract_y
 _atom_site_fract_z
 _atom_site_occupancy
  Ti  Ti0  1  0.07590305  0.84819396  0.74999996  1
  Ga  Ga1  1  0.92409698  0.15180599  0.24999999  1
  Ga  Ga2  1  0.50000002  0.49999998  0.49999997  1
  Ga  Ga3  1  0.00000003  0.49999998  -0.00000002  1
  Ga  Ga4  1  0.66325003  0.79355396  0.47591696  1
  P  P5  1  0.45680400  0.20644599  0.97591698  1
  Si  Si6  1  0.94504299  0.18642499  0.44999898  1
  P  P7  1  0.86853199  0.18642499  0.05000099  1
  P  P8  1  0.33675000  0.20644599  0.52408298  1
  P  P9  1  0.77371503  0.85552996  0.28413896  1
  P  P10  1  0.62924499  0.14446999  0.78413898  1
  P  P11  1  0.13146804  0.81357496  0.94999896  1
  P  P12  1  0.93401401  0.53576698  0.79302997  1
  P  P13  1  0.22628500  0.14446999  0.71586098  1
  P  P14  1  0.54319603  0.79355396  0.02408297  1
  P  P15  1  0.37075504  0.85552996  0.21586097  1
  P  P16  1  0.46978102  0.46423298  0.29302998  1
  P  P17  1  0.05495705  0.81357496  0.55000096  1
  P  P18  1  0.53021902  0.53576698  0.70696997  1
  P  P19  1  0.06598603  0.46423298  0.20696998  1
