# generated using pymatgen
data_Cs2IBr6
_symmetry_space_group_name_H-M   'P 1'
_cell_length_a   7.33017111
_cell_length_b   7.96062803
_cell_length_c   7.96062899
_cell_angle_alpha   60.00000381
_cell_angle_beta   90.00000000
_cell_angle_gamma   90.00000000
_symmetry_Int_Tables_number   1
_chemical_formula_structural   Cs2IBr6
_chemical_formula_sum   'Cs2 I1 Br6'
_cell_volume   402.29022136
_cell_formula_units_Z   1
loop_
 _symmetry_equiv_pos_site_id
 _symmetry_equiv_pos_as_xyz
  1  'x, y, z'
loop_
 _atom_site_type_symbol
 _atom_site_label
 _atom_site_symmetry_multiplicity
 _atom_site_fract_x
 _atom_site_fract_y
 _atom_site_fract_z
 _atom_site_occupancy
  Cs  Cs0  1  0.00000000  0.00000000  0.00000000  1
  Cs  Cs1  1  0.49999999  0.33333333  0.33333333  1
  I  I2  1  0.49999999  0.66666666  0.66666666  1
  Br  Br3  1  0.25653300  0.34658900  0.65341099  1
  Br  Br4  1  0.74346699  0.65341099  0.34658900  1
  Br  Br5  1  0.25653300  0.65341099  0.99999998  1
  Br  Br6  1  0.74346699  0.34658900  0.00000000  1
  Br  Br7  1  0.74346699  0.00000000  0.65341098  1
  Br  Br8  1  0.25653300  0.00000000  0.34658899  1
