# generated using pymatgen
data_K2Ba2(ZnP)3
_symmetry_space_group_name_H-M   'P 1'
_cell_length_a   6.57483196
_cell_length_b   7.73143387
_cell_length_c   7.73143482
_cell_angle_alpha   60.00000381
_cell_angle_beta   90.00000000
_cell_angle_gamma   90.00000000
_symmetry_Int_Tables_number   1
_chemical_formula_structural   K2Ba2(ZnP)3
_chemical_formula_sum   'K2 Ba2 Zn3 P3'
_cell_volume   340.35759844
_cell_formula_units_Z   1
loop_
 _symmetry_equiv_pos_site_id
 _symmetry_equiv_pos_as_xyz
  1  'x, y, z'
loop_
 _atom_site_type_symbol
 _atom_site_label
 _atom_site_symmetry_multiplicity
 _atom_site_fract_x
 _atom_site_fract_y
 _atom_site_fract_z
 _atom_site_occupancy
  Ba  Ba0  1  0.75000000  0.66666667  0.66666667  1
  Ba  Ba1  1  0.25000000  0.33333334  0.33333333  1
  K  K2  1  0.50000000  0.00000000  0.00000000  1
  K  K3  1  0.00000000  0.00000000  0.00000000  1
  P  P4  1  0.75000000  0.15561500  0.68876999  1
  Zn  Zn5  1  0.25000000  0.31123000  0.84438499  1
  Zn  Zn6  1  0.75000000  0.68877000  0.15561501  1
  Zn  Zn7  1  0.25000000  0.84438501  0.31123001  1
  P  P8  1  0.25000000  0.84438501  0.84438500  1
  P  P9  1  0.75000000  0.15561500  0.15561500  1
