# generated using pymatgen
data_In(GaSe2)2
_symmetry_space_group_name_H-M   'P 1'
_cell_length_a   5.88591814
_cell_length_b   5.88591814
_cell_length_c   6.95214605
_cell_angle_alpha   115.04415894
_cell_angle_beta   115.04415894
_cell_angle_gamma   90.00000000
_symmetry_Int_Tables_number   1
_chemical_formula_structural   In(GaSe2)2
_chemical_formula_sum   'In1 Ga2 Se4'
_cell_volume   192.92190587
_cell_formula_units_Z   1
loop_
 _symmetry_equiv_pos_site_id
 _symmetry_equiv_pos_as_xyz
  1  'x, y, z'
loop_
 _atom_site_type_symbol
 _atom_site_label
 _atom_site_symmetry_multiplicity
 _atom_site_fract_x
 _atom_site_fract_y
 _atom_site_fract_z
 _atom_site_occupancy
  In  In0  1  0.50000001  0.50000000  0.00000003  1
  Ga  Ga1  1  0.25000002  0.74999999  0.50000003  1
  Ga  Ga2  1  0.75000000  0.25000000  0.50000002  1
  Se  Se3  1  0.08622602  0.63556100  0.76227502  1
  Se  Se4  1  0.67604799  0.12671300  0.76227402  1
  Se  Se5  1  0.36443900  0.32395200  0.23772602  1
  Se  Se6  1  0.87328601  0.91377299  0.23772505  1
