# generated using pymatgen
data_Zr(Sb2Rh)5
_symmetry_space_group_name_H-M   'P 1'
_cell_length_a   6.55376196
_cell_length_b   6.55376196
_cell_length_c   6.83666992
_cell_angle_alpha   90.00000000
_cell_angle_beta   90.00000000
_cell_angle_gamma   90.00000000
_symmetry_Int_Tables_number   1
_chemical_formula_structural   Zr(Sb2Rh)5
_chemical_formula_sum   'Zr1 Sb10 Rh5'
_cell_volume   293.64725055
_cell_formula_units_Z   1
loop_
 _symmetry_equiv_pos_site_id
 _symmetry_equiv_pos_as_xyz
  1  'x, y, z'
loop_
 _atom_site_type_symbol
 _atom_site_label
 _atom_site_symmetry_multiplicity
 _atom_site_fract_x
 _atom_site_fract_y
 _atom_site_fract_z
 _atom_site_occupancy
  Zr  Zr0  1  0.65461500  0.34538500  0.73511101  1
  Sb  Sb1  1  0.65461500  0.34538500  0.26488900  1
  Sb  Sb2  1  0.84538501  0.84538501  0.76488901  1
  Sb  Sb3  1  0.15461500  0.15461500  0.76488901  1
  Sb  Sb4  1  -0.00000000  0.50000000  0.00000000  1
  Sb  Sb5  1  0.50000000  0.00000000  0.50000001  1
  Sb  Sb6  1  0.84538501  0.84538501  0.23511100  1
  Sb  Sb7  1  0.34538500  0.65461500  0.73511101  1
  Sb  Sb8  1  0.15461500  0.15461500  0.23511100  1
  Sb  Sb9  1  0.50000000  0.00000000  -0.00000000  1
  Rh  Rh10  1  0.34538500  0.65461500  0.26488900  1
  Sb  Sb11  1  -0.00000000  0.50000000  0.50000001  1
  Rh  Rh12  1  0.83969001  0.16031000  -0.00000000  1
  Rh  Rh13  1  0.66031000  0.66031000  0.50000001  1
  Rh  Rh14  1  0.16031000  0.83969001  0.00000000  1
  Rh  Rh15  1  0.33969000  0.33969000  0.50000001  1
