# generated using pymatgen
data_BeZnSiNi2P3O8
_symmetry_space_group_name_H-M   'P 1'
_cell_length_a   4.74381590
_cell_length_b   4.98085594
_cell_length_c   6.13723516
_cell_angle_alpha   90.00000000
_cell_angle_beta   89.99368286
_cell_angle_gamma   90.00000000
_symmetry_Int_Tables_number   1
_chemical_formula_structural   BeZnSiNi2P3O8
_chemical_formula_sum   'Be1 Zn1 Si1 Ni2 P3 O8'
_cell_volume   145.01220941
_cell_formula_units_Z   1
loop_
 _symmetry_equiv_pos_site_id
 _symmetry_equiv_pos_as_xyz
  1  'x, y, z'
loop_
 _atom_site_type_symbol
 _atom_site_label
 _atom_site_symmetry_multiplicity
 _atom_site_fract_x
 _atom_site_fract_y
 _atom_site_fract_z
 _atom_site_occupancy
  Zn  Zn0  1  0.00147400  0.17470300  0.49949999  1
  Be  Be1  1  0.50147401  0.82529701  0.99950000  1
  Ni  Ni2  1  0.50163101  0.33549900  0.74738001  1
  Ni  Ni3  1  0.00163100  0.66450101  0.24738000  1
  Si  Si4  1  0.49132301  0.31994100  0.24832902  1
  P  P5  1  0.99132302  0.68005901  0.74832903  1
  P  P6  1  0.99119702  0.17992800  0.99714802  1
  P  P7  1  0.49119701  0.82007201  0.49714801  1
  O  O8  1  0.64572401  0.20039900  0.02818303  1
  O  O9  1  0.64531201  0.69987601  0.71686701  1
  O  O10  1  0.08144900  0.86166701  0.96631998  1
  O  O11  1  0.14572400  0.79960101  0.52818300  1
  O  O12  1  0.58144901  0.13833300  0.46632002  1
  O  O13  1  0.08189100  0.35897800  0.78127299  1
  O  O14  1  0.58189101  0.64102201  0.28127302  1
  O  O15  1  0.14531200  0.30012400  0.21686700  1
