# generated using pymatgen
data_KPbF3
_symmetry_space_group_name_H-M   'P 1'
_cell_length_a   6.78023052
_cell_length_b   6.78023052
_cell_length_c   6.78023052
_cell_angle_alpha   64.01676941
_cell_angle_beta   64.01676941
_cell_angle_gamma   64.01676178
_symmetry_Int_Tables_number   1
_chemical_formula_structural   KPbF3
_chemical_formula_sum   'K2 Pb2 F6'
_cell_volume   239.89853037
_cell_formula_units_Z   2
loop_
 _symmetry_equiv_pos_site_id
 _symmetry_equiv_pos_as_xyz
  1  'x, y, z'
loop_
 _atom_site_type_symbol
 _atom_site_label
 _atom_site_symmetry_multiplicity
 _atom_site_fract_x
 _atom_site_fract_y
 _atom_site_fract_z
 _atom_site_occupancy
  K  K0  1  0.74531293  0.74531302  0.74531309  1
  K  K1  1  0.24531298  0.24531301  0.24531303  1
  Pb  Pb2  1  0.99687791  0.99687802  0.99687812  1
  Pb  Pb3  1  0.49687795  0.49687801  0.49687806  1
  F  F4  1  0.82162399  0.12496500  0.28272005  1
  F  F5  1  0.12496497  0.28272001  0.82162402  1
  F  F6  1  0.28271993  0.82162402  0.12496508  1
  F  F7  1  0.78271994  0.62496502  0.32162409  1
  F  F8  1  0.32162393  0.78272002  0.62496507  1
  F  F9  1  0.62496497  0.32162401  0.78272005  1
