# generated using pymatgen
data_RbU3I13
_symmetry_space_group_name_H-M   'P 1'
_cell_length_a   9.18665981
_cell_length_b   9.18665981
_cell_length_c   12.14200974
_cell_angle_alpha   67.77154541
_cell_angle_beta   67.77154541
_cell_angle_gamma   60.00000000
_symmetry_Int_Tables_number   1
_chemical_formula_structural   RbU3I13
_chemical_formula_sum   'Rb1 U3 I13'
_cell_volume   798.28941118
_cell_formula_units_Z   1
loop_
 _symmetry_equiv_pos_site_id
 _symmetry_equiv_pos_as_xyz
  1  'x, y, z'
loop_
 _atom_site_type_symbol
 _atom_site_label
 _atom_site_symmetry_multiplicity
 _atom_site_fract_x
 _atom_site_fract_y
 _atom_site_fract_z
 _atom_site_occupancy
  Rb  Rb0  1  0.67143300  0.67143301  0.98570100  1
  U  U1  1  0.32856700  0.32856701  0.01429901  1
  U  U2  1  0.33151900  0.46197801  0.35453200  1
  U  U3  1  0.85197101  0.33151901  0.35453201  1
  I  I4  1  0.53802200  0.14802900  0.64546800  1
  I  I5  1  0.46197799  0.85197101  0.35453201  1
  I  I6  1  0.14802899  0.66848101  0.64546800  1
  I  I7  1  0.66848100  0.53802201  0.64546800  1
  I  I8  1  0.11919400  0.11919400  0.64241799  1
  I  I9  1  0.95809800  0.75185301  0.11887902  1
  I  I10  1  0.75185301  0.17117000  0.11887901  1
  I  I11  1  0.17116999  0.95809802  0.11887901  1
  I  I12  1  0.24814699  0.82883001  0.88112100  1
  I  I13  1  0.04190200  0.24814700  0.88112099  1
  I  I14  1  0.88080600  0.88080601  0.35758201  1
  I  I15  1  0.82883001  0.04190200  0.88112099  1
  I  I16  1  0.50000000  0.50000001  0.50000000  1
