# generated using pymatgen
data_LaS2
_symmetry_space_group_name_H-M   'P 1'
_cell_length_a   4.87128019
_cell_length_b   4.87128067
_cell_length_c   12.06574821
_cell_angle_alpha   90.00000000
_cell_angle_beta   90.00000000
_cell_angle_gamma   119.99999237
_symmetry_Int_Tables_number   1
_chemical_formula_structural   LaS2
_chemical_formula_sum   'La3 S6'
_cell_volume   247.95403912
_cell_formula_units_Z   3
loop_
 _symmetry_equiv_pos_site_id
 _symmetry_equiv_pos_as_xyz
  1  'x, y, z'
loop_
 _atom_site_type_symbol
 _atom_site_label
 _atom_site_symmetry_multiplicity
 _atom_site_fract_x
 _atom_site_fract_y
 _atom_site_fract_z
 _atom_site_occupancy
  La  La0  1  0.34297997  0.34299199  0.99998898  1
  La  La1  1  0.65700891  0.99998897  0.66666665  1
  La  La2  1  0.00001196  0.65702098  0.33333333  1
  S  S3  1  0.67522997  0.00895800  0.91590098  1
  S  S4  1  0.99104192  0.66627198  0.58256699  1
  S  S5  1  0.33372797  0.32476999  0.24923400  1
  S  S6  1  0.00895496  0.67526398  0.08407700  1
  S  S7  1  0.66630891  0.99104397  0.41741099  1
  S  S8  1  0.32473497  0.33368999  0.75074399  1
