# generated using pymatgen
data_LiSnGe2POs2N5
_symmetry_space_group_name_H-M   'P 1'
_cell_length_a   5.65032387
_cell_length_b   5.65032387
_cell_length_c   8.26478577
_cell_angle_alpha   90.00000000
_cell_angle_beta   90.00000000
_cell_angle_gamma   120.00000000
_symmetry_Int_Tables_number   1
_chemical_formula_structural   LiSnGe2POs2N5
_chemical_formula_sum   'Li1 Sn1 Ge2 P1 Os2 N5'
_cell_volume   228.51194956
_cell_formula_units_Z   1
loop_
 _symmetry_equiv_pos_site_id
 _symmetry_equiv_pos_as_xyz
  1  'x, y, z'
loop_
 _atom_site_type_symbol
 _atom_site_label
 _atom_site_symmetry_multiplicity
 _atom_site_fract_x
 _atom_site_fract_y
 _atom_site_fract_z
 _atom_site_occupancy
  Li  Li0  1  0.00000000  0.00000000  0.00000000  1
  Sn  Sn1  1  0.00000000  0.00000000  0.50000001  1
  Ge  Ge2  1  0.66666668  0.33333333  0.29779101  1
  Ge  Ge3  1  0.33333333  0.66666667  0.70220902  1
  P  P4  1  0.66666668  0.33333333  0.08565500  1
  Os  Os5  1  0.33333333  0.66666667  0.91434503  1
  N  N6  1  0.84249702  0.15750300  0.36416301  1
  Os  Os7  1  0.31500601  0.15750300  0.36416301  1
  N  N8  1  0.84249701  0.68499400  0.36416301  1
  N  N9  1  0.15750299  0.84249700  0.63583702  1
  N  N10  1  0.15750300  0.31500600  0.63583702  1
  N  N11  1  0.68499401  0.84249700  0.63583702  1
