# generated using pymatgen
data_Sb2Se3
_symmetry_space_group_name_H-M   'P 1'
_cell_length_a   4.10931015
_cell_length_b   11.42379475
_cell_length_c   11.85729980
_cell_angle_alpha   90.00000000
_cell_angle_beta   90.00000000
_cell_angle_gamma   90.00000000
_symmetry_Int_Tables_number   1
_chemical_formula_structural   Sb2Se3
_chemical_formula_sum   'Sb8 Se12'
_cell_volume   556.62808252
_cell_formula_units_Z   4
loop_
 _symmetry_equiv_pos_site_id
 _symmetry_equiv_pos_as_xyz
  1  'x, y, z'
loop_
 _atom_site_type_symbol
 _atom_site_label
 _atom_site_symmetry_multiplicity
 _atom_site_fract_x
 _atom_site_fract_y
 _atom_site_fract_z
 _atom_site_occupancy
  Sb  Sb0  1  0.49999998  0.20927300  0.65902501  1
  Sb  Sb1  1  0.49999998  0.79072702  0.15902500  1
  Sb  Sb2  1  -0.00000000  0.28504701  0.34132501  1
  Sb  Sb3  1  -0.00000000  0.71495302  0.84132501  1
  Sb  Sb4  1  -0.00000000  0.92033402  0.52060901  1
  Sb  Sb5  1  -0.00000000  0.07966600  0.02060900  1
  Sb  Sb6  1  0.49999998  0.58536901  0.48382101  1
  Sb  Sb7  1  0.49999998  0.41463101  0.98382102  1
  Se  Se8  1  0.49999998  0.44807701  0.27970800  1
  Se  Se9  1  0.49999998  0.55192301  0.77970801  1
  Se  Se10  1  -0.00000000  0.38191201  0.55400301  1
  Se  Se11  1  -0.00000000  0.61808801  0.05400300  1
  Se  Se12  1  0.49999998  0.11350100  0.44660901  1
  Se  Se13  1  0.49999998  0.88649902  0.94660902  1
  Se  Se14  1  0.49999998  0.80536502  0.62105901  1
  Se  Se15  1  0.49999998  0.19463500  0.12105900  1
  Se  Se16  1  -0.00000000  0.69854902  0.38257401  1
  Se  Se17  1  -0.00000000  0.30145101  0.88257401  1
  Se  Se18  1  -0.00000000  0.05663400  0.71126701  1
  Se  Se19  1  -0.00000000  0.94336602  0.21126700  1
