# generated using pymatgen
data_Cu5(PS4)3
_symmetry_space_group_name_H-M   'P 1'
_cell_length_a   5.72670412
_cell_length_b   8.07516384
_cell_length_c   8.07516384
_cell_angle_alpha   90.00000000
_cell_angle_beta   90.00000000
_cell_angle_gamma   90.00000000
_symmetry_Int_Tables_number   1
_chemical_formula_structural   Cu5(PS4)3
_chemical_formula_sum   'Cu5 P3 S12'
_cell_volume   373.42847460
_cell_formula_units_Z   1
loop_
 _symmetry_equiv_pos_site_id
 _symmetry_equiv_pos_as_xyz
  1  'x, y, z'
loop_
 _atom_site_type_symbol
 _atom_site_label
 _atom_site_symmetry_multiplicity
 _atom_site_fract_x
 _atom_site_fract_y
 _atom_site_fract_z
 _atom_site_occupancy
  Cu  Cu0  1  0.74443398  0.76495802  0.46695301  1
  Cu  Cu1  1  0.74443398  0.23504200  0.53304701  1
  Cu  Cu2  1  0.25556599  0.46695301  0.23504200  1
  Cu  Cu3  1  0.25556599  0.53304701  0.76495802  1
  P  P4  1  0.24443399  0.96695302  0.26495801  1
  Cu  Cu5  1  0.75556598  0.73504201  0.96695302  1
  P  P6  1  0.75556598  0.26495801  0.03304700  1
  P  P7  1  0.24443399  0.03304700  0.73504201  1
  S  S8  1  0.56997899  1.00000002  0.50000001  1
  S  S9  1  0.43002099  0.50000001  0.00000000  1
  S  S10  1  0.93002098  0.50000001  0.00000000  1
  S  S11  1  0.06997900  1.00000002  0.50000001  1
  S  S12  1  0.43081299  0.71268301  0.32743601  1
  S  S13  1  0.43081299  0.28731701  0.67256401  1
  S  S14  1  0.56918699  0.32743601  0.28731701  1
  S  S15  1  0.56918699  0.67256401  0.71268301  1
  S  S16  1  0.93081298  0.17256400  0.78731702  1
  S  S17  1  0.06918700  0.21268300  0.17256400  1
  S  S18  1  0.06918700  0.78731702  0.82743602  1
  S  S19  1  0.93081298  0.82743602  0.21268300  1
