# generated using pymatgen
data_Sm5YO9
_symmetry_space_group_name_H-M   'P 1'
_cell_length_a   3.79809594
_cell_length_b   7.62222385
_cell_length_c   9.22427368
_cell_angle_alpha   99.97615814
_cell_angle_beta   90.00000000
_cell_angle_gamma   104.42699432
_symmetry_Int_Tables_number   1
_chemical_formula_structural   Sm5YO9
_chemical_formula_sum   'Sm5 Y1 O9'
_cell_volume   254.44992072
_cell_formula_units_Z   1
loop_
 _symmetry_equiv_pos_site_id
 _symmetry_equiv_pos_as_xyz
  1  'x, y, z'
loop_
 _atom_site_type_symbol
 _atom_site_label
 _atom_site_symmetry_multiplicity
 _atom_site_fract_x
 _atom_site_fract_y
 _atom_site_fract_z
 _atom_site_occupancy
  Y  Y0  1  0.30956803  0.61913602  0.86166303  1
  Sm  Sm1  1  0.63448602  0.26897201  0.49252601  1
  Sm  Sm2  1  0.69043203  0.38086401  0.13833701  1
  Sm  Sm3  1  0.03295200  0.06590400  0.81201101  1
  Sm  Sm4  1  0.36551404  0.73102803  0.50747403  1
  Sm  Sm5  1  0.96704806  0.93409604  0.18798903  1
  O  O6  1  0.20029902  0.40059802  0.62729902  1
  O  O7  1  0.12812101  0.25624201  0.28634701  1
  O  O8  1  0.52584101  0.05168200  0.65665001  1
  O  O9  1  0.17592802  0.35185601  0.97485102  1
  O  O10  1  0.82407204  0.64814402  0.02514902  1
  O  O11  1  0.79970104  0.59940202  0.37270102  1
  O  O12  1  0.47415905  0.94831804  0.34335003  1
  O  O13  1  0.87187905  0.74375803  0.71365303  1
  O  O14  1  0.50000001  0.00000000  1.00000001  1
