# generated using pymatgen
data_K3BaZnNi3(PSe4)2
_symmetry_space_group_name_H-M   'P 1'
_cell_length_a   5.63214779
_cell_length_b   5.63214779
_cell_length_c   13.38336086
_cell_angle_alpha   90.00000000
_cell_angle_beta   90.00000000
_cell_angle_gamma   90.00000000
_symmetry_Int_Tables_number   1
_chemical_formula_structural   K3BaZnNi3(PSe4)2
_chemical_formula_sum   'K3 Ba1 Zn1 Ni3 P2 Se8'
_cell_volume   424.53477726
_cell_formula_units_Z   1
loop_
 _symmetry_equiv_pos_site_id
 _symmetry_equiv_pos_as_xyz
  1  'x, y, z'
loop_
 _atom_site_type_symbol
 _atom_site_label
 _atom_site_symmetry_multiplicity
 _atom_site_fract_x
 _atom_site_fract_y
 _atom_site_fract_z
 _atom_site_occupancy
  K  K0  1  0.75973503  0.75973503  0.00000000  1
  K  K1  1  0.24026501  0.75973503  0.50000001  1
  K  K2  1  0.75973503  0.24026501  0.50000001  1
  Ba  Ba3  1  0.24026501  0.24026501  0.00000000  1
  Zn  Zn4  1  0.50000002  0.50000002  0.75000001  1
  Ni  Ni5  1  0.50000002  0.50000002  0.25000000  1
  Ni  Ni6  1  -0.00000000  0.50000002  0.75000001  1
  Ni  Ni7  1  0.50000002  0.00000000  0.75000001  1
  P  P8  1  -0.00000000  0.50000002  0.25000000  1
  P  P9  1  0.50000002  0.00000000  0.25000000  1
  Se  Se10  1  0.73800503  0.73800503  0.65452301  1
  Se  Se11  1  0.26199501  0.26199501  0.65452301  1
  Se  Se12  1  0.73800503  0.73800503  0.34547700  1
  Se  Se13  1  0.73800503  0.26199501  0.15452300  1
  Se  Se14  1  0.26199501  0.73800503  0.84547701  1
  Se  Se15  1  0.26199501  0.26199501  0.34547700  1
  Se  Se16  1  0.26199501  0.73800503  0.15452300  1
  Se  Se17  1  0.73800503  0.26199501  0.84547701  1
