# generated using pymatgen
data_HoLuTe3
_symmetry_space_group_name_H-M   'P 1'
_cell_length_a   4.27943039
_cell_length_b   4.27943039
_cell_length_c   10.43344021
_cell_angle_alpha   78.16566467
_cell_angle_beta   78.16566467
_cell_angle_gamma   59.99999619
_symmetry_Int_Tables_number   1
_chemical_formula_structural   HoLuTe3
_chemical_formula_sum   'Ho1 Lu1 Te3'
_cell_volume   160.76741091
_cell_formula_units_Z   1
loop_
 _symmetry_equiv_pos_site_id
 _symmetry_equiv_pos_as_xyz
  1  'x, y, z'
loop_
 _atom_site_type_symbol
 _atom_site_label
 _atom_site_symmetry_multiplicity
 _atom_site_fract_x
 _atom_site_fract_y
 _atom_site_fract_z
 _atom_site_occupancy
  Ho  Ho0  1  0.39452301  0.39452299  0.81643102  1
  Lu  Lu1  1  0.60217901  0.60217898  0.19346300  1
  Te  Te2  1  0.78739102  0.78739098  0.63782701  1
  Te  Te3  1  0.99780202  0.99780197  0.00659398  1
  Te  Te4  1  0.21810500  0.21810499  0.34568501  1
