# generated using pymatgen
data_ZrTi2O6
_symmetry_space_group_name_H-M   'P 1'
_cell_length_a   3.78862309
_cell_length_b   5.32723808
_cell_length_c   6.57739639
_cell_angle_alpha   70.91427612
_cell_angle_beta   73.26154327
_cell_angle_gamma   69.17039490
_symmetry_Int_Tables_number   1
_chemical_formula_structural   ZrTi2O6
_chemical_formula_sum   'Zr1 Ti2 O6'
_cell_volume   115.01666850
_cell_formula_units_Z   1
loop_
 _symmetry_equiv_pos_site_id
 _symmetry_equiv_pos_as_xyz
  1  'x, y, z'
loop_
 _atom_site_type_symbol
 _atom_site_label
 _atom_site_symmetry_multiplicity
 _atom_site_fract_x
 _atom_site_fract_y
 _atom_site_fract_z
 _atom_site_occupancy
  Zr  Zr0  1  -0.00000006  0.50000001  0.50000002  1
  Ti  Ti1  1  0.17712291  0.75679401  0.88895903  1
  Ti  Ti2  1  0.82287696  0.24320600  0.11104100  1
  O  O3  1  0.02472898  0.14331600  0.80722600  1
  O  O4  1  0.97527088  0.85668401  0.19277404  1
  O  O5  1  0.34973591  0.69651101  0.60401703  1
  O  O6  1  0.65026395  0.30348901  0.39598301  1
  O  O7  1  0.72022791  0.65485701  0.90468702  1
  O  O8  1  0.27977196  0.34514301  0.09531302  1
