# generated using pymatgen
data_Rb2MgF4
_symmetry_space_group_name_H-M   'P 1'
_cell_length_a   4.36297607
_cell_length_b   4.36297607
_cell_length_c   7.39535952
_cell_angle_alpha   107.15637970
_cell_angle_beta   107.15637970
_cell_angle_gamma   90.00000000
_symmetry_Int_Tables_number   1
_chemical_formula_structural   Rb2MgF4
_chemical_formula_sum   'Rb2 Mg1 F4'
_cell_volume   127.94043474
_cell_formula_units_Z   1
loop_
 _symmetry_equiv_pos_site_id
 _symmetry_equiv_pos_as_xyz
  1  'x, y, z'
loop_
 _atom_site_type_symbol
 _atom_site_label
 _atom_site_symmetry_multiplicity
 _atom_site_fract_x
 _atom_site_fract_y
 _atom_site_fract_z
 _atom_site_occupancy
  Rb  Rb0  1  0.34769801  0.34769800  0.69539601  1
  Rb  Rb1  1  0.65230201  0.65230200  0.30460403  1
  Mg  Mg2  1  0.00000000  0.00000000  0.00000000  1
  F  F3  1  0.00000001  0.50000000  1.00000000  1
  F  F4  1  0.50000002  1.00000000  1.00000003  1
  F  F5  1  0.85481702  0.85481700  0.70963404  1
  F  F6  1  0.14518300  0.14518300  0.29036600  1
