# generated using pymatgen
data_BaZrSeO3
_symmetry_space_group_name_H-M   'P 1'
_cell_length_a   3.64583015
_cell_length_b   3.64583015
_cell_length_c   9.89271355
_cell_angle_alpha   79.38153076
_cell_angle_beta   79.38153076
_cell_angle_gamma   59.99999619
_symmetry_Int_Tables_number   1
_chemical_formula_structural   BaZrSeO3
_chemical_formula_sum   'Ba1 Zr1 Se1 O3'
_cell_volume   111.27010866
_cell_formula_units_Z   1
loop_
 _symmetry_equiv_pos_site_id
 _symmetry_equiv_pos_as_xyz
  1  'x, y, z'
loop_
 _atom_site_type_symbol
 _atom_site_label
 _atom_site_symmetry_multiplicity
 _atom_site_fract_x
 _atom_site_fract_y
 _atom_site_fract_z
 _atom_site_occupancy
  Zr  Zr0  1  0.78787003  0.78787001  0.63639001  1
  Ba  Ba1  1  0.21213001  0.21213000  0.36361000  1
  Se  Se2  1  0.86325104  0.86325102  0.41024701  1
  O  O3  1  0.13674901  0.13674900  0.58975299  1
  O  O4  1  0.39192202  0.39192201  0.82423400  1
  O  O5  1  0.60807802  0.60807801  0.17576601  1
