# generated using pymatgen
data_NaWO3
_symmetry_space_group_name_H-M   'P 1'
_cell_length_a   5.18252659
_cell_length_b   5.18252659
_cell_length_c   6.17084599
_cell_angle_alpha   65.17044067
_cell_angle_beta   65.17044067
_cell_angle_gamma   59.99999237
_symmetry_Int_Tables_number   1
_chemical_formula_structural   NaWO3
_chemical_formula_sum   'Na2 W2 O6'
_cell_volume   125.53292575
_cell_formula_units_Z   2
loop_
 _symmetry_equiv_pos_site_id
 _symmetry_equiv_pos_as_xyz
  1  'x, y, z'
loop_
 _atom_site_type_symbol
 _atom_site_label
 _atom_site_symmetry_multiplicity
 _atom_site_fract_x
 _atom_site_fract_y
 _atom_site_fract_z
 _atom_site_occupancy
  Na  Na0  1  0.85876202  0.85876200  0.42371394  1
  Na  Na1  1  0.14077600  0.14077600  0.57767199  1
  W  W2  1  0.66220701  0.66220700  0.01337895  1
  W  W3  1  0.33724101  0.33724100  0.98827698  1
  O  O4  1  0.05885801  0.68849800  0.79483498  1
  O  O5  1  0.68849801  0.45780900  0.79483497  1
  O  O6  1  0.45780900  0.05885800  0.79483499  1
  O  O7  1  0.93547101  0.31560500  0.20415196  1
  O  O8  1  0.31560501  0.54477200  0.20415197  1
  O  O9  1  0.54477201  0.93547100  0.20415195  1
