# generated using pymatgen
data_LiUIrPtN8
_symmetry_space_group_name_H-M   'P 1'
_cell_length_a   4.76554203
_cell_length_b   5.58658695
_cell_length_c   5.58658695
_cell_angle_alpha   90.00000000
_cell_angle_beta   90.00000000
_cell_angle_gamma   90.00000000
_symmetry_Int_Tables_number   1
_chemical_formula_structural   LiUIrPtN8
_chemical_formula_sum   'Li1 U1 Ir1 Pt1 N8'
_cell_volume   148.73234648
_cell_formula_units_Z   1
loop_
 _symmetry_equiv_pos_site_id
 _symmetry_equiv_pos_as_xyz
  1  'x, y, z'
loop_
 _atom_site_type_symbol
 _atom_site_label
 _atom_site_symmetry_multiplicity
 _atom_site_fract_x
 _atom_site_fract_y
 _atom_site_fract_z
 _atom_site_occupancy
  Li  Li0  1  0.50000000  0.50000000  0.50000000  1
  U  U1  1  0.50000000  0.00000000  0.00000000  1
  Ir  Ir2  1  0.00000000  0.00000000  0.50000000  1
  Pt  Pt3  1  -0.00000000  0.50000000  0.00000000  1
  N  N4  1  0.76288700  0.16843900  0.33156100  1
  N  N5  1  0.23711300  0.83156101  0.33156100  1
  N  N6  1  0.76288700  0.83156101  0.66843901  1
  N  N7  1  0.76288700  0.33156100  0.83156101  1
  N  N8  1  0.23711300  0.16843900  0.66843901  1
  N  N9  1  0.23711300  0.66843901  0.83156101  1
  N  N10  1  0.76288700  0.66843901  0.16843900  1
  N  N11  1  0.23711300  0.33156100  0.16843900  1
