# generated using pymatgen
data_Sr4YIn2BiO10
_symmetry_space_group_name_H-M   'P 1'
_cell_length_a   6.02877998
_cell_length_b   6.10107470
_cell_length_c   10.21053314
_cell_angle_alpha   76.38611603
_cell_angle_beta   72.82905579
_cell_angle_gamma   60.39120865
_symmetry_Int_Tables_number   1
_chemical_formula_structural   Sr4YIn2BiO10
_chemical_formula_sum   'Sr4 Y1 In2 Bi1 O10'
_cell_volume   310.15229563
_cell_formula_units_Z   1
loop_
 _symmetry_equiv_pos_site_id
 _symmetry_equiv_pos_as_xyz
  1  'x, y, z'
loop_
 _atom_site_type_symbol
 _atom_site_label
 _atom_site_symmetry_multiplicity
 _atom_site_fract_x
 _atom_site_fract_y
 _atom_site_fract_z
 _atom_site_occupancy
  Sr  Sr0  1  0.23364598  0.74999999  0.25000002  1
  Sr  Sr1  1  0.76635400  0.25000000  0.75000001  1
  Sr  Sr2  1  -0.00000002  0.49999999  0.00000001  1
  Sr  Sr3  1  0.50000000  0.00000000  0.50000000  1
  In  In4  1  0.36949398  0.86081199  0.86102603  1
  In  In5  1  0.09133198  0.63918799  0.63897402  1
  Y  Y6  1  0.90866799  0.36081199  0.36102601  1
  Bi  Bi7  1  0.63050600  0.13918800  0.13897400  1
  O  O8  1  0.26168099  0.25000000  0.75000001  1
  O  O9  1  0.75865298  0.80336799  0.79737402  1
  O  O10  1  0.35939498  0.69663199  0.70262602  1
  O  O11  1  0.00000000  0.00000000  0.50000000  1
  O  O12  1  0.24134700  0.19663200  0.20262601  1
  O  O13  1  0.64060499  0.30336800  0.29737401  1
  O  O14  1  -0.00000002  0.49999999  0.50000002  1
  O  O15  1  0.73831898  0.74999999  0.25000002  1
  O  O16  1  0.00000000  0.00000000  0.00000000  1
  O  O17  1  0.49999999  0.49999999  0.00000001  1
