# generated using pymatgen
data_InSbTeBr5
_symmetry_space_group_name_H-M   'P 1'
_cell_length_a   4.09408998
_cell_length_b   11.06520557
_cell_length_c   11.98028183
_cell_angle_alpha   67.18471527
_cell_angle_beta   80.16172028
_cell_angle_gamma   79.33895874
_symmetry_Int_Tables_number   1
_chemical_formula_structural   InSbTeBr5
_chemical_formula_sum   'In2 Sb2 Te2 Br10'
_cell_volume   488.67873766
_cell_formula_units_Z   2
loop_
 _symmetry_equiv_pos_site_id
 _symmetry_equiv_pos_as_xyz
  1  'x, y, z'
loop_
 _atom_site_type_symbol
 _atom_site_label
 _atom_site_symmetry_multiplicity
 _atom_site_fract_x
 _atom_site_fract_y
 _atom_site_fract_z
 _atom_site_occupancy
  In  In0  1  0.65110196  0.15072200  0.54707400  1
  In  In1  1  0.34889780  0.84927798  0.45292605  1
  Sb  Sb2  1  0.95277492  0.30957299  0.78487700  1
  Sb  Sb3  1  0.04722483  0.69042698  0.21512304  1
  Te  Te4  1  0.29391192  0.32509399  0.08708202  1
  Te  Te5  1  0.70608784  0.67490598  0.91291802  1
  Br  Br6  1  0.53703696  0.14353300  0.78239299  1
  Br  Br7  1  0.10278680  0.81820898  0.97621702  1
  Br  Br8  1  0.46296279  0.85646698  0.21760706  1
  Br  Br9  1  0.32106188  0.49479499  0.86308101  1
  Br  Br10  1  0.89721295  0.18179100  0.02378302  1
  Br  Br11  1  0.67893788  0.50520499  0.13691904  1
  Br  Br12  1  0.89697184  0.66766498  0.53839104  1
  Br  Br13  1  0.10302792  0.33233499  0.46160901  1
  Br  Br14  1  0.78980298  0.06749800  0.35289600  1
  Br  Br15  1  0.21019678  0.93250197  0.64710405  1
