# generated using pymatgen
data_Mg2As2O7
_symmetry_space_group_name_H-M   'P 1'
_cell_length_a   4.86343050
_cell_length_b   5.48085833
_cell_length_c   5.48085833
_cell_angle_alpha   76.14256287
_cell_angle_beta   81.14701843
_cell_angle_gamma   98.85298157
_symmetry_Int_Tables_number   1
_chemical_formula_structural   Mg2As2O7
_chemical_formula_sum   'Mg2 As2 O7'
_cell_volume   137.35565574
_cell_formula_units_Z   1
loop_
 _symmetry_equiv_pos_site_id
 _symmetry_equiv_pos_as_xyz
  1  'x, y, z'
loop_
 _atom_site_type_symbol
 _atom_site_label
 _atom_site_symmetry_multiplicity
 _atom_site_fract_x
 _atom_site_fract_y
 _atom_site_fract_z
 _atom_site_occupancy
  Mg  Mg0  1  1.00000003  0.30733301  0.30733299  1
  Mg  Mg1  1  1.00000004  0.69266702  0.69266699  1
  As  As2  1  0.40206602  0.23146901  0.76853101  1
  As  As3  1  0.59793403  0.76853102  0.23146899  1
  O  O4  1  0.27341102  0.59350601  0.40649400  1
  O  O5  1  0.21031901  0.06594200  0.60221701  1
  O  O6  1  0.21031901  0.39778301  0.93405801  1
  O  O7  1  0.50000001  0.00000000  -0.00000001  1
  O  O8  1  0.78968104  0.60221701  0.06594198  1
  O  O9  1  0.78968104  0.93405802  0.39778299  1
  O  O10  1  0.72658903  0.40649401  0.59350600  1
