# generated using pymatgen
data_La2NdTe4
_symmetry_space_group_name_H-M   'P 1'
_cell_length_a   8.45140648
_cell_length_b   8.45140648
_cell_length_c   8.45140648
_cell_angle_alpha   109.78049469
_cell_angle_beta   109.31680298
_cell_angle_gamma   109.31680298
_symmetry_Int_Tables_number   1
_chemical_formula_structural   La2NdTe4
_chemical_formula_sum   'La4 Nd2 Te8'
_cell_volume   464.68174070
_cell_formula_units_Z   2
loop_
 _symmetry_equiv_pos_site_id
 _symmetry_equiv_pos_as_xyz
  1  'x, y, z'
loop_
 _atom_site_type_symbol
 _atom_site_label
 _atom_site_symmetry_multiplicity
 _atom_site_fract_x
 _atom_site_fract_y
 _atom_site_fract_z
 _atom_site_occupancy
  La  La0  1  0.88113896  0.25076499  0.87377594  1
  La  La1  1  0.99999993  0.49999998  0.49999993  1
  La  La2  1  0.37698898  0.12622499  0.00736298  1
  La  La3  1  0.11886091  0.99263695  0.36962496  1
  Nd  Nd4  1  0.62301193  0.63037497  0.74923594  1
  Nd  Nd5  1  0.49999992  0.74999996  0.24999995  1
  Te  Te6  1  0.24556296  0.36592498  0.76479297  1
  Te  Te7  1  0.75583298  0.03641100  0.12356396  1
  Te  Te8  1  0.39886691  0.87963696  0.63407395  1
  Te  Te9  1  0.75443694  0.51922997  0.12036295  1
  Te  Te10  1  0.08715293  0.71942197  0.96358896  1
  Te  Te11  1  0.60113297  0.23520699  0.48077096  1
  Te  Te12  1  0.91284690  0.87643596  0.63226892  1
  Te  Te13  1  0.24416696  0.36773098  0.28057797  1
