# generated using pymatgen
data_NaNO3
_symmetry_space_group_name_H-M   'P 1'
_cell_length_a   4.15617847
_cell_length_b   4.15617847
_cell_length_c   4.15617943
_cell_angle_alpha   76.22427368
_cell_angle_beta   76.22427368
_cell_angle_gamma   76.22427368
_symmetry_Int_Tables_number   1
_chemical_formula_structural   NaNO3
_chemical_formula_sum   'Na1 N1 O3'
_cell_volume   66.45798495
_cell_formula_units_Z   1
loop_
 _symmetry_equiv_pos_site_id
 _symmetry_equiv_pos_as_xyz
  1  'x, y, z'
loop_
 _atom_site_type_symbol
 _atom_site_label
 _atom_site_symmetry_multiplicity
 _atom_site_fract_x
 _atom_site_fract_y
 _atom_site_fract_z
 _atom_site_occupancy
  Na  Na0  1  0.00000000  0.00000000  0.00000000  1
  N  N1  1  0.49999997  0.50000000  0.50000001  1
  O  O2  1  0.49999996  0.74707399  0.25292602  1
  O  O3  1  0.74707398  0.25292600  0.50000000  1
  O  O4  1  0.25292597  0.50000000  0.74707399  1
