# generated using pymatgen
data_SrCaUBiN6
_symmetry_space_group_name_H-M   'P 1'
_cell_length_a   6.25848866
_cell_length_b   6.25848866
_cell_length_c   6.25848866
_cell_angle_alpha   60.59526443
_cell_angle_beta   60.59526443
_cell_angle_gamma   60.59526062
_symmetry_Int_Tables_number   1
_chemical_formula_structural   SrCaUBiN6
_chemical_formula_sum   'Sr1 Ca1 U1 Bi1 N6'
_cell_volume   175.66829015
_cell_formula_units_Z   1
loop_
 _symmetry_equiv_pos_site_id
 _symmetry_equiv_pos_as_xyz
  1  'x, y, z'
loop_
 _atom_site_type_symbol
 _atom_site_label
 _atom_site_symmetry_multiplicity
 _atom_site_fract_x
 _atom_site_fract_y
 _atom_site_fract_z
 _atom_site_occupancy
  Ca  Ca0  1  0.75000004  0.75000002  0.74999995  1
  Sr  Sr1  1  0.25000001  0.25000001  0.24999998  1
  U  U2  1  0.00000000  0.00000000  0.00000000  1
  Bi  Bi3  1  0.50000003  0.50000002  0.49999997  1
  N  N4  1  0.75000003  0.18178301  0.31821697  1
  N  N5  1  0.18178301  0.31821701  0.74999997  1
  N  N6  1  0.31821703  0.75000002  0.18178297  1
  N  N7  1  0.25000003  0.81821703  0.68178296  1
  N  N8  1  0.68178303  0.25000001  0.81821696  1
  N  N9  1  0.81821704  0.68178302  0.24999996  1
