# generated using pymatgen
data_Lu2Sc4CuAs2Se5
_symmetry_space_group_name_H-M   'P 1'
_cell_length_a   8.11759949
_cell_length_b   8.11759949
_cell_length_c   8.11759949
_cell_angle_alpha   109.47122192
_cell_angle_beta   109.47122192
_cell_angle_gamma   109.47122192
_symmetry_Int_Tables_number   1
_chemical_formula_structural   Lu2Sc4CuAs2Se5
_chemical_formula_sum   'Lu2 Sc4 Cu1 As2 Se5'
_cell_volume   411.77592204
_cell_formula_units_Z   1
loop_
 _symmetry_equiv_pos_site_id
 _symmetry_equiv_pos_as_xyz
  1  'x, y, z'
loop_
 _atom_site_type_symbol
 _atom_site_label
 _atom_site_symmetry_multiplicity
 _atom_site_fract_x
 _atom_site_fract_y
 _atom_site_fract_z
 _atom_site_occupancy
  Lu  Lu0  1  0.81005397  0.06005400  0.74999998  1
  Lu  Lu1  1  0.43994603  0.74999999  0.18994604  1
  Sc  Sc2  1  0.75000001  0.68994599  0.93994601  1
  Sc  Sc3  1  0.06005401  0.25000000  0.31005400  1
  Sc  Sc4  1  0.25000004  0.81005399  0.56005402  1
  Sc  Sc5  1  0.68994600  0.43994599  0.25000003  1
  As  As6  1  0.99999999  0.49999999  0.54057302  1
  Cu  Cu7  1  0.04057306  0.99999999  1.00000000  1
  As  As8  1  0.45942701  0.45942699  0.95942699  1
  Se  Se9  1  0.49999998  0.04057300  0.49999999  1
  Se  Se10  1  0.99999999  0.49999999  0.01402705  1
  Se  Se11  1  0.51402704  0.99999999  1.00000002  1
  Se  Se12  1  0.50000001  0.51402699  0.50000001  1
  Se  Se13  1  0.98597302  0.98597299  0.48597305  1
