# generated using pymatgen
data_BaGaO3
_symmetry_space_group_name_H-M   'P 1'
_cell_length_a   5.66612434
_cell_length_b   5.66736126
_cell_length_c   8.96796227
_cell_angle_alpha   108.29304504
_cell_angle_beta   108.32099915
_cell_angle_gamma   90.32836914
_symmetry_Int_Tables_number   1
_chemical_formula_structural   BaGaO3
_chemical_formula_sum   'Ba4 Ga4 O12'
_cell_volume   257.81878291
_cell_formula_units_Z   4
loop_
 _symmetry_equiv_pos_site_id
 _symmetry_equiv_pos_as_xyz
  1  'x, y, z'
loop_
 _atom_site_type_symbol
 _atom_site_label
 _atom_site_symmetry_multiplicity
 _atom_site_fract_x
 _atom_site_fract_y
 _atom_site_fract_z
 _atom_site_occupancy
  Ba  Ba0  1  0.38497802  0.88493499  0.76984299  1
  Ba  Ba1  1  0.88471001  0.38492400  0.76975400  1
  Ba  Ba2  1  0.11509302  0.61489700  0.23007700  1
  Ba  Ba3  1  0.61504200  0.11500700  0.23008101  1
  Ga  Ga4  1  0.50018001  0.50022400  0.00045802  1
  Ga  Ga5  1  0.00027200  0.00024800  0.00046600  1
  Ga  Ga6  1  0.25002401  0.24998500  0.50002899  1
  Ga  Ga7  1  0.74997902  0.74998499  0.49992401  1
  O  O8  1  0.37575101  0.37564400  0.75110099  1
  O  O9  1  0.87581102  0.87607199  0.75139501  1
  O  O10  1  0.12433100  0.12396800  0.24835100  1
  O  O11  1  0.62397502  0.62424000  0.24867502  1
  O  O12  1  0.76279302  0.76289099  0.99976100  1
  O  O13  1  0.23690601  0.23689800  0.99967197  1
  O  O14  1  0.25045502  0.74973699  0.00001602  1
  O  O15  1  0.74958201  0.25038400  0.00020703  1
  O  O16  1  0.51001901  0.51013000  0.50018400  1
  O  O17  1  0.99035903  0.99017599  0.50050302  1
  O  O18  1  0.00029701  0.49961700  0.49967699  1
  O  O19  1  0.49944300  0.00004100  0.49982700  1
