# generated using pymatgen
data_TiGaSiNiAs2OsRu
_symmetry_space_group_name_H-M   'P 1'
_cell_length_a   4.18421984
_cell_length_b   4.18422031
_cell_length_c   7.53618908
_cell_angle_alpha   90.00000000
_cell_angle_beta   90.00000000
_cell_angle_gamma   120.00000000
_symmetry_Int_Tables_number   1
_chemical_formula_structural   TiGaSiNiAs2OsRu
_chemical_formula_sum   'Ti1 Ga1 Si1 Ni1 As2 Ru1 Os1'
_cell_volume   114.26453473
_cell_formula_units_Z   1
loop_
 _symmetry_equiv_pos_site_id
 _symmetry_equiv_pos_as_xyz
  1  'x, y, z'
loop_
 _atom_site_type_symbol
 _atom_site_label
 _atom_site_symmetry_multiplicity
 _atom_site_fract_x
 _atom_site_fract_y
 _atom_site_fract_z
 _atom_site_occupancy
  Ti  Ti0  1  0.33333336  0.66666665  0.00000000  1
  Ga  Ga1  1  0.66666670  0.33333333  0.49999999  1
  Ni  Ni2  1  0.00000000  0.00000000  0.00000000  1
  As  As3  1  0.00000000  0.00000000  0.49999999  1
  Si  Si4  1  0.33333336  0.66666665  0.65430599  1
  As  As5  1  0.66666670  0.33333333  0.20632700  1
  Ru  Ru6  1  0.66666670  0.33333333  0.79367299  1
  Os  Os7  1  0.33333336  0.66666665  0.34569400  1
