# generated using pymatgen
data_Al8C7N
_symmetry_space_group_name_H-M   'P 1'
_cell_length_a   3.09567404
_cell_length_b   3.09567451
_cell_length_c   20.24825096
_cell_angle_alpha   90.00000000
_cell_angle_beta   90.00000000
_cell_angle_gamma   119.99999237
_symmetry_Int_Tables_number   1
_chemical_formula_structural   Al8C7N
_chemical_formula_sum   'Al8 C7 N1'
_cell_volume   168.04620020
_cell_formula_units_Z   1
loop_
 _symmetry_equiv_pos_site_id
 _symmetry_equiv_pos_as_xyz
  1  'x, y, z'
loop_
 _atom_site_type_symbol
 _atom_site_label
 _atom_site_symmetry_multiplicity
 _atom_site_fract_x
 _atom_site_fract_y
 _atom_site_fract_z
 _atom_site_occupancy
  Al  Al0  1  0.66666665  0.33333334  0.12487200  1
  Al  Al1  1  0.66666665  0.33333334  0.37495000  1
  Al  Al2  1  0.00000000  0.00000000  0.99990300  1
  Al  Al3  1  0.33333331  0.66666667  0.24989600  1
  Al  Al4  1  0.33333331  0.66666667  0.62487200  1
  Al  Al5  1  0.66666665  0.33333334  0.74989600  1
  Al  Al6  1  0.00000000  0.00000000  0.49990300  1
  Al  Al7  1  0.33333331  0.66666667  0.87495000  1
  C  C8  1  0.66666665  0.33333334  0.65591900  1
  C  C9  1  0.33333331  0.66666667  0.78126600  1
  N  N10  1  0.33333331  0.66666667  0.15591900  1
  C  C11  1  0.00000000  0.00000000  0.40608000  1
  C  C12  1  0.66666665  0.33333334  0.03111200  1
  C  C13  1  0.00000000  0.00000000  0.90608000  1
  C  C14  1  0.66666665  0.33333334  0.28126600  1
  C  C15  1  0.33333331  0.66666667  0.53111200  1
