# generated using pymatgen
data_Y2MnS7
_symmetry_space_group_name_H-M   'P 1'
_cell_length_a   7.07500410
_cell_length_b   8.00447845
_cell_length_c   8.08627892
_cell_angle_alpha   62.22972488
_cell_angle_beta   64.05744934
_cell_angle_gamma   63.77225113
_symmetry_Int_Tables_number   1
_chemical_formula_structural   Y2MnS7
_chemical_formula_sum   'Y4 Mn2 S14'
_cell_volume   347.66688448
_cell_formula_units_Z   2
loop_
 _symmetry_equiv_pos_site_id
 _symmetry_equiv_pos_as_xyz
  1  'x, y, z'
loop_
 _atom_site_type_symbol
 _atom_site_label
 _atom_site_symmetry_multiplicity
 _atom_site_fract_x
 _atom_site_fract_y
 _atom_site_fract_z
 _atom_site_occupancy
  Y  Y0  1  0.33794500  0.23101400  0.11218499  1
  Y  Y1  1  0.68114400  0.26898600  0.38781498  1
  Y  Y2  1  0.66205500  0.76898601  0.88781498  1
  Y  Y3  1  0.31885600  0.73101401  0.61218499  1
  Mn  Mn4  1  0.97524700  0.75000001  0.24999998  1
  Mn  Mn5  1  0.02475300  0.25000000  0.75000000  1
  S  S6  1  0.71385500  0.85615101  0.48377999  1
  S  S7  1  0.05378600  0.64384901  0.01622000  1
  S  S8  1  0.28614500  0.14384900  0.51621999  1
  S  S9  1  0.94621400  0.35615100  0.98377997  1
  S  S10  1  0.66049500  0.75000001  0.24999999  1
  S  S11  1  0.33950500  0.25000000  0.74999999  1
  S  S12  1  0.32305600  0.57160801  0.21007200  1
  S  S13  1  0.10473600  0.92839201  0.28992800  1
  S  S14  1  0.67694400  0.42839200  0.78992798  1
  S  S15  1  0.89526400  0.07160800  0.71007197  1
  S  S16  1  0.80038000  0.06550500  0.07888198  1
  S  S17  1  0.94476700  0.43449500  0.42111798  1
  S  S18  1  0.19962000  0.93449501  0.92111800  1
  S  S19  1  0.05523300  0.56550501  0.57888200  1
