# generated using pymatgen
data_Sb2Te3
_symmetry_space_group_name_H-M   'P 1'
_cell_length_a   4.29243231
_cell_length_b   4.29243231
_cell_length_c   10.93124104
_cell_angle_alpha   78.67711639
_cell_angle_beta   78.67711639
_cell_angle_gamma   60.00000000
_symmetry_Int_Tables_number   1
_chemical_formula_structural   Sb2Te3
_chemical_formula_sum   'Sb2 Te3'
_cell_volume   169.88264850
_cell_formula_units_Z   1
loop_
 _symmetry_equiv_pos_site_id
 _symmetry_equiv_pos_as_xyz
  1  'x, y, z'
loop_
 _atom_site_type_symbol
 _atom_site_label
 _atom_site_symmetry_multiplicity
 _atom_site_fract_x
 _atom_site_fract_y
 _atom_site_fract_z
 _atom_site_occupancy
  Sb  Sb0  1  0.38788599  0.38788597  0.83634201  1
  Sb  Sb1  1  0.61211398  0.61211396  0.16365800  1
  Te  Te2  1  0.77733498  0.77733495  0.66799501  1
  Te  Te3  1  0.22266499  0.22266499  0.33200500  1
  Te  Te4  1  0.00000000  0.00000000  0.00000000  1
