# generated using pymatgen
data_K4ZnAgCl8
_symmetry_space_group_name_H-M   'P 1'
_cell_length_a   7.42259121
_cell_length_b   7.63570118
_cell_length_c   9.54909706
_cell_angle_alpha   108.31597137
_cell_angle_beta   89.97414398
_cell_angle_gamma   89.90180206
_symmetry_Int_Tables_number   1
_chemical_formula_structural   K4ZnAgCl8
_chemical_formula_sum   'K4 Zn1 Ag1 Cl8'
_cell_volume   513.79127714
_cell_formula_units_Z   1
loop_
 _symmetry_equiv_pos_site_id
 _symmetry_equiv_pos_as_xyz
  1  'x, y, z'
loop_
 _atom_site_type_symbol
 _atom_site_label
 _atom_site_symmetry_multiplicity
 _atom_site_fract_x
 _atom_site_fract_y
 _atom_site_fract_z
 _atom_site_occupancy
  K  K0  1  0.74300401  0.76310099  0.94571997  1
  K  K1  1  0.25683000  0.23516000  0.06380098  1
  K  K2  1  0.74333601  0.77703799  0.44134295  1
  K  K3  1  0.25496500  0.22194900  0.55000400  1
  Zn  Zn4  1  0.75071999  0.21197400  0.29936798  1
  Ag  Ag5  1  0.25710902  0.78230399  0.69961397  1
  Cl  Cl6  1  0.74965699  0.39723499  0.11119897  1
  Cl  Cl7  1  0.25221802  0.59940199  0.88869099  1
  Cl  Cl8  1  0.74871599  0.38540499  0.58144098  1
  Cl  Cl9  1  0.25202502  0.61479699  0.41606897  1
  Cl  Cl10  1  0.98629197  0.01046200  0.75976600  1
  Cl  Cl11  1  0.49814999  0.00527000  0.24387200  1
  Cl  Cl12  1  0.00212100  0.00451300  0.24360801  1
  Cl  Cl13  1  0.50485502  0.99138898  0.75550396  1
