# generated using pymatgen
data_Rb4CoReRuCl11
_symmetry_space_group_name_H-M   'P 1'
_cell_length_a   7.41134596
_cell_length_b   8.45527744
_cell_length_c   9.52516079
_cell_angle_alpha   90.00000000
_cell_angle_beta   112.89480591
_cell_angle_gamma   90.00000000
_symmetry_Int_Tables_number   1
_chemical_formula_structural   Rb4CoReRuCl11
_chemical_formula_sum   'Rb4 Co1 Re1 Ru1 Cl11'
_cell_volume   549.87115992
_cell_formula_units_Z   1
loop_
 _symmetry_equiv_pos_site_id
 _symmetry_equiv_pos_as_xyz
  1  'x, y, z'
loop_
 _atom_site_type_symbol
 _atom_site_label
 _atom_site_symmetry_multiplicity
 _atom_site_fract_x
 _atom_site_fract_y
 _atom_site_fract_z
 _atom_site_occupancy
  Rb  Rb0  1  0.46979200  0.24999999  0.93958399  1
  Rb  Rb1  1  0.53020800  0.74999996  0.06041599  1
  Rb  Rb2  1  0.75708100  0.24999999  0.51416198  1
  Rb  Rb3  1  0.24291900  0.74999996  0.48583800  1
  Co  Co4  1  0.10811800  0.24999999  0.21623600  1
  Re  Re5  1  0.89188199  0.74999996  0.78376398  1
  Cl  Cl6  1  0.24609400  0.24999999  0.49218900  1
  Ru  Ru7  1  0.75390600  0.74999996  0.50781098  1
  Cl  Cl8  1  0.88614799  0.04995800  0.22493598  1
  Cl  Cl9  1  0.66121200  0.95004195  0.77506399  1
  Cl  Cl10  1  0.88614799  0.45004198  0.22493598  1
  Cl  Cl11  1  0.66121200  0.54995797  0.77506399  1
  Cl  Cl12  1  0.11385200  0.95004195  0.77506400  1
  Cl  Cl13  1  0.33878800  0.04995800  0.22493599  1
  Cl  Cl14  1  0.11385200  0.54995797  0.77506400  1
  Cl  Cl15  1  0.33878800  0.45004198  0.22493599  1
  Cl  Cl16  1  0.00584000  0.24999999  0.01168000  1
  Cl  Cl17  1  0.99415999  0.74999996  0.98831998  1
