# generated using pymatgen
data_H2C
_symmetry_space_group_name_H-M   'P 1'
_cell_length_a   5.55705309
_cell_length_b   5.55705309
_cell_length_c   5.55705309
_cell_angle_alpha   60.00000000
_cell_angle_beta   60.00000000
_cell_angle_gamma   60.00000000
_symmetry_Int_Tables_number   1
_chemical_formula_structural   H2C
_chemical_formula_sum   'H4 C2'
_cell_volume   121.34409295
_cell_formula_units_Z   2
loop_
 _symmetry_equiv_pos_site_id
 _symmetry_equiv_pos_as_xyz
  1  'x, y, z'
loop_
 _atom_site_type_symbol
 _atom_site_label
 _atom_site_symmetry_multiplicity
 _atom_site_fract_x
 _atom_site_fract_y
 _atom_site_fract_z
 _atom_site_occupancy
  H  H0  1  0.75000001  0.75000001  0.75000001  1
  H  H1  1  0.50000001  0.50000001  0.50000001  1
  C  C2  1  0.60823201  0.60823201  0.60823201  1
  H  H3  1  0.60823201  0.60823201  0.17530400  1
  C  C4  1  0.60823201  0.17530400  0.60823201  1
  H  H5  1  0.17530400  0.60823201  0.60823201  1
