# generated using pymatgen
data_Cs4BrCl7
_symmetry_space_group_name_H-M   'P 1'
_cell_length_a   6.09835720
_cell_length_b   9.03495216
_cell_length_c   9.03495216
_cell_angle_alpha   120.00000000
_cell_angle_beta   90.00000000
_cell_angle_gamma   90.00000000
_symmetry_Int_Tables_number   1
_chemical_formula_structural   Cs4BrCl7
_chemical_formula_sum   'Cs4 Br1 Cl7'
_cell_volume   431.11705660
_cell_formula_units_Z   1
loop_
 _symmetry_equiv_pos_site_id
 _symmetry_equiv_pos_as_xyz
  1  'x, y, z'
loop_
 _atom_site_type_symbol
 _atom_site_label
 _atom_site_symmetry_multiplicity
 _atom_site_fract_x
 _atom_site_fract_y
 _atom_site_fract_z
 _atom_site_occupancy
  Cs  Cs0  1  0.00000000  0.35005999  0.35006000  1
  Cs  Cs1  1  0.99999997  0.64993999  0.00000000  1
  Cs  Cs2  1  0.99999997  0.00000000  0.64993999  1
  Cs  Cs3  1  0.49999998  0.68363299  0.68363299  1
  Cl  Cl4  1  0.49999998  0.31636699  0.99999999  1
  Br  Br5  1  0.49999998  0.00000000  0.31636700  1
  Cl  Cl6  1  0.80028697  0.00000000  0.00000000  1
  Cl  Cl7  1  0.19971299  0.00000000  0.00000000  1
  Cl  Cl8  1  0.70075998  0.66666666  0.33333333  1
  Cl  Cl9  1  0.29923999  0.66666666  0.33333333  1
  Cl  Cl10  1  0.29923999  0.33333333  0.66666666  1
  Cl  Cl11  1  0.70075998  0.33333333  0.66666666  1
