# generated using pymatgen
data_CsPbBr3
_symmetry_space_group_name_H-M   'P 1'
_cell_length_a   6.23149920
_cell_length_b   6.23463249
_cell_length_c   6.23463249
_cell_angle_alpha   89.99761200
_cell_angle_beta   89.99261475
_cell_angle_gamma   89.99261475
_symmetry_Int_Tables_number   1
_chemical_formula_structural   CsPbBr3
_chemical_formula_sum   'Cs1 Pb1 Br3'
_cell_volume   242.22237204
_cell_formula_units_Z   1
loop_
 _symmetry_equiv_pos_site_id
 _symmetry_equiv_pos_as_xyz
  1  'x, y, z'
loop_
 _atom_site_type_symbol
 _atom_site_label
 _atom_site_symmetry_multiplicity
 _atom_site_fract_x
 _atom_site_fract_y
 _atom_site_fract_z
 _atom_site_occupancy
  Cs  Cs0  1  0.00202001  0.99982902  0.99982908  1
  Pb  Pb1  1  0.51742500  0.49479801  0.49479804  1
  Br  Br2  1  0.51316800  0.99889102  0.49620107  1
  Br  Br3  1  0.01633001  0.50736401  0.50736404  1
  Br  Br4  1  0.51316800  0.49620101  0.99889106  1
