# generated using pymatgen
data_CeZr2O6
_symmetry_space_group_name_H-M   'P 1'
_cell_length_a   3.73605943
_cell_length_b   5.24531984
_cell_length_c   6.42207575
_cell_angle_alpha   114.10323334
_cell_angle_beta   106.91043091
_cell_angle_gamma   90.00000000
_symmetry_Int_Tables_number   1
_chemical_formula_structural   CeZr2O6
_chemical_formula_sum   'Ce1 Zr2 O6'
_cell_volume   108.89061855
_cell_formula_units_Z   1
loop_
 _symmetry_equiv_pos_site_id
 _symmetry_equiv_pos_as_xyz
  1  'x, y, z'
loop_
 _atom_site_type_symbol
 _atom_site_label
 _atom_site_symmetry_multiplicity
 _atom_site_fract_x
 _atom_site_fract_y
 _atom_site_fract_z
 _atom_site_occupancy
  Ce  Ce0  1  0.00000000  0.00000000  0.00000000  1
  Zr  Zr1  1  0.33104802  0.33104801  0.66209599  1
  Zr  Zr2  1  0.66895204  0.66895202  0.33790401  1
  O  O3  1  0.50000004  0.73800702  0.00000001  1
  O  O4  1  0.82753403  0.08498600  0.65506801  1
  O  O5  1  0.17246602  0.42991701  0.34493199  1
  O  O6  1  0.50000003  0.26199301  0.99999999  1
  O  O7  1  0.82753405  0.57008301  0.65506801  1
  O  O8  1  0.17246603  0.91501402  0.34493199  1
