# generated using pymatgen
data_NaYZnIn(PO)2
_symmetry_space_group_name_H-M   'P 1'
_cell_length_a   3.77891994
_cell_length_b   3.77892017
_cell_length_c   11.51509380
_cell_angle_alpha   90.00000000
_cell_angle_beta   90.00000000
_cell_angle_gamma   120.00000000
_symmetry_Int_Tables_number   1
_chemical_formula_structural   NaYZnIn(PO)2
_chemical_formula_sum   'Na1 Y1 Zn1 In1 P2 O2'
_cell_volume   142.40771574
_cell_formula_units_Z   1
loop_
 _symmetry_equiv_pos_site_id
 _symmetry_equiv_pos_as_xyz
  1  'x, y, z'
loop_
 _atom_site_type_symbol
 _atom_site_label
 _atom_site_symmetry_multiplicity
 _atom_site_fract_x
 _atom_site_fract_y
 _atom_site_fract_z
 _atom_site_occupancy
  Y  Y0  1  0.66666669  0.33333335  0.72813601  1
  Na  Na1  1  0.33333337  0.66666669  0.22813600  1
  Zn  Zn2  1  0.00000000  0.00000000  0.49943801  1
  In  In3  1  0.00000000  0.00000000  0.99943802  1
  P  P4  1  0.33333337  0.66666669  0.91745102  1
  P  P5  1  0.66666669  0.33333335  0.41745101  1
  O  O6  1  0.00000000  0.00000000  0.16728400  1
  O  O7  1  0.00000000  0.00000000  0.66728401  1
