# generated using pymatgen
data_HgI2
_symmetry_space_group_name_H-M   'P 1'
_cell_length_a   3.93305111
_cell_length_b   8.46040726
_cell_length_c   8.46040726
_cell_angle_alpha   90.00000000
_cell_angle_beta   90.00000000
_cell_angle_gamma   90.00000000
_symmetry_Int_Tables_number   1
_chemical_formula_structural   HgI2
_chemical_formula_sum   'Hg2 I4'
_cell_volume   281.52186326
_cell_formula_units_Z   2
loop_
 _symmetry_equiv_pos_site_id
 _symmetry_equiv_pos_as_xyz
  1  'x, y, z'
loop_
 _atom_site_type_symbol
 _atom_site_label
 _atom_site_symmetry_multiplicity
 _atom_site_fract_x
 _atom_site_fract_y
 _atom_site_fract_z
 _atom_site_occupancy
  Hg  Hg0  1  0.00000000  0.00000000  0.00000000  1
  Hg  Hg1  1  0.49999999  0.49999998  0.49999998  1
  I  I2  1  -0.00000000  0.33119599  0.33119599  1
  I  I3  1  0.99999997  0.66880398  0.66880398  1
  I  I4  1  0.49999999  0.16880399  0.83119597  1
  I  I5  1  0.49999999  0.83119597  0.16880399  1
