# generated using pymatgen
data_Zn2GaGeAs3P
_symmetry_space_group_name_H-M   'P 1'
_cell_length_a   5.66522312
_cell_length_b   5.66522312
_cell_length_c   6.97237062
_cell_angle_alpha   113.94064331
_cell_angle_beta   113.94064331
_cell_angle_gamma   90.03176880
_symmetry_Int_Tables_number   1
_chemical_formula_structural   Zn2GaGeAs3P
_chemical_formula_sum   'Zn2 Ga1 Ge1 As3 P1'
_cell_volume   183.23539223
_cell_formula_units_Z   1
loop_
 _symmetry_equiv_pos_site_id
 _symmetry_equiv_pos_as_xyz
  1  'x, y, z'
loop_
 _atom_site_type_symbol
 _atom_site_label
 _atom_site_symmetry_multiplicity
 _atom_site_fract_x
 _atom_site_fract_y
 _atom_site_fract_z
 _atom_site_occupancy
  Zn  Zn0  1  0.99608807  0.99608802  0.00702706  1
  Zn  Zn1  1  0.23825106  0.75504501  0.49292904  1
  Ga  Ga2  1  0.75504502  0.23825100  0.49292903  1
  Ge  Ge3  1  0.51031304  0.51031301  0.00603803  1
  As  As4  1  0.37765603  0.37765601  0.27189203  1
  As  As5  1  0.10581905  0.62514101  0.73108404  1
  As  As6  1  0.62514101  0.10581900  0.73108402  1
  P  P7  1  0.89168707  0.89168701  0.26701706  1
