# generated using pymatgen
data_Li2Ca3NpCdInN4
_symmetry_space_group_name_H-M   'P 1'
_cell_length_a   6.43030787
_cell_length_b   6.78034210
_cell_length_c   6.46548223
_cell_angle_alpha   118.47540283
_cell_angle_beta   90.00000000
_cell_angle_gamma   118.30646515
_symmetry_Int_Tables_number   1
_chemical_formula_structural   Li2Ca3NpCdInN4
_chemical_formula_sum   'Li2 Ca3 Np1 Cd1 In1 N4'
_cell_volume   208.64379102
_cell_formula_units_Z   1
loop_
 _symmetry_equiv_pos_site_id
 _symmetry_equiv_pos_as_xyz
  1  'x, y, z'
loop_
 _atom_site_type_symbol
 _atom_site_label
 _atom_site_symmetry_multiplicity
 _atom_site_fract_x
 _atom_site_fract_y
 _atom_site_fract_z
 _atom_site_occupancy
  Li  Li0  1  0.00000000  0.50000003  0.50000002  1
  Ca  Ca1  1  0.50000002  0.50000003  0.50000002  1
  Li  Li2  1  0.50000001  0.00000000  0.00000000  1
  Ca  Ca3  1  0.25000001  1.00000006  0.50000005  1
  Ca  Ca4  1  0.00000000  0.00000000  0.00000000  1
  Np  Np5  1  0.50000002  0.50000003  0.00000004  1
  In  In6  1  0.75000002  0.00000000  0.49999998  1
  Cd  Cd7  1  1.00000003  0.50000003  0.00000004  1
  N  N8  1  0.11210800  0.22421601  0.39040400  1
  N  N9  1  0.61210802  0.22421601  0.83381199  1
  N  N10  1  0.38789202  0.77578405  0.16618805  1
  N  N11  1  0.88789203  0.77578405  0.60959603  1
