# generated using pymatgen
data_ZnP2O7
_symmetry_space_group_name_H-M   'P 1'
_cell_length_a   5.48248291
_cell_length_b   6.86343813
_cell_length_c   8.57016277
_cell_angle_alpha   90.00000000
_cell_angle_beta   90.00000000
_cell_angle_gamma   90.00000000
_symmetry_Int_Tables_number   1
_chemical_formula_structural   ZnP2O7
_chemical_formula_sum   'Zn2 P4 O14'
_cell_volume   322.48393182
_cell_formula_units_Z   2
loop_
 _symmetry_equiv_pos_site_id
 _symmetry_equiv_pos_as_xyz
  1  'x, y, z'
loop_
 _atom_site_type_symbol
 _atom_site_label
 _atom_site_symmetry_multiplicity
 _atom_site_fract_x
 _atom_site_fract_y
 _atom_site_fract_z
 _atom_site_occupancy
  Zn  Zn0  1  -0.00000000  0.49999999  0.00000000  1
  Zn  Zn1  1  0.50000001  0.00000000  0.50000001  1
  P  P2  1  -0.00000000  0.31195899  0.39314901  1
  P  P3  1  0.50000001  0.81195898  0.10685100  1
  P  P4  1  0.50000001  0.18804100  0.89314902  1
  P  P5  1  -0.00000000  0.68804099  0.60685102  1
  O  O6  1  0.26912800  0.69904799  0.06731700  1
  O  O7  1  0.50000001  0.88299198  0.27507101  1
  O  O8  1  -0.00000000  0.38299199  0.22492901  1
  O  O9  1  0.23087200  0.19904800  0.43268301  1
  O  O10  1  -0.00000000  0.61700799  0.77507102  1
  O  O11  1  0.73087201  0.30095199  0.93268302  1
  O  O12  1  0.23087200  0.80095198  0.56731702  1
  O  O13  1  0.50000001  0.11700800  0.72492902  1
  O  O14  1  0.76912801  0.80095198  0.56731702  1
  O  O15  1  0.26912800  0.30095199  0.93268302  1
  O  O16  1  -0.00000000  0.49999999  0.50000001  1
  O  O17  1  0.76912801  0.19904800  0.43268301  1
  O  O18  1  0.73087201  0.69904799  0.06731700  1
  O  O19  1  0.50000001  0.00000000  0.00000000  1
