# generated using pymatgen
data_BSO3F
_symmetry_space_group_name_H-M   'P 1'
_cell_length_a   4.44199419
_cell_length_b   4.59577465
_cell_length_c   4.44199419
_cell_angle_alpha   61.10085297
_cell_angle_beta   90.00000000
_cell_angle_gamma   118.89914703
_symmetry_Int_Tables_number   1
_chemical_formula_structural   BSO3F
_chemical_formula_sum   'B1 S1 O3 F1'
_cell_volume   66.19697699
_cell_formula_units_Z   1
loop_
 _symmetry_equiv_pos_site_id
 _symmetry_equiv_pos_as_xyz
  1  'x, y, z'
loop_
 _atom_site_type_symbol
 _atom_site_label
 _atom_site_symmetry_multiplicity
 _atom_site_fract_x
 _atom_site_fract_y
 _atom_site_fract_z
 _atom_site_occupancy
  S  S0  1  0.24999998  0.49999998  0.25000000  1
  B  B1  1  0.00000000  0.00000000  0.00000000  1
  O  O2  1  0.25735699  0.25375099  0.13155500  1
  F  F3  1  0.61469396  0.74624897  0.25735700  1
  O  O4  1  0.99639395  0.25375199  0.61469398  1
  O  O5  1  0.13155399  0.74624797  0.99639497  1
