# generated using pymatgen
data_LiBr
_symmetry_space_group_name_H-M   'P 1'
_cell_length_a   5.85995007
_cell_length_b   5.85995007
_cell_length_c   5.85995007
_cell_angle_alpha   90.00000000
_cell_angle_beta   90.00000000
_cell_angle_gamma   90.00000000
_symmetry_Int_Tables_number   1
_chemical_formula_structural   LiBr
_chemical_formula_sum   'Li4 Br4'
_cell_volume   201.22491186
_cell_formula_units_Z   4
loop_
 _symmetry_equiv_pos_site_id
 _symmetry_equiv_pos_as_xyz
  1  'x, y, z'
loop_
 _atom_site_type_symbol
 _atom_site_label
 _atom_site_symmetry_multiplicity
 _atom_site_fract_x
 _atom_site_fract_y
 _atom_site_fract_z
 _atom_site_occupancy
  Li  Li0  1  -0.00000000  0.49999999  0.49999999  1
  Li  Li1  1  0.49999999  0.49999999  0.00000000  1
  Li  Li2  1  0.49999999  0.00000000  0.49999999  1
  Li  Li3  1  0.00000000  0.00000000  0.00000000  1
  Br  Br4  1  0.73848599  0.73848599  0.26151400  1
  Br  Br5  1  0.73848599  0.26151400  0.73848599  1
  Br  Br6  1  0.26151400  0.73848599  0.73848599  1
  Br  Br7  1  0.26151400  0.26151400  0.26151400  1
