# generated using pymatgen
data_Hg3F5
_symmetry_space_group_name_H-M   'P 1'
_cell_length_a   4.04431820
_cell_length_b   4.11061621
_cell_length_c   8.38659573
_cell_angle_alpha   75.81399536
_cell_angle_beta   90.00000000
_cell_angle_gamma   90.00000000
_symmetry_Int_Tables_number   1
_chemical_formula_structural   Hg3F5
_chemical_formula_sum   'Hg3 F5'
_cell_volume   135.17242887
_cell_formula_units_Z   1
loop_
 _symmetry_equiv_pos_site_id
 _symmetry_equiv_pos_as_xyz
  1  'x, y, z'
loop_
 _atom_site_type_symbol
 _atom_site_label
 _atom_site_symmetry_multiplicity
 _atom_site_fract_x
 _atom_site_fract_y
 _atom_site_fract_z
 _atom_site_occupancy
  F  F0  1  0.74999996  0.10674499  0.78650996  1
  Hg  Hg1  1  0.24999999  0.89325495  0.21349000  1
  Hg  Hg2  1  0.24999999  0.68118996  0.63761998  1
  Hg  Hg3  1  0.74999996  0.31880998  0.36237999  1
  F  F4  1  0.74999996  0.75021596  0.49956798  1
  F  F5  1  0.24999999  0.24978399  0.50043198  1
  F  F6  1  0.24999999  0.54313297  0.91373396  1
  F  F7  1  0.74999996  0.45686697  0.08626600  1
