# generated using pymatgen
data_F2
_symmetry_space_group_name_H-M   'P 1'
_cell_length_a   3.78451109
_cell_length_b   6.20782280
_cell_length_c   6.80450535
_cell_angle_alpha   111.49301910
_cell_angle_beta   90.00000000
_cell_angle_gamma   90.00000000
_symmetry_Int_Tables_number   1
_chemical_formula_structural   F2
_chemical_formula_sum   F12
_cell_volume   148.74569162
_cell_formula_units_Z   6
loop_
 _symmetry_equiv_pos_site_id
 _symmetry_equiv_pos_as_xyz
  1  'x, y, z'
loop_
 _atom_site_type_symbol
 _atom_site_label
 _atom_site_symmetry_multiplicity
 _atom_site_fract_x
 _atom_site_fract_y
 _atom_site_fract_z
 _atom_site_occupancy
  F  F0  1  0.74999998  0.30353001  0.12644900  1
  F  F1  1  0.24999999  0.69647003  0.87355099  1
  F  F2  1  0.24999999  0.11471700  0.77947498  1
  F  F3  1  0.74999998  0.88528303  0.22052501  1
  F  F4  1  0.24999999  0.69306303  0.29979400  1
  F  F5  1  0.74999998  0.30693701  0.70020599  1
  F  F6  1  0.24999999  0.24652301  0.43631999  1
  F  F7  1  0.74999998  0.75347703  0.56368000  1
  F  F8  1  0.24999999  0.10066800  0.91808198  1
  F  F9  1  0.74999998  0.89933203  0.08191801  1
  F  F10  1  0.24999999  0.56750602  0.16123100  1
  F  F11  1  0.74999998  0.43249402  0.83876899  1
