# generated using pymatgen
data_F2
_symmetry_space_group_name_H-M   'P 1'
_cell_length_a   4.68299198
_cell_length_b   5.90320969
_cell_length_c   6.02150249
_cell_angle_alpha   79.69190979
_cell_angle_beta   67.11667633
_cell_angle_gamma   66.63121033
_symmetry_Int_Tables_number   1
_chemical_formula_structural   F2
_chemical_formula_sum   F6
_cell_volume   140.72150190
_cell_formula_units_Z   3
loop_
 _symmetry_equiv_pos_site_id
 _symmetry_equiv_pos_as_xyz
  1  'x, y, z'
loop_
 _atom_site_type_symbol
 _atom_site_label
 _atom_site_symmetry_multiplicity
 _atom_site_fract_x
 _atom_site_fract_y
 _atom_site_fract_z
 _atom_site_occupancy
  F  F0  1  0.53785402  0.21649899  0.70779298  1
  F  F1  1  0.46214605  0.78350096  0.29220702  1
  F  F2  1  0.17365902  0.37985698  0.27282501  1
  F  F3  1  0.82634105  0.62014297  0.72717499  1
  F  F4  1  0.84482403  0.20308199  0.10726998  1
  F  F5  1  0.15517604  0.79691796  0.89273001  1
