# generated using pymatgen
data_F2
_symmetry_space_group_name_H-M   'P 1'
_cell_length_a   3.02143145
_cell_length_b   3.02143145
_cell_length_c   5.20241737
_cell_angle_alpha   73.11887360
_cell_angle_beta   73.11887360
_cell_angle_gamma   60.00001144
_symmetry_Int_Tables_number   1
_chemical_formula_structural   F2
_chemical_formula_sum   F4
_cell_volume   38.74913207
_cell_formula_units_Z   2
loop_
 _symmetry_equiv_pos_site_id
 _symmetry_equiv_pos_as_xyz
  1  'x, y, z'
loop_
 _atom_site_type_symbol
 _atom_site_label
 _atom_site_symmetry_multiplicity
 _atom_site_fract_x
 _atom_site_fract_y
 _atom_site_fract_z
 _atom_site_occupancy
  F  F0  1  0.81411099  0.81411101  0.55766703  1
  F  F1  1  0.30894400  0.30894400  0.07316800  1
  F  F2  1  0.93403799  0.93403801  0.19788601  1
  F  F3  1  0.43840300  0.43840300  0.68479103  1
