# generated using pymatgen
data_F2
_symmetry_space_group_name_H-M   'P 1'
_cell_length_a   5.09585381
_cell_length_b   5.09692335
_cell_length_c   5.15729284
_cell_angle_alpha   89.99829102
_cell_angle_beta   89.99604034
_cell_angle_gamma   60.01308441
_symmetry_Int_Tables_number   1
_chemical_formula_structural   F2
_chemical_formula_sum   F12
_cell_volume   116.02049956
_cell_formula_units_Z   6
loop_
 _symmetry_equiv_pos_site_id
 _symmetry_equiv_pos_as_xyz
  1  'x, y, z'
loop_
 _atom_site_type_symbol
 _atom_site_label
 _atom_site_symmetry_multiplicity
 _atom_site_fract_x
 _atom_site_fract_y
 _atom_site_fract_z
 _atom_site_occupancy
  F  F0  1  0.16281099  0.99998601  0.94068108  1
  F  F1  1  0.83724097  0.99999201  0.44066307  1
  F  F2  1  0.16892899  0.31271200  0.49395803  1
  F  F3  1  0.48165098  0.68727301  0.49396605  1
  F  F4  1  0.83113897  0.68730901  0.99399807  1
  F  F5  1  0.51839998  0.31275000  0.99390705  1
  F  F6  1  0.16454599  0.34462100  0.85682304  1
  F  F7  1  0.50915698  0.65535601  0.85684806  1
  F  F8  1  0.83536297  0.65536401  0.35688205  1
  F  F9  1  0.49074398  0.34463000  0.35684103  1
  F  F10  1  0.17079699  0.99999001  0.30210406  1
  F  F11  1  0.82922197  0.00001700  0.80208904  1
