# generated using pymatgen
data_F2
_symmetry_space_group_name_H-M   'P 1'
_cell_length_a   3.78005910
_cell_length_b   5.46112442
_cell_length_c   5.69581461
_cell_angle_alpha   82.16475677
_cell_angle_beta   70.62025452
_cell_angle_gamma   69.75177002
_symmetry_Int_Tables_number   1
_chemical_formula_structural   F2
_chemical_formula_sum   F12
_cell_volume   104.03348533
_cell_formula_units_Z   6
loop_
 _symmetry_equiv_pos_site_id
 _symmetry_equiv_pos_as_xyz
  1  'x, y, z'
loop_
 _atom_site_type_symbol
 _atom_site_label
 _atom_site_symmetry_multiplicity
 _atom_site_fract_x
 _atom_site_fract_y
 _atom_site_fract_z
 _atom_site_occupancy
  F  F0  1  0.00000000  0.00000000  0.00000000  1
  F  F1  1  0.67711697  0.20096601  0.44480000  1
  F  F2  1  0.32288296  0.79903404  0.55519999  1
  F  F3  1  0.46242397  0.39712802  0.25113900  1
  F  F4  1  0.11069197  0.60287203  0.74886098  1
  F  F5  1  0.53757596  0.60287203  0.74886099  1
  F  F6  1  0.88930795  0.39712802  0.25113901  1
  F  F7  1  0.73038896  0.27328801  0.26593301  1
  F  F8  1  0.26961096  0.72671204  0.73406698  1
  F  F9  1  0.01130197  0.74351604  0.23388100  1
  F  F10  1  0.98869795  0.25648401  0.76611899  1
  F  F11  1  0.49999998  0.00000000  0.00000001  1
