# generated using pymatgen
data_F2
_symmetry_space_group_name_H-M   'P 1'
_cell_length_a   5.63688421
_cell_length_b   5.63688421
_cell_length_c   8.20371819
_cell_angle_alpha   90.00000000
_cell_angle_beta   90.00000000
_cell_angle_gamma   90.00000000
_symmetry_Int_Tables_number   1
_chemical_formula_structural   F2
_chemical_formula_sum   F14
_cell_volume   260.66874507
_cell_formula_units_Z   7
loop_
 _symmetry_equiv_pos_site_id
 _symmetry_equiv_pos_as_xyz
  1  'x, y, z'
loop_
 _atom_site_type_symbol
 _atom_site_label
 _atom_site_symmetry_multiplicity
 _atom_site_fract_x
 _atom_site_fract_y
 _atom_site_fract_z
 _atom_site_occupancy
  F  F0  1  0.49999998  0.00000000  0.24999999  1
  F  F1  1  0.00000000  0.49999998  0.24999999  1
  F  F2  1  0.49999998  0.00000000  0.74999998  1
  F  F3  1  0.00000000  0.49999998  0.74999998  1
  F  F4  1  0.20885099  0.20885099  -0.00000000  1
  F  F5  1  0.79114897  0.79114897  -0.00000000  1
  F  F6  1  0.00000000  0.00000000  0.20308400  1
  F  F7  1  0.49999998  0.49999998  0.29691599  1
  F  F8  1  0.70885097  0.29114899  0.49999999  1
  F  F9  1  0.29114899  0.70885097  0.49999999  1
  F  F10  1  0.49999998  0.49999998  0.70308398  1
  F  F11  1  0.00000000  0.00000000  0.79691598  1
  F  F12  1  0.00000000  0.00000000  0.00000000  1
  F  F13  1  0.49999998  0.49999998  0.49999999  1
