# generated using pymatgen
data_HgF2
_symmetry_space_group_name_H-M   'P 1'
_cell_length_a   3.94257498
_cell_length_b   6.41477013
_cell_length_c   6.41477013
_cell_angle_alpha   120.00000000
_cell_angle_beta   90.00000000
_cell_angle_gamma   90.00000000
_symmetry_Int_Tables_number   1
_chemical_formula_structural   HgF2
_chemical_formula_sum   'Hg3 F6'
_cell_volume   140.49885631
_cell_formula_units_Z   3
loop_
 _symmetry_equiv_pos_site_id
 _symmetry_equiv_pos_as_xyz
  1  'x, y, z'
loop_
 _atom_site_type_symbol
 _atom_site_label
 _atom_site_symmetry_multiplicity
 _atom_site_fract_x
 _atom_site_fract_y
 _atom_site_fract_z
 _atom_site_occupancy
  F  F0  1  0.50000000  0.57040799  0.00000001  1
  F  F1  1  0.50000000  0.42959200  0.42959201  1
  F  F2  1  0.50000000  0.00000000  0.57040801  1
  Hg  Hg3  1  -0.00000000  0.00000000  0.24284200  1
  Hg  Hg4  1  1.00000001  0.75715799  0.75715802  1
  Hg  Hg5  1  1.00000001  0.24284200  0.00000000  1
  F  F6  1  1.00000001  0.33333333  0.66666668  1
  F  F7  1  1.00000001  0.66666666  0.33333335  1
  F  F8  1  0.50000000  0.00000000  -0.00000000  1
