# generated using pymatgen
data_F2
_symmetry_space_group_name_H-M   'P 1'
_cell_length_a   3.31612396
_cell_length_b   6.67394876
_cell_length_c   14.08797359
_cell_angle_alpha   100.25198364
_cell_angle_beta   96.75900269
_cell_angle_gamma   90.00000000
_symmetry_Int_Tables_number   1
_chemical_formula_structural   F2
_chemical_formula_sum   F15
_cell_volume   304.60975094
_cell_formula_units_Z   7
loop_
 _symmetry_equiv_pos_site_id
 _symmetry_equiv_pos_as_xyz
  1  'x, y, z'
loop_
 _atom_site_type_symbol
 _atom_site_label
 _atom_site_symmetry_multiplicity
 _atom_site_fract_x
 _atom_site_fract_y
 _atom_site_fract_z
 _atom_site_occupancy
  F  F0  1  0.63061600  0.76159199  0.26123198  1
  F  F1  1  0.23335499  0.96688599  0.46670998  1
  F  F2  1  0.83262201  0.16533800  0.66524400  1
  F  F3  1  0.43788000  0.37558299  0.87576000  1
  F  F4  1  0.03285599  0.56547499  0.06571198  1
  F  F5  1  0.48536499  0.71844599  0.97072999  1
  F  F6  1  0.28358600  0.31533200  0.56717200  1
  F  F7  1  0.88456700  0.50961999  0.76913399  1
  F  F8  1  0.08157099  0.90887299  0.16314197  1
  F  F9  1  0.68225201  0.10870300  0.36450400  1
  F  F10  1  0.11463899  0.48363599  0.22927799  1
  F  F11  1  0.71498000  0.68612799  0.42995998  1
  F  F12  1  0.31684799  0.88548599  0.63369598  1
  F  F13  1  0.91688101  0.09255000  0.83376201  1
  F  F14  1  0.51868100  0.28925200  0.03736199  1
