# generated using pymatgen
data_F2
_symmetry_space_group_name_H-M   'P 1'
_cell_length_a   6.03624296
_cell_length_b   7.85276318
_cell_length_c   7.85276318
_cell_angle_alpha   90.00000000
_cell_angle_beta   90.00000000
_cell_angle_gamma   90.00000000
_symmetry_Int_Tables_number   1
_chemical_formula_structural   F2
_chemical_formula_sum   F18
_cell_volume   372.23029147
_cell_formula_units_Z   9
loop_
 _symmetry_equiv_pos_site_id
 _symmetry_equiv_pos_as_xyz
  1  'x, y, z'
loop_
 _atom_site_type_symbol
 _atom_site_label
 _atom_site_symmetry_multiplicity
 _atom_site_fract_x
 _atom_site_fract_y
 _atom_site_fract_z
 _atom_site_occupancy
  F  F0  1  0.00000000  0.49999999  0.49999999  1
  F  F1  1  0.00000000  0.00000000  0.00000000  1
  F  F2  1  0.50000000  0.18365000  0.68364998  1
  F  F3  1  0.50000000  0.81634998  0.31634999  1
  F  F4  1  0.50000000  0.68364998  0.81634998  1
  F  F5  1  0.50000000  0.31634999  0.18365000  1
  F  F6  1  0.50000000  0.49999999  0.49999999  1
  F  F7  1  0.50000000  0.00000000  -0.00000000  1
  F  F8  1  0.80830501  0.60787399  0.10787400  1
  F  F9  1  0.80830501  0.39212599  0.89212598  1
  F  F10  1  0.80830501  0.10787400  0.39212599  1
  F  F11  1  0.80830501  0.89212598  0.60787399  1
  F  F12  1  0.19169500  0.39212599  0.89212598  1
  F  F13  1  0.19169500  0.60787399  0.10787400  1
  F  F14  1  0.19169500  0.89212598  0.60787399  1
  F  F15  1  0.19169500  0.10787400  0.39212599  1
  F  F16  1  0.00000000  0.49999999  -0.00000000  1
  F  F17  1  0.00000000  0.00000000  0.49999999  1
