# generated using pymatgen
data_F2
_symmetry_space_group_name_H-M   'P 1'
_cell_length_a   4.27658987
_cell_length_b   4.27658987
_cell_length_c   8.86093521
_cell_angle_alpha   103.96428680
_cell_angle_beta   103.96428680
_cell_angle_gamma   90.00000000
_symmetry_Int_Tables_number   1
_chemical_formula_structural   F2
_chemical_formula_sum   F6
_cell_volume   152.33017765
_cell_formula_units_Z   3
loop_
 _symmetry_equiv_pos_site_id
 _symmetry_equiv_pos_as_xyz
  1  'x, y, z'
loop_
 _atom_site_type_symbol
 _atom_site_label
 _atom_site_symmetry_multiplicity
 _atom_site_fract_x
 _atom_site_fract_y
 _atom_site_fract_z
 _atom_site_occupancy
  F  F0  1  0.67672600  0.67672601  0.35345197  1
  F  F1  1  0.32327400  0.32327401  0.64654797  1
  F  F2  1  0.50000001  0.00000000  -0.00000001  1
  F  F3  1  -0.00000001  0.50000001  -0.00000001  1
  F  F4  1  0.13325000  0.13325000  0.26649999  1
  F  F5  1  0.86675000  0.86675002  0.73349995  1
