# generated using pymatgen
data_HgF3
_symmetry_space_group_name_H-M   'P 1'
_cell_length_a   3.28615189
_cell_length_b   3.28615284
_cell_length_c   37.44742966
_cell_angle_alpha   90.00000000
_cell_angle_beta   90.00000000
_cell_angle_gamma   119.99999237
_symmetry_Int_Tables_number   1
_chemical_formula_structural   HgF3
_chemical_formula_sum   'Hg3 F9'
_cell_volume   350.20961873
_cell_formula_units_Z   3
loop_
 _symmetry_equiv_pos_site_id
 _symmetry_equiv_pos_as_xyz
  1  'x, y, z'
loop_
 _atom_site_type_symbol
 _atom_site_label
 _atom_site_symmetry_multiplicity
 _atom_site_fract_x
 _atom_site_fract_y
 _atom_site_fract_z
 _atom_site_occupancy
  F  F0  1  0.66666669  0.33333333  0.90607396  1
  F  F1  1  0.66666669  0.33333333  0.53034998  1
  Hg  Hg2  1  0.33333335  0.66666665  0.71820497  1
  F  F3  1  0.33333335  0.66666665  0.34245098  1
  F  F4  1  0.66666669  0.33333333  0.29714499  1
  F  F5  1  0.33333335  0.66666665  0.95139096  1
  F  F6  1  0.33333335  0.66666665  0.57565097  1
  Hg  Hg7  1  0.33333335  0.66666665  0.86076296  1
  F  F8  1  0.33333335  0.66666665  0.48504298  1
  F  F9  1  0.66666669  0.33333333  0.38776898  1
  F  F10  1  0.66666669  0.33333333  0.67705797  1
  Hg  Hg11  1  0.66666669  0.33333333  0.75935297  1
