# generated using pymatgen
data_F2
_symmetry_space_group_name_H-M   'P 1'
_cell_length_a   4.06895304
_cell_length_b   6.64732885
_cell_length_c   8.07205868
_cell_angle_alpha   90.00000000
_cell_angle_beta   90.00000000
_cell_angle_gamma   90.00000000
_symmetry_Int_Tables_number   1
_chemical_formula_structural   F2
_chemical_formula_sum   F12
_cell_volume   218.33037069
_cell_formula_units_Z   6
loop_
 _symmetry_equiv_pos_site_id
 _symmetry_equiv_pos_as_xyz
  1  'x, y, z'
loop_
 _atom_site_type_symbol
 _atom_site_label
 _atom_site_symmetry_multiplicity
 _atom_site_fract_x
 _atom_site_fract_y
 _atom_site_fract_z
 _atom_site_occupancy
  F  F0  1  0.74999999  0.03132500  0.80622203  1
  F  F1  1  0.25000000  0.46867501  0.30622201  1
  F  F2  1  0.74999999  0.53132501  0.69377803  1
  F  F3  1  0.25000000  0.96867502  0.19377801  1
  F  F4  1  0.25000000  0.93283702  0.53771502  1
  F  F5  1  0.74999999  0.56716301  0.03771500  1
  F  F6  1  0.25000000  0.43283701  0.96228504  1
  F  F7  1  0.74999999  0.06716300  0.46228502  1
  F  F8  1  0.74999999  0.20746200  0.42804002  1
  F  F9  1  0.25000000  0.29253801  0.92804004  1
  F  F10  1  0.74999999  0.70746202  0.07196000  1
  F  F11  1  0.25000000  0.79253802  0.57196002  1
