# generated using pymatgen
data_F2
_symmetry_space_group_name_H-M   'P 1'
_cell_length_a   4.24996376
_cell_length_b   4.24996376
_cell_length_c   5.90793371
_cell_angle_alpha   111.08071899
_cell_angle_beta   111.08071899
_cell_angle_gamma   90.00000000
_symmetry_Int_Tables_number   1
_chemical_formula_structural   F2
_chemical_formula_sum   F5
_cell_volume   91.87351458
_cell_formula_units_Z   2
loop_
 _symmetry_equiv_pos_site_id
 _symmetry_equiv_pos_as_xyz
  1  'x, y, z'
loop_
 _atom_site_type_symbol
 _atom_site_label
 _atom_site_symmetry_multiplicity
 _atom_site_fract_x
 _atom_site_fract_y
 _atom_site_fract_z
 _atom_site_occupancy
  F  F0  1  0.00000000  0.00000000  0.00000000  1
  F  F1  1  0.25000006  0.75000007  0.50000006  1
  F  F2  1  0.75000007  0.25000002  0.50000005  1
  F  F3  1  0.61541708  0.61541705  0.23083407  1
  F  F4  1  0.38458305  0.38458303  0.76916605  1
