# generated using pymatgen
data_HgF5
_symmetry_space_group_name_H-M   'P 1'
_cell_length_a   6.06260014
_cell_length_b   6.06260014
_cell_length_c   6.06260014
_cell_angle_alpha   81.29328918
_cell_angle_beta   64.89289093
_cell_angle_gamma   115.10710907
_symmetry_Int_Tables_number   1
_chemical_formula_structural   HgF5
_chemical_formula_sum   'Hg1 F5'
_cell_volume   167.12315195
_cell_formula_units_Z   1
loop_
 _symmetry_equiv_pos_site_id
 _symmetry_equiv_pos_as_xyz
  1  'x, y, z'
loop_
 _atom_site_type_symbol
 _atom_site_label
 _atom_site_symmetry_multiplicity
 _atom_site_fract_x
 _atom_site_fract_y
 _atom_site_fract_z
 _atom_site_occupancy
  F  F0  1  0.00000013  0.75000004  0.24999988  1
  F  F1  1  0.00000004  0.25000001  0.74999994  1
  F  F2  1  0.76183410  0.63091704  0.86908283  1
  F  F3  1  0.23816606  0.36908302  0.13091693  1
  Hg  Hg4  1  0.50000014  0.86908305  0.36908283  1
  F  F5  1  0.50000002  0.13091701  0.63091693  1
