# generated using pymatgen
data_F2
_symmetry_space_group_name_H-M   'P 1'
_cell_length_a   3.47326589
_cell_length_b   6.08377838
_cell_length_c   6.57200861
_cell_angle_alpha   115.95278168
_cell_angle_beta   105.32221222
_cell_angle_gamma   90.00000000
_symmetry_Int_Tables_number   1
_chemical_formula_structural   F2
_chemical_formula_sum   F7
_cell_volume   119.35204170
_cell_formula_units_Z   3
loop_
 _symmetry_equiv_pos_site_id
 _symmetry_equiv_pos_as_xyz
  1  'x, y, z'
loop_
 _atom_site_type_symbol
 _atom_site_label
 _atom_site_symmetry_multiplicity
 _atom_site_fract_x
 _atom_site_fract_y
 _atom_site_fract_z
 _atom_site_occupancy
  F  F0  1  0.00000000  0.00000000  0.00000000  1
  F  F1  1  0.26409202  0.28021499  0.52818401  1
  F  F2  1  0.73590806  0.71978497  0.47181601  1
  F  F3  1  0.87508706  0.55112798  0.75017402  1
  F  F4  1  0.36578702  0.01946100  0.73157401  1
  F  F5  1  0.63421307  0.98053896  0.26842601  1
  F  F6  1  0.12491302  0.44887198  0.24982600  1
