# generated using pymatgen
data_F2
_symmetry_space_group_name_H-M   'P 1'
_cell_length_a   5.76864243
_cell_length_b   5.76864243
_cell_length_c   6.25520468
_cell_angle_alpha   89.98647308
_cell_angle_beta   89.98647308
_cell_angle_gamma   115.37229919
_symmetry_Int_Tables_number   1
_chemical_formula_structural   F2
_chemical_formula_sum   F15
_cell_volume   188.07771433
_cell_formula_units_Z   7
loop_
 _symmetry_equiv_pos_site_id
 _symmetry_equiv_pos_as_xyz
  1  'x, y, z'
loop_
 _atom_site_type_symbol
 _atom_site_label
 _atom_site_symmetry_multiplicity
 _atom_site_fract_x
 _atom_site_fract_y
 _atom_site_fract_z
 _atom_site_occupancy
  F  F0  1  0.69139603  0.30860401  0.50000003  1
  F  F1  1  0.30860405  0.69139603  0.50000003  1
  F  F2  1  0.50000004  0.50000002  0.00000001  1
  F  F3  1  0.03804204  0.68607703  0.12190101  1
  F  F4  1  0.68607702  0.03804200  0.12190101  1
  F  F5  1  0.96195804  0.31392302  0.87809904  1
  F  F6  1  0.31392307  0.96195805  0.87809904  1
  F  F7  1  0.11131001  0.11131001  0.32807201  1
  F  F8  1  0.88869007  0.88869004  0.67192804  1
  F  F9  1  0.05140802  0.35088402  0.20508001  1
  F  F10  1  0.35088401  0.05140800  0.20508001  1
  F  F11  1  0.94859206  0.64911603  0.79492005  1
  F  F12  1  0.64911607  0.94859205  0.79492005  1
  F  F13  1  0.81906207  0.81906204  0.37884503  1
  F  F14  1  0.18093802  0.18093801  0.62115502  1
