# generated using pymatgen
data_Cs3Cr5O9
_symmetry_space_group_name_H-M   'P 1'
_cell_length_a   6.21080494
_cell_length_b   8.70441246
_cell_length_c   8.70441246
_cell_angle_alpha   120.00000000
_cell_angle_beta   90.00000000
_cell_angle_gamma   90.00000000
_symmetry_Int_Tables_number   1
_chemical_formula_structural   Cs3Cr5O9
_chemical_formula_sum   'Cs3 Cr5 O9'
_cell_volume   407.52799269
_cell_formula_units_Z   1
loop_
 _symmetry_equiv_pos_site_id
 _symmetry_equiv_pos_as_xyz
  1  'x, y, z'
loop_
 _atom_site_type_symbol
 _atom_site_label
 _atom_site_symmetry_multiplicity
 _atom_site_fract_x
 _atom_site_fract_y
 _atom_site_fract_z
 _atom_site_occupancy
  Cs  Cs0  1  0.00428900  0.37163998  0.00000000  1
  Cs  Cs1  1  0.00428900  0.00000000  0.37163998  1
  Cs  Cs2  1  0.00428900  0.62835997  0.62835998  1
  Cr  Cr3  1  0.52743001  0.33333332  0.66666664  1
  Cr  Cr4  1  0.52743001  0.66666663  0.33333332  1
  Cr  Cr5  1  0.50191000  0.73921696  0.00000000  1
  Cr  Cr6  1  0.50191000  0.99999995  0.73921697  1
  Cr  Cr7  1  0.50191000  0.26078299  0.26078299  1
  O  O8  1  0.37344400  0.28192999  0.46857098  1
  O  O9  1  0.37344400  0.18664099  0.71806997  1
  O  O10  1  0.37344400  0.53142897  0.81335897  1
  O  O11  1  0.37344400  0.81335896  0.53142898  1
  O  O12  1  0.37344400  0.46857098  0.28192999  1
  O  O13  1  0.37344400  0.71806996  0.18664100  1
  O  O14  1  0.76459301  0.68067397  0.00000000  1
  O  O15  1  0.76459301  0.00000000  0.68067397  1
  O  O16  1  0.76459301  0.31932598  0.31932599  1
