# generated using pymatgen
data_Ba(FeSi)2
_symmetry_space_group_name_H-M   'P 1'
_cell_length_a   3.78355789
_cell_length_b   3.78355789
_cell_length_c   7.91886330
_cell_angle_alpha   103.82135010
_cell_angle_beta   103.82135010
_cell_angle_gamma   90.00000000
_symmetry_Int_Tables_number   1
_chemical_formula_structural   Ba(FeSi)2
_chemical_formula_sum   'Ba1 Fe2 Si2'
_cell_volume   106.69539673
_cell_formula_units_Z   1
loop_
 _symmetry_equiv_pos_site_id
 _symmetry_equiv_pos_as_xyz
  1  'x, y, z'
loop_
 _atom_site_type_symbol
 _atom_site_label
 _atom_site_symmetry_multiplicity
 _atom_site_fract_x
 _atom_site_fract_y
 _atom_site_fract_z
 _atom_site_occupancy
  Ba  Ba0  1  0.00000000  0.00000000  0.00000000  1
  Fe  Fe1  1  0.75000004  0.25000001  0.50000003  1
  Fe  Fe2  1  0.25000003  0.75000003  0.50000003  1
  Si  Si3  1  0.64118304  0.64118303  0.28236603  1
  Si  Si4  1  0.35881702  0.35881701  0.71763403  1
