# generated using pymatgen
data_Zr3Pd5
_symmetry_space_group_name_H-M   'P 1'
_cell_length_a   5.64312506
_cell_length_b   5.64312506
_cell_length_c   8.72245312
_cell_angle_alpha   90.00000000
_cell_angle_beta   90.00000000
_cell_angle_gamma   102.55459595
_symmetry_Int_Tables_number   1
_chemical_formula_structural   Zr3Pd5
_chemical_formula_sum   'Zr6 Pd10'
_cell_volume   271.12374559
_cell_formula_units_Z   2
loop_
 _symmetry_equiv_pos_site_id
 _symmetry_equiv_pos_as_xyz
  1  'x, y, z'
loop_
 _atom_site_type_symbol
 _atom_site_label
 _atom_site_symmetry_multiplicity
 _atom_site_fract_x
 _atom_site_fract_y
 _atom_site_fract_z
 _atom_site_occupancy
  Zr  Zr0  1  0.56551495  0.56551498  0.25000000  1
  Zr  Zr1  1  0.43448496  0.43448498  0.74999999  1
  Zr  Zr2  1  0.20833695  0.79166297  0.49999999  1
  Zr  Zr3  1  0.79166296  0.20833699  0.99999999  1
  Zr  Zr4  1  0.79166296  0.20833699  0.49999999  1
  Zr  Zr5  1  0.20833695  0.79166297  -0.00000000  1
  Pd  Pd6  1  0.71169194  0.71169197  0.97311199  1
  Pd  Pd7  1  0.71169194  0.71169197  0.52688799  1
  Pd  Pd8  1  0.28830798  0.28830799  0.02688800  1
  Pd  Pd9  1  0.28830798  0.28830799  0.47311199  1
  Pd  Pd10  1  0.02496697  0.49377298  0.25000000  1
  Pd  Pd11  1  0.97503294  0.50622698  0.74999999  1
  Pd  Pd12  1  0.01310700  0.01310700  0.74999999  1
  Pd  Pd13  1  0.98689291  0.98689296  0.25000000  1
  Pd  Pd14  1  0.49377298  0.02496700  0.25000000  1
  Pd  Pd15  1  0.50622693  0.97503296  0.74999999  1
