# generated using pymatgen
data_ZrAgSe3
_symmetry_space_group_name_H-M   'P 1'
_cell_length_a   7.00204086
_cell_length_b   7.00204086
_cell_length_c   7.33247280
_cell_angle_alpha   61.47983932
_cell_angle_beta   61.47983932
_cell_angle_gamma   59.99999237
_symmetry_Int_Tables_number   1
_chemical_formula_structural   ZrAgSe3
_chemical_formula_sum   'Zr2 Ag2 Se6'
_cell_volume   259.74374375
_cell_formula_units_Z   2
loop_
 _symmetry_equiv_pos_site_id
 _symmetry_equiv_pos_as_xyz
  1  'x, y, z'
loop_
 _atom_site_type_symbol
 _atom_site_label
 _atom_site_symmetry_multiplicity
 _atom_site_fract_x
 _atom_site_fract_y
 _atom_site_fract_z
 _atom_site_occupancy
  Zr  Zr0  1  0.69399797  0.69399799  0.91800600  1
  Zr  Zr1  1  0.19399799  0.19399800  0.41800600  1
  Ag  Ag2  1  0.99827996  0.99827999  0.00516001  1
  Ag  Ag3  1  0.49827998  0.49827999  0.50516000  1
  Se  Se4  1  0.41265699  0.02788900  0.72077800  1
  Se  Se5  1  0.83867598  0.41265699  0.72077800  1
  Se  Se6  1  0.02788899  0.83867599  0.72077800  1
  Se  Se7  1  0.33867598  0.52788899  0.22077800  1
  Se  Se8  1  0.52788897  0.91265699  0.22077800  1
  Se  Se9  1  0.91265698  0.33867600  0.22077800  1
