# generated using pymatgen
data_VF
_symmetry_space_group_name_H-M   'P 1'
_cell_length_a   2.83508611
_cell_length_b   2.92410612
_cell_length_c   2.92410517
_cell_angle_alpha   120.00000763
_cell_angle_beta   90.00000000
_cell_angle_gamma   90.00000000
_symmetry_Int_Tables_number   1
_chemical_formula_structural   VF
_chemical_formula_sum   'V1 F1'
_cell_volume   20.99340916
_cell_formula_units_Z   1
loop_
 _symmetry_equiv_pos_site_id
 _symmetry_equiv_pos_as_xyz
  1  'x, y, z'
loop_
 _atom_site_type_symbol
 _atom_site_label
 _atom_site_symmetry_multiplicity
 _atom_site_fract_x
 _atom_site_fract_y
 _atom_site_fract_z
 _atom_site_occupancy
  V  V0  1  -0.00000000  0.33333331  0.66666662  1
  F  F1  1  0.49999998  0.00000000  -0.00000000  1
