# generated using pymatgen
data_LiCo5S8
_symmetry_space_group_name_H-M   'P 1'
_cell_length_a   6.11480856
_cell_length_b   6.11480856
_cell_length_c   7.38890934
_cell_angle_alpha   104.40475464
_cell_angle_beta   104.40475464
_cell_angle_gamma   113.50257874
_symmetry_Int_Tables_number   1
_chemical_formula_structural   LiCo5S8
_chemical_formula_sum   'Li1 Co5 S8'
_cell_volume   225.77722433
_cell_formula_units_Z   1
loop_
 _symmetry_equiv_pos_site_id
 _symmetry_equiv_pos_as_xyz
  1  'x, y, z'
loop_
 _atom_site_type_symbol
 _atom_site_label
 _atom_site_symmetry_multiplicity
 _atom_site_fract_x
 _atom_site_fract_y
 _atom_site_fract_z
 _atom_site_occupancy
  Li  Li0  1  0.74999998  0.24999999  0.49999999  1
  Co  Co1  1  0.49999999  0.49999999  -0.00000000  1
  Co  Co2  1  0.12780601  0.62780598  0.25561200  1
  Co  Co3  1  0.87780599  0.87780598  0.75561199  1
  Co  Co4  1  0.37219400  0.87219398  0.74438799  1
  Co  Co5  1  0.12219400  0.12219400  0.24438800  1
  S  S6  1  0.02879001  0.63500898  0.75122800  1
  S  S7  1  0.36621900  0.47243799  0.25122800  1
  S  S8  1  0.36499100  0.97120998  0.24877200  1
  S  S9  1  0.72243798  0.11621900  0.75122799  1
  S  S10  1  0.88500898  0.77878998  0.25122799  1
  S  S11  1  0.52756199  0.63378098  0.74877199  1
  S  S12  1  0.88378098  0.27756199  0.24877199  1
  S  S13  1  0.22120999  0.11499100  0.74877200  1
