# generated using pymatgen
data_Li7Fe(NiO5)2
_symmetry_space_group_name_H-M   'P 1'
_cell_length_a   5.06593895
_cell_length_b   5.88852787
_cell_length_c   6.60805607
_cell_angle_alpha   103.23971558
_cell_angle_beta   97.78098297
_cell_angle_gamma   106.26081848
_symmetry_Int_Tables_number   1
_chemical_formula_structural   Li7Fe(NiO5)2
_chemical_formula_sum   'Li7 Fe1 Ni2 O10'
_cell_volume   179.96145199
_cell_formula_units_Z   1
loop_
 _symmetry_equiv_pos_site_id
 _symmetry_equiv_pos_as_xyz
  1  'x, y, z'
loop_
 _atom_site_type_symbol
 _atom_site_label
 _atom_site_symmetry_multiplicity
 _atom_site_fract_x
 _atom_site_fract_y
 _atom_site_fract_z
 _atom_site_occupancy
  Li  Li0  1  0.19795008  0.90101100  0.40131906  1
  Li  Li1  1  0.99730805  0.50075100  0.00457904  1
  Li  Li2  1  0.79771002  0.10075900  0.59657804  1
  Li  Li3  1  0.60526607  0.69787500  0.20029005  1
  Li  Li4  1  0.40232603  0.29928400  0.79736105  1
  Li  Li5  1  0.19975104  0.39904900  0.39886603  1
  Fe  Fe6  1  0.39900007  0.79826700  0.79786407  1
  Li  Li7  1  0.00151500  0.00208900  0.00313500  1
  Ni  Ni8  1  0.60016102  0.20116900  0.20071402  1
  Ni  Ni9  1  0.79996706  0.59897500  0.59964606  1
  O  O10  1  0.48400203  0.26202300  0.49018704  1
  O  O11  1  0.29244708  0.85094400  0.07223005  1
  O  O12  1  0.12289904  0.46748900  0.68952805  1
  O  O13  1  0.92187102  0.07256900  0.30521403  1
  O  O14  1  0.68514006  0.66666667  0.89683507  1
  O  O15  1  0.91566206  0.53759000  0.30682305  1
  O  O16  1  0.69391102  0.11915100  0.89334705  1
  O  O17  1  0.47816307  0.73428700  0.51059006  1
  O  O18  1  0.28705803  0.34924500  0.12009502  1
  O  O19  1  0.11789308  0.94078600  0.71479907  1
