# generated using pymatgen
data_YO2
_symmetry_space_group_name_H-M   'P 1'
_cell_length_a   6.05128479
_cell_length_b   6.51667213
_cell_length_c   6.73153162
_cell_angle_alpha   118.94964600
_cell_angle_beta   116.70989227
_cell_angle_gamma   90.00000000
_symmetry_Int_Tables_number   1
_chemical_formula_structural   YO2
_chemical_formula_sum   'Y6 O12'
_cell_volume   199.29803900
_cell_formula_units_Z   6
loop_
 _symmetry_equiv_pos_site_id
 _symmetry_equiv_pos_as_xyz
  1  'x, y, z'
loop_
 _atom_site_type_symbol
 _atom_site_label
 _atom_site_symmetry_multiplicity
 _atom_site_fract_x
 _atom_site_fract_y
 _atom_site_fract_z
 _atom_site_occupancy
  Y  Y0  1  0.98892607  0.84841597  0.25942703  1
  Y  Y1  1  0.72949805  0.15158399  0.74057303  1
  Y  Y2  1  0.98892606  0.41100999  0.25942704  1
  Y  Y3  1  0.72949805  0.58898998  0.74057302  1
  Y  Y4  1  0.25191902  0.21718299  0.00000001  1
  Y  Y5  1  0.25191903  0.78281697  -0.00000001  1
  O  O6  1  0.01882101  0.29932999  0.59865899  1
  O  O7  1  0.42016204  0.70066998  0.40134100  1
  O  O8  1  0.93748307  0.79163097  0.58326302  1
  O  O9  1  0.35422002  0.20836899  0.41673701  1
  O  O10  1  0.57208804  0.49999998  0.00000001  1
  O  O11  1  0.61485204  0.00000000  0.00000003  1
  O  O12  1  0.65567405  0.93468397  0.33096401  1
  O  O13  1  0.32470902  0.06531600  0.66903601  1
  O  O14  1  0.65567404  0.39627999  0.33096402  1
  O  O15  1  0.32470903  0.60371998  0.66903600  1
  O  O16  1  0.04704701  0.49999998  -0.00000001  1
  O  O17  1  0.96787506  0.00000000  0.00000005  1
