# generated using pymatgen
data_Ti5NiGe3
_symmetry_space_group_name_H-M   'P 1'
_cell_length_a   5.35320902
_cell_length_b   7.79935217
_cell_length_c   7.79935217
_cell_angle_alpha   120.00000000
_cell_angle_beta   90.00000000
_cell_angle_gamma   90.00000000
_symmetry_Int_Tables_number   1
_chemical_formula_structural   Ti5NiGe3
_chemical_formula_sum   'Ti10 Ni2 Ge6'
_cell_volume   282.00830234
_cell_formula_units_Z   2
loop_
 _symmetry_equiv_pos_site_id
 _symmetry_equiv_pos_as_xyz
  1  'x, y, z'
loop_
 _atom_site_type_symbol
 _atom_site_label
 _atom_site_symmetry_multiplicity
 _atom_site_fract_x
 _atom_site_fract_y
 _atom_site_fract_z
 _atom_site_occupancy
  Ti  Ti0  1  0.75000000  0.76834198  0.76834199  1
  Ti  Ti1  1  0.25000000  0.23165800  0.23165800  1
  Ti  Ti2  1  0.75000000  0.00000000  0.23165800  1
  Ti  Ti3  1  0.25000000  0.00000000  0.76834199  1
  Ti  Ti4  1  0.75000000  0.23165800  0.99999998  1
  Ti  Ti5  1  0.25000000  0.76834198  0.99999998  1
  Ti  Ti6  1  -0.00000000  0.66666665  0.33333333  1
  Ti  Ti7  1  -0.00000000  0.33333333  0.66666666  1
  Ti  Ti8  1  0.50000000  0.33333333  0.66666666  1
  Ti  Ti9  1  0.50000000  0.66666665  0.33333333  1
  Ge  Ge10  1  0.75000000  0.40802299  0.40802299  1
  Ge  Ge11  1  0.25000000  0.59197699  0.59197699  1
  Ge  Ge12  1  0.75000000  0.99999998  0.59197699  1
  Ge  Ge13  1  0.25000000  0.00000000  0.40802299  1
  Ge  Ge14  1  0.75000000  0.59197699  0.99999998  1
  Ge  Ge15  1  0.25000000  0.40802299  0.99999998  1
  Ni  Ni16  1  0.00000000  0.00000000  0.00000000  1
  Ni  Ni17  1  0.50000000  0.00000000  -0.00000000  1
