# generated using pymatgen
data_Ba8Si2N9
_symmetry_space_group_name_H-M   'P 1'
_cell_length_a   5.33747196
_cell_length_b   7.56477976
_cell_length_c   9.80521965
_cell_angle_alpha   105.54859161
_cell_angle_beta   105.79373169
_cell_angle_gamma   90.00000000
_symmetry_Int_Tables_number   1
_chemical_formula_structural   Ba8Si2N9
_chemical_formula_sum   'Ba8 Si2 N9'
_cell_volume   365.87707477
_cell_formula_units_Z   1
loop_
 _symmetry_equiv_pos_site_id
 _symmetry_equiv_pos_as_xyz
  1  'x, y, z'
loop_
 _atom_site_type_symbol
 _atom_site_label
 _atom_site_symmetry_multiplicity
 _atom_site_fract_x
 _atom_site_fract_y
 _atom_site_fract_z
 _atom_site_occupancy
  Ba  Ba0  1  0.59616996  0.96571999  0.19233995  1
  Ba  Ba1  1  0.66714198  0.46655200  0.33428397  1
  Ba  Ba2  1  0.02905899  0.25858900  0.05811799  1
  Ba  Ba3  1  0.80069399  0.19349200  0.60138799  1
  Ba  Ba4  1  0.19930597  0.80650799  0.39861198  1
  Ba  Ba5  1  0.97094096  0.74141099  0.94188198  1
  Ba  Ba6  1  0.33285798  0.53344800  0.66571599  1
  Ba  Ba7  1  0.40383000  0.03428000  0.80766002  1
  Si  Si8  1  0.18778899  0.20633700  0.37557800  1
  Si  Si9  1  0.81221096  0.79366299  0.62442197  1
  N  N10  1  0.49999998  0.50000000  -0.00000003  1
  N  N11  1  0.72430896  0.82796399  0.44861796  1
  N  N12  1  0.17776298  0.42642400  0.35552599  1
  N  N13  1  0.89224695  0.98504399  0.78449396  1
  N  N14  1  0.10775300  0.01495600  0.21550600  1
  N  N15  1  0.82223697  0.57357600  0.64447398  1
  N  N16  1  0.52535699  0.28249200  0.05071398  1
  N  N17  1  0.27569099  0.17203600  0.55138201  1
  N  N18  1  0.47464297  0.71750799  0.94928599  1
