# generated using pymatgen
data_Ti2VO4
_symmetry_space_group_name_H-M   'P 1'
_cell_length_a   5.94522381
_cell_length_b   5.98732948
_cell_length_c   6.00070524
_cell_angle_alpha   119.77716827
_cell_angle_beta   119.64716339
_cell_angle_gamma   90.10556793
_symmetry_Int_Tables_number   1
_chemical_formula_structural   Ti2VO4
_chemical_formula_sum   'Ti4 V2 O8'
_cell_volume   152.20727651
_cell_formula_units_Z   2
loop_
 _symmetry_equiv_pos_site_id
 _symmetry_equiv_pos_as_xyz
  1  'x, y, z'
loop_
 _atom_site_type_symbol
 _atom_site_label
 _atom_site_symmetry_multiplicity
 _atom_site_fract_x
 _atom_site_fract_y
 _atom_site_fract_z
 _atom_site_occupancy
  Ti  Ti0  1  0.49973089  0.99918098  0.99980586  1
  Ti  Ti1  1  0.99900990  0.99971898  0.49810686  1
  Ti  Ti2  1  0.00076794  0.50157299  0.50156093  1
  Ti  Ti3  1  0.00005988  0.99906498  0.99958687  1
  V  V4  1  0.37449293  0.62032199  0.24991192  1
  V  V5  1  0.62527597  0.37156499  0.75098993  1
  O  O6  1  0.24337891  0.76733999  0.52689690  1
  O  O7  1  0.23463898  0.21173000  0.96795096  1
  O  O8  1  0.23879091  0.75923899  0.97807189  1
  O  O9  1  0.75703799  0.23982200  0.47405695  1
  O  O10  1  0.21678198  0.24030800  0.47359696  1
  O  O11  1  0.76067492  0.78130799  0.02180589  1
  O  O12  1  0.78312892  0.76621499  0.52634289  1
  O  O13  1  0.76622899  0.24260900  0.03131296  1
