# generated using pymatgen
data_CaLaBiTeO6
_symmetry_space_group_name_H-M   'P 1'
_cell_length_a   5.56377220
_cell_length_b   5.78129101
_cell_length_c   7.94523048
_cell_angle_alpha   90.00000000
_cell_angle_beta   90.63020325
_cell_angle_gamma   90.00000000
_symmetry_Int_Tables_number   1
_chemical_formula_structural   CaLaBiTeO6
_chemical_formula_sum   'Ca2 La2 Bi2 Te2 O12'
_cell_volume   255.54912602
_cell_formula_units_Z   2
loop_
 _symmetry_equiv_pos_site_id
 _symmetry_equiv_pos_as_xyz
  1  'x, y, z'
loop_
 _atom_site_type_symbol
 _atom_site_label
 _atom_site_symmetry_multiplicity
 _atom_site_fract_x
 _atom_site_fract_y
 _atom_site_fract_z
 _atom_site_occupancy
  Ca  Ca0  1  0.00000000  0.50000000  0.50000001  1
  Ca  Ca1  1  0.49999998  0.00000000  -0.00000001  1
  La  La2  1  0.51193998  0.44754300  0.24692199  1
  La  La3  1  0.01194000  0.05245700  0.74692201  1
  Bi  Bi4  1  0.48805998  0.55245700  0.75307800  1
  Bi  Bi5  1  0.98805996  0.94754300  0.25307799  1
  Te  Te6  1  0.00000000  0.50000000  0.00000000  1
  Te  Te7  1  0.49999998  0.00000000  0.50000000  1
  O  O8  1  0.31047999  0.28162100  0.54957500  1
  O  O9  1  0.81047997  0.21837900  0.04957499  1
  O  O10  1  0.68951997  0.71837900  0.45042499  1
  O  O11  1  0.18951999  0.78162100  0.95042501  1
  O  O12  1  0.78932097  0.19434100  0.45546899  1
  O  O13  1  0.28932099  0.30565900  0.95546901  1
  O  O14  1  0.21067899  0.80565900  0.54453100  1
  O  O15  1  0.71067897  0.69434100  0.04453099  1
  O  O16  1  0.41210098  0.02552600  0.25871800  1
  O  O17  1  0.91210097  0.47447400  0.75871800  1
  O  O18  1  0.58789898  0.97447400  0.74128200  1
  O  O19  1  0.08789900  0.52552600  0.24128200  1
