# generated using pymatgen
data_Ca2FeN2
_symmetry_space_group_name_H-M   'P 1'
_cell_length_a   4.96440220
_cell_length_b   5.97735310
_cell_length_c   6.54066372
_cell_angle_alpha   64.68424988
_cell_angle_beta   67.69710541
_cell_angle_gamma   65.46382904
_symmetry_Int_Tables_number   1
_chemical_formula_structural   Ca2FeN2
_chemical_formula_sum   'Ca4 Fe2 N4'
_cell_volume   154.71841711
_cell_formula_units_Z   2
loop_
 _symmetry_equiv_pos_site_id
 _symmetry_equiv_pos_as_xyz
  1  'x, y, z'
loop_
 _atom_site_type_symbol
 _atom_site_label
 _atom_site_symmetry_multiplicity
 _atom_site_fract_x
 _atom_site_fract_y
 _atom_site_fract_z
 _atom_site_occupancy
  Ca  Ca0  1  0.31897594  0.75983301  0.60221504  1
  Ca  Ca1  1  0.68102396  0.24016700  0.39778502  1
  Ca  Ca2  1  0.95884694  0.30687400  0.77543204  1
  Ca  Ca3  1  0.04115296  0.69312601  0.22456802  1
  Fe  Fe4  1  0.62682092  0.87565601  0.87070206  1
  Fe  Fe5  1  0.37317898  0.12434400  0.12929801  1
  N  N6  1  0.80931692  0.76108001  0.62028605  1
  N  N7  1  0.19068298  0.23892000  0.37971402  1
  N  N8  1  0.51930993  0.76515601  0.19622403  1
  N  N9  1  0.48068996  0.23484400  0.80377604  1
