# generated using pymatgen
data_Ce2MgNi2
_symmetry_space_group_name_H-M   'P 1'
_cell_length_a   3.68009400
_cell_length_b   7.70508718
_cell_length_c   7.70508718
_cell_angle_alpha   90.00000000
_cell_angle_beta   90.00000000
_cell_angle_gamma   90.00000000
_symmetry_Int_Tables_number   1
_chemical_formula_structural   Ce2MgNi2
_chemical_formula_sum   'Ce4 Mg2 Ni4'
_cell_volume   218.48117702
_cell_formula_units_Z   2
loop_
 _symmetry_equiv_pos_site_id
 _symmetry_equiv_pos_as_xyz
  1  'x, y, z'
loop_
 _atom_site_type_symbol
 _atom_site_label
 _atom_site_symmetry_multiplicity
 _atom_site_fract_x
 _atom_site_fract_y
 _atom_site_fract_z
 _atom_site_occupancy
  Ce  Ce0  1  0.50000000  0.32705499  0.82705498  1
  Ce  Ce1  1  0.50000000  0.82705498  0.67294498  1
  Ce  Ce2  1  0.50000000  0.17294500  0.32705499  1
  Ce  Ce3  1  0.50000000  0.67294498  0.17294500  1
  Mg  Mg4  1  0.00000000  0.00000000  0.00000000  1
  Mg  Mg5  1  0.00000000  0.49999999  0.49999999  1
  Ni  Ni6  1  0.00000000  0.37190199  0.12809800  1
  Ni  Ni7  1  0.00000000  0.87190198  0.37190199  1
  Ni  Ni8  1  0.00000000  0.12809800  0.62809798  1
  Ni  Ni9  1  0.00000000  0.62809798  0.87190198  1
