# generated using pymatgen
data_Ba4Ta(MoO6)2
_symmetry_space_group_name_H-M   'P 1'
_cell_length_a   5.83135843
_cell_length_b   5.83135843
_cell_length_c   9.93218994
_cell_angle_alpha   72.92888641
_cell_angle_beta   72.92888641
_cell_angle_gamma   59.99999619
_symmetry_Int_Tables_number   1
_chemical_formula_structural   Ba4Ta(MoO6)2
_chemical_formula_sum   'Ba4 Ta1 Mo2 O12'
_cell_volume   275.17613857
_cell_formula_units_Z   1
loop_
 _symmetry_equiv_pos_site_id
 _symmetry_equiv_pos_as_xyz
  1  'x, y, z'
loop_
 _atom_site_type_symbol
 _atom_site_label
 _atom_site_symmetry_multiplicity
 _atom_site_fract_x
 _atom_site_fract_y
 _atom_site_fract_z
 _atom_site_occupancy
  Ba  Ba0  1  0.71026994  0.71026998  0.86919006  1
  Ba  Ba1  1  0.28852797  0.28852799  0.13441602  1
  Ba  Ba2  1  0.13114399  0.13114400  0.60656801  1
  Ba  Ba3  1  0.85379592  0.85379598  0.43861207  1
  Ta  Ta4  1  0.57474995  0.57474998  0.27575005  1
  Mo  Mo5  1  0.42392396  0.42392399  0.72822804  1
  Mo  Mo6  1  0.99870491  0.99870497  0.00388508  1
  O  O7  1  0.71245796  0.20887699  0.86978804  1
  O  O8  1  0.20887698  0.20887699  0.86978802  1
  O  O9  1  0.20887696  0.71245798  0.86978804  1
  O  O10  1  0.28894795  0.79558198  0.11988805  1
  O  O11  1  0.79558193  0.79558198  0.11988807  1
  O  O12  1  0.79558195  0.28894799  0.11988804  1
  O  O13  1  0.87642994  0.37800399  0.36756205  1
  O  O14  1  0.37800397  0.37800399  0.36756203  1
  O  O15  1  0.37800394  0.87642998  0.36756205  1
  O  O16  1  0.12529897  0.62541098  0.62387903  1
  O  O17  1  0.62541094  0.62541098  0.62387905  1
  O  O18  1  0.62541096  0.12529900  0.62387903  1
