# generated using pymatgen
data_ZrFeSi2
_symmetry_space_group_name_H-M   'P 1'
_cell_length_a   3.50569010
_cell_length_b   3.50569034
_cell_length_c   13.69877338
_cell_angle_alpha   90.00000000
_cell_angle_beta   90.00000000
_cell_angle_gamma   120.00000000
_symmetry_Int_Tables_number   1
_chemical_formula_structural   ZrFeSi2
_chemical_formula_sum   'Zr2 Fe2 Si4'
_cell_volume   145.80062524
_cell_formula_units_Z   2
loop_
 _symmetry_equiv_pos_site_id
 _symmetry_equiv_pos_as_xyz
  1  'x, y, z'
loop_
 _atom_site_type_symbol
 _atom_site_label
 _atom_site_symmetry_multiplicity
 _atom_site_fract_x
 _atom_site_fract_y
 _atom_site_fract_z
 _atom_site_occupancy
  Zr  Zr0  1  0.66666667  0.33333335  0.24999999  1
  Zr  Zr1  1  0.33333337  0.66666669  0.74999998  1
  Fe  Fe2  1  0.00000000  0.00000000  0.00000000  1
  Fe  Fe3  1  0.00000000  0.00000000  0.49999999  1
  Si  Si4  1  0.66666667  0.33333335  0.58097398  1
  Si  Si5  1  0.66666667  0.33333335  0.91902597  1
  Si  Si6  1  0.33333337  0.66666669  0.41902599  1
  Si  Si7  1  0.33333337  0.66666669  0.08097400  1
