# generated using pymatgen
data_Ti3Re5
_symmetry_space_group_name_H-M   'P 1'
_cell_length_a   5.09565067
_cell_length_b   5.09565067
_cell_length_c   5.09564972
_cell_angle_alpha   90.23345184
_cell_angle_beta   89.76654816
_cell_angle_gamma   89.76654816
_symmetry_Int_Tables_number   1
_chemical_formula_structural   Ti3Re5
_chemical_formula_sum   'Ti3 Re5'
_cell_volume   132.30858274
_cell_formula_units_Z   1
loop_
 _symmetry_equiv_pos_site_id
 _symmetry_equiv_pos_as_xyz
  1  'x, y, z'
loop_
 _atom_site_type_symbol
 _atom_site_label
 _atom_site_symmetry_multiplicity
 _atom_site_fract_x
 _atom_site_fract_y
 _atom_site_fract_z
 _atom_site_occupancy
  Ti  Ti0  1  0.75374995  0.49999998  0.75375003  1
  Ti  Ti1  1  0.24624998  0.24624999  0.50000002  1
  Ti  Ti2  1  0.49999995  0.75374997  0.24625002  1
  Re  Re3  1  0.24810796  0.75189197  0.75189204  1
  Re  Re4  1  0.75189196  0.24810799  0.24810800  1
  Re  Re5  1  0.75028097  0.00000000  0.75028102  1
  Re  Re6  1  0.24971898  0.24971899  0.00000000  1
  Re  Re7  1  -0.00000002  0.75028097  0.24971903  1
