# generated using pymatgen
data_MgZnSnS4
_symmetry_space_group_name_H-M   'P 1'
_cell_length_a   7.52986622
_cell_length_b   7.58106232
_cell_length_c   7.58106232
_cell_angle_alpha   60.58084488
_cell_angle_beta   60.22314453
_cell_angle_gamma   60.22314453
_symmetry_Int_Tables_number   1
_chemical_formula_structural   MgZnSnS4
_chemical_formula_sum   'Mg2 Zn2 Sn2 S8'
_cell_volume   308.37000199
_cell_formula_units_Z   2
loop_
 _symmetry_equiv_pos_site_id
 _symmetry_equiv_pos_as_xyz
  1  'x, y, z'
loop_
 _atom_site_type_symbol
 _atom_site_label
 _atom_site_symmetry_multiplicity
 _atom_site_fract_x
 _atom_site_fract_y
 _atom_site_fract_z
 _atom_site_occupancy
  Mg  Mg0  1  0.99999996  0.49999998  0.00000005  1
  Mg  Mg1  1  0.49999998  0.49999998  0.00000003  1
  Zn  Zn2  1  0.49999998  0.49999998  0.50000003  1
  Zn  Zn3  1  0.49999998  0.00000000  0.00000002  1
  Sn  Sn4  1  0.87702797  0.87297197  0.37297205  1
  Sn  Sn5  1  0.12297200  0.12702800  0.62702800  1
  S  S6  1  0.74104497  0.75701697  0.76089304  1
  S  S7  1  0.74104497  0.26089299  0.25701703  1
  S  S8  1  0.26919600  0.74959597  0.24959503  1
  S  S9  1  0.73161397  0.74959497  0.24959505  1
  S  S10  1  0.25895499  0.24298299  0.23910701  1
  S  S11  1  0.25895500  0.73910697  0.74298302  1
  S  S12  1  0.73080397  0.25040399  0.75040502  1
  S  S13  1  0.26838599  0.25040499  0.75040501  1
