# generated using pymatgen
data_MnNb(NiO)4
_symmetry_space_group_name_H-M   'P 1'
_cell_length_a   5.62499046
_cell_length_b   5.62499046
_cell_length_c   5.62499046
_cell_angle_alpha   60.00000000
_cell_angle_beta   60.00000000
_cell_angle_gamma   60.00000000
_symmetry_Int_Tables_number   1
_chemical_formula_structural   MnNb(NiO)4
_chemical_formula_sum   'Mn1 Nb1 Ni4 O4'
_cell_volume   125.84917520
_cell_formula_units_Z   1
loop_
 _symmetry_equiv_pos_site_id
 _symmetry_equiv_pos_as_xyz
  1  'x, y, z'
loop_
 _atom_site_type_symbol
 _atom_site_label
 _atom_site_symmetry_multiplicity
 _atom_site_fract_x
 _atom_site_fract_y
 _atom_site_fract_z
 _atom_site_occupancy
  Nb  Nb0  1  0.50000001  0.50000001  0.50000001  1
  Mn  Mn1  1  0.00000000  0.00000000  0.00000000  1
  Ni  Ni2  1  0.25000001  0.25000001  0.25000001  1
  Ni  Ni3  1  0.75000002  0.75000002  0.75000002  1
  Ni  Ni4  1  0.50000001  0.50000001  0.00000000  1
  Ni  Ni5  1  -0.00000000  1.00000002  0.50000001  1
  O  O6  1  0.50000001  1.00000002  1.00000002  1
  O  O7  1  -0.00000000  0.50000001  0.50000001  1
  O  O8  1  0.50000001  1.00000002  0.50000001  1
  O  O9  1  -0.00000000  0.50000001  1.00000002  1
