# generated using pymatgen
data_Ce9Ti(CSe3)2
_symmetry_space_group_name_H-M   'P 1'
_cell_length_a   6.64861679
_cell_length_b   8.73606014
_cell_length_c   8.73606014
_cell_angle_alpha   60.00000000
_cell_angle_beta   90.00000000
_cell_angle_gamma   90.00000000
_symmetry_Int_Tables_number   1
_chemical_formula_structural   Ce9Ti(CSe3)2
_chemical_formula_sum   'Ce9 Ti1 Se6 C2'
_cell_volume   439.43350215
_cell_formula_units_Z   1
loop_
 _symmetry_equiv_pos_site_id
 _symmetry_equiv_pos_as_xyz
  1  'x, y, z'
loop_
 _atom_site_type_symbol
 _atom_site_label
 _atom_site_symmetry_multiplicity
 _atom_site_fract_x
 _atom_site_fract_y
 _atom_site_fract_z
 _atom_site_occupancy
  Ce  Ce0  1  0.00000000  0.66666667  0.66666665  1
  Ce  Ce1  1  0.00000000  0.33333333  0.33333333  1
  Ce  Ce2  1  0.50000002  0.33333333  0.33333333  1
  Ce  Ce3  1  0.50000002  0.66666667  0.66666665  1
  Ce  Ce4  1  0.25000001  0.22239400  -0.00000000  1
  Ce  Ce5  1  0.25000001  0.00000000  0.77760599  1
  Ce  Ce6  1  0.25000001  0.77760600  0.22239399  1
  Ce  Ce7  1  0.75000002  0.77760600  -0.00000001  1
  Ce  Ce8  1  0.75000002  0.00000000  0.22239400  1
  Ti  Ti9  1  0.75000002  0.22239400  0.77760599  1
  Se  Se10  1  0.25000001  0.59305900  -0.00000000  1
  Se  Se11  1  0.25000001  0.00000000  0.40694099  1
  Se  Se12  1  0.25000001  0.40694100  0.59305899  1
  Se  Se13  1  0.75000002  0.40694100  0.99999998  1
  Se  Se14  1  0.75000002  0.00000000  0.59305899  1
  Se  Se15  1  0.75000002  0.59305900  0.40694099  1
  C  C16  1  0.00000000  0.00000000  0.00000000  1
  C  C17  1  0.50000002  0.00000000  0.00000000  1
