# generated using pymatgen
data_Mo3W(Se3S)2
_symmetry_space_group_name_H-M   'P 1'
_cell_length_a   3.28662610
_cell_length_b   3.28662634
_cell_length_c   37.39701080
_cell_angle_alpha   90.00000000
_cell_angle_beta   90.00000000
_cell_angle_gamma   120.00000000
_symmetry_Int_Tables_number   1
_chemical_formula_structural   Mo3W(Se3S)2
_chemical_formula_sum   'Mo3 W1 Se6 S2'
_cell_volume   349.83894344
_cell_formula_units_Z   1
loop_
 _symmetry_equiv_pos_site_id
 _symmetry_equiv_pos_as_xyz
  1  'x, y, z'
loop_
 _atom_site_type_symbol
 _atom_site_label
 _atom_site_symmetry_multiplicity
 _atom_site_fract_x
 _atom_site_fract_y
 _atom_site_fract_z
 _atom_site_occupancy
  Mo  Mo0  1  0.00000000  0.00000000  0.90608898  1
  Mo  Mo1  1  0.00000000  0.00000000  0.53032999  1
  Mo  Mo2  1  0.66666667  0.33333334  0.71819898  1
  W  W3  1  0.66666667  0.33333334  0.34246299  1
  Se  Se4  1  0.00000000  0.00000000  0.67285399  1
  Se  Se5  1  0.66666667  0.33333334  0.95117198  1
  Se  Se6  1  0.66666667  0.33333334  0.57568699  1
  Se  Se7  1  0.66666667  0.33333334  0.86099798  1
  Se  Se8  1  0.66666667  0.33333334  0.48497999  1
  Se  Se9  1  0.00000000  0.00000000  0.76355098  1
  S  S10  1  0.00000000  0.00000000  0.30125599  1
  S  S11  1  0.00000000  0.00000000  0.38367199  1
