# generated using pymatgen
data_Ti2CuS4
_symmetry_space_group_name_H-M   'P 1'
_cell_length_a   3.85695004
_cell_length_b   3.85695004
_cell_length_c   6.95734119
_cell_angle_alpha   106.09230804
_cell_angle_beta   106.09230804
_cell_angle_gamma   90.00000000
_symmetry_Int_Tables_number   1
_chemical_formula_structural   Ti2CuS4
_chemical_formula_sum   'Ti2 Cu1 S4'
_cell_volume   95.21443436
_cell_formula_units_Z   1
loop_
 _symmetry_equiv_pos_site_id
 _symmetry_equiv_pos_as_xyz
  1  'x, y, z'
loop_
 _atom_site_type_symbol
 _atom_site_label
 _atom_site_symmetry_multiplicity
 _atom_site_fract_x
 _atom_site_fract_y
 _atom_site_fract_z
 _atom_site_occupancy
  Ti  Ti0  1  0.64530102  0.64530100  0.29060204  1
  Ti  Ti1  1  0.35856601  0.35856600  0.71713203  1
  Cu  Cu2  1  0.00272100  0.00272100  0.00544200  1
  S  S3  1  0.83268102  0.83268100  0.66536206  1
  S  S4  1  0.17726001  0.17726000  0.35452002  1
  S  S5  1  0.99173502  0.49173500  0.98347006  1
  S  S6  1  0.49173503  0.99173500  0.98347006  1
