# generated using pymatgen
data_PrNi5
_symmetry_space_group_name_H-M   'P 1'
_cell_length_a   4.11761189
_cell_length_b   5.02660608
_cell_length_c   5.02660561
_cell_angle_alpha   120.00000000
_cell_angle_beta   90.00000000
_cell_angle_gamma   90.00000000
_symmetry_Int_Tables_number   1
_chemical_formula_structural   PrNi5
_chemical_formula_sum   'Pr1 Ni5'
_cell_volume   90.10018946
_cell_formula_units_Z   1
loop_
 _symmetry_equiv_pos_site_id
 _symmetry_equiv_pos_as_xyz
  1  'x, y, z'
loop_
 _atom_site_type_symbol
 _atom_site_label
 _atom_site_symmetry_multiplicity
 _atom_site_fract_x
 _atom_site_fract_y
 _atom_site_fract_z
 _atom_site_occupancy
  Pr  Pr0  1  1.00000003  0.33333332  0.66666664  1
  Ni  Ni1  1  0.50000001  0.33616598  0.16808298  1
  Ni  Ni2  1  0.50000001  0.83191696  0.66383395  1
  Ni  Ni3  1  0.50000001  0.83191696  0.16808295  1
  Ni  Ni4  1  -0.00000000  0.66666664  0.33333329  1
  Ni  Ni5  1  0.00000000  0.00000000  0.00000000  1
