# generated using pymatgen
data_Ta3WO5F6
_symmetry_space_group_name_H-M   'P 1'
_cell_length_a   5.96319914
_cell_length_b   5.96319914
_cell_length_c   7.03618813
_cell_angle_alpha   90.00000000
_cell_angle_beta   90.00000000
_cell_angle_gamma   90.00000000
_symmetry_Int_Tables_number   1
_chemical_formula_structural   Ta3WO5F6
_chemical_formula_sum   'Ta3 W1 O5 F6'
_cell_volume   250.20504825
_cell_formula_units_Z   1
loop_
 _symmetry_equiv_pos_site_id
 _symmetry_equiv_pos_as_xyz
  1  'x, y, z'
loop_
 _atom_site_type_symbol
 _atom_site_label
 _atom_site_symmetry_multiplicity
 _atom_site_fract_x
 _atom_site_fract_y
 _atom_site_fract_z
 _atom_site_occupancy
  Ta  Ta0  1  0.00000000  0.00000000  0.00000000  1
  Ta  Ta1  1  0.00000000  0.49999999  0.21628600  1
  Ta  Ta2  1  0.49999999  0.00000000  0.78371399  1
  W  W3  1  0.24176899  0.20432100  0.80064299  1
  F  F4  1  0.75823098  0.79567898  0.80064299  1
  F  F5  1  0.20432100  0.75823098  0.19935700  1
  O  O6  1  0.79567898  0.24176899  0.19935700  1
  O  O7  1  0.00000000  0.49999999  0.49113199  1
  O  O8  1  0.49999999  0.00000000  0.50886799  1
  O  O9  1  0.00000000  0.49999999  0.93968298  1
  F  F10  1  0.49999999  0.00000000  0.06031700  1
  F  F11  1  0.20432100  0.24176899  0.19935700  1
  F  F12  1  0.79567898  0.75823098  0.19935700  1
  O  O13  1  0.24176899  0.79567898  0.80064299  1
  F  F14  1  0.75823098  0.20432100  0.80064299  1
