# generated using pymatgen
data_Nb5GaSb3
_symmetry_space_group_name_H-M   'P 1'
_cell_length_a   5.43695211
_cell_length_b   8.23619843
_cell_length_c   8.23619747
_cell_angle_alpha   120.00000000
_cell_angle_beta   90.00000000
_cell_angle_gamma   90.00000000
_symmetry_Int_Tables_number   1
_chemical_formula_structural   Nb5GaSb3
_chemical_formula_sum   'Nb10 Ga2 Sb6'
_cell_volume   319.40351519
_cell_formula_units_Z   2
loop_
 _symmetry_equiv_pos_site_id
 _symmetry_equiv_pos_as_xyz
  1  'x, y, z'
loop_
 _atom_site_type_symbol
 _atom_site_label
 _atom_site_symmetry_multiplicity
 _atom_site_fract_x
 _atom_site_fract_y
 _atom_site_fract_z
 _atom_site_occupancy
  Nb  Nb0  1  0.24999999  0.75292894  0.75292896  1
  Nb  Nb1  1  0.74999998  0.24707098  0.24707099  1
  Nb  Nb2  1  0.24999999  0.99999992  0.24707095  1
  Nb  Nb3  1  0.74999998  0.99999992  0.75292894  1
  Nb  Nb4  1  0.24999999  0.24707098  0.99999998  1
  Nb  Nb5  1  0.74999998  0.75292894  0.99999995  1
  Nb  Nb6  1  0.49999999  0.66666662  0.33333330  1
  Nb  Nb7  1  0.49999999  0.33333331  0.66666664  1
  Nb  Nb8  1  0.99999998  0.33333331  0.66666664  1
  Nb  Nb9  1  -0.00000000  0.66666662  0.33333330  1
  Ga  Ga10  1  0.49999999  0.00000000  -0.00000000  1
  Ga  Ga11  1  0.00000000  0.00000000  0.00000000  1
  Sb  Sb12  1  0.24999999  0.39510497  0.39510498  1
  Sb  Sb13  1  0.74999998  0.60489495  0.60489496  1
  Sb  Sb14  1  0.24999999  0.99999992  0.60489495  1
  Sb  Sb15  1  0.74999998  0.99999992  0.39510495  1
  Sb  Sb16  1  0.24999999  0.60489495  0.99999996  1
  Sb  Sb17  1  0.74999998  0.39510497  0.99999997  1
