# generated using pymatgen
data_ZrAu2
_symmetry_space_group_name_H-M   'P 1'
_cell_length_a   3.71003795
_cell_length_b   3.71003795
_cell_length_c   5.21502590
_cell_angle_alpha   110.83675385
_cell_angle_beta   110.83675385
_cell_angle_gamma   90.00000000
_symmetry_Int_Tables_number   1
_chemical_formula_structural   ZrAu2
_chemical_formula_sum   'Zr1 Au2'
_cell_volume   62.03798537
_cell_formula_units_Z   1
loop_
 _symmetry_equiv_pos_site_id
 _symmetry_equiv_pos_as_xyz
  1  'x, y, z'
loop_
 _atom_site_type_symbol
 _atom_site_label
 _atom_site_symmetry_multiplicity
 _atom_site_fract_x
 _atom_site_fract_y
 _atom_site_fract_z
 _atom_site_occupancy
  Zr  Zr0  1  0.00000000  0.00000000  0.00000000  1
  Au  Au1  1  0.66412198  0.66412200  0.32824395  1
  Au  Au2  1  0.33587799  0.33587800  0.67175595  1
