# generated using pymatgen
data_LiNbO4
_symmetry_space_group_name_H-M   'P 1'
_cell_length_a   5.93216562
_cell_length_b   5.93216562
_cell_length_c   7.78554440
_cell_angle_alpha   72.81080627
_cell_angle_beta   72.81080627
_cell_angle_gamma   70.72727203
_symmetry_Int_Tables_number   1
_chemical_formula_structural   LiNbO4
_chemical_formula_sum   'Li3 Nb3 O12'
_cell_volume   241.04405927
_cell_formula_units_Z   3
loop_
 _symmetry_equiv_pos_site_id
 _symmetry_equiv_pos_as_xyz
  1  'x, y, z'
loop_
 _atom_site_type_symbol
 _atom_site_label
 _atom_site_symmetry_multiplicity
 _atom_site_fract_x
 _atom_site_fract_y
 _atom_site_fract_z
 _atom_site_occupancy
  Li  Li0  1  0.35297899  0.33216798  0.15766403  1
  Li  Li1  1  0.67239398  0.66222396  0.33186605  1
  Li  Li2  1  0.33777599  0.32760598  0.66813403  1
  Nb  Nb3  1  0.66783198  0.64702096  0.84233606  1
  Nb  Nb4  1  0.00154403  0.99845594  0.50000004  1
  Nb  Nb5  1  0.97407095  0.02592900  0.00000004  1
  O  O6  1  0.69936597  0.30063398  0.00000004  1
  O  O7  1  0.98717396  0.36255598  0.32746805  1
  O  O8  1  0.63744397  0.01282600  0.67253203  1
  O  O9  1  0.09665800  0.10118399  0.70712301  1
  O  O10  1  0.43701999  0.43262297  0.37059204  1
  O  O11  1  0.76837398  0.77717496  0.03331706  1
  O  O12  1  0.89881598  0.90334195  0.29287707  1
  O  O13  1  0.22282499  0.23162599  0.96668303  1
  O  O14  1  0.56737699  0.56297997  0.62940805  1
  O  O15  1  0.03087102  0.63467496  0.66568203  1
  O  O16  1  0.36532501  0.96912894  0.33431805  1
  O  O17  1  0.28215500  0.71784496  0.00000004  1
