# generated using pymatgen
data_KTbSe2
_symmetry_space_group_name_H-M   'P 1'
_cell_length_a   4.27913523
_cell_length_b   4.27913523
_cell_length_c   8.43639278
_cell_angle_alpha   75.30866241
_cell_angle_beta   75.30866241
_cell_angle_gamma   60.00001144
_symmetry_Int_Tables_number   1
_chemical_formula_structural   KTbSe2
_chemical_formula_sum   'K1 Tb1 Se2'
_cell_volume   127.91749680
_cell_formula_units_Z   1
loop_
 _symmetry_equiv_pos_site_id
 _symmetry_equiv_pos_as_xyz
  1  'x, y, z'
loop_
 _atom_site_type_symbol
 _atom_site_label
 _atom_site_symmetry_multiplicity
 _atom_site_fract_x
 _atom_site_fract_y
 _atom_site_fract_z
 _atom_site_occupancy
  K  K0  1  0.00000000  0.00000000  0.00000000  1
  Tb  Tb1  1  0.50000002  0.50000001  0.49999999  1
  Se  Se2  1  0.77169803  0.77169801  0.68490598  1
  Se  Se3  1  0.22830201  0.22830200  0.31509399  1
