# generated using pymatgen
data_U(CoSi)2
_symmetry_space_group_name_H-M   'P 1'
_cell_length_a   3.82000589
_cell_length_b   3.86338210
_cell_length_c   10.55499649
_cell_angle_alpha   79.45475006
_cell_angle_beta   90.00000000
_cell_angle_gamma   90.00000000
_symmetry_Int_Tables_number   1
_chemical_formula_structural   U(CoSi)2
_chemical_formula_sum   'U2 Co4 Si4'
_cell_volume   153.14125542
_cell_formula_units_Z   2
loop_
 _symmetry_equiv_pos_site_id
 _symmetry_equiv_pos_as_xyz
  1  'x, y, z'
loop_
 _atom_site_type_symbol
 _atom_site_label
 _atom_site_symmetry_multiplicity
 _atom_site_fract_x
 _atom_site_fract_y
 _atom_site_fract_z
 _atom_site_occupancy
  U  U0  1  0.00000000  0.16961600  0.66076801  1
  U  U1  1  0.00000000  0.83038398  0.33923200  1
  Co  Co2  1  0.50000001  0.71828798  0.56342401  1
  Co  Co3  1  0.00000000  0.44292199  0.11415600  1
  Co  Co4  1  0.50000001  0.28171199  0.43657601  1
  Si  Si5  1  0.00000000  0.55707799  0.88584402  1
  Si  Si6  1  0.50000001  0.94257998  0.11484000  1
  Si  Si7  1  0.50000001  0.05742000  0.88516002  1
  Si  Si8  1  0.50000001  0.61216098  0.77567801  1
  Co  Co9  1  0.50000001  0.38783899  0.22432200  1
