# generated using pymatgen
data_ZrAl2Si
_symmetry_space_group_name_H-M   'P 1'
_cell_length_a   3.99980402
_cell_length_b   5.05914783
_cell_length_c   7.13124895
_cell_angle_alpha   90.00000000
_cell_angle_beta   90.00000000
_cell_angle_gamma   113.28494263
_symmetry_Int_Tables_number   1
_chemical_formula_structural   ZrAl2Si
_chemical_formula_sum   'Zr2 Al4 Si2'
_cell_volume   132.55149296
_cell_formula_units_Z   2
loop_
 _symmetry_equiv_pos_site_id
 _symmetry_equiv_pos_as_xyz
  1  'x, y, z'
loop_
 _atom_site_type_symbol
 _atom_site_label
 _atom_site_symmetry_multiplicity
 _atom_site_fract_x
 _atom_site_fract_y
 _atom_site_fract_z
 _atom_site_occupancy
  Zr  Zr0  1  0.06494100  0.12988201  0.25000000  1
  Zr  Zr1  1  0.93505901  0.87011804  0.75000001  1
  Al  Al2  1  0.35599501  0.71199004  0.05481200  1
  Al  Al3  1  0.35599501  0.71199004  0.44518800  1
  Al  Al4  1  0.64400500  0.28801001  0.94518801  1
  Al  Al5  1  0.64400500  0.28801001  0.55481200  1
  Si  Si6  1  0.77950301  0.55900603  0.25000000  1
  Si  Si7  1  0.22049701  0.44099402  0.75000001  1
