# generated using pymatgen
data_Cs2CdAs
_symmetry_space_group_name_H-M   'P 1'
_cell_length_a   6.57136393
_cell_length_b   7.00598431
_cell_length_c   7.00598431
_cell_angle_alpha   103.74598694
_cell_angle_beta   90.00000000
_cell_angle_gamma   90.00000000
_symmetry_Int_Tables_number   1
_chemical_formula_structural   Cs2CdAs
_chemical_formula_sum   'Cs4 Cd2 As2'
_cell_volume   313.30944028
_cell_formula_units_Z   2
loop_
 _symmetry_equiv_pos_site_id
 _symmetry_equiv_pos_as_xyz
  1  'x, y, z'
loop_
 _atom_site_type_symbol
 _atom_site_label
 _atom_site_symmetry_multiplicity
 _atom_site_fract_x
 _atom_site_fract_y
 _atom_site_fract_z
 _atom_site_occupancy
  Cs  Cs0  1  0.25000000  0.68101701  0.01893304  1
  Cs  Cs1  1  0.75000001  0.98106701  0.31898306  1
  Cs  Cs2  1  0.25000000  0.03981100  0.68265700  1
  Cs  Cs3  1  0.75000001  0.31734300  0.96018901  1
  Cd  Cd4  1  0.50000001  0.50799200  0.49200803  1
  Cd  Cd5  1  -0.00000000  0.50799200  0.49200803  1
  As  As6  1  0.25000000  0.23643500  0.23165701  1
  As  As7  1  0.75000001  0.76834301  0.76356504  1
