# generated using pymatgen
data_Y3Cu4
_symmetry_space_group_name_H-M   'P 1'
_cell_length_a   7.50898743
_cell_length_b   7.50898743
_cell_length_c   7.50898743
_cell_angle_alpha   109.47122192
_cell_angle_beta   109.47122192
_cell_angle_gamma   109.47122192
_symmetry_Int_Tables_number   1
_chemical_formula_structural   Y3Cu4
_chemical_formula_sum   'Y6 Cu8'
_cell_volume   325.92841145
_cell_formula_units_Z   2
loop_
 _symmetry_equiv_pos_site_id
 _symmetry_equiv_pos_as_xyz
  1  'x, y, z'
loop_
 _atom_site_type_symbol
 _atom_site_label
 _atom_site_symmetry_multiplicity
 _atom_site_fract_x
 _atom_site_fract_y
 _atom_site_fract_z
 _atom_site_occupancy
  Y  Y0  1  0.87500003  0.12500001  0.75000004  1
  Y  Y1  1  0.75000006  0.62500004  0.87500007  1
  Y  Y2  1  0.25000006  0.87500005  0.62500007  1
  Y  Y3  1  0.12500002  0.25000002  0.37500002  1
  Y  Y4  1  0.37500006  0.75000005  0.12500005  1
  Y  Y5  1  0.62500004  0.37500002  0.25000004  1
  Cu  Cu6  1  0.34758203  0.34758202  0.84758204  1
  Cu  Cu7  1  1.00000006  0.50000003  0.15241805  1
  Cu  Cu8  1  0.65241802  0.00000000  1.00000004  1
  Cu  Cu9  1  0.50000006  0.65241804  0.50000006  1
  Cu  Cu10  1  0.15241800  0.00000000  0.00000000  1
  Cu  Cu11  1  0.50000002  0.15241801  0.50000003  1
  Cu  Cu12  1  0.84758208  0.84758205  0.34758207  1
  Cu  Cu13  1  1.00000006  0.50000003  0.65241806  1
