# generated using pymatgen
data_Li2CuOF4
_symmetry_space_group_name_H-M   'P 1'
_cell_length_a   5.09520531
_cell_length_b   5.78585529
_cell_length_c   7.06014395
_cell_angle_alpha   108.89936829
_cell_angle_beta   90.02343750
_cell_angle_gamma   116.10330200
_symmetry_Int_Tables_number   1
_chemical_formula_structural   Li2CuOF4
_chemical_formula_sum   'Li4 Cu2 O2 F8'
_cell_volume   174.30831458
_cell_formula_units_Z   2
loop_
 _symmetry_equiv_pos_site_id
 _symmetry_equiv_pos_as_xyz
  1  'x, y, z'
loop_
 _atom_site_type_symbol
 _atom_site_label
 _atom_site_symmetry_multiplicity
 _atom_site_fract_x
 _atom_site_fract_y
 _atom_site_fract_z
 _atom_site_occupancy
  Li  Li0  1  0.35921401  0.71717303  0.25389200  1
  Li  Li1  1  0.35984301  0.71745803  0.75377499  1
  Li  Li2  1  0.65319799  0.28820701  0.24207801  1
  Li  Li3  1  0.63647599  0.28779601  0.74177901  1
  Cu  Cu4  1  0.98393400  0.99820705  0.52356301  1
  Cu  Cu5  1  0.01552203  0.99785005  0.02324399  1
  O  O6  1  0.14671802  0.99504205  0.24564399  1
  O  O7  1  0.85062601  0.99674105  0.74605601  1
  F  F8  1  0.59401101  0.82768404  0.03691001  1
  F  F9  1  0.23602802  0.82865504  0.53769399  1
  F  F10  1  0.66562000  0.64319303  0.35235201  1
  F  F11  1  0.02283401  0.35454702  0.13623199  1
  F  F12  1  0.97912499  0.64306903  0.85151501  1
  F  F13  1  0.33364200  0.35486002  0.63548800  1
  F  F14  1  0.76372098  0.17151901  0.45522902  1
  F  F15  1  0.40933399  0.17197001  0.95586500  1
