# generated using pymatgen
data_NaNi11
_symmetry_space_group_name_H-M   'P 1'
_cell_length_a   3.94983196
_cell_length_b   8.00686646
_cell_length_c   8.00686646
_cell_angle_alpha   120.00000000
_cell_angle_beta   90.00000000
_cell_angle_gamma   90.00000000
_symmetry_Int_Tables_number   1
_chemical_formula_structural   NaNi11
_chemical_formula_sum   'Na1 Ni11'
_cell_volume   219.29787414
_cell_formula_units_Z   1
loop_
 _symmetry_equiv_pos_site_id
 _symmetry_equiv_pos_as_xyz
  1  'x, y, z'
loop_
 _atom_site_type_symbol
 _atom_site_label
 _atom_site_symmetry_multiplicity
 _atom_site_fract_x
 _atom_site_fract_y
 _atom_site_fract_z
 _atom_site_occupancy
  Na  Na0  1  0.00000000  0.00000000  0.00000000  1
  Ni  Ni1  1  -0.00000000  0.49999998  0.50000003  1
  Ni  Ni2  1  -0.00000000  0.49999998  0.00000002  1
  Ni  Ni3  1  0.00000000  0.00000000  0.50000001  1
  Ni  Ni4  1  0.50000000  0.78324097  0.21675804  1
  Ni  Ni5  1  0.50000000  0.21675899  0.43351802  1
  Ni  Ni6  1  0.50000000  0.56648298  0.78324204  1
  Ni  Ni7  1  0.50000000  0.43351699  0.21675802  1
  Ni  Ni8  1  0.50000000  0.78324097  0.56648204  1
  Ni  Ni9  1  0.50000000  0.21675899  0.78324202  1
  Ni  Ni10  1  -0.00000000  0.33333332  0.66666669  1
  Ni  Ni11  1  -0.00000000  0.66666664  0.33333337  1
