# generated using pymatgen
data_Li5Co2CuO12
_symmetry_space_group_name_H-M   'P 1'
_cell_length_a   2.78836894
_cell_length_b   5.48245001
_cell_length_c   11.51010036
_cell_angle_alpha   90.00000000
_cell_angle_beta   90.00000000
_cell_angle_gamma   90.00000000
_symmetry_Int_Tables_number   1
_chemical_formula_structural   Li5Co2CuO12
_chemical_formula_sum   'Li5 Co2 Cu1 O12'
_cell_volume   175.95597840
_cell_formula_units_Z   1
loop_
 _symmetry_equiv_pos_site_id
 _symmetry_equiv_pos_as_xyz
  1  'x, y, z'
loop_
 _atom_site_type_symbol
 _atom_site_label
 _atom_site_symmetry_multiplicity
 _atom_site_fract_x
 _atom_site_fract_y
 _atom_site_fract_z
 _atom_site_occupancy
  Li  Li0  1  0.75000002  0.51669300  0.09683400  1
  Li  Li1  1  0.25000001  0.48330700  0.90316597  1
  Li  Li2  1  0.75000002  0.01669300  0.40316599  1
  Li  Li3  1  0.25000001  0.98330700  0.59683398  1
  Li  Li4  1  0.25000001  0.31644100  0.27364299  1
  Cu  Cu5  1  0.75000002  0.68355900  0.72635698  1
  Co  Co6  1  0.25000001  0.81644100  0.22635699  1
  Co  Co7  1  0.75000002  0.18355900  0.77364298  1
  O  O8  1  0.25000001  0.63372800  0.43177399  1
  O  O9  1  0.75000002  0.36627200  0.56822598  1
  O  O10  1  0.25000001  0.13372800  0.06822600  1
  O  O11  1  0.75000002  0.86627200  0.93177397  1
  O  O12  1  0.75000002  0.10133300  0.20230599  1
  O  O13  1  0.25000001  0.89866700  0.79769397  1
  O  O14  1  0.75000002  0.60133300  0.29769399  1
  O  O15  1  0.25000001  0.39866700  0.70230598  1
  O  O16  1  0.25000001  0.26290900  0.45096599  1
  O  O17  1  0.75000002  0.73709100  0.54903398  1
  O  O18  1  0.25000001  0.76290900  0.04903400  1
  O  O19  1  0.75000002  0.23709100  0.95096597  1
