# generated using pymatgen
data_LiTiO4
_symmetry_space_group_name_H-M   'P 1'
_cell_length_a   4.02425385
_cell_length_b   7.10034180
_cell_length_c   7.24261904
_cell_angle_alpha   105.84484100
_cell_angle_beta   90.00000000
_cell_angle_gamma   106.46231079
_symmetry_Int_Tables_number   1
_chemical_formula_structural   LiTiO4
_chemical_formula_sum   'Li2 Ti2 O8'
_cell_volume   190.25064909
_cell_formula_units_Z   2
loop_
 _symmetry_equiv_pos_site_id
 _symmetry_equiv_pos_as_xyz
  1  'x, y, z'
loop_
 _atom_site_type_symbol
 _atom_site_label
 _atom_site_symmetry_multiplicity
 _atom_site_fract_x
 _atom_site_fract_y
 _atom_site_fract_z
 _atom_site_occupancy
  Li  Li0  1  0.19379104  0.38758200  0.28871598  1
  Li  Li1  1  0.80620908  0.61241800  0.71128397  1
  Ti  Ti2  1  0.09719702  0.19439400  0.70814699  1
  Ti  Ti3  1  0.90280310  0.80560600  0.29185296  1
  O  O4  1  0.04720401  0.09440800  0.36876500  1
  O  O5  1  0.13167303  0.26334600  0.97312699  1
  O  O6  1  0.75740407  0.51480800  0.35976298  1
  O  O7  1  0.62394704  0.24789400  0.69459899  1
  O  O8  1  0.37605307  0.75210600  0.30540097  1
  O  O9  1  0.24259605  0.48519200  0.64023698  1
  O  O10  1  0.86832709  0.73665400  0.02687297  1
  O  O11  1  0.95279611  0.90559200  0.63123496  1
