# generated using pymatgen
data_Gd4Fe3B4C5
_symmetry_space_group_name_H-M   'P 1'
_cell_length_a   5.39696693
_cell_length_b   5.80516195
_cell_length_c   6.40177584
_cell_angle_alpha   90.00000000
_cell_angle_beta   90.00000000
_cell_angle_gamma   90.00000000
_symmetry_Int_Tables_number   1
_chemical_formula_structural   Gd4Fe3B4C5
_chemical_formula_sum   'Gd4 Fe3 B4 C5'
_cell_volume   200.56934694
_cell_formula_units_Z   1
loop_
 _symmetry_equiv_pos_site_id
 _symmetry_equiv_pos_as_xyz
  1  'x, y, z'
loop_
 _atom_site_type_symbol
 _atom_site_label
 _atom_site_symmetry_multiplicity
 _atom_site_fract_x
 _atom_site_fract_y
 _atom_site_fract_z
 _atom_site_occupancy
  Gd  Gd0  1  0.25000000  0.00086000  0.34031701  1
  Gd  Gd1  1  0.25000000  0.50086000  0.15968300  1
  Gd  Gd2  1  0.75000001  0.99914001  0.65968302  1
  Gd  Gd3  1  0.75000001  0.49914000  0.84031702  1
  Fe  Fe4  1  0.25000000  0.18834300  0.81636402  1
  B  B5  1  0.25000000  0.68834301  0.68363602  1
  Fe  Fe6  1  0.75000001  0.81165701  0.18363600  1
  Fe  Fe7  1  0.75000001  0.31165700  0.31636401  1
  C  C8  1  0.08252200  0.37071900  0.53617801  1
  B  B9  1  0.41747801  0.87071901  0.96382202  1
  B  B10  1  0.58252201  0.62928101  0.46382201  1
  B  B11  1  0.91747801  0.12928100  0.03617800  1
  C  C12  1  0.91747801  0.62928101  0.46382201  1
  C  C13  1  0.58252201  0.12928100  0.03617800  1
  C  C14  1  0.41747801  0.37071900  0.53617801  1
  C  C15  1  0.08252200  0.87071901  0.96382202  1
