# generated using pymatgen
data_VNiO3
_symmetry_space_group_name_H-M   'P 1'
_cell_length_a   3.08296800
_cell_length_b   5.87615347
_cell_length_c   6.41420507
_cell_angle_alpha   103.27512360
_cell_angle_beta   103.90563202
_cell_angle_gamma   90.00000000
_symmetry_Int_Tables_number   1
_chemical_formula_structural   VNiO3
_chemical_formula_sum   'V2 Ni2 O6'
_cell_volume   109.59276068
_cell_formula_units_Z   2
loop_
 _symmetry_equiv_pos_site_id
 _symmetry_equiv_pos_as_xyz
  1  'x, y, z'
loop_
 _atom_site_type_symbol
 _atom_site_label
 _atom_site_symmetry_multiplicity
 _atom_site_fract_x
 _atom_site_fract_y
 _atom_site_fract_z
 _atom_site_occupancy
  V  V0  1  0.34159002  0.68591802  0.68318004  1
  V  V1  1  0.65841001  0.31408201  0.31682001  1
  Ni  Ni2  1  0.91012200  0.20523901  0.82024400  1
  Ni  Ni3  1  0.08987802  0.79476103  0.17975605  1
  O  O4  1  0.50410302  0.74350903  0.00820605  1
  O  O5  1  0.49589701  0.25649101  0.99179400  1
  O  O6  1  0.82640201  0.43570602  0.65280402  1
  O  O7  1  0.17359802  0.56429402  0.34719603  1
  O  O8  1  0.16350300  0.10895300  0.32700600  1
  O  O9  1  0.83649702  0.89104703  0.67299405  1
