# generated using pymatgen
data_Cs4TiF6
_symmetry_space_group_name_H-M   'P 1'
_cell_length_a   3.97973394
_cell_length_b   7.97669220
_cell_length_c   9.84004974
_cell_angle_alpha   113.91103363
_cell_angle_beta   101.66687775
_cell_angle_gamma   90.00000000
_symmetry_Int_Tables_number   1
_chemical_formula_structural   Cs4TiF6
_chemical_formula_sum   'Cs4 Ti1 F6'
_cell_volume   278.49006681
_cell_formula_units_Z   1
loop_
 _symmetry_equiv_pos_site_id
 _symmetry_equiv_pos_as_xyz
  1  'x, y, z'
loop_
 _atom_site_type_symbol
 _atom_site_label
 _atom_site_symmetry_multiplicity
 _atom_site_fract_x
 _atom_site_fract_y
 _atom_site_fract_z
 _atom_site_occupancy
  Cs  Cs0  1  0.67156296  0.67156297  0.34312597  1
  Cs  Cs1  1  0.99999999  0.28690599  -0.00000003  1
  Cs  Cs2  1  0.32843698  0.32843699  0.65687399  1
  Cs  Cs3  1  0.99999996  0.71309397  -0.00000004  1
  F  F4  1  0.54047097  0.54047098  0.08094198  1
  Ti  Ti5  1  0.45952898  0.45952898  0.91905799  1
  F  F6  1  0.16744798  0.39517699  0.33489599  1
  F  F7  1  0.83255197  0.60482298  0.66510398  1
  F  F8  1  0.16744895  0.93971996  0.33489698  1
  F  F9  1  0.50000000  0.00000000  -0.00000001  1
  F  F10  1  0.83255200  0.06028100  0.66510399  1
