# generated using pymatgen
data_Ce2Fe4Si7C5
_symmetry_space_group_name_H-M   'P 1'
_cell_length_a   5.02483797
_cell_length_b   5.02483845
_cell_length_c   9.75566387
_cell_angle_alpha   90.00000000
_cell_angle_beta   90.00000000
_cell_angle_gamma   120.00000000
_symmetry_Int_Tables_number   1
_chemical_formula_structural   Ce2Fe4Si7C5
_chemical_formula_sum   'Ce2 Fe4 Si7 C5'
_cell_volume   213.32002492
_cell_formula_units_Z   1
loop_
 _symmetry_equiv_pos_site_id
 _symmetry_equiv_pos_as_xyz
  1  'x, y, z'
loop_
 _atom_site_type_symbol
 _atom_site_label
 _atom_site_symmetry_multiplicity
 _atom_site_fract_x
 _atom_site_fract_y
 _atom_site_fract_z
 _atom_site_occupancy
  Ce  Ce0  1  0.00000000  0.00000000  0.34163600  1
  Ce  Ce1  1  0.00000000  0.00000000  0.65836401  1
  Fe  Fe2  1  0.00000000  0.00000000  0.00000000  1
  Fe  Fe3  1  0.50000000  0.00000000  0.50000001  1
  Fe  Fe4  1  0.00000004  0.50000003  0.50000001  1
  Fe  Fe5  1  0.50000004  0.50000003  0.79748901  1
  Si  Si6  1  0.50000000  0.00000000  0.79748901  1
  Si  Si7  1  0.00000004  0.50000003  0.79748901  1
  Si  Si8  1  0.50000004  0.50000003  0.20251100  1
  Si  Si9  1  0.50000000  0.00000000  0.20251100  1
  Si  Si10  1  0.00000004  0.50000003  0.20251100  1
  Si  Si11  1  0.66666670  0.33333335  -0.00000000  1
  C  C12  1  0.33333338  0.66666671  -0.00000000  1
  Si  Si13  1  0.50000004  0.50000003  0.50000001  1
  C  C14  1  0.66666670  0.33333335  0.34972400  1
  C  C15  1  0.33333338  0.66666671  0.34972400  1
  C  C16  1  0.33333338  0.66666671  0.65027601  1
  C  C17  1  0.66666670  0.33333335  0.65027601  1
