# generated using pymatgen
data_Sr5Ce3Zr2(BN4)2
_symmetry_space_group_name_H-M   'P 1'
_cell_length_a   5.85396814
_cell_length_b   5.85396814
_cell_length_c   10.53451157
_cell_angle_alpha   90.00000000
_cell_angle_beta   90.00000000
_cell_angle_gamma   90.00000000
_symmetry_Int_Tables_number   1
_chemical_formula_structural   Sr5Ce3Zr2(BN4)2
_chemical_formula_sum   'Sr5 Ce3 Zr2 B2 N8'
_cell_volume   361.00657665
_cell_formula_units_Z   1
loop_
 _symmetry_equiv_pos_site_id
 _symmetry_equiv_pos_as_xyz
  1  'x, y, z'
loop_
 _atom_site_type_symbol
 _atom_site_label
 _atom_site_symmetry_multiplicity
 _atom_site_fract_x
 _atom_site_fract_y
 _atom_site_fract_z
 _atom_site_occupancy
  Sr  Sr0  1  0.30336799  0.69663198  0.15678401  1
  Sr  Sr1  1  0.69663198  0.30336799  0.84321603  1
  Sr  Sr2  1  0.80336798  0.80336798  0.34321601  1
  Sr  Sr3  1  0.19663200  0.19663200  0.65678403  1
  Sr  Sr4  1  0.69663198  0.30336799  0.15678401  1
  Ce  Ce5  1  0.30336799  0.69663198  0.84321603  1
  Ce  Ce6  1  0.19663200  0.19663200  0.34321601  1
  Ce  Ce7  1  0.80336798  0.80336798  0.65678403  1
  Zr  Zr8  1  0.67664098  0.32335899  0.50000002  1
  Zr  Zr9  1  0.32335899  0.67664098  0.50000002  1
  B  B10  1  0.82335898  0.82335898  0.00000000  1
  B  B11  1  0.17664100  0.17664100  -0.00000000  1
  N  N12  1  0.00000000  0.00000000  0.85950004  1
  N  N13  1  0.49999999  0.49999999  0.64050003  1
  N  N14  1  0.49999999  0.49999999  0.35950001  1
  N  N15  1  0.49999999  0.00000000  0.00000000  1
  N  N16  1  0.49999999  0.00000000  0.50000002  1
  N  N17  1  0.00000000  0.49999999  0.00000000  1
  N  N18  1  0.00000000  0.49999999  0.50000002  1
  N  N19  1  0.00000000  0.00000000  0.14050001  1
