# generated using pymatgen
data_CuHO2
_symmetry_space_group_name_H-M   'P 1'
_cell_length_a   5.07660389
_cell_length_b   5.39002943
_cell_length_c   6.46915913
_cell_angle_alpha   90.00000000
_cell_angle_beta   90.00000000
_cell_angle_gamma   114.33633423
_symmetry_Int_Tables_number   1
_chemical_formula_structural   CuHO2
_chemical_formula_sum   'Cu4 H4 O8'
_cell_volume   161.28663357
_cell_formula_units_Z   4
loop_
 _symmetry_equiv_pos_site_id
 _symmetry_equiv_pos_as_xyz
  1  'x, y, z'
loop_
 _atom_site_type_symbol
 _atom_site_label
 _atom_site_symmetry_multiplicity
 _atom_site_fract_x
 _atom_site_fract_y
 _atom_site_fract_z
 _atom_site_occupancy
  Cu  Cu0  1  0.98778408  0.75897902  0.62026399  1
  Cu  Cu1  1  0.01221605  0.74102102  0.12026400  1
  Cu  Cu2  1  0.01221602  0.24102100  0.37973599  1
  Cu  Cu3  1  0.98778404  0.25897901  0.87973598  1
  H  H4  1  0.38749406  0.75289302  0.86478898  1
  H  H5  1  0.61250607  0.74710702  0.36478899  1
  H  H6  1  0.61250603  0.24710701  0.13521100  1
  H  H7  1  0.38749403  0.25289301  0.63521099  1
  O  O8  1  0.16863602  0.16386200  0.63968799  1
  O  O9  1  0.83136404  0.33613801  0.13968800  1
  O  O10  1  0.83136408  0.83613802  0.36031199  1
  O  O11  1  0.16863605  0.66386201  0.86031198  1
  O  O12  1  0.71776404  0.37132701  0.60867399  1
  O  O13  1  0.28223602  0.12867300  0.10867400  1
  O  O14  1  0.28223605  0.62867301  0.39132599  1
  O  O15  1  0.71776408  0.87132702  0.89132598  1
