# generated using pymatgen
data_KCu3PSe3
_symmetry_space_group_name_H-M   'P 1'
_cell_length_a   4.20997810
_cell_length_b   6.71408176
_cell_length_c   12.18305588
_cell_angle_alpha   90.00000000
_cell_angle_beta   90.00000000
_cell_angle_gamma   108.27140045
_symmetry_Int_Tables_number   1
_chemical_formula_structural   KCu3PSe3
_chemical_formula_sum   'K2 Cu6 P2 Se6'
_cell_volume   327.00561809
_cell_formula_units_Z   2
loop_
 _symmetry_equiv_pos_site_id
 _symmetry_equiv_pos_as_xyz
  1  'x, y, z'
loop_
 _atom_site_type_symbol
 _atom_site_label
 _atom_site_symmetry_multiplicity
 _atom_site_fract_x
 _atom_site_fract_y
 _atom_site_fract_z
 _atom_site_occupancy
  K  K0  1  0.81592397  0.63184802  0.75000001  1
  K  K1  1  0.18407599  0.36815201  0.25000000  1
  Cu  Cu2  1  0.16735699  0.33471401  0.94162801  1
  Cu  Cu3  1  0.83264297  0.66528602  0.05837200  1
  Cu  Cu4  1  0.83264297  0.66528602  0.44162800  1
  Cu  Cu5  1  0.16735699  0.33471401  0.55837201  1
  Cu  Cu6  1  0.54197399  0.08394800  0.85613601  1
  Cu  Cu7  1  0.45802598  0.91605203  0.14386400  1
  P  P8  1  0.45802598  0.91605203  0.35613600  1
  P  P9  1  0.54197399  0.08394800  0.64386401  1
  Se  Se10  1  0.37475898  0.74951802  0.95439201  1
  Se  Se11  1  0.62524098  0.25048201  0.04560800  1
  Se  Se12  1  0.62524098  0.25048201  0.45439200  1
  Se  Se13  1  0.37475898  0.74951802  0.54560801  1
  Se  Se14  1  0.08907100  0.17814201  0.75000001  1
  Se  Se15  1  0.91092897  0.82185803  0.25000000  1
