# generated using pymatgen
data_MgIn
_symmetry_space_group_name_H-M   'P 1'
_cell_length_a   4.34191418
_cell_length_b   4.34191418
_cell_length_c   6.99838877
_cell_angle_alpha   90.00000000
_cell_angle_beta   90.00000000
_cell_angle_gamma   120.00000000
_symmetry_Int_Tables_number   1
_chemical_formula_structural   MgIn
_chemical_formula_sum   'Mg2 In2'
_cell_volume   114.25919651
_cell_formula_units_Z   2
loop_
 _symmetry_equiv_pos_site_id
 _symmetry_equiv_pos_as_xyz
  1  'x, y, z'
loop_
 _atom_site_type_symbol
 _atom_site_label
 _atom_site_symmetry_multiplicity
 _atom_site_fract_x
 _atom_site_fract_y
 _atom_site_fract_z
 _atom_site_occupancy
  Mg  Mg0  1  0.00000000  0.00000000  0.00000000  1
  Mg  Mg1  1  0.00000000  0.00000000  0.50000002  1
  In  In2  1  0.33333334  0.66666667  0.25221001  1
  In  In3  1  0.66666665  0.33333334  0.74779002  1
