# generated using pymatgen
data_SrYRu3C4
_symmetry_space_group_name_H-M   'P 1'
_cell_length_a   4.03597021
_cell_length_b   4.03597021
_cell_length_c   7.94206619
_cell_angle_alpha   90.00000000
_cell_angle_beta   90.00000000
_cell_angle_gamma   90.00000000
_symmetry_Int_Tables_number   1
_chemical_formula_structural   SrYRu3C4
_chemical_formula_sum   'Sr1 Y1 Ru3 C4'
_cell_volume   129.36875735
_cell_formula_units_Z   1
loop_
 _symmetry_equiv_pos_site_id
 _symmetry_equiv_pos_as_xyz
  1  'x, y, z'
loop_
 _atom_site_type_symbol
 _atom_site_label
 _atom_site_symmetry_multiplicity
 _atom_site_fract_x
 _atom_site_fract_y
 _atom_site_fract_z
 _atom_site_occupancy
  Sr  Sr0  1  0.00000000  0.00000000  0.49999999  1
  Y  Y1  1  0.00000000  0.00000000  0.00000000  1
  Ru  Ru2  1  0.49999997  0.49999997  0.75944298  1
  Ru  Ru3  1  0.49999997  0.49999997  0.24055699  1
  C  C4  1  0.49999997  0.00000000  0.19092700  1
  C  C5  1  -0.00000000  0.49999997  0.80907298  1
  C  C6  1  0.49999997  0.00000000  0.80907298  1
  C  C7  1  -0.00000000  0.49999997  0.19092700  1
  Ru  Ru8  1  0.49999997  0.49999997  0.49999999  1
