# generated using pymatgen
data_Zr4Si5C9
_symmetry_space_group_name_H-M   'P 1'
_cell_length_a   3.15409803
_cell_length_b   3.25544810
_cell_length_c   19.01891518
_cell_angle_alpha   85.09036255
_cell_angle_beta   90.00000000
_cell_angle_gamma   90.00000000
_symmetry_Int_Tables_number   1
_chemical_formula_structural   Zr4Si5C9
_chemical_formula_sum   'Zr4 Si5 C9'
_cell_volume   194.56974583
_cell_formula_units_Z   1
loop_
 _symmetry_equiv_pos_site_id
 _symmetry_equiv_pos_as_xyz
  1  'x, y, z'
loop_
 _atom_site_type_symbol
 _atom_site_label
 _atom_site_symmetry_multiplicity
 _atom_site_fract_x
 _atom_site_fract_y
 _atom_site_fract_z
 _atom_site_occupancy
  Zr  Zr0  1  0.74999999  0.53579098  0.92841804  1
  Zr  Zr1  1  0.25000000  0.46420899  0.07158200  1
  Zr  Zr2  1  0.25000000  0.60544298  0.78911403  1
  Zr  Zr3  1  0.74999999  0.39455699  0.21088601  1
  Si  Si4  1  0.25000000  0.71946298  0.56107402  1
  Si  Si5  1  0.74999999  0.28053699  0.43892602  1
  Si  Si6  1  0.74999999  0.16213600  0.67572803  1
  Si  Si7  1  0.25000000  0.83786398  0.32427201  1
  C  C8  1  0.74999999  0.08541300  0.82917403  1
  Si  Si9  1  0.25000000  0.91458697  0.17082600  1
  C  C10  1  0.74999999  0.93971997  0.12056000  1
  C  C11  1  0.25000000  0.06028000  0.87944004  1
  C  C12  1  0.74999999  0.98821597  0.02356800  1
  C  C13  1  0.25000000  0.01178400  0.97643204  1
  C  C14  1  0.25000000  0.66171498  0.67657002  1
  C  C15  1  0.74999999  0.33828499  0.32343001  1
  C  C16  1  0.25000000  0.77978098  0.44043801  1
  C  C17  1  0.74999999  0.22021899  0.55956202  1
