# generated using pymatgen
data_ThTlO5
_symmetry_space_group_name_H-M   'P 1'
_cell_length_a   5.18723583
_cell_length_b   5.18723583
_cell_length_c   5.18723583
_cell_angle_alpha   109.47122192
_cell_angle_beta   109.47122192
_cell_angle_gamma   109.47122192
_symmetry_Int_Tables_number   1
_chemical_formula_structural   ThTlO5
_chemical_formula_sum   'Th1 Tl1 O5'
_cell_volume   107.44496483
_cell_formula_units_Z   1
loop_
 _symmetry_equiv_pos_site_id
 _symmetry_equiv_pos_as_xyz
  1  'x, y, z'
loop_
 _atom_site_type_symbol
 _atom_site_label
 _atom_site_symmetry_multiplicity
 _atom_site_fract_x
 _atom_site_fract_y
 _atom_site_fract_z
 _atom_site_occupancy
  Th  Th0  1  0.00000000  0.00000000  0.00000000  1
  Tl  Tl1  1  0.26663002  0.26663001  1.00000002  1
  O  O2  1  0.73337005  0.73337003  1.00000006  1
  O  O3  1  0.73337001  0.00000000  0.73337002  1
  O  O4  1  0.26663000  0.00000000  0.26663001  1
  O  O5  1  0.00000002  0.26663001  0.26663001  1
  O  O6  1  0.00000005  0.73337003  0.73337004  1
