# generated using pymatgen
data_PrCrSb3
_symmetry_space_group_name_H-M   'P 1'
_cell_length_a   6.03575516
_cell_length_b   6.20234203
_cell_length_c   12.76526356
_cell_angle_alpha   90.00000000
_cell_angle_beta   90.00000000
_cell_angle_gamma   90.00000000
_symmetry_Int_Tables_number   1
_chemical_formula_structural   PrCrSb3
_chemical_formula_sum   'Pr4 Cr4 Sb12'
_cell_volume   477.87808219
_cell_formula_units_Z   4
loop_
 _symmetry_equiv_pos_site_id
 _symmetry_equiv_pos_as_xyz
  1  'x, y, z'
loop_
 _atom_site_type_symbol
 _atom_site_label
 _atom_site_symmetry_multiplicity
 _atom_site_fract_x
 _atom_site_fract_y
 _atom_site_fract_z
 _atom_site_occupancy
  Pr  Pr0  1  0.24999999  0.50540500  0.30913301  1
  Pr  Pr1  1  0.74999998  0.49459500  0.69086702  1
  Pr  Pr2  1  0.24999999  0.00540500  0.69086702  1
  Pr  Pr3  1  0.74999998  0.99459499  0.30913301  1
  Cr  Cr4  1  0.00000000  0.75000000  0.90338203  1
  Cr  Cr5  1  0.00000000  0.25000000  0.09661800  1
  Cr  Cr6  1  0.49999999  0.25000000  0.09661800  1
  Cr  Cr7  1  0.49999999  0.75000000  0.90338203  1
  Sb  Sb8  1  0.00000000  0.75000000  0.50211002  1
  Sb  Sb9  1  0.00000000  0.25000000  0.49789002  1
  Sb  Sb10  1  0.49999999  0.25000000  0.49789002  1
  Sb  Sb11  1  0.49999999  0.75000000  0.50211002  1
  Sb  Sb12  1  0.24999999  0.60090300  0.06377800  1
  Sb  Sb13  1  0.74999998  0.39909700  0.93622203  1
  Sb  Sb14  1  0.24999999  0.10090300  0.93622203  1
  Sb  Sb15  1  0.74999998  0.89909700  0.06377800  1
  Sb  Sb16  1  0.24999999  0.99691899  0.22581801  1
  Sb  Sb17  1  0.74999998  0.00308100  0.77418203  1
  Sb  Sb18  1  0.24999999  0.49691900  0.77418203  1
  Sb  Sb19  1  0.74999998  0.50308100  0.22581801  1
