# generated using pymatgen
data_HoIn3
_symmetry_space_group_name_H-M   'P 1'
_cell_length_a   5.02656221
_cell_length_b   6.76385021
_cell_length_c   6.76384926
_cell_angle_alpha   120.00000763
_cell_angle_beta   90.00000000
_cell_angle_gamma   90.00000000
_symmetry_Int_Tables_number   1
_chemical_formula_structural   HoIn3
_chemical_formula_sum   'Ho2 In6'
_cell_volume   199.15424235
_cell_formula_units_Z   2
loop_
 _symmetry_equiv_pos_site_id
 _symmetry_equiv_pos_as_xyz
  1  'x, y, z'
loop_
 _atom_site_type_symbol
 _atom_site_label
 _atom_site_symmetry_multiplicity
 _atom_site_fract_x
 _atom_site_fract_y
 _atom_site_fract_z
 _atom_site_occupancy
  Ho  Ho0  1  0.24999999  0.66666667  0.33333338  1
  Ho  Ho1  1  0.74999997  0.33333334  0.66666669  1
  In  In2  1  0.74999997  0.83924701  0.16075206  1
  In  In3  1  0.74999997  0.32150500  0.16075202  1
  In  In4  1  0.74999997  0.83924701  0.67849406  1
  In  In5  1  0.24999999  0.16075300  0.83924800  1
  In  In6  1  0.24999999  0.67849500  0.83924804  1
  In  In7  1  0.24999999  0.16075300  0.32150601  1
