# generated using pymatgen
data_Na3H(C2O3)2
_symmetry_space_group_name_H-M   'P 1'
_cell_length_a   5.94617605
_cell_length_b   5.94617605
_cell_length_c   6.25372505
_cell_angle_alpha   92.32111359
_cell_angle_beta   92.32111359
_cell_angle_gamma   99.57789612
_symmetry_Int_Tables_number   1
_chemical_formula_structural   Na3H(C2O3)2
_chemical_formula_sum   'Na3 H1 C4 O6'
_cell_volume   217.60133852
_cell_formula_units_Z   1
loop_
 _symmetry_equiv_pos_site_id
 _symmetry_equiv_pos_as_xyz
  1  'x, y, z'
loop_
 _atom_site_type_symbol
 _atom_site_label
 _atom_site_symmetry_multiplicity
 _atom_site_fract_x
 _atom_site_fract_y
 _atom_site_fract_z
 _atom_site_occupancy
  Na  Na0  1  0.80841298  0.19158699  0.75000000  1
  Na  Na1  1  0.19158703  0.80841298  0.24999998  1
  Na  Na2  1  0.07260001  0.24308499  0.40914700  1
  H  H3  1  0.75691501  0.92739997  0.09085296  1
  C  C4  1  0.92740000  0.75691498  0.59085297  1
  C  C5  1  0.24308499  0.07260000  0.90914702  1
  C  C6  1  0.24841001  0.40262699  0.42112700  1
  C  C7  1  0.59737301  0.75158998  0.07887297  1
  O  O8  1  0.75159000  0.59737298  0.57887298  1
  O  O9  1  0.40262700  0.24840999  0.92112701  1
  O  O10  1  0.08601002  0.53377499  0.93473401  1
  O  O11  1  0.46622502  0.91398997  0.56526598  1
  O  O12  1  0.91398999  0.46622499  0.06526597  1
  O  O13  1  0.53377499  0.08601000  0.43473400  1
