# generated using pymatgen
data_BaCuAs2
_symmetry_space_group_name_H-M   'P 1'
_cell_length_a   5.80436563
_cell_length_b   5.80436563
_cell_length_c   7.64933586
_cell_angle_alpha   67.70327759
_cell_angle_beta   67.70327759
_cell_angle_gamma   60.00000381
_symmetry_Int_Tables_number   1
_chemical_formula_structural   BaCuAs2
_chemical_formula_sum   'Ba2 Cu2 As4'
_cell_volume   200.62665799
_cell_formula_units_Z   2
loop_
 _symmetry_equiv_pos_site_id
 _symmetry_equiv_pos_as_xyz
  1  'x, y, z'
loop_
 _atom_site_type_symbol
 _atom_site_label
 _atom_site_symmetry_multiplicity
 _atom_site_fract_x
 _atom_site_fract_y
 _atom_site_fract_z
 _atom_site_occupancy
  Ba  Ba0  1  0.08937100  0.08937100  0.73188699  1
  Ba  Ba1  1  0.91062899  0.91062900  0.26811295  1
  Cu  Cu2  1  0.50000000  0.50000000  0.49999997  1
  Cu  Cu3  1  0.50000000  0.50000000  -0.00000003  1
  As  As4  1  -0.00000000  0.50000000  -0.00000001  1
  As  As5  1  0.50000000  0.00000000  -0.00000001  1
  As  As6  1  0.74765499  0.74765500  0.75703495  1
  As  As7  1  0.25234500  0.25234500  0.24296498  1
