# generated using pymatgen
data_LiTi5VO8
_symmetry_space_group_name_H-M   'P 1'
_cell_length_a   5.71117258
_cell_length_b   5.71117258
_cell_length_c   9.26896286
_cell_angle_alpha   72.05641174
_cell_angle_beta   72.05641174
_cell_angle_gamma   59.99999619
_symmetry_Int_Tables_number   1
_chemical_formula_structural   LiTi5VO8
_chemical_formula_sum   'Li1 Ti5 V1 O8'
_cell_volume   244.69832440
_cell_formula_units_Z   1
loop_
 _symmetry_equiv_pos_site_id
 _symmetry_equiv_pos_as_xyz
  1  'x, y, z'
loop_
 _atom_site_type_symbol
 _atom_site_label
 _atom_site_symmetry_multiplicity
 _atom_site_fract_x
 _atom_site_fract_y
 _atom_site_fract_z
 _atom_site_occupancy
  Li  Li0  1  0.37187700  0.37187699  0.88436896  1
  Ti  Ti1  1  0.62812301  0.62812298  0.11563099  1
  Ti  Ti2  1  0.11284500  0.11284500  0.66146497  1
  Ti  Ti3  1  0.88715501  0.88715497  0.33853498  1
  Ti  Ti4  1  0.25605102  0.73880897  0.26633098  1
  Ti  Ti5  1  0.73880899  0.25605099  0.26633099  1
  V  V6  1  0.73880901  0.73880897  0.26633098  1
  O  O7  1  0.26119102  0.74394897  0.73366896  1
  O  O8  1  0.74394899  0.26119099  0.73366896  1
  O  O9  1  0.26119100  0.26119099  0.73366896  1
  O  O10  1  0.17945500  0.17945499  0.46163498  1
  O  O11  1  0.82054501  0.82054497  0.53836497  1
  O  O12  1  0.50000001  0.49999998  -0.00000000  1
  O  O13  1  0.00000002  0.49999998  -0.00000000  1
  O  O14  1  0.49999999  0.00000000  -0.00000000  1
