# generated using pymatgen
data_Ce4GaSnGe9
_symmetry_space_group_name_H-M   'P 1'
_cell_length_a   6.46669579
_cell_length_b   6.46669579
_cell_length_c   6.46669579
_cell_angle_alpha   90.00000000
_cell_angle_beta   90.00000000
_cell_angle_gamma   90.00000000
_symmetry_Int_Tables_number   1
_chemical_formula_structural   Ce4GaSnGe9
_chemical_formula_sum   'Ce4 Ga1 Sn1 Ge9'
_cell_volume   270.42528270
_cell_formula_units_Z   1
loop_
 _symmetry_equiv_pos_site_id
 _symmetry_equiv_pos_as_xyz
  1  'x, y, z'
loop_
 _atom_site_type_symbol
 _atom_site_label
 _atom_site_symmetry_multiplicity
 _atom_site_fract_x
 _atom_site_fract_y
 _atom_site_fract_z
 _atom_site_occupancy
  Ce  Ce0  1  0.50000002  0.50000002  0.00000000  1
  Ce  Ce1  1  0.50000002  0.00000000  0.50000002  1
  Ce  Ce2  1  -0.00000000  0.50000002  0.50000002  1
  Ce  Ce3  1  0.50000002  0.50000002  0.50000002  1
  Ge  Ge4  1  0.21073001  0.21073001  0.78927003  1
  Ge  Ge5  1  0.21073001  0.78927003  0.21073001  1
  Ge  Ge6  1  0.78927003  0.21073001  0.21073001  1
  Ga  Ga7  1  0.78927003  0.78927003  0.78927003  1
  Sn  Sn8  1  0.78927003  0.78927003  0.21073001  1
  Ge  Ge9  1  0.78927003  0.21073001  0.78927003  1
  Ge  Ge10  1  0.21073001  0.78927003  0.78927003  1
  Ge  Ge11  1  0.21073001  0.21073001  0.21073001  1
  Ge  Ge12  1  0.00000000  0.00000000  0.50000002  1
  Ge  Ge13  1  -0.00000000  0.50000002  0.00000000  1
  Ge  Ge14  1  0.50000002  0.00000000  0.00000000  1
