# generated using pymatgen
data_Rb6FeF5
_symmetry_space_group_name_H-M   'P 1'
_cell_length_a   6.33747292
_cell_length_b   6.33747292
_cell_length_c   7.57056093
_cell_angle_alpha   90.00000000
_cell_angle_beta   90.00000000
_cell_angle_gamma   90.00000000
_symmetry_Int_Tables_number   1
_chemical_formula_structural   Rb6FeF5
_chemical_formula_sum   'Rb6 Fe1 F5'
_cell_volume   304.06070062
_cell_formula_units_Z   1
loop_
 _symmetry_equiv_pos_site_id
 _symmetry_equiv_pos_as_xyz
  1  'x, y, z'
loop_
 _atom_site_type_symbol
 _atom_site_label
 _atom_site_symmetry_multiplicity
 _atom_site_fract_x
 _atom_site_fract_y
 _atom_site_fract_z
 _atom_site_occupancy
  Rb  Rb0  1  0.00000000  0.50000001  0.25000000  1
  Rb  Rb1  1  0.50000001  0.00000000  0.75000001  1
  Rb  Rb2  1  0.00000000  0.50000001  0.75000001  1
  Rb  Rb3  1  0.50000001  0.00000000  0.25000000  1
  Rb  Rb4  1  0.00000000  0.00000000  0.50000000  1
  Rb  Rb5  1  0.50000001  0.50000001  0.00000000  1
  Fe  Fe6  1  0.50000001  0.50000001  0.50000000  1
  F  F7  1  0.00000000  0.00000000  0.00000000  1
  F  F8  1  0.69999301  0.69999301  0.50000000  1
  F  F9  1  0.30000700  0.30000700  0.50000000  1
  F  F10  1  0.80000701  0.19999300  0.00000000  1
  F  F11  1  0.19999300  0.80000701  0.00000000  1
