# generated using pymatgen
data_K4SnGe(BiI5)2
_symmetry_space_group_name_H-M   'P 1'
_cell_length_a   9.14660931
_cell_length_b   9.14660931
_cell_length_c   9.14660931
_cell_angle_alpha   72.02381897
_cell_angle_beta   72.02381897
_cell_angle_gamma   72.02381897
_symmetry_Int_Tables_number   1
_chemical_formula_structural   K4SnGe(BiI5)2
_chemical_formula_sum   'K4 Sn1 Ge1 Bi2 I10'
_cell_volume   672.79671484
_cell_formula_units_Z   1
loop_
 _symmetry_equiv_pos_site_id
 _symmetry_equiv_pos_as_xyz
  1  'x, y, z'
loop_
 _atom_site_type_symbol
 _atom_site_label
 _atom_site_symmetry_multiplicity
 _atom_site_fract_x
 _atom_site_fract_y
 _atom_site_fract_z
 _atom_site_occupancy
  K  K0  1  0.67267603  0.44574400  0.11174403  1
  K  K1  1  0.44574401  0.11174400  0.67267603  1
  K  K2  1  0.11174403  0.67267600  0.44574403  1
  K  K3  1  0.32732402  0.55425600  0.88825605  1
  Bi  Bi4  1  0.55425604  0.88825600  0.32732405  1
  Bi  Bi5  1  0.88825602  0.32732400  0.55425605  1
  Ge  Ge6  1  0.00000000  0.00000000  0.00000000  1
  Sn  Sn7  1  0.15640101  0.15640100  0.15640101  1
  I  I8  1  0.84359904  0.84359900  0.84359907  1
  I  I9  1  0.08990001  0.33065500  0.84854403  1
  I  I10  1  0.33065504  0.84854400  0.08990003  1
  I  I11  1  0.84854401  0.08990000  0.33065504  1
  I  I12  1  0.91010004  0.66934500  0.15145605  1
  I  I13  1  0.66934501  0.15145600  0.91010005  1
  I  I14  1  0.15145604  0.91010000  0.66934504  1
  I  I15  1  0.29525101  0.29525100  0.29525102  1
  I  I16  1  0.70474904  0.70474900  0.70474906  1
  I  I17  1  0.50000003  0.50000000  0.50000004  1
