# generated using pymatgen
data_NdSn2
_symmetry_space_group_name_H-M   'P 1'
_cell_length_a   4.35474396
_cell_length_b   4.40302801
_cell_length_c   8.42856598
_cell_angle_alpha   74.85891724
_cell_angle_beta   90.00000000
_cell_angle_gamma   90.00000000
_symmetry_Int_Tables_number   1
_chemical_formula_structural   NdSn2
_chemical_formula_sum   'Nd2 Sn4'
_cell_volume   155.99963740
_cell_formula_units_Z   2
loop_
 _symmetry_equiv_pos_site_id
 _symmetry_equiv_pos_as_xyz
  1  'x, y, z'
loop_
 _atom_site_type_symbol
 _atom_site_label
 _atom_site_symmetry_multiplicity
 _atom_site_fract_x
 _atom_site_fract_y
 _atom_site_fract_z
 _atom_site_occupancy
  Nd  Nd0  1  0.75000001  0.09863100  0.80273798  1
  Nd  Nd1  1  0.25000000  0.90136899  0.19726201  1
  Sn  Sn2  1  0.75000001  0.74995399  0.50009200  1
  Sn  Sn3  1  0.25000000  0.25004600  0.49990799  1
  Sn  Sn4  1  0.25000000  0.56412199  0.87175599  1
  Sn  Sn5  1  0.75000001  0.43587799  0.12824401  1
