# generated using pymatgen
data_Sm3Ge8
_symmetry_space_group_name_H-M   'P 1'
_cell_length_a   4.45027590
_cell_length_b   6.92720985
_cell_length_c   8.33914375
_cell_angle_alpha   114.54091644
_cell_angle_beta   105.47575378
_cell_angle_gamma   90.00000000
_symmetry_Int_Tables_number   1
_chemical_formula_structural   Sm3Ge8
_chemical_formula_sum   'Sm3 Ge8'
_cell_volume   223.56890500
_cell_formula_units_Z   1
loop_
 _symmetry_equiv_pos_site_id
 _symmetry_equiv_pos_as_xyz
  1  'x, y, z'
loop_
 _atom_site_type_symbol
 _atom_site_label
 _atom_site_symmetry_multiplicity
 _atom_site_fract_x
 _atom_site_fract_y
 _atom_site_fract_z
 _atom_site_occupancy
  Sm  Sm0  1  0.00000000  0.00000000  0.00000000  1
  Sm  Sm1  1  0.12913602  0.62913600  0.25827198  1
  Sm  Sm2  1  0.87086404  0.37086400  0.74172802  1
  Ge  Ge3  1  0.67345405  0.98571100  0.34690899  1
  Ge  Ge4  1  0.67345503  0.36119800  0.34691001  1
  Ge  Ge5  1  0.32654601  0.01428900  0.65309101  1
  Ge  Ge6  1  0.32654503  0.63880200  0.65308999  1
  Ge  Ge7  1  0.78329105  0.78329100  0.56658200  1
  Ge  Ge8  1  0.21670901  0.21670900  0.43341800  1
  Ge  Ge9  1  0.50000003  0.70467800  -0.00000001  1
  Ge  Ge10  1  0.50000003  0.29532200  0.00000001  1
