# generated using pymatgen
data_Zr5Cu4
_symmetry_space_group_name_H-M   'P 1'
_cell_length_a   6.47786808
_cell_length_b   8.49168015
_cell_length_c   8.49168015
_cell_angle_alpha   60.00000000
_cell_angle_beta   90.00000000
_cell_angle_gamma   90.00000000
_symmetry_Int_Tables_number   1
_chemical_formula_structural   Zr5Cu4
_chemical_formula_sum   'Zr10 Cu8'
_cell_volume   404.52930262
_cell_formula_units_Z   2
loop_
 _symmetry_equiv_pos_site_id
 _symmetry_equiv_pos_as_xyz
  1  'x, y, z'
loop_
 _atom_site_type_symbol
 _atom_site_label
 _atom_site_symmetry_multiplicity
 _atom_site_fract_x
 _atom_site_fract_y
 _atom_site_fract_z
 _atom_site_occupancy
  Zr  Zr0  1  0.00000000  0.66666666  0.66666666  1
  Zr  Zr1  1  0.99999999  0.33333333  0.33333333  1
  Zr  Zr2  1  0.49999999  0.33333333  0.33333333  1
  Zr  Zr3  1  0.49999999  0.66666666  0.66666666  1
  Zr  Zr4  1  0.25000000  0.22351800  -0.00000001  1
  Zr  Zr5  1  0.25000000  0.00000000  0.77648202  1
  Zr  Zr6  1  0.25000000  0.77648200  0.22351798  1
  Zr  Zr7  1  0.74999999  0.77648200  -0.00000002  1
  Zr  Zr8  1  0.74999999  0.00000000  0.22351801  1
  Zr  Zr9  1  0.74999999  0.22351800  0.77648201  1
  Cu  Cu10  1  0.25000000  0.58986100  1.00000001  1
  Cu  Cu11  1  0.25000000  0.00000000  0.41013901  1
  Cu  Cu12  1  0.25000000  0.41013900  0.58986100  1
  Cu  Cu13  1  0.74999999  0.41013900  -0.00000001  1
  Cu  Cu14  1  0.74999999  0.00000000  0.58986101  1
  Cu  Cu15  1  0.74999999  0.58986100  0.41013899  1
  Cu  Cu16  1  0.00000000  0.00000000  0.00000000  1
  Cu  Cu17  1  0.49999999  0.00000000  0.00000000  1
