# generated using pymatgen
data_Na2PdPb
_symmetry_space_group_name_H-M   'P 1'
_cell_length_a   6.33257723
_cell_length_b   6.33257723
_cell_length_c   6.33257723
_cell_angle_alpha   90.00000000
_cell_angle_beta   90.00000000
_cell_angle_gamma   90.00000000
_symmetry_Int_Tables_number   1
_chemical_formula_structural   Na2PdPb
_chemical_formula_sum   'Na4 Pd2 Pb2'
_cell_volume   253.94606329
_cell_formula_units_Z   2
loop_
 _symmetry_equiv_pos_site_id
 _symmetry_equiv_pos_as_xyz
  1  'x, y, z'
loop_
 _atom_site_type_symbol
 _atom_site_label
 _atom_site_symmetry_multiplicity
 _atom_site_fract_x
 _atom_site_fract_y
 _atom_site_fract_z
 _atom_site_occupancy
  Na  Na0  1  0.00000000  0.00000000  0.49999998  1
  Na  Na1  1  0.00000000  0.49999998  0.00000000  1
  Na  Na2  1  0.49999998  0.00000000  0.00000000  1
  Na  Na3  1  0.49999998  0.49999998  0.49999998  1
  Pd  Pd4  1  0.00000000  0.00000000  0.00000000  1
  Pb  Pb5  1  0.49999998  0.49999998  0.00000000  1
  Pb  Pb6  1  0.49999998  0.00000000  0.49999998  1
  Pd  Pd7  1  0.00000000  0.49999998  0.49999998  1
