# generated using pymatgen
data_ThSn
_symmetry_space_group_name_H-M   'P 1'
_cell_length_a   3.89206195
_cell_length_b   3.89206195
_cell_length_c   14.44083500
_cell_angle_alpha   90.00000000
_cell_angle_beta   90.00000000
_cell_angle_gamma   90.00000000
_symmetry_Int_Tables_number   1
_chemical_formula_structural   ThSn
_chemical_formula_sum   'Th4 Sn4'
_cell_volume   218.75188001
_cell_formula_units_Z   4
loop_
 _symmetry_equiv_pos_site_id
 _symmetry_equiv_pos_as_xyz
  1  'x, y, z'
loop_
 _atom_site_type_symbol
 _atom_site_label
 _atom_site_symmetry_multiplicity
 _atom_site_fract_x
 _atom_site_fract_y
 _atom_site_fract_z
 _atom_site_occupancy
  Th  Th0  1  0.50000001  0.50000001  0.11782900  1
  Th  Th1  1  0.50000001  0.50000001  0.37379400  1
  Th  Th2  1  0.50000001  0.50000001  0.62620600  1
  Th  Th3  1  0.50000001  0.50000001  0.88217100  1
  Sn  Sn4  1  0.00000000  0.00000000  0.24936700  1
  Sn  Sn5  1  0.00000000  0.00000000  0.50000000  1
  Sn  Sn6  1  0.00000000  0.00000000  0.75063300  1
  Sn  Sn7  1  0.00000000  0.00000000  0.00000000  1
