# generated using pymatgen
data_Cs4As3PS8
_symmetry_space_group_name_H-M   'P 1'
_cell_length_a   6.72437096
_cell_length_b   7.03628922
_cell_length_c   11.14737606
_cell_angle_alpha   95.62048340
_cell_angle_beta   106.98833466
_cell_angle_gamma   111.13388062
_symmetry_Int_Tables_number   1
_chemical_formula_structural   Cs4As3PS8
_chemical_formula_sum   'Cs4 As3 P1 S8'
_cell_volume   458.11233941
_cell_formula_units_Z   1
loop_
 _symmetry_equiv_pos_site_id
 _symmetry_equiv_pos_as_xyz
  1  'x, y, z'
loop_
 _atom_site_type_symbol
 _atom_site_label
 _atom_site_symmetry_multiplicity
 _atom_site_fract_x
 _atom_site_fract_y
 _atom_site_fract_z
 _atom_site_occupancy
  Cs  Cs0  1  0.84936301  0.72874302  0.10048300  1
  Cs  Cs1  1  0.15063700  0.27125701  0.89951699  1
  Cs  Cs2  1  0.44077001  0.97803102  0.68782500  1
  Cs  Cs3  1  0.55923000  0.02196900  0.31217499  1
  As  As4  1  0.77945701  0.58732001  0.41681999  1
  As  As5  1  0.22054301  0.41268001  0.58318000  1
  P  P6  1  0.86652801  0.64281101  0.73248599  1
  As  As7  1  0.13347201  0.35718901  0.26751400  1
  S  S8  1  0.14680801  0.76796702  0.89734600  1
  S  S9  1  0.85319200  0.23203301  0.10265399  1
  S  S10  1  0.57296001  0.55969401  0.77970199  1
  S  S11  1  0.42704001  0.44030601  0.22029800  1
  S  S12  1  0.87535601  0.86085302  0.62105200  1
  S  S13  1  0.12464400  0.13914700  0.37894799  1
  S  S14  1  0.85112501  0.37481701  0.62616199  1
  S  S15  1  0.14887501  0.62518301  0.37383800  1
