# generated using pymatgen
data_Eu8Tl3
_symmetry_space_group_name_H-M   'P 1'
_cell_length_a   6.38226271
_cell_length_b   8.86451817
_cell_length_c   8.86451817
_cell_angle_alpha   110.99571991
_cell_angle_beta   97.87658691
_cell_angle_gamma   97.87658691
_symmetry_Int_Tables_number   1
_chemical_formula_structural   Eu8Tl3
_chemical_formula_sum   'Eu8 Tl3'
_cell_volume   454.30971120
_cell_formula_units_Z   1
loop_
 _symmetry_equiv_pos_site_id
 _symmetry_equiv_pos_as_xyz
  1  'x, y, z'
loop_
 _atom_site_type_symbol
 _atom_site_label
 _atom_site_symmetry_multiplicity
 _atom_site_fract_x
 _atom_site_fract_y
 _atom_site_fract_z
 _atom_site_occupancy
  Eu  Eu0  1  0.00000000  0.00000000  0.00000000  1
  Eu  Eu1  1  0.50000010  0.68138699  0.31861300  1
  Eu  Eu2  1  0.50000006  0.31861300  0.68138700  1
  Eu  Eu3  1  0.42195010  0.67643799  0.93981799  1
  Eu  Eu4  1  0.42195013  0.93981799  0.67643798  1
  Eu  Eu5  1  0.80484810  0.61873699  0.61873701  1
  Eu  Eu6  1  0.00000003  0.24551200  0.75448798  1
  Eu  Eu7  1  0.00000009  0.75448799  0.24551198  1
  Tl  Tl8  1  0.19515205  0.38126299  0.38126299  1
  Tl  Tl9  1  0.57805003  0.06018200  0.32356202  1
  Tl  Tl10  1  0.57805006  0.32356200  0.06018202  1
