# generated using pymatgen
data_SrCaGe2
_symmetry_space_group_name_H-M   'P 1'
_cell_length_a   4.17345619
_cell_length_b   4.79113102
_cell_length_c   11.54492283
_cell_angle_alpha   90.00000000
_cell_angle_beta   90.00000000
_cell_angle_gamma   90.00000000
_symmetry_Int_Tables_number   1
_chemical_formula_structural   SrCaGe2
_chemical_formula_sum   'Sr2 Ca2 Ge4'
_cell_volume   230.84737514
_cell_formula_units_Z   2
loop_
 _symmetry_equiv_pos_site_id
 _symmetry_equiv_pos_as_xyz
  1  'x, y, z'
loop_
 _atom_site_type_symbol
 _atom_site_label
 _atom_site_symmetry_multiplicity
 _atom_site_fract_x
 _atom_site_fract_y
 _atom_site_fract_z
 _atom_site_occupancy
  Sr  Sr0  1  0.00000000  0.00000000  0.36571101  1
  Sr  Sr1  1  0.00000000  0.50000000  0.85800701  1
  Ca  Ca2  1  0.49999998  0.50000000  0.14101200  1
  Ca  Ca3  1  0.49999998  0.00000000  0.63721101  1
  Ge  Ge4  1  0.00000000  0.00000000  0.06363300  1
  Ge  Ge5  1  0.00000000  0.50000000  0.56194801  1
  Ge  Ge6  1  0.49999998  0.50000000  0.43909701  1
  Ge  Ge7  1  0.49999998  0.00000000  0.93338001  1
