# generated using pymatgen
data_Ta2NbGa2Cu
_symmetry_space_group_name_H-M   'P 1'
_cell_length_a   3.80644393
_cell_length_b   3.85917401
_cell_length_c   7.76919270
_cell_angle_alpha   75.61928558
_cell_angle_beta   90.00000000
_cell_angle_gamma   90.00000000
_symmetry_Int_Tables_number   1
_chemical_formula_structural   Ta2NbGa2Cu
_chemical_formula_sum   'Ta2 Nb1 Ga2 Cu1'
_cell_volume   110.55136601
_cell_formula_units_Z   1
loop_
 _symmetry_equiv_pos_site_id
 _symmetry_equiv_pos_as_xyz
  1  'x, y, z'
loop_
 _atom_site_type_symbol
 _atom_site_label
 _atom_site_symmetry_multiplicity
 _atom_site_fract_x
 _atom_site_fract_y
 _atom_site_fract_z
 _atom_site_occupancy
  Ta  Ta0  1  0.00000000  0.10443900  0.79112200  1
  Ta  Ta1  1  0.50000001  0.89671599  0.20656802  1
  Nb  Nb2  1  0.00000000  0.44056799  0.11886401  1
  Ga  Ga3  1  0.50000001  0.55951799  0.88096401  1
  Ga  Ga4  1  0.00000000  0.74885199  0.50229602  1
  Cu  Cu5  1  0.50000001  0.24990800  0.50018400  1
