# generated using pymatgen
data_UCoGe2
_symmetry_space_group_name_H-M   'P 1'
_cell_length_a   3.95588589
_cell_length_b   3.99581790
_cell_length_c   8.31412220
_cell_angle_alpha   76.09557343
_cell_angle_beta   90.00000000
_cell_angle_gamma   90.00000000
_symmetry_Int_Tables_number   1
_chemical_formula_structural   UCoGe2
_chemical_formula_sum   'U2 Co2 Ge4'
_cell_volume   127.57040825
_cell_formula_units_Z   2
loop_
 _symmetry_equiv_pos_site_id
 _symmetry_equiv_pos_as_xyz
  1  'x, y, z'
loop_
 _atom_site_type_symbol
 _atom_site_label
 _atom_site_symmetry_multiplicity
 _atom_site_fract_x
 _atom_site_fract_y
 _atom_site_fract_z
 _atom_site_occupancy
  U  U0  1  0.75000002  0.10748700  0.78502599  1
  U  U1  1  0.25000001  0.89251302  0.21497401  1
  Co  Co2  1  0.75000002  0.32104301  0.35791400  1
  Co  Co3  1  0.25000001  0.67895701  0.64208600  1
  Ge  Ge4  1  0.25000001  0.24987800  0.50024400  1
  Ge  Ge5  1  0.75000002  0.75012201  0.49975600  1
  Ge  Ge6  1  0.25000001  0.54236301  0.91527400  1
  Ge  Ge7  1  0.75000002  0.45763701  0.08472600  1
