# generated using pymatgen
data_Na2Bi3Pb
_symmetry_space_group_name_H-M   'P 1'
_cell_length_a   6.24984217
_cell_length_b   6.24984312
_cell_length_c   9.97402000
_cell_angle_alpha   90.00000000
_cell_angle_beta   90.00000000
_cell_angle_gamma   119.99999237
_symmetry_Int_Tables_number   1
_chemical_formula_structural   Na2Bi3Pb
_chemical_formula_sum   'Na4 Bi6 Pb2'
_cell_volume   337.39532912
_cell_formula_units_Z   2
loop_
 _symmetry_equiv_pos_site_id
 _symmetry_equiv_pos_as_xyz
  1  'x, y, z'
loop_
 _atom_site_type_symbol
 _atom_site_label
 _atom_site_symmetry_multiplicity
 _atom_site_fract_x
 _atom_site_fract_y
 _atom_site_fract_z
 _atom_site_occupancy
  Na  Na0  1  0.66666663  0.33333331  0.06149800  1
  Na  Na1  1  0.33333329  0.66666663  0.56149800  1
  Na  Na2  1  0.33333329  0.66666663  0.93850200  1
  Na  Na3  1  0.66666663  0.33333331  0.43850200  1
  Bi  Bi4  1  0.16880195  0.83119895  0.25000000  1
  Bi  Bi5  1  0.83119794  0.66239596  0.75000000  1
  Bi  Bi6  1  0.33760298  0.16880099  0.75000000  1
  Bi  Bi7  1  0.66239694  0.83119895  0.25000000  1
  Bi  Bi8  1  0.00000000  0.00000000  0.00000000  1
  Pb  Pb9  1  0.00000000  0.00000000  0.50000000  1
  Bi  Bi10  1  0.83119797  0.16880099  0.75000000  1
  Pb  Pb11  1  0.16880198  0.33760398  0.25000000  1
