# generated using pymatgen
data_Li4FeTe2MoO12
_symmetry_space_group_name_H-M   'P 1'
_cell_length_a   5.85011911
_cell_length_b   5.97753620
_cell_length_c   6.71085882
_cell_angle_alpha   105.18809509
_cell_angle_beta   103.27992249
_cell_angle_gamma   90.03682709
_symmetry_Int_Tables_number   1
_chemical_formula_structural   Li4FeTe2MoO12
_chemical_formula_sum   'Li4 Fe1 Te2 Mo1 O12'
_cell_volume   219.95831158
_cell_formula_units_Z   1
loop_
 _symmetry_equiv_pos_site_id
 _symmetry_equiv_pos_as_xyz
  1  'x, y, z'
loop_
 _atom_site_type_symbol
 _atom_site_label
 _atom_site_symmetry_multiplicity
 _atom_site_fract_x
 _atom_site_fract_y
 _atom_site_fract_z
 _atom_site_occupancy
  Li  Li0  1  0.68623098  0.68192801  0.68132699  1
  Li  Li1  1  0.31376899  0.31807200  0.31867300  1
  Li  Li2  1  0.83298998  0.84598701  0.32549498  1
  Li  Li3  1  0.49999999  0.50000001  -0.00000001  1
  Fe  Fe4  1  0.16701000  0.15401300  0.67450500  1
  Mo  Mo5  1  0.33397199  0.83359301  0.33067800  1
  Te  Te6  1  0.00000000  0.50000001  0.00000001  1
  Te  Te7  1  0.66602798  0.16640700  0.66932198  1
  O  O8  1  0.24466300  0.72712301  0.02983400  1
  O  O9  1  0.75570098  0.70955101  0.00726298  1
  O  O10  1  0.42796799  0.93214501  0.63710301  1
  O  O11  1  0.09123100  0.60650901  0.30141401  1
  O  O12  1  0.89326298  0.94235001  0.64559999  1
  O  O13  1  0.56802199  0.61235401  0.31570999  1
  O  O14  1  0.43197799  0.38764600  0.68429000  1
  O  O15  1  0.10673700  0.05765000  0.35440000  1
  O  O16  1  0.90876897  0.39349100  0.69858598  1
  O  O17  1  0.57203198  0.06785500  0.36289698  1
  O  O18  1  0.24429899  0.29044900  0.99273700  1
  O  O19  1  0.75533698  0.27287700  0.97016598  1
