# generated using pymatgen
data_Ba2Fe2O5
_symmetry_space_group_name_H-M   'P 1'
_cell_length_a   5.65753222
_cell_length_b   5.69118023
_cell_length_c   9.59507656
_cell_angle_alpha   107.25157166
_cell_angle_beta   107.14640045
_cell_angle_gamma   90.00000000
_symmetry_Int_Tables_number   1
_chemical_formula_structural   Ba2Fe2O5
_chemical_formula_sum   'Ba4 Fe4 O10'
_cell_volume   280.63353152
_cell_formula_units_Z   2
loop_
 _symmetry_equiv_pos_site_id
 _symmetry_equiv_pos_as_xyz
  1  'x, y, z'
loop_
 _atom_site_type_symbol
 _atom_site_label
 _atom_site_symmetry_multiplicity
 _atom_site_fract_x
 _atom_site_fract_y
 _atom_site_fract_z
 _atom_site_occupancy
  Ba  Ba0  1  0.60700597  0.11474300  0.22271899  1
  Ba  Ba1  1  0.38428598  0.88525698  0.77728003  1
  Ba  Ba2  1  0.10700600  0.60797699  0.22271902  1
  Ba  Ba3  1  0.88428595  0.39202299  0.77728000  1
  Fe  Fe4  1  0.99607895  0.99999998  1.00000002  1
  Fe  Fe5  1  0.49607897  0.49999999  1.00000002  1
  Fe  Fe6  1  0.27309099  0.18320400  0.50000001  1
  Fe  Fe7  1  0.77309096  0.81679598  0.50000001  1
  O  O8  1  0.74496496  0.24906699  0.99535400  1
  O  O9  1  0.74961096  0.75093298  0.00464700  1
  O  O10  1  0.24496399  0.24628599  0.99535302  1
  O  O11  1  0.24961199  0.75371398  0.00464802  1
  O  O12  1  0.14179799  0.17383300  0.30516601  1
  O  O13  1  0.83663096  0.82616698  0.69483302  1
  O  O14  1  0.64179797  0.63133399  0.30516601  1
  O  O15  1  0.33663098  0.36866599  0.69483302  1
  O  O16  1  0.60253197  0.10282600  0.49999999  1
  O  O17  1  0.10253200  0.89717398  0.50000004  1
