# generated using pymatgen
data_K3OF2
_symmetry_space_group_name_H-M   'P 1'
_cell_length_a   4.17717218
_cell_length_b   9.11822128
_cell_length_c   10.78211117
_cell_angle_alpha   89.91251373
_cell_angle_beta   90.00000000
_cell_angle_gamma   90.00000000
_symmetry_Int_Tables_number   1
_chemical_formula_structural   K3OF2
_chemical_formula_sum   'K6 O2 F4'
_cell_volume   410.67267197
_cell_formula_units_Z   2
loop_
 _symmetry_equiv_pos_site_id
 _symmetry_equiv_pos_as_xyz
  1  'x, y, z'
loop_
 _atom_site_type_symbol
 _atom_site_label
 _atom_site_symmetry_multiplicity
 _atom_site_fract_x
 _atom_site_fract_y
 _atom_site_fract_z
 _atom_site_occupancy
  K  K0  1  0.49999998  0.39512899  0.37413200  1
  K  K1  1  0.49999998  0.89033297  0.12934697  1
  K  K2  1  0.00000000  0.60994898  0.62230900  1
  K  K3  1  -0.00000000  0.10860800  0.87178703  1
  K  K4  1  0.49999998  0.16200699  0.04364500  1
  F  F5  1  0.00000000  0.33632499  0.54425201  1
  K  K6  1  0.00000000  0.83824997  0.95692501  1
  F  F7  1  0.49999998  0.64835698  0.46217799  1
  O  O8  1  0.49999998  0.98502797  0.67831199  1
  O  O9  1  0.49999998  0.49367798  0.81490601  1
  F  F10  1  0.00000000  0.01204700  0.32166001  1
  F  F11  1  -0.00000000  0.52028798  0.18054799  1
