# generated using pymatgen
data_Li5Mn2Co3O10
_symmetry_space_group_name_H-M   'P 1'
_cell_length_a   5.08838606
_cell_length_b   5.08861399
_cell_length_c   7.68389654
_cell_angle_alpha   70.93973541
_cell_angle_beta   71.50036621
_cell_angle_gamma   80.29479980
_symmetry_Int_Tables_number   1
_chemical_formula_structural   Li5Mn2Co3O10
_chemical_formula_sum   'Li5 Mn2 Co3 O10'
_cell_volume   177.86378110
_cell_formula_units_Z   1
loop_
 _symmetry_equiv_pos_site_id
 _symmetry_equiv_pos_as_xyz
  1  'x, y, z'
loop_
 _atom_site_type_symbol
 _atom_site_label
 _atom_site_symmetry_multiplicity
 _atom_site_fract_x
 _atom_site_fract_y
 _atom_site_fract_z
 _atom_site_occupancy
  Li  Li0  1  0.49558295  0.78397702  0.40570099  1
  Li  Li1  1  0.51340996  0.59762101  0.78590099  1
  Li  Li2  1  0.99949196  0.49817901  0.50068101  1
  Li  Li3  1  0.49799698  0.21782500  0.58891700  1
  Li  Li4  1  0.49751097  0.40200801  0.20804800  1
  Mn  Mn5  1  0.00535696  0.89879202  0.69540197  1
  Mn  Mn6  1  0.99348798  0.10327800  0.30212002  1
  Co  Co7  1  0.50035394  0.99514302  0.00052599  1
  Co  Co8  1  0.99916597  0.30379201  0.89715901  1
  Co  Co9  1  0.99946795  0.69575102  0.10943001  1
  O  O10  1  0.22322895  0.97149202  0.84598898  1
  O  O11  1  0.77587195  0.86964702  0.54247300  1
  O  O12  1  0.77385296  0.65181401  0.92941300  1
  O  O13  1  0.24227196  0.77368702  0.24856799  1
  O  O14  1  0.22468397  0.55828001  0.66980699  1
  O  O15  1  0.76434197  0.42962201  0.34421601  1
  O  O16  1  0.77172098  0.22593800  0.76151601  1
  O  O17  1  0.22579098  0.32857401  0.05646400  1
  O  O18  1  0.22289399  0.12857900  0.45710800  1
  O  O19  1  0.77046899  0.07279600  0.14065202  1
