# generated using pymatgen
data_Nb2Ge
_symmetry_space_group_name_H-M   'P 1'
_cell_length_a   4.53231001
_cell_length_b   6.39811420
_cell_length_c   7.83895683
_cell_angle_alpha   114.08536530
_cell_angle_beta   106.80341339
_cell_angle_gamma   90.00000000
_symmetry_Int_Tables_number   1
_chemical_formula_structural   Nb2Ge
_chemical_formula_sum   'Nb6 Ge3'
_cell_volume   196.84617740
_cell_formula_units_Z   3
loop_
 _symmetry_equiv_pos_site_id
 _symmetry_equiv_pos_as_xyz
  1  'x, y, z'
loop_
 _atom_site_type_symbol
 _atom_site_label
 _atom_site_symmetry_multiplicity
 _atom_site_fract_x
 _atom_site_fract_y
 _atom_site_fract_z
 _atom_site_occupancy
  Nb  Nb0  1  0.50000000  0.24902099  -0.00000000  1
  Nb  Nb1  1  0.83368899  0.58419998  0.66737901  1
  Nb  Nb2  1  0.16630999  0.91682097  0.33262001  1
  Nb  Nb3  1  0.49999999  0.75097898  0.00000000  1
  Nb  Nb4  1  0.83368999  0.08317900  0.66738000  1
  Nb  Nb5  1  0.16631100  0.41579999  0.33262101  1
  Ge  Ge6  1  0.00000000  0.00000000  0.00000000  1
  Ge  Ge7  1  0.33333333  0.33333332  0.66666668  1
  Ge  Ge8  1  0.66666666  0.66666665  0.33333334  1
