# generated using pymatgen
data_Tb(FeGe)2
_symmetry_space_group_name_H-M   'P 1'
_cell_length_a   4.08575583
_cell_length_b   4.08575583
_cell_length_c   5.77878046
_cell_angle_alpha   110.70237732
_cell_angle_beta   110.70237732
_cell_angle_gamma   90.00000000
_symmetry_Int_Tables_number   1
_chemical_formula_structural   Tb(FeGe)2
_chemical_formula_sum   'Tb1 Fe2 Ge2'
_cell_volume   83.54643293
_cell_formula_units_Z   1
loop_
 _symmetry_equiv_pos_site_id
 _symmetry_equiv_pos_as_xyz
  1  'x, y, z'
loop_
 _atom_site_type_symbol
 _atom_site_label
 _atom_site_symmetry_multiplicity
 _atom_site_fract_x
 _atom_site_fract_y
 _atom_site_fract_z
 _atom_site_occupancy
  Tb  Tb0  1  0.00000000  0.00000000  0.00000000  1
  Fe  Fe1  1  0.75000002  0.25000001  0.49999997  1
  Fe  Fe2  1  0.24999998  0.75000002  0.49999997  1
  Ge  Ge3  1  0.36889000  0.36889001  0.73777998  1
  Ge  Ge4  1  0.63111000  0.63111002  0.26221996  1
