# generated using pymatgen
data_Hf5Pb4
_symmetry_space_group_name_H-M   'P 1'
_cell_length_a   6.04576302
_cell_length_b   8.92212963
_cell_length_c   8.92212963
_cell_angle_alpha   120.00000000
_cell_angle_beta   90.00000000
_cell_angle_gamma   90.00000000
_symmetry_Int_Tables_number   1
_chemical_formula_structural   Hf5Pb4
_chemical_formula_sum   'Hf10 Pb8'
_cell_volume   416.79145735
_cell_formula_units_Z   2
loop_
 _symmetry_equiv_pos_site_id
 _symmetry_equiv_pos_as_xyz
  1  'x, y, z'
loop_
 _atom_site_type_symbol
 _atom_site_label
 _atom_site_symmetry_multiplicity
 _atom_site_fract_x
 _atom_site_fract_y
 _atom_site_fract_z
 _atom_site_occupancy
  Hf  Hf0  1  -0.00000000  0.33333334  0.66666667  1
  Hf  Hf1  1  1.00000000  0.66666669  0.33333333  1
  Hf  Hf2  1  0.50000000  0.66666669  0.33333333  1
  Hf  Hf3  1  0.50000000  0.33333334  0.66666667  1
  Hf  Hf4  1  0.25000000  0.27910901  -0.00000000  1
  Hf  Hf5  1  0.25000000  0.72089102  0.72089100  1
  Hf  Hf6  1  0.25000000  0.00000000  0.27910901  1
  Hf  Hf7  1  0.75000000  0.72089102  -0.00000001  1
  Hf  Hf8  1  0.75000000  0.27910901  0.27910900  1
  Hf  Hf9  1  0.75000000  0.00000000  0.72089101  1
  Pb  Pb10  1  0.00000000  0.00000000  0.00000000  1
  Pb  Pb11  1  0.50000000  0.00000000  -0.00000000  1
  Pb  Pb12  1  0.25000000  0.62007502  1.00000001  1
  Pb  Pb13  1  0.25000000  0.37992501  0.37992500  1
  Pb  Pb14  1  0.25000000  0.00000000  0.62007501  1
  Pb  Pb15  1  0.75000000  0.37992501  -0.00000001  1
  Pb  Pb16  1  0.75000000  0.62007502  0.62007500  1
  Pb  Pb17  1  0.75000000  0.00000000  0.37992501  1
