# generated using pymatgen
data_TmSi2
_symmetry_space_group_name_H-M   'P 1'
_cell_length_a   4.19649792
_cell_length_b   6.83775711
_cell_length_c   6.94274616
_cell_angle_alpha   90.00000000
_cell_angle_beta   90.00000000
_cell_angle_gamma   90.00000000
_symmetry_Int_Tables_number   1
_chemical_formula_structural   TmSi2
_chemical_formula_sum   'Tm4 Si8'
_cell_volume   199.21955642
_cell_formula_units_Z   4
loop_
 _symmetry_equiv_pos_site_id
 _symmetry_equiv_pos_as_xyz
  1  'x, y, z'
loop_
 _atom_site_type_symbol
 _atom_site_label
 _atom_site_symmetry_multiplicity
 _atom_site_fract_x
 _atom_site_fract_y
 _atom_site_fract_z
 _atom_site_occupancy
  Tm  Tm0  1  0.75000001  0.18608400  0.52008799  1
  Tm  Tm1  1  0.25000000  0.81391599  0.47991199  1
  Tm  Tm2  1  0.75000001  0.31391599  0.02008800  1
  Tm  Tm3  1  0.25000000  0.68608399  0.97991198  1
  Si  Si4  1  0.25000000  0.06613300  0.14303700  1
  Si  Si5  1  0.75000001  0.93386698  0.85696298  1
  Si  Si6  1  0.25000000  0.43386699  0.64303698  1
  Si  Si7  1  0.75000001  0.56613299  0.35696299  1
  Si  Si8  1  0.75000001  0.89248799  0.19369000  1
  Si  Si9  1  0.25000000  0.10751200  0.80630998  1
  Si  Si10  1  0.75000001  0.60751199  0.69368998  1
  Si  Si11  1  0.25000000  0.39248799  0.30630999  1
