# generated using pymatgen
data_Zr5Si3C
_symmetry_space_group_name_H-M   'P 1'
_cell_length_a   5.37184811
_cell_length_b   7.77997208
_cell_length_c   7.77997160
_cell_angle_alpha   120.00000000
_cell_angle_beta   90.00000000
_cell_angle_gamma   90.00000000
_symmetry_Int_Tables_number   1
_chemical_formula_structural   Zr5Si3C
_chemical_formula_sum   'Zr10 Si6 C2'
_cell_volume   281.58557667
_cell_formula_units_Z   2
loop_
 _symmetry_equiv_pos_site_id
 _symmetry_equiv_pos_as_xyz
  1  'x, y, z'
loop_
 _atom_site_type_symbol
 _atom_site_label
 _atom_site_symmetry_multiplicity
 _atom_site_fract_x
 _atom_site_fract_y
 _atom_site_fract_z
 _atom_site_occupancy
  Zr  Zr0  1  0.49999999  0.33333333  0.66666666  1
  Zr  Zr1  1  0.49999999  0.66666665  0.33333332  1
  Zr  Zr2  1  -0.00000000  0.66666665  0.33333332  1
  Zr  Zr3  1  0.99999998  0.33333333  0.66666666  1
  Zr  Zr4  1  0.74999999  0.24357599  1.00000000  1
  Zr  Zr5  1  0.74999999  0.75642398  0.75642398  1
  Zr  Zr6  1  0.74999999  0.00000000  0.24357600  1
  Zr  Zr7  1  0.25000000  0.75642398  0.99999999  1
  Zr  Zr8  1  0.25000000  0.24357599  0.24357599  1
  Zr  Zr9  1  0.25000000  0.99999998  0.75642398  1
  Si  Si10  1  0.74999999  0.59937599  0.99999999  1
  Si  Si11  1  0.74999999  0.40062399  0.40062399  1
  Si  Si12  1  0.74999999  0.00000000  0.59937600  1
  Si  Si13  1  0.25000000  0.40062399  1.00000000  1
  Si  Si14  1  0.25000000  0.59937599  0.59937599  1
  Si  Si15  1  0.25000000  0.00000000  0.40062400  1
  C  C16  1  0.49999999  0.00000000  -0.00000000  1
  C  C17  1  0.00000000  0.00000000  0.00000000  1
