# generated using pymatgen
data_MnO2
_symmetry_space_group_name_H-M   'P 1'
_cell_length_a   4.92316008
_cell_length_b   5.62191534
_cell_length_c   9.05725956
_cell_angle_alpha   91.37876892
_cell_angle_beta   105.77020264
_cell_angle_gamma   90.00000000
_symmetry_Int_Tables_number   1
_chemical_formula_structural   MnO2
_chemical_formula_sum   'Mn6 O12'
_cell_volume   241.17184411
_cell_formula_units_Z   6
loop_
 _symmetry_equiv_pos_site_id
 _symmetry_equiv_pos_as_xyz
  1  'x, y, z'
loop_
 _atom_site_type_symbol
 _atom_site_label
 _atom_site_symmetry_multiplicity
 _atom_site_fract_x
 _atom_site_fract_y
 _atom_site_fract_z
 _atom_site_occupancy
  Mn  Mn0  1  0.58611899  0.83673203  0.66075604  1
  Mn  Mn1  1  0.07463700  0.33673201  0.66075603  1
  Mn  Mn2  1  0.92657299  0.66522602  0.34179603  1
  Mn  Mn3  1  0.41522300  0.16522601  0.34179602  1
  Mn  Mn4  1  0.77077399  0.26332301  0.00219101  1
  Mn  Mn5  1  0.23141700  0.76332303  0.00219100  1
  O  O6  1  0.60832000  0.42474101  0.28776202  1
  O  O7  1  0.39794700  0.57079902  0.71177704  1
  O  O8  1  0.84170299  0.64733602  0.56227904  1
  O  O9  1  0.67944199  0.92474103  0.28776202  1
  O  O10  1  0.01072600  0.40558501  0.85372904  1
  O  O11  1  0.99091499  0.60042102  0.14652602  1
  O  O12  1  0.84300299  0.90558503  0.85372905  1
  O  O13  1  0.15977700  0.35356201  0.43783702  1
  O  O14  1  0.15561100  0.10042100  0.14652601  1
  O  O15  1  0.72057600  0.14733600  0.56227904  1
  O  O16  1  0.27806000  0.85356203  0.43783702  1
  O  O17  1  0.31383000  0.07079900  0.71177704  1
