# generated using pymatgen
data_Li3CrCuP(ClO4)2
_symmetry_space_group_name_H-M   'P 1'
_cell_length_a   6.36252308
_cell_length_b   6.43278694
_cell_length_c   6.51680946
_cell_angle_alpha   93.45960999
_cell_angle_beta   107.04026031
_cell_angle_gamma   73.80545044
_symmetry_Int_Tables_number   1
_chemical_formula_structural   Li3CrCuP(ClO4)2
_chemical_formula_sum   'Li3 Cr1 Cu1 P1 Cl2 O8'
_cell_volume   244.83004177
_cell_formula_units_Z   1
loop_
 _symmetry_equiv_pos_site_id
 _symmetry_equiv_pos_as_xyz
  1  'x, y, z'
loop_
 _atom_site_type_symbol
 _atom_site_label
 _atom_site_symmetry_multiplicity
 _atom_site_fract_x
 _atom_site_fract_y
 _atom_site_fract_z
 _atom_site_occupancy
  Li  Li0  1  0.49487105  0.79588400  0.79961602  1
  Li  Li1  1  0.00208602  0.34694100  0.34851301  1
  Li  Li2  1  0.10665704  0.81248900  0.45539802  1
  Cr  Cr3  1  0.49957104  0.44689600  0.43917501  1
  Cu  Cu4  1  0.90100904  0.44680400  0.81019301  1
  P  P5  1  0.97338806  0.76166200  0.78204302  1
  Cl  Cl6  1  0.95185406  0.66899100  0.34976903  1
  Cl  Cl7  1  0.96784304  0.34752900  0.02899002  1
  O  O8  1  0.65726804  0.40836100  0.30127001  1
  O  O9  1  0.36007704  0.69905800  0.41296602  1
  O  O10  1  0.85000506  0.70503200  0.81732102  1
  O  O11  1  0.16529005  0.81738100  0.70152002  1
  O  O12  1  0.64055204  0.43057900  0.69486501  1
  O  O13  1  0.34640102  0.30130000  0.41029201  1
  O  O14  1  0.02799000  0.03075300  0.34239100  1
  O  O15  1  0.05513702  0.34740700  0.67274600  1
