# generated using pymatgen
data_Li3Fe4O11
_symmetry_space_group_name_H-M   'P 1'
_cell_length_a   5.63474035
_cell_length_b   5.63474035
_cell_length_c   7.48984861
_cell_angle_alpha   70.84754181
_cell_angle_beta   70.84754181
_cell_angle_gamma   70.43309784
_symmetry_Int_Tables_number   1
_chemical_formula_structural   Li3Fe4O11
_chemical_formula_sum   'Li3 Fe4 O11'
_cell_volume   205.21036968
_cell_formula_units_Z   1
loop_
 _symmetry_equiv_pos_site_id
 _symmetry_equiv_pos_as_xyz
  1  'x, y, z'
loop_
 _atom_site_type_symbol
 _atom_site_label
 _atom_site_symmetry_multiplicity
 _atom_site_fract_x
 _atom_site_fract_y
 _atom_site_fract_z
 _atom_site_occupancy
  Li  Li0  1  0.32004002  0.30569099  0.15728598  1
  Li  Li1  1  0.67017905  0.66103198  0.32050096  1
  Li  Li2  1  0.33896803  0.32982099  0.67949899  1
  Fe  Fe3  1  0.69430905  0.67995998  0.84271397  1
  Fe  Fe4  1  0.00386809  0.99613197  0.49999997  1
  Fe  Fe5  1  0.97376799  0.02623200  0.99999999  1
  O  O6  1  0.97110002  0.35781899  0.33472896  1
  Fe  Fe7  1  0.64218100  0.02890000  0.66527099  1
  O  O8  1  0.77394906  0.77486198  0.03416695  1
  O  O9  1  0.22513802  0.22605099  0.96583300  1
  O  O10  1  0.67867602  0.32132399  0.99999999  1
  O  O11  1  0.36438508  0.95371197  0.33449795  1
  O  O12  1  0.04628805  0.63561498  0.66550198  1
  O  O13  1  0.43152403  0.42340199  0.36927098  1
  O  O14  1  0.10024501  0.10591900  0.70055401  1
  O  O15  1  0.89408107  0.89975497  0.29944594  1
  O  O16  1  0.57659804  0.56847598  0.63072897  1
  O  O17  1  0.29470406  0.70529598  -0.00000004  1
