# generated using pymatgen
data_BaTaO3
_symmetry_space_group_name_H-M   'P 1'
_cell_length_a   6.13586903
_cell_length_b   6.13586903
_cell_length_c   6.13586903
_cell_angle_alpha   60.69694138
_cell_angle_beta   60.69694138
_cell_angle_gamma   60.69694519
_symmetry_Int_Tables_number   1
_chemical_formula_structural   BaTaO3
_chemical_formula_sum   'Ba2 Ta2 O6'
_cell_volume   165.91731483
_cell_formula_units_Z   2
loop_
 _symmetry_equiv_pos_site_id
 _symmetry_equiv_pos_as_xyz
  1  'x, y, z'
loop_
 _atom_site_type_symbol
 _atom_site_label
 _atom_site_symmetry_multiplicity
 _atom_site_fract_x
 _atom_site_fract_y
 _atom_site_fract_z
 _atom_site_occupancy
  Ba  Ba0  1  0.25232400  0.25232399  0.25232400  1
  Ba  Ba1  1  0.74767600  0.74767596  0.74767599  1
  Ta  Ta2  1  0.00000000  0.00000000  0.00000000  1
  Ta  Ta3  1  0.50000000  0.49999998  0.50000000  1
  O  O4  1  0.78558398  0.27679699  0.67089500  1
  O  O5  1  0.67089500  0.78558396  0.27679700  1
  O  O6  1  0.27679701  0.67089497  0.78558399  1
  O  O7  1  0.21441602  0.72320296  0.32910500  1
  O  O8  1  0.72320298  0.32910498  0.21441600  1
  O  O9  1  0.32910499  0.21441599  0.72320299  1
