# generated using pymatgen
data_ZrFe3Ni2
_symmetry_space_group_name_H-M   'P 1'
_cell_length_a   4.05268478
_cell_length_b   5.06188345
_cell_length_c   5.06596184
_cell_angle_alpha   119.89088440
_cell_angle_beta   90.00000000
_cell_angle_gamma   90.00000000
_symmetry_Int_Tables_number   1
_chemical_formula_structural   ZrFe3Ni2
_chemical_formula_sum   'Zr1 Fe3 Ni2'
_cell_volume   90.09983161
_cell_formula_units_Z   1
loop_
 _symmetry_equiv_pos_site_id
 _symmetry_equiv_pos_as_xyz
  1  'x, y, z'
loop_
 _atom_site_type_symbol
 _atom_site_label
 _atom_site_symmetry_multiplicity
 _atom_site_fract_x
 _atom_site_fract_y
 _atom_site_fract_z
 _atom_site_occupancy
  Zr  Zr0  1  -0.00000000  0.00000100  0.99995805  1
  Fe  Fe1  1  -0.00000000  0.66667901  0.33355201  1
  Fe  Fe2  1  0.50000003  0.99959902  0.49974901  1
  Fe  Fe3  1  0.50000003  0.50017301  0.49976002  1
  Ni  Ni4  1  0.50000003  0.50021801  0.00040300  1
  Ni  Ni5  1  -0.00000000  0.33333334  0.66666669  1
