# generated using pymatgen
data_Li2MnF6
_symmetry_space_group_name_H-M   'P 1'
_cell_length_a   4.57186699
_cell_length_b   4.57547712
_cell_length_c   9.25155258
_cell_angle_alpha   90.00000000
_cell_angle_beta   89.95099640
_cell_angle_gamma   90.00000000
_symmetry_Int_Tables_number   1
_chemical_formula_structural   Li2MnF6
_chemical_formula_sum   'Li4 Mn2 F12'
_cell_volume   193.52828044
_cell_formula_units_Z   2
loop_
 _symmetry_equiv_pos_site_id
 _symmetry_equiv_pos_as_xyz
  1  'x, y, z'
loop_
 _atom_site_type_symbol
 _atom_site_label
 _atom_site_symmetry_multiplicity
 _atom_site_fract_x
 _atom_site_fract_y
 _atom_site_fract_z
 _atom_site_occupancy
  Li  Li0  1  0.99158200  0.24973399  0.99277795  1
  Li  Li1  1  0.02832000  0.21766099  0.66711598  1
  Li  Li2  1  0.99038100  0.24859799  0.34695396  1
  Li  Li3  1  0.49038100  0.75140198  0.84695397  1
  Mn  Mn4  1  0.52832000  0.78233898  0.16711598  1
  Mn  Mn5  1  0.49158200  0.75026598  0.49277797  1
  F  F6  1  0.79022400  0.04330900  0.82605296  1
  F  F7  1  0.80400700  0.05415300  0.50258796  1
  F  F8  1  0.80173900  0.05562700  0.16829197  1
  F  F9  1  0.30400700  0.94584697  0.00258799  1
  F  F10  1  0.30173900  0.94437297  0.66829198  1
  F  F11  1  0.29022400  0.95669097  0.32605298  1
  F  F12  1  0.68934700  0.55932498  0.00308098  1
  F  F13  1  0.70325000  0.54501699  0.32583597  1
  F  F14  1  0.20325000  0.45498299  0.82583598  1
  F  F15  1  0.18934700  0.44067499  0.50308098  1
  F  F16  1  0.70094500  0.54555099  0.66686396  1
  F  F17  1  0.20094500  0.45444899  0.16686399  1
