# generated using pymatgen
data_Cu4PO12
_symmetry_space_group_name_H-M   'P 1'
_cell_length_a   7.30533981
_cell_length_b   7.30533981
_cell_length_c   7.30533981
_cell_angle_alpha   109.47122192
_cell_angle_beta   109.47122192
_cell_angle_gamma   109.47122192
_symmetry_Int_Tables_number   1
_chemical_formula_structural   Cu4PO12
_chemical_formula_sum   'Cu4 P1 O12'
_cell_volume   300.12305276
_cell_formula_units_Z   1
loop_
 _symmetry_equiv_pos_site_id
 _symmetry_equiv_pos_as_xyz
  1  'x, y, z'
loop_
 _atom_site_type_symbol
 _atom_site_label
 _atom_site_symmetry_multiplicity
 _atom_site_fract_x
 _atom_site_fract_y
 _atom_site_fract_z
 _atom_site_occupancy
  Cu  Cu0  1  0.30891301  0.00000000  0.00000001  1
  Cu  Cu1  1  1.00000005  0.30891302  0.00000004  1
  Cu  Cu2  1  0.00000000  0.00000000  0.30891301  1
  Cu  Cu3  1  0.69108706  0.69108704  0.69108707  1
  O  O4  1  0.00000000  0.00000000  0.00000000  1
  P  P5  1  0.71809105  0.51801903  0.51801906  1
  O  O6  1  0.48198203  0.20007301  1.00000004  1
  O  O7  1  0.79992804  0.28191002  0.79992805  1
  O  O8  1  0.51801805  0.51801803  0.71809006  1
  O  O9  1  0.79992807  0.79992805  0.28191007  1
  O  O10  1  0.28190906  0.79992705  0.79992707  1
  O  O11  1  0.20007204  0.48198103  0.00000003  1
  O  O12  1  0.00000001  0.20007201  0.48198202  1
  O  O13  1  0.00000003  0.48198203  0.20007203  1
  O  O14  1  0.51801806  0.71809004  0.51801806  1
  O  O15  1  0.48198201  0.00000000  0.20007302  1
  O  O16  1  0.20007201  0.00000000  0.48198102  1
