# generated using pymatgen
data_ZrS2
_symmetry_space_group_name_H-M   'P 1'
_cell_length_a   6.86094952
_cell_length_b   6.86094952
_cell_length_c   7.82768965
_cell_angle_alpha   98.60630798
_cell_angle_beta   98.60630798
_cell_angle_gamma   109.12001038
_symmetry_Int_Tables_number   1
_chemical_formula_structural   ZrS2
_chemical_formula_sum   'Zr4 S8'
_cell_volume   336.34983207
_cell_formula_units_Z   4
loop_
 _symmetry_equiv_pos_site_id
 _symmetry_equiv_pos_as_xyz
  1  'x, y, z'
loop_
 _atom_site_type_symbol
 _atom_site_label
 _atom_site_symmetry_multiplicity
 _atom_site_fract_x
 _atom_site_fract_y
 _atom_site_fract_z
 _atom_site_occupancy
  Zr  Zr0  1  0.45856706  0.45856703  0.83982804  1
  Zr  Zr1  1  0.57649403  0.07699001  0.30663803  1
  Zr  Zr2  1  0.07699006  0.57649404  0.30663804  1
  Zr  Zr3  1  0.00815500  0.00815500  0.03271200  1
  S  S4  1  0.78387707  0.48425403  0.52446407  1
  S  S5  1  0.29739710  0.96773307  0.53319608  1
  S  S6  1  0.25558808  0.77302805  0.06159007  1
  S  S7  1  0.30389004  0.30389002  0.23174403  1
  S  S8  1  0.96773306  0.29739702  0.53319606  1
  S  S9  1  0.81072810  0.81072805  0.22863810  1
  S  S10  1  0.48425409  0.78387705  0.52446407  1
  S  S11  1  0.77302805  0.25558802  0.06159006  1
