# generated using pymatgen
data_Er2Co2CuSiBAsC2
_symmetry_space_group_name_H-M   'P 1'
_cell_length_a   3.70802999
_cell_length_b   5.66428566
_cell_length_c   6.52821779
_cell_angle_alpha   90.00000000
_cell_angle_beta   90.00000000
_cell_angle_gamma   109.10598755
_symmetry_Int_Tables_number   1
_chemical_formula_structural   Er2Co2CuSiBAsC2
_chemical_formula_sum   'Er2 Co2 Cu1 Si1 B1 As1 C2'
_cell_volume   129.56139950
_cell_formula_units_Z   1
loop_
 _symmetry_equiv_pos_site_id
 _symmetry_equiv_pos_as_xyz
  1  'x, y, z'
loop_
 _atom_site_type_symbol
 _atom_site_label
 _atom_site_symmetry_multiplicity
 _atom_site_fract_x
 _atom_site_fract_y
 _atom_site_fract_z
 _atom_site_occupancy
  Er  Er0  1  0.43658601  0.87317202  0.75000002  1
  Er  Er1  1  0.56341400  0.12682800  0.25000001  1
  Co  Co2  1  0.16329300  0.32658601  0.94914603  1
  Co  Co3  1  0.83670701  0.67341402  0.05085400  1
  Cu  Cu4  1  0.83670701  0.67341402  0.44914601  1
  Si  Si5  1  0.16329300  0.32658601  0.55085402  1
  As  As6  1  0.71870201  0.43740401  0.75000002  1
  B  B7  1  0.28129801  0.56259602  0.25000001  1
  C  C8  1  0.00000000  0.00000000  0.00000000  1
  C  C9  1  0.00000000  0.00000000  0.50000002  1
