# generated using pymatgen
data_TaTi2
_symmetry_space_group_name_H-M   'P 1'
_cell_length_a   3.66211009
_cell_length_b   4.16836977
_cell_length_c   6.50667095
_cell_angle_alpha   95.75951385
_cell_angle_beta   90.00000000
_cell_angle_gamma   116.05754852
_symmetry_Int_Tables_number   1
_chemical_formula_structural   TaTi2
_chemical_formula_sum   'Ta1 Ti2'
_cell_volume   88.67003492
_cell_formula_units_Z   1
loop_
 _symmetry_equiv_pos_site_id
 _symmetry_equiv_pos_as_xyz
  1  'x, y, z'
loop_
 _atom_site_type_symbol
 _atom_site_label
 _atom_site_symmetry_multiplicity
 _atom_site_fract_x
 _atom_site_fract_y
 _atom_site_fract_z
 _atom_site_occupancy
  Ta  Ta0  1  0.00000000  0.00000000  0.00000000  1
  Ti  Ti1  1  0.64577401  0.29154803  0.23322800  1
  Ti  Ti2  1  0.35422605  0.70845206  0.76677200  1
