# generated using pymatgen
data_CsTiNbO6
_symmetry_space_group_name_H-M   'P 1'
_cell_length_a   7.11066818
_cell_length_b   7.15675306
_cell_length_c   7.15675306
_cell_angle_alpha   60.59436798
_cell_angle_beta   60.21278763
_cell_angle_gamma   60.21278763
_symmetry_Int_Tables_number   1
_chemical_formula_structural   CsTiNbO6
_chemical_formula_sum   'Cs2 Ti2 Nb2 O12'
_cell_volume   259.50297580
_cell_formula_units_Z   2
loop_
 _symmetry_equiv_pos_site_id
 _symmetry_equiv_pos_as_xyz
  1  'x, y, z'
loop_
 _atom_site_type_symbol
 _atom_site_label
 _atom_site_symmetry_multiplicity
 _atom_site_fract_x
 _atom_site_fract_y
 _atom_site_fract_z
 _atom_site_occupancy
  Cs  Cs0  1  0.86912799  0.88087201  0.38087201  1
  Cs  Cs1  1  0.13087200  0.11912800  0.61912801  1
  Ti  Ti2  1  0.50000000  0.50000000  0.50000001  1
  Ti  Ti3  1  0.49999998  0.00000000  0.00000002  1
  Nb  Nb4  1  0.00000002  0.50000000  -0.00000001  1
  Nb  Nb5  1  0.50000000  0.50000000  0.00000001  1
  O  O6  1  0.80274598  0.44725400  0.94725403  1
  O  O7  1  0.41888801  0.83111201  0.33111200  1
  O  O8  1  0.42305201  0.80016301  0.94338501  1
  O  O9  1  0.83339998  0.44338500  0.30016302  1
  O  O10  1  0.42305200  0.44338500  0.30016301  1
  O  O11  1  0.83339999  0.80016301  0.94338502  1
  O  O12  1  0.19725401  0.55274600  0.05274599  1
  O  O13  1  0.58111198  0.16888800  0.66888803  1
  O  O14  1  0.57694798  0.19983700  0.05661502  1
  O  O15  1  0.16660001  0.55661500  0.69983700  1
  O  O16  1  0.57694799  0.55661500  0.69983702  1
  O  O17  1  0.16660000  0.19983700  0.05661500  1
