# generated using pymatgen
data_RbTl(CuS3)2
_symmetry_space_group_name_H-M   'P 1'
_cell_length_a   3.93908095
_cell_length_b   3.93908095
_cell_length_c   12.25637627
_cell_angle_alpha   90.00000000
_cell_angle_beta   90.00000000
_cell_angle_gamma   90.00000000
_symmetry_Int_Tables_number   1
_chemical_formula_structural   RbTl(CuS3)2
_chemical_formula_sum   'Rb1 Tl1 Cu2 S6'
_cell_volume   190.17433124
_cell_formula_units_Z   1
loop_
 _symmetry_equiv_pos_site_id
 _symmetry_equiv_pos_as_xyz
  1  'x, y, z'
loop_
 _atom_site_type_symbol
 _atom_site_label
 _atom_site_symmetry_multiplicity
 _atom_site_fract_x
 _atom_site_fract_y
 _atom_site_fract_z
 _atom_site_occupancy
  Rb  Rb0  1  0.50000001  0.50000001  0.49999999  1
  Tl  Tl1  1  0.00000000  0.00000000  0.00000000  1
  Cu  Cu2  1  0.50000001  0.00000000  0.77998798  1
  Cu  Cu3  1  0.00000000  0.50000001  0.77998798  1
  S  S4  1  0.50000001  0.00000000  0.22001200  1
  S  S5  1  0.00000000  0.50000001  0.22001200  1
  S  S6  1  0.00000000  0.00000000  0.67853699  1
  S  S7  1  0.00000000  0.00000000  0.32146299  1
  S  S8  1  0.50000001  0.50000001  0.87629398  1
  S  S9  1  0.50000001  0.50000001  0.12370600  1
