# generated using pymatgen
data_NpO3
_symmetry_space_group_name_H-M   'P 1'
_cell_length_a   3.88050389
_cell_length_b   3.88050485
_cell_length_c   4.26460695
_cell_angle_alpha   90.00000000
_cell_angle_beta   90.00000000
_cell_angle_gamma   119.99999237
_symmetry_Int_Tables_number   1
_chemical_formula_structural   NpO3
_chemical_formula_sum   'Np1 O3'
_cell_volume   55.61424290
_cell_formula_units_Z   1
loop_
 _symmetry_equiv_pos_site_id
 _symmetry_equiv_pos_as_xyz
  1  'x, y, z'
loop_
 _atom_site_type_symbol
 _atom_site_label
 _atom_site_symmetry_multiplicity
 _atom_site_fract_x
 _atom_site_fract_y
 _atom_site_fract_z
 _atom_site_occupancy
  Np  Np0  1  0.00000000  0.00000000  0.00000000  1
  O  O1  1  0.33333334  0.66666666  0.10176900  1
  O  O2  1  0.66666668  0.33333333  0.89823101  1
  O  O3  1  0.00000000  0.00000000  0.50000001  1
