# generated using pymatgen
data_Li5Fe3(SbO5)2
_symmetry_space_group_name_H-M   'P 1'
_cell_length_a   5.35623980
_cell_length_b   5.36501741
_cell_length_c   8.23978138
_cell_angle_alpha   108.09096527
_cell_angle_beta   102.59830475
_cell_angle_gamma   100.70294952
_symmetry_Int_Tables_number   1
_chemical_formula_structural   Li5Fe3(SbO5)2
_chemical_formula_sum   'Li5 Fe3 Sb2 O10'
_cell_volume   211.29982732
_cell_formula_units_Z   1
loop_
 _symmetry_equiv_pos_site_id
 _symmetry_equiv_pos_as_xyz
  1  'x, y, z'
loop_
 _atom_site_type_symbol
 _atom_site_label
 _atom_site_symmetry_multiplicity
 _atom_site_fract_x
 _atom_site_fract_y
 _atom_site_fract_z
 _atom_site_occupancy
  Li  Li0  1  0.49642598  0.83160999  0.60166306  1
  Li  Li1  1  0.50334799  0.61552699  0.20455803  1
  Li  Li2  1  -0.00000000  0.00000000  0.50000003  1
  Li  Li3  1  0.49665199  0.38447299  0.79544206  1
  Li  Li4  1  0.50357400  0.16839000  0.39833704  1
  Fe  Fe5  1  0.50000001  0.00000000  0.00000001  1
  Fe  Fe6  1  0.00110598  0.80448199  0.10242802  1
  Fe  Fe7  1  0.99889401  0.19551800  0.89757207  1
  Sb  Sb8  1  0.01007499  0.41024499  0.30028402  1
  Sb  Sb9  1  0.98992499  0.58975499  0.69971607  1
  O  O10  1  0.23711900  0.21142400  0.15676802  1
  O  O11  1  0.76383600  0.40669399  0.06438603  1
  O  O12  1  0.78101299  0.59268599  0.45370405  1
  O  O13  1  0.24605297  0.97555398  0.75903306  1
  O  O14  1  0.24459798  0.78652399  0.34371204  1
  O  O15  1  0.75540200  0.21347600  0.65628805  1
  O  O16  1  0.75394701  0.02444600  0.24096703  1
  O  O17  1  0.21898699  0.40731399  0.54629604  1
  O  O18  1  0.23616399  0.59330599  0.93561407  1
  O  O19  1  0.76288099  0.78857599  0.84323208  1
