# generated using pymatgen
data_TiNb4O10
_symmetry_space_group_name_H-M   'P 1'
_cell_length_a   5.44229221
_cell_length_b   6.66679096
_cell_length_c   6.66679096
_cell_angle_alpha   80.40991974
_cell_angle_beta   65.91043091
_cell_angle_gamma   65.91043091
_symmetry_Int_Tables_number   1
_chemical_formula_structural   TiNb4O10
_chemical_formula_sum   'Ti1 Nb4 O10'
_cell_volume   201.59048717
_cell_formula_units_Z   1
loop_
 _symmetry_equiv_pos_site_id
 _symmetry_equiv_pos_as_xyz
  1  'x, y, z'
loop_
 _atom_site_type_symbol
 _atom_site_label
 _atom_site_symmetry_multiplicity
 _atom_site_fract_x
 _atom_site_fract_y
 _atom_site_fract_z
 _atom_site_occupancy
  Ti  Ti0  1  0.39938599  0.79972197  0.40150605  1
  Nb  Nb1  1  0.60061397  0.20027799  0.59849401  1
  Nb  Nb2  1  0.19910700  0.40150698  0.20027802  1
  Nb  Nb3  1  0.80089297  0.59849298  0.79972204  1
  Nb  Nb4  1  0.00000000  0.00000000  0.00000000  1
  O  O5  1  0.53561297  0.10604500  0.30903401  1
  O  O6  1  0.04930800  0.10604500  0.30903300  1
  O  O7  1  0.95069196  0.89395496  0.69096706  1
  O  O8  1  0.74999997  0.49999998  0.50000004  1
  O  O9  1  0.25000000  0.49999998  0.50000002  1
  O  O10  1  0.35834199  0.69096597  0.10604505  1
  O  O11  1  0.84464797  0.69096597  0.10604406  1
  O  O12  1  0.46438699  0.89395496  0.69096605  1
  O  O13  1  0.15535200  0.30903399  0.89395600  1
  O  O14  1  0.64165797  0.30903399  0.89395501  1
