# generated using pymatgen
data_Er2Ni
_symmetry_space_group_name_H-M   'P 1'
_cell_length_a   4.27369785
_cell_length_b   7.05968189
_cell_length_c   7.05968094
_cell_angle_alpha   120.00000763
_cell_angle_beta   90.00000000
_cell_angle_gamma   90.00000000
_symmetry_Int_Tables_number   1
_chemical_formula_structural   Er2Ni
_chemical_formula_sum   'Er6 Ni3'
_cell_volume   184.46102555
_cell_formula_units_Z   3
loop_
 _symmetry_equiv_pos_site_id
 _symmetry_equiv_pos_as_xyz
  1  'x, y, z'
loop_
 _atom_site_type_symbol
 _atom_site_label
 _atom_site_symmetry_multiplicity
 _atom_site_fract_x
 _atom_site_fract_y
 _atom_site_fract_z
 _atom_site_occupancy
  Er  Er0  1  0.50000002  0.23480701  1.00000005  1
  Er  Er1  1  0.50000002  0.76519304  0.76519308  1
  Er  Er2  1  0.50000002  0.00000000  0.23480701  1
  Er  Er3  1  -0.00000000  0.57899103  1.00000008  1
  Er  Er4  1  -0.00000000  0.42100902  0.42100905  1
  Er  Er5  1  -0.00000000  0.00000000  0.57899102  1
  Ni  Ni6  1  0.00000000  0.00000000  0.00000000  1
  Ni  Ni7  1  0.50000002  0.33333335  0.66666671  1
  Ni  Ni8  1  0.50000002  0.66666670  0.33333339  1
