# generated using pymatgen
data_Be2Fe5Co
_symmetry_space_group_name_H-M   'P 1'
_cell_length_a   4.95465612
_cell_length_b   4.95465612
_cell_length_c   4.95465612
_cell_angle_alpha   109.47122192
_cell_angle_beta   109.47122192
_cell_angle_gamma   109.47122192
_symmetry_Int_Tables_number   1
_chemical_formula_structural   Be2Fe5Co
_chemical_formula_sum   'Be2 Fe5 Co1'
_cell_volume   93.63078015
_cell_formula_units_Z   1
loop_
 _symmetry_equiv_pos_site_id
 _symmetry_equiv_pos_as_xyz
  1  'x, y, z'
loop_
 _atom_site_type_symbol
 _atom_site_label
 _atom_site_symmetry_multiplicity
 _atom_site_fract_x
 _atom_site_fract_y
 _atom_site_fract_z
 _atom_site_occupancy
  Be  Be0  1  0.50000000  0.00000000  0.50000000  1
  Be  Be1  1  0.00000003  0.50000001  0.50000002  1
  Fe  Fe2  1  0.50000003  0.50000001  0.00000004  1
  Fe  Fe3  1  0.50000003  0.50000001  0.50000003  1
  Fe  Fe4  1  0.00000003  0.50000001  0.00000003  1
  Fe  Fe5  1  0.00000000  0.00000000  0.49999999  1
  Co  Co6  1  0.50000000  0.00000000  0.00000001  1
  Fe  Fe7  1  0.00000000  0.00000000  0.00000000  1
