# generated using pymatgen
data_TiMo3Se4
_symmetry_space_group_name_H-M   'P 1'
_cell_length_a   6.93163204
_cell_length_b   6.93163204
_cell_length_c   6.93163204
_cell_angle_alpha   90.00000000
_cell_angle_beta   90.00000000
_cell_angle_gamma   90.00000000
_symmetry_Int_Tables_number   1
_chemical_formula_structural   TiMo3Se4
_chemical_formula_sum   'Ti2 Mo6 Se8'
_cell_volume   333.04774833
_cell_formula_units_Z   2
loop_
 _symmetry_equiv_pos_site_id
 _symmetry_equiv_pos_as_xyz
  1  'x, y, z'
loop_
 _atom_site_type_symbol
 _atom_site_label
 _atom_site_symmetry_multiplicity
 _atom_site_fract_x
 _atom_site_fract_y
 _atom_site_fract_z
 _atom_site_occupancy
  Ti  Ti0  1  0.62877900  0.62877900  0.62877900  1
  Ti  Ti1  1  0.87122099  0.37122100  0.12877900  1
  Mo  Mo2  1  0.12877900  0.87122099  0.37122100  1
  Mo  Mo3  1  0.37122100  0.12877900  0.87122099  1
  Mo  Mo4  1  0.37122100  0.37122100  0.37122100  1
  Mo  Mo5  1  0.12877900  0.62877900  0.87122099  1
  Mo  Mo6  1  0.87122099  0.12877900  0.62877900  1
  Mo  Mo7  1  0.62877900  0.87122099  0.12877900  1
  Se  Se8  1  0.15488300  0.15488300  0.15488300  1
  Se  Se9  1  0.34511700  0.84511699  0.65488300  1
  Se  Se10  1  0.65488300  0.34511700  0.84511699  1
  Se  Se11  1  0.84511699  0.65488300  0.34511700  1
  Se  Se12  1  0.84511699  0.84511699  0.84511699  1
  Se  Se13  1  0.65488300  0.15488300  0.34511700  1
  Se  Se14  1  0.34511700  0.65488300  0.15488300  1
  Se  Se15  1  0.15488300  0.34511700  0.65488300  1
