# generated using pymatgen
data_Er2MgNi2
_symmetry_space_group_name_H-M   'P 1'
_cell_length_a   3.65897989
_cell_length_b   7.53116798
_cell_length_c   7.53116798
_cell_angle_alpha   90.00000000
_cell_angle_beta   90.00000000
_cell_angle_gamma   90.00000000
_symmetry_Int_Tables_number   1
_chemical_formula_structural   Er2MgNi2
_chemical_formula_sum   'Er4 Mg2 Ni4'
_cell_volume   207.53181886
_cell_formula_units_Z   2
loop_
 _symmetry_equiv_pos_site_id
 _symmetry_equiv_pos_as_xyz
  1  'x, y, z'
loop_
 _atom_site_type_symbol
 _atom_site_label
 _atom_site_symmetry_multiplicity
 _atom_site_fract_x
 _atom_site_fract_y
 _atom_site_fract_z
 _atom_site_occupancy
  Er  Er0  1  0.50000001  0.67387300  0.17387300  1
  Er  Er1  1  0.50000001  0.17387300  0.32612700  1
  Er  Er2  1  0.50000001  0.82612700  0.67387300  1
  Er  Er3  1  0.50000001  0.32612700  0.82612700  1
  Mg  Mg4  1  0.00000000  0.00000000  0.00000000  1
  Mg  Mg5  1  0.00000000  0.50000000  0.50000000  1
  Ni  Ni6  1  1.00000003  0.87462700  0.37462700  1
  Ni  Ni7  1  1.00000003  0.62537300  0.87462700  1
  Ni  Ni8  1  1.00000003  0.12537300  0.62537300  1
  Ni  Ni9  1  0.00000000  0.37462700  0.12537300  1
