# generated using pymatgen
data_NaLi3(TiRu)2
_symmetry_space_group_name_H-M   'P 1'
_cell_length_a   7.01807404
_cell_length_b   7.11505651
_cell_length_c   7.11505651
_cell_angle_alpha   75.92267609
_cell_angle_beta   60.44988251
_cell_angle_gamma   60.44988251
_symmetry_Int_Tables_number   1
_chemical_formula_structural   NaLi3(TiRu)2
_chemical_formula_sum   'Na1 Li3 Ti2 Ru2'
_cell_volume   268.86725315
_cell_formula_units_Z   1
loop_
 _symmetry_equiv_pos_site_id
 _symmetry_equiv_pos_as_xyz
  1  'x, y, z'
loop_
 _atom_site_type_symbol
 _atom_site_label
 _atom_site_symmetry_multiplicity
 _atom_site_fract_x
 _atom_site_fract_y
 _atom_site_fract_z
 _atom_site_occupancy
  Na  Na0  1  0.75000000  1.00000002  1.00000001  1
  Li  Li1  1  0.25000001  1.00000002  1.00000001  1
  Li  Li2  1  0.25000000  0.50000001  0.50000001  1
  Li  Li3  1  0.75000000  0.50000001  0.50000001  1
  Ti  Ti4  1  0.33717200  0.50000001  0.82565601  1
  Ru  Ru5  1  0.83717100  0.82565702  0.50000000  1
  Ru  Ru6  1  0.16282900  0.17434300  0.50000001  1
  Ti  Ti7  1  0.66282800  0.50000001  0.17434400  1
