# generated using pymatgen
data_Cs2Pb3
_symmetry_space_group_name_H-M   'P 1'
_cell_length_a   7.13414049
_cell_length_b   7.13414049
_cell_length_c   9.93833542
_cell_angle_alpha   101.19858551
_cell_angle_beta   101.19858551
_cell_angle_gamma   91.92147064
_symmetry_Int_Tables_number   1
_chemical_formula_structural   Cs2Pb3
_chemical_formula_sum   'Cs4 Pb6'
_cell_volume   485.40680842
_cell_formula_units_Z   2
loop_
 _symmetry_equiv_pos_site_id
 _symmetry_equiv_pos_as_xyz
  1  'x, y, z'
loop_
 _atom_site_type_symbol
 _atom_site_label
 _atom_site_symmetry_multiplicity
 _atom_site_fract_x
 _atom_site_fract_y
 _atom_site_fract_z
 _atom_site_occupancy
  Cs  Cs0  1  0.33968198  0.24535400  0.52462398  1
  Cs  Cs1  1  0.66031793  0.75464599  0.47537594  1
  Cs  Cs2  1  0.75464594  0.66031799  0.97537595  1
  Cs  Cs3  1  0.24535397  0.33968200  0.02462397  1
  Pb  Pb4  1  0.16739293  0.83260699  0.74999996  1
  Pb  Pb5  1  0.83260698  0.16739300  0.24999996  1
  Pb  Pb6  1  0.69225599  0.11756100  0.84231698  1
  Pb  Pb7  1  0.30774392  0.88243899  0.15768294  1
  Pb  Pb8  1  0.88243897  0.30774400  0.65768296  1
  Pb  Pb9  1  0.11756094  0.69225599  0.34231696  1
