# generated using pymatgen
data_CeNb2Si4C
_symmetry_space_group_name_H-M   'P 1'
_cell_length_a   3.81346393
_cell_length_b   3.81346393
_cell_length_c   10.95227718
_cell_angle_alpha   100.02597046
_cell_angle_beta   100.02597046
_cell_angle_gamma   90.00000000
_symmetry_Int_Tables_number   1
_chemical_formula_structural   CeNb2Si4C
_chemical_formula_sum   'Ce1 Nb2 Si4 C1'
_cell_volume   154.37069882
_cell_formula_units_Z   1
loop_
 _symmetry_equiv_pos_site_id
 _symmetry_equiv_pos_as_xyz
  1  'x, y, z'
loop_
 _atom_site_type_symbol
 _atom_site_label
 _atom_site_symmetry_multiplicity
 _atom_site_fract_x
 _atom_site_fract_y
 _atom_site_fract_z
 _atom_site_occupancy
  Ce  Ce0  1  0.00000000  0.00000000  0.00000000  1
  Nb  Nb1  1  0.31305000  0.31305000  0.62609997  1
  Nb  Nb2  1  0.68695000  0.68695001  0.37389997  1
  Si  Si3  1  0.12883000  0.12883000  0.25765999  1
  Si  Si4  1  0.87117000  0.87117001  0.74233995  1
  C  C5  1  0.50000000  0.50000001  -0.00000001  1
  Si  Si6  1  0.75000001  0.25000000  0.49999997  1
  Si  Si7  1  0.24999999  0.75000001  0.49999997  1
