# generated using pymatgen
data_CuCl2
_symmetry_space_group_name_H-M   'P 1'
_cell_length_a   7.15052891
_cell_length_b   7.30425406
_cell_length_c   7.35052776
_cell_angle_alpha   88.17717743
_cell_angle_beta   69.74027252
_cell_angle_gamma   86.62599945
_symmetry_Int_Tables_number   1
_chemical_formula_structural   CuCl2
_chemical_formula_sum   'Cu4 Cl8'
_cell_volume   359.51000440
_cell_formula_units_Z   4
loop_
 _symmetry_equiv_pos_site_id
 _symmetry_equiv_pos_as_xyz
  1  'x, y, z'
loop_
 _atom_site_type_symbol
 _atom_site_label
 _atom_site_symmetry_multiplicity
 _atom_site_fract_x
 _atom_site_fract_y
 _atom_site_fract_z
 _atom_site_occupancy
  Cu  Cu0  1  0.72724499  0.51711899  0.46191005  1
  Cu  Cu1  1  0.27275499  0.48288099  0.53809005  1
  Cu  Cu2  1  0.62239200  0.24745000  0.09283103  1
  Cu  Cu3  1  0.37760798  0.75254999  0.90716907  1
  Cl  Cl4  1  0.82222700  0.24440800  0.29324304  1
  Cl  Cl5  1  0.17777298  0.75559199  0.70675706  1
  Cl  Cl6  1  0.33203400  0.20849500  0.37404503  1
  Cl  Cl7  1  0.66796598  0.79150499  0.62595507  1
  Cl  Cl8  1  0.42771399  0.24994000  0.89963205  1
  Cl  Cl9  1  0.57228598  0.75005999  0.10036805  1
  Cl  Cl10  1  0.90358700  0.28195899  0.82176605  1
  Cl  Cl11  1  0.09641298  0.71804099  0.17823405  1
