# generated using pymatgen
data_Er2AlNi2
_symmetry_space_group_name_H-M   'P 1'
_cell_length_a   4.02085209
_cell_length_b   5.61126137
_cell_length_c   5.61126137
_cell_angle_alpha   60.01566696
_cell_angle_beta   69.00514221
_cell_angle_gamma   69.00514221
_symmetry_Int_Tables_number   1
_chemical_formula_structural   Er2AlNi2
_chemical_formula_sum   'Er2 Al1 Ni2'
_cell_volume   99.83145387
_cell_formula_units_Z   1
loop_
 _symmetry_equiv_pos_site_id
 _symmetry_equiv_pos_as_xyz
  1  'x, y, z'
loop_
 _atom_site_type_symbol
 _atom_site_label
 _atom_site_symmetry_multiplicity
 _atom_site_fract_x
 _atom_site_fract_y
 _atom_site_fract_z
 _atom_site_occupancy
  Er  Er0  1  0.80084898  0.69915099  0.69915097  1
  Er  Er1  1  0.19915100  0.30084899  0.30084899  1
  Al  Al2  1  0.00000000  0.00000000  0.00000000  1
  Ni  Ni3  1  0.49999999  0.27024199  0.72975798  1
  Ni  Ni4  1  0.49999999  0.72975799  0.27024198  1
