# generated using pymatgen
data_CsGdZnSe3
_symmetry_space_group_name_H-M   'P 1'
_cell_length_a   4.25578594
_cell_length_b   8.35055351
_cell_length_c   11.09883881
_cell_angle_alpha   90.00000000
_cell_angle_beta   90.00000000
_cell_angle_gamma   104.76295471
_symmetry_Int_Tables_number   1
_chemical_formula_structural   CsGdZnSe3
_chemical_formula_sum   'Cs2 Gd2 Zn2 Se6'
_cell_volume   381.41153572
_cell_formula_units_Z   2
loop_
 _symmetry_equiv_pos_site_id
 _symmetry_equiv_pos_as_xyz
  1  'x, y, z'
loop_
 _atom_site_type_symbol
 _atom_site_label
 _atom_site_symmetry_multiplicity
 _atom_site_fract_x
 _atom_site_fract_y
 _atom_site_fract_z
 _atom_site_occupancy
  Cs  Cs0  1  0.74275401  0.48550800  0.75000001  1
  Cs  Cs1  1  0.25724600  0.51449200  0.25000000  1
  Gd  Gd2  1  0.00000000  0.00000000  0.00000000  1
  Gd  Gd3  1  0.00000000  0.00000000  0.50000001  1
  Zn  Zn4  1  0.46280801  0.92561601  0.75000001  1
  Zn  Zn5  1  0.53719201  0.07438400  0.25000000  1
  Se  Se6  1  0.38399501  0.76799000  0.94240502  1
  Se  Se7  1  0.61600501  0.23201000  0.05759500  1
  Se  Se8  1  0.61600501  0.23201000  0.44240501  1
  Se  Se9  1  0.38399501  0.76799000  0.55759501  1
  Se  Se10  1  0.05451900  0.10903800  0.75000001  1
  Se  Se11  1  0.94548102  0.89096201  0.25000000  1
