# generated using pymatgen
data_Lu4Si3Ge
_symmetry_space_group_name_H-M   'P 1'
_cell_length_a   3.92251801
_cell_length_b   4.26818991
_cell_length_c   10.63849068
_cell_angle_alpha   90.00000000
_cell_angle_beta   90.00000000
_cell_angle_gamma   90.00000000
_symmetry_Int_Tables_number   1
_chemical_formula_structural   Lu4Si3Ge
_chemical_formula_sum   'Lu4 Si3 Ge1'
_cell_volume   178.11016200
_cell_formula_units_Z   1
loop_
 _symmetry_equiv_pos_site_id
 _symmetry_equiv_pos_as_xyz
  1  'x, y, z'
loop_
 _atom_site_type_symbol
 _atom_site_label
 _atom_site_symmetry_multiplicity
 _atom_site_fract_x
 _atom_site_fract_y
 _atom_site_fract_z
 _atom_site_occupancy
  Lu  Lu0  1  0.00000000  0.00000000  0.14018000  1
  Lu  Lu1  1  0.00000000  0.50000001  0.63790002  1
  Lu  Lu2  1  0.50000000  0.50000001  0.36185401  1
  Lu  Lu3  1  0.50000000  0.00000000  0.86092103  1
  Si  Si4  1  0.00000000  0.00000000  0.41733201  1
  Si  Si5  1  0.00000000  0.50000001  0.91492303  1
  Si  Si6  1  0.50000000  0.50000001  0.08483600  1
  Ge  Ge7  1  0.50000000  0.00000000  0.58205402  1
