# generated using pymatgen
data_Pb
_symmetry_space_group_name_H-M   'P 1'
_cell_length_a   5.54790401
_cell_length_b   7.11024237
_cell_length_c   9.86466599
_cell_angle_alpha   77.08792877
_cell_angle_beta   73.66811371
_cell_angle_gamma   67.03711700
_symmetry_Int_Tables_number   1
_chemical_formula_structural   Pb
_chemical_formula_sum   Pb10
_cell_volume   340.97673244
_cell_formula_units_Z   10
loop_
 _symmetry_equiv_pos_site_id
 _symmetry_equiv_pos_as_xyz
  1  'x, y, z'
loop_
 _atom_site_type_symbol
 _atom_site_label
 _atom_site_symmetry_multiplicity
 _atom_site_fract_x
 _atom_site_fract_y
 _atom_site_fract_z
 _atom_site_occupancy
  Pb  Pb0  1  0.18327497  0.34508100  0.28836901  1
  Pb  Pb1  1  0.81672494  0.65491900  0.71163101  1
  Pb  Pb2  1  0.40119193  0.74295100  0.45466502  1
  Pb  Pb3  1  0.59880798  0.25704900  0.54533500  1
  Pb  Pb4  1  0.15408993  0.73611900  0.95570102  1
  Pb  Pb5  1  0.84590998  0.26388100  0.04429900  1
  Pb  Pb6  1  0.11583599  0.08085600  0.68747200  1
  Pb  Pb7  1  0.88416391  0.91914400  0.31252802  1
  Pb  Pb8  1  0.55024892  0.78556300  0.11393902  1
  Pb  Pb9  1  0.44975098  0.21443700  0.88606100  1
