# generated using pymatgen
data_Nb3Co5
_symmetry_space_group_name_H-M   'P 1'
_cell_length_a   5.74070978
_cell_length_b   7.19283485
_cell_length_c   7.19283485
_cell_angle_alpha   80.83681488
_cell_angle_beta   66.48072815
_cell_angle_gamma   66.48072815
_symmetry_Int_Tables_number   1
_chemical_formula_structural   Nb3Co5
_chemical_formula_sum   'Nb6 Co10'
_cell_volume   249.70903190
_cell_formula_units_Z   2
loop_
 _symmetry_equiv_pos_site_id
 _symmetry_equiv_pos_as_xyz
  1  'x, y, z'
loop_
 _atom_site_type_symbol
 _atom_site_label
 _atom_site_symmetry_multiplicity
 _atom_site_fract_x
 _atom_site_fract_y
 _atom_site_fract_z
 _atom_site_occupancy
  Nb  Nb0  1  0.65164103  0.55455201  0.28350904  1
  Nb  Nb1  1  0.18514901  0.21649100  0.05455301  1
  Nb  Nb2  1  0.45619303  0.78350901  0.94544706  1
  Nb  Nb3  1  0.48970102  0.44544801  0.71649104  1
  Co  Co4  1  0.59835904  0.94544801  0.21649105  1
  Nb  Nb5  1  0.06485101  0.28350900  0.44544702  1
  Nb  Nb6  1  0.79380704  0.71649101  0.55455305  1
  Co  Co7  1  0.76029902  0.05455200  0.78350904  1
  Co  Co8  1  0.14105802  0.59197801  0.18666103  1
  Co  Co9  1  0.57771902  0.31333900  0.09197803  1
  Co  Co10  1  0.98303604  0.68666101  0.90802207  1
  Co  Co11  1  0.91969703  0.40802201  0.81333906  1
  Co  Co12  1  0.10894202  0.90802201  0.31333904  1
  Co  Co13  1  0.67228102  0.18666100  0.40802203  1
  Co  Co14  1  0.26696403  0.81333901  0.59197805  1
  Co  Co15  1  0.33030301  0.09197800  0.68666103  1
