# generated using pymatgen
data_La2Bi
_symmetry_space_group_name_H-M   'P 1'
_cell_length_a   4.61687183
_cell_length_b   4.61687183
_cell_length_c   9.54764748
_cell_angle_alpha   103.99165344
_cell_angle_beta   103.99165344
_cell_angle_gamma   90.00000000
_symmetry_Int_Tables_number   1
_chemical_formula_structural   La2Bi
_chemical_formula_sum   'La4 Bi2'
_cell_volume   191.24632702
_cell_formula_units_Z   2
loop_
 _symmetry_equiv_pos_site_id
 _symmetry_equiv_pos_as_xyz
  1  'x, y, z'
loop_
 _atom_site_type_symbol
 _atom_site_label
 _atom_site_symmetry_multiplicity
 _atom_site_fract_x
 _atom_site_fract_y
 _atom_site_fract_z
 _atom_site_occupancy
  La  La0  1  1.00000000  0.50000001  -0.00000005  1
  La  La1  1  0.50000001  0.00000000  -0.00000002  1
  La  La2  1  0.67983599  0.67983601  0.35967195  1
  La  La3  1  0.32016400  0.32016401  0.64032797  1
  Bi  Bi4  1  0.86202399  0.86202401  0.72404793  1
  Bi  Bi5  1  0.13797600  0.13797600  0.27595199  1
