# generated using pymatgen
data_Hf2Ta5N9
_symmetry_space_group_name_H-M   'P 1'
_cell_length_a   5.35166883
_cell_length_b   5.35166883
_cell_length_c   6.45714378
_cell_angle_alpha   114.48148346
_cell_angle_beta   114.48147583
_cell_angle_gamma   90.00000000
_symmetry_Int_Tables_number   1
_chemical_formula_structural   Hf2Ta5N9
_chemical_formula_sum   'Hf2 Ta5 N9'
_cell_volume   149.84828031
_cell_formula_units_Z   1
loop_
 _symmetry_equiv_pos_site_id
 _symmetry_equiv_pos_as_xyz
  1  'x, y, z'
loop_
 _atom_site_type_symbol
 _atom_site_label
 _atom_site_symmetry_multiplicity
 _atom_site_fract_x
 _atom_site_fract_y
 _atom_site_fract_z
 _atom_site_occupancy
  Hf  Hf0  1  0.19082301  0.02851200  0.71933500  1
  Hf  Hf1  1  0.52851101  0.69082401  0.71933499  1
  Ta  Ta2  1  0.69082302  0.19082400  0.71933500  1
  Ta  Ta3  1  0.02851100  0.52851201  0.71933498  1
  Ta  Ta4  1  0.80917702  0.97148802  0.28066498  1
  Ta  Ta5  1  0.47148901  0.30917601  0.28066500  1
  Ta  Ta6  1  0.30917701  0.80917601  0.28066498  1
  N  N7  1  0.97148903  0.47148801  0.28066500  1
  N  N8  1  0.50000001  0.50000001  -0.00000001  1
  N  N9  1  0.00000000  0.00000000  0.00000000  1
  N  N10  1  0.12126200  0.37873801  -0.00000001  1
  N  N11  1  0.87873803  0.62126201  -0.00000001  1
  N  N12  1  0.62126202  0.12126200  0.00000000  1
  N  N13  1  0.37873801  0.87873802  0.99999998  1
  N  N14  1  0.25000001  0.25000000  0.49999999  1
  N  N15  1  0.75000002  0.75000001  0.49999999  1
