# generated using pymatgen
data_Zr3Pd
_symmetry_space_group_name_H-M   'P 1'
_cell_length_a   3.86277699
_cell_length_b   7.20751476
_cell_length_c   9.43249035
_cell_angle_alpha   90.00000000
_cell_angle_beta   90.00000000
_cell_angle_gamma   90.00000000
_symmetry_Int_Tables_number   1
_chemical_formula_structural   Zr3Pd
_chemical_formula_sum   'Zr9 Pd3'
_cell_volume   262.61017334
_cell_formula_units_Z   3
loop_
 _symmetry_equiv_pos_site_id
 _symmetry_equiv_pos_as_xyz
  1  'x, y, z'
loop_
 _atom_site_type_symbol
 _atom_site_label
 _atom_site_symmetry_multiplicity
 _atom_site_fract_x
 _atom_site_fract_y
 _atom_site_fract_z
 _atom_site_occupancy
  Zr  Zr0  1  0.25000000  0.29867401  0.84649297  1
  Zr  Zr1  1  0.25000000  0.79867403  0.65350698  1
  Zr  Zr2  1  0.75000000  0.70132602  0.15350699  1
  Zr  Zr3  1  0.75000000  0.20132601  0.34649299  1
  Zr  Zr4  1  0.25000000  0.91519203  0.96152696  1
  Zr  Zr5  1  0.25000000  0.41519201  0.53847298  1
  Zr  Zr6  1  0.75000000  0.08480800  0.03847300  1
  Zr  Zr7  1  0.75000000  0.58480802  0.46152698  1
  Zr  Zr8  1  0.25000000  0.89542603  0.34144499  1
  Pd  Pd9  1  0.25000000  0.39542601  0.15855499  1
  Pd  Pd10  1  0.75000000  0.10457400  0.65855498  1
  Pd  Pd11  1  0.75000000  0.60457402  0.84144497  1
