# generated using pymatgen
data_YFe3
_symmetry_space_group_name_H-M   'P 1'
_cell_length_a   4.95675755
_cell_length_b   4.95675755
_cell_length_c   8.60425758
_cell_angle_alpha   73.25928497
_cell_angle_beta   73.25928497
_cell_angle_gamma   60.00000381
_symmetry_Int_Tables_number   1
_chemical_formula_structural   YFe3
_chemical_formula_sum   'Y3 Fe9'
_cell_volume   172.65621438
_cell_formula_units_Z   3
loop_
 _symmetry_equiv_pos_site_id
 _symmetry_equiv_pos_as_xyz
  1  'x, y, z'
loop_
 _atom_site_type_symbol
 _atom_site_label
 _atom_site_symmetry_multiplicity
 _atom_site_fract_x
 _atom_site_fract_y
 _atom_site_fract_z
 _atom_site_occupancy
  Y  Y0  1  0.86116504  0.86116503  0.41650395  1
  Y  Y1  1  0.13883501  0.13883501  0.58349597  1
  Y  Y2  1  0.00000000  0.00000000  0.00000000  1
  Fe  Fe3  1  0.41727302  0.92000003  0.24545496  1
  Fe  Fe4  1  0.41727302  0.41727302  0.24545497  1
  Fe  Fe5  1  0.92000004  0.41727302  0.24545496  1
  Fe  Fe6  1  0.58272702  0.08000000  0.75454495  1
  Fe  Fe7  1  0.58272703  0.58272702  0.75454494  1
  Fe  Fe8  1  0.08000001  0.58272702  0.75454495  1
  Fe  Fe9  1  0.66707303  0.66707302  0.99878193  1
  Fe  Fe10  1  0.33292702  0.33292701  0.00121799  1
  Fe  Fe11  1  0.50000002  0.50000002  0.49999996  1
