# generated using pymatgen
data_Ce10Pt7
_symmetry_space_group_name_H-M   'P 1'
_cell_length_a   5.92055225
_cell_length_b   8.72017574
_cell_length_c   8.72113132
_cell_angle_alpha   60.00363159
_cell_angle_beta   89.99377441
_cell_angle_gamma   89.98754883
_symmetry_Int_Tables_number   1
_chemical_formula_structural   Ce10Pt7
_chemical_formula_sum   'Ce10 Pt7'
_cell_volume   389.94808808
_cell_formula_units_Z   1
loop_
 _symmetry_equiv_pos_site_id
 _symmetry_equiv_pos_as_xyz
  1  'x, y, z'
loop_
 _atom_site_type_symbol
 _atom_site_label
 _atom_site_symmetry_multiplicity
 _atom_site_fract_x
 _atom_site_fract_y
 _atom_site_fract_z
 _atom_site_occupancy
  Ce  Ce0  1  0.50000104  0.66666666  0.66666664  1
  Ce  Ce1  1  0.50000101  0.33333333  0.33333332  1
  Ce  Ce2  1  0.00000503  0.33333333  0.33333332  1
  Ce  Ce3  1  0.00000506  0.66666666  0.66666663  1
  Ce  Ce4  1  0.76485999  0.27185900  0.00000001  1
  Ce  Ce5  1  0.76485997  0.00003100  0.72809599  1
  Ce  Ce6  1  0.76486003  0.72812599  0.27190399  1
  Ce  Ce7  1  0.23514105  0.72814299  -0.00000001  1
  Ce  Ce8  1  0.23513907  0.99996699  0.27190898  1
  Ce  Ce9  1  0.23513901  0.27187600  0.72809097  1
  Pt  Pt10  1  0.74467502  0.61535199  0.99999997  1
  Pt  Pt11  1  0.74467805  0.99998099  0.38467198  1
  Pt  Pt12  1  0.74467800  0.38465300  0.61532798  1
  Pt  Pt13  1  0.25532502  0.38465100  0.99999996  1
  Pt  Pt14  1  0.25531999  0.00001900  0.61532898  1
  Pt  Pt15  1  0.25532004  0.61534799  0.38467098  1
  Pt  Pt16  1  0.49999206  0.99999899  0.99999996  1
