# generated using pymatgen
data_Cs4Te2MoS9
_symmetry_space_group_name_H-M   'P 1'
_cell_length_a   6.93444681
_cell_length_b   7.35331059
_cell_length_c   11.34349346
_cell_angle_alpha   73.16321564
_cell_angle_beta   74.43827057
_cell_angle_gamma   71.12703705
_symmetry_Int_Tables_number   1
_chemical_formula_structural   Cs4Te2MoS9
_chemical_formula_sum   'Cs4 Te2 Mo1 S9'
_cell_volume   514.03406860
_cell_formula_units_Z   1
loop_
 _symmetry_equiv_pos_site_id
 _symmetry_equiv_pos_as_xyz
  1  'x, y, z'
loop_
 _atom_site_type_symbol
 _atom_site_label
 _atom_site_symmetry_multiplicity
 _atom_site_fract_x
 _atom_site_fract_y
 _atom_site_fract_z
 _atom_site_occupancy
  Cs  Cs0  1  0.76206199  0.51382803  0.18861300  1
  Cs  Cs1  1  0.26995199  0.23967501  0.40374101  1
  Cs  Cs2  1  0.23793798  0.48617203  0.81138701  1
  Cs  Cs3  1  0.73004798  0.76032504  0.59625901  1
  Te  Te4  1  0.63844401  0.08201600  0.07834300  1
  Te  Te5  1  0.36155596  0.91798405  0.92165701  1
  Mo  Mo6  1  0.14000696  0.86530405  0.23105799  1
  S  S7  1  0.85999301  0.13469601  0.76894202  1
  S  S8  1  0.79490997  0.94934005  0.27117699  1
  S  S9  1  0.25443397  0.74248004  0.40606800  1
  S  S10  1  0.25836897  0.64595004  0.11370599  1
  S  S11  1  0.74163100  0.35405002  0.88629402  1
  S  S12  1  0.75703197  0.86761605  0.87957601  1
  S  S13  1  0.20509000  0.05066000  0.72882302  1
  S  S14  1  0.74556600  0.25752001  0.59393202  1
  S  S15  1  0.24296800  0.13238401  0.12042400  1
