# generated using pymatgen
data_BaLa
_symmetry_space_group_name_H-M   'P 1'
_cell_length_a   5.47156811
_cell_length_b   5.47156811
_cell_length_c   6.89541054
_cell_angle_alpha   113.37543488
_cell_angle_beta   113.37543488
_cell_angle_gamma   90.00000000
_symmetry_Int_Tables_number   1
_chemical_formula_structural   BaLa
_chemical_formula_sum   'Ba2 La2'
_cell_volume   170.87696809
_cell_formula_units_Z   2
loop_
 _symmetry_equiv_pos_site_id
 _symmetry_equiv_pos_as_xyz
  1  'x, y, z'
loop_
 _atom_site_type_symbol
 _atom_site_label
 _atom_site_symmetry_multiplicity
 _atom_site_fract_x
 _atom_site_fract_y
 _atom_site_fract_z
 _atom_site_occupancy
  Ba  Ba0  1  0.00000000  0.00000000  0.00000000  1
  Ba  Ba1  1  0.75000001  0.25000000  0.50000003  1
  La  La2  1  0.25000003  0.75000000  0.50000004  1
  La  La3  1  0.50000002  0.50000000  0.00000004  1
