# generated using pymatgen
data_Ta3NbNi3Ge
_symmetry_space_group_name_H-M   'P 1'
_cell_length_a   3.98469090
_cell_length_b   3.98856306
_cell_length_c   7.78319311
_cell_angle_alpha   90.00000000
_cell_angle_beta   90.00000000
_cell_angle_gamma   90.00000000
_symmetry_Int_Tables_number   1
_chemical_formula_structural   Ta3NbNi3Ge
_chemical_formula_sum   'Ta3 Nb1 Ni3 Ge1'
_cell_volume   123.69977433
_cell_formula_units_Z   1
loop_
 _symmetry_equiv_pos_site_id
 _symmetry_equiv_pos_as_xyz
  1  'x, y, z'
loop_
 _atom_site_type_symbol
 _atom_site_label
 _atom_site_symmetry_multiplicity
 _atom_site_fract_x
 _atom_site_fract_y
 _atom_site_fract_z
 _atom_site_occupancy
  Ta  Ta0  1  0.00000000  0.00000000  0.74139399  1
  Ta  Ta1  1  0.00000000  0.00000000  0.25860600  1
  Ni  Ni2  1  0.50000001  0.00000000  0.49999999  1
  Ta  Ta3  1  -0.00000000  0.49999999  0.00000000  1
  Ni  Ni4  1  -0.00000000  0.49999999  0.49999999  1
  Nb  Nb5  1  0.50000001  0.49999999  0.74660199  1
  Ge  Ge6  1  0.50000001  0.49999999  0.25339800  1
  Ni  Ni7  1  0.50000001  0.00000000  0.00000000  1
