# generated using pymatgen
data_Zr11Fe3
_symmetry_space_group_name_H-M   'P 1'
_cell_length_a   4.62902117
_cell_length_b   9.84701443
_cell_length_c   9.84701443
_cell_angle_alpha   120.00000000
_cell_angle_beta   90.00000000
_cell_angle_gamma   90.00000000
_symmetry_Int_Tables_number   1
_chemical_formula_structural   Zr11Fe3
_chemical_formula_sum   'Zr11 Fe3'
_cell_volume   388.71289402
_cell_formula_units_Z   1
loop_
 _symmetry_equiv_pos_site_id
 _symmetry_equiv_pos_as_xyz
  1  'x, y, z'
loop_
 _atom_site_type_symbol
 _atom_site_label
 _atom_site_symmetry_multiplicity
 _atom_site_fract_x
 _atom_site_fract_y
 _atom_site_fract_z
 _atom_site_occupancy
  Zr  Zr0  1  0.74999997  0.66666665  0.33333337  1
  Zr  Zr1  1  0.24999999  0.33333333  0.66666669  1
  Zr  Zr2  1  0.74999997  0.64258599  0.69893704  1
  Zr  Zr3  1  0.74999997  0.05635100  0.35741301  1
  Zr  Zr4  1  0.74999997  0.30106199  0.94364803  1
  Zr  Zr5  1  0.24999999  0.69893798  0.05635203  1
  Zr  Zr6  1  0.24999999  0.94364898  0.64258705  1
  Zr  Zr7  1  0.24999999  0.35741399  0.30106302  1
  Zr  Zr8  1  0.74999997  0.85864498  0.02704204  1
  Zr  Zr9  1  0.74999997  0.97295798  0.83160306  1
  Zr  Zr10  1  0.74999997  0.16839700  0.14135501  1
  Fe  Fe11  1  0.24999999  0.83160298  0.85864505  1
  Fe  Fe12  1  0.24999999  0.02704200  0.16839700  1
  Fe  Fe13  1  0.24999999  0.14135500  0.97295803  1
