# generated using pymatgen
data_Ti4CuS8
_symmetry_space_group_name_H-M   'P 1'
_cell_length_a   6.90746880
_cell_length_b   6.90746880
_cell_length_c   7.02155876
_cell_angle_alpha   60.53606033
_cell_angle_beta   60.53606033
_cell_angle_gamma   59.99999237
_symmetry_Int_Tables_number   1
_chemical_formula_structural   Ti4CuS8
_chemical_formula_sum   'Ti4 Cu1 S8'
_cell_volume   238.79660729
_cell_formula_units_Z   1
loop_
 _symmetry_equiv_pos_site_id
 _symmetry_equiv_pos_as_xyz
  1  'x, y, z'
loop_
 _atom_site_type_symbol
 _atom_site_label
 _atom_site_symmetry_multiplicity
 _atom_site_fract_x
 _atom_site_fract_y
 _atom_site_fract_z
 _atom_site_occupancy
  Ti  Ti0  1  0.49999997  0.49999999  0.50000002  1
  Ti  Ti1  1  0.49999999  0.00000000  -0.00000000  1
  Ti  Ti2  1  -0.00000002  0.49999999  0.00000001  1
  Ti  Ti3  1  0.49999997  0.49999999  0.00000000  1
  Cu  Cu4  1  0.00000000  0.00000000  0.00000000  1
  S  S5  1  0.72625597  0.25220900  0.76932602  1
  S  S6  1  0.25220897  0.72625599  0.76932603  1
  S  S7  1  0.25220898  0.25220900  0.76932602  1
  S  S8  1  0.26004498  0.26004500  0.21986501  1
  S  S9  1  0.73995495  0.73995499  0.78013503  1
  S  S10  1  0.74779097  0.27374400  0.23067401  1
  S  S11  1  0.74779095  0.74779099  0.23067401  1
  S  S12  1  0.27374396  0.74779099  0.23067401  1
