# generated using pymatgen
data_Li4Zr2OsO12
_symmetry_space_group_name_H-M   'P 1'
_cell_length_a   3.90123701
_cell_length_b   8.43535995
_cell_length_c   8.61759281
_cell_angle_alpha   96.23224640
_cell_angle_beta   102.77592468
_cell_angle_gamma   90.49173737
_symmetry_Int_Tables_number   1
_chemical_formula_structural   Li4Zr2OsO12
_chemical_formula_sum   'Li4 Zr2 Os1 O12'
_cell_volume   274.77972932
_cell_formula_units_Z   1
loop_
 _symmetry_equiv_pos_site_id
 _symmetry_equiv_pos_as_xyz
  1  'x, y, z'
loop_
 _atom_site_type_symbol
 _atom_site_label
 _atom_site_symmetry_multiplicity
 _atom_site_fract_x
 _atom_site_fract_y
 _atom_site_fract_z
 _atom_site_occupancy
  Li  Li0  1  0.70710904  0.69756498  0.42282905  1
  Li  Li1  1  0.29289102  0.30243499  0.57717103  1
  Li  Li2  1  0.03422702  0.36989599  0.17189302  1
  Li  Li3  1  0.96577304  0.63010398  0.82810706  1
  Zr  Zr4  1  0.85232801  0.02128300  0.80611304  1
  Zr  Zr5  1  0.14767204  0.97871697  0.19388704  1
  Os  Os6  1  0.99830905  0.84546297  0.99742607  1
  O  O7  1  0.60582805  0.99111097  0.18649705  1
  O  O8  1  0.43556503  0.64138798  0.84460105  1
  O  O9  1  0.56443502  0.35861199  0.15539903  1
  O  O10  1  0.00000002  0.49999998  0.00000002  1
  O  O11  1  0.84199303  0.48556498  0.65941205  1
  O  O12  1  0.15800702  0.51443498  0.34058803  1
  O  O13  1  0.82337702  0.14734600  0.65373604  1
  O  O14  1  0.15022601  0.19347299  0.30404002  1
  O  O15  1  0.84977404  0.80652697  0.69596006  1
  O  O16  1  0.00169101  0.15453700  0.00257401  1
  O  O17  1  0.17662304  0.85265397  0.34626404  1
  O  O18  1  0.39417200  0.00888900  0.81350302  1
