# generated using pymatgen
data_CaPO4
_symmetry_space_group_name_H-M   'P 1'
_cell_length_a   6.05286169
_cell_length_b   6.05286169
_cell_length_c   6.05286169
_cell_angle_alpha   105.94203186
_cell_angle_beta   105.94203186
_cell_angle_gamma   116.78671265
_symmetry_Int_Tables_number   1
_chemical_formula_structural   CaPO4
_chemical_formula_sum   'Ca2 P2 O8'
_cell_volume   168.59804238
_cell_formula_units_Z   2
loop_
 _symmetry_equiv_pos_site_id
 _symmetry_equiv_pos_as_xyz
  1  'x, y, z'
loop_
 _atom_site_type_symbol
 _atom_site_label
 _atom_site_symmetry_multiplicity
 _atom_site_fract_x
 _atom_site_fract_y
 _atom_site_fract_z
 _atom_site_occupancy
  Ca  Ca0  1  0.74999998  0.24999999  0.49999995  1
  Ca  Ca1  1  0.00000000  0.00000000  0.00000000  1
  P  P2  1  0.49999995  0.49999998  -0.00000008  1
  P  P3  1  0.24999992  0.74999996  0.49999993  1
  O  O4  1  0.51774997  0.34915998  0.16859094  1
  O  O5  1  0.09915895  0.43056898  0.33140896  1
  O  O6  1  0.09915892  0.76774896  0.66858994  1
  O  O7  1  0.18056896  0.34915898  0.83140998  1
  O  O8  1  0.23224990  0.90083996  0.33140891  1
  O  O9  1  0.65084092  0.81943096  0.16859089  1
  O  O10  1  0.65084096  0.48225098  0.83140994  1
  O  O11  1  0.56943091  0.90084096  0.66858990  1
