# generated using pymatgen
data_Ti8Co2C2SN5
_symmetry_space_group_name_H-M   'P 1'
_cell_length_a   3.33529806
_cell_length_b   3.33529806
_cell_length_c   22.16093636
_cell_angle_alpha   90.00000000
_cell_angle_beta   90.00000000
_cell_angle_gamma   120.00000000
_symmetry_Int_Tables_number   1
_chemical_formula_structural   Ti8Co2C2SN5
_chemical_formula_sum   'Ti8 Co2 C2 S1 N5'
_cell_volume   213.49516313
_cell_formula_units_Z   1
loop_
 _symmetry_equiv_pos_site_id
 _symmetry_equiv_pos_as_xyz
  1  'x, y, z'
loop_
 _atom_site_type_symbol
 _atom_site_label
 _atom_site_symmetry_multiplicity
 _atom_site_fract_x
 _atom_site_fract_y
 _atom_site_fract_z
 _atom_site_occupancy
  Ti  Ti0  1  0.33333335  0.66666670  0.94234798  1
  Ti  Ti1  1  0.66666667  0.33333335  0.05765200  1
  Ti  Ti2  1  0.66666667  0.33333335  0.44234799  1
  Ti  Ti3  1  0.33333335  0.66666670  0.55765199  1
  Ti  Ti4  1  0.00000000  0.00000000  0.84152799  1
  Ti  Ti5  1  0.00000000  0.00000000  0.65847299  1
  Ti  Ti6  1  0.00000000  0.00000000  0.15847300  1
  Ti  Ti7  1  0.00000000  0.00000000  0.34152699  1
  Co  Co8  1  0.33333335  0.66666670  0.25000000  1
  Co  Co9  1  0.66666667  0.33333335  0.74999999  1
  N  N10  1  0.33333335  0.66666670  0.37324399  1
  S  S11  1  0.66666667  0.33333335  0.62675599  1
  N  N12  1  0.00000000  0.00000000  0.74999999  1
  C  C13  1  0.66666667  0.33333335  0.87324399  1
  C  C14  1  0.00000000  0.00000000  0.00000000  1
  N  N15  1  0.33333335  0.66666670  0.12675600  1
  N  N16  1  0.00000000  0.00000000  0.49999999  1
  N  N17  1  0.00000000  0.00000000  0.25000000  1
