# generated using pymatgen
data_PrSb
_symmetry_space_group_name_H-M   'P 1'
_cell_length_a   6.93185616
_cell_length_b   9.23262787
_cell_length_c   9.28511429
_cell_angle_alpha   60.18681335
_cell_angle_beta   88.69209290
_cell_angle_gamma   87.36862183
_symmetry_Int_Tables_number   1
_chemical_formula_structural   PrSb
_chemical_formula_sum   'Pr8 Sb8'
_cell_volume   515.04959815
_cell_formula_units_Z   8
loop_
 _symmetry_equiv_pos_site_id
 _symmetry_equiv_pos_as_xyz
  1  'x, y, z'
loop_
 _atom_site_type_symbol
 _atom_site_label
 _atom_site_symmetry_multiplicity
 _atom_site_fract_x
 _atom_site_fract_y
 _atom_site_fract_z
 _atom_site_occupancy
  Pr  Pr0  1  0.50000001  0.85507602  0.28984796  1
  Pr  Pr1  1  0.50000000  0.14492400  0.71015196  1
  Pr  Pr2  1  1.00000001  0.81596102  0.36807795  1
  Pr  Pr3  1  1.00000000  0.18403800  0.63192396  1
  Pr  Pr4  1  0.73911900  0.24330001  0.24965197  1
  Pr  Pr5  1  0.26088101  0.75670002  0.75034796  1
  Pr  Pr6  1  0.26088101  0.50704801  0.24965198  1
  Pr  Pr7  1  0.73911900  0.49295201  0.75034795  1
  Sb  Sb8  1  0.76991701  0.73874002  0.99999994  1
  Sb  Sb9  1  0.23008300  0.26126001  0.99999996  1
  Sb  Sb10  1  0.83036800  0.08438300  -0.00000002  1
  Sb  Sb11  1  0.16963201  0.91561702  0.99999995  1
  Sb  Sb12  1  0.69672301  0.90364502  0.59381595  1
  Sb  Sb13  1  0.30327700  0.09635500  0.40618398  1
  Sb  Sb14  1  0.30327701  0.50253901  0.59381596  1
  Sb  Sb15  1  0.69672300  0.49746101  0.40618396  1
