# generated using pymatgen
data_CeClO
_symmetry_space_group_name_H-M   'P 1'
_cell_length_a   3.81099105
_cell_length_b   3.81099105
_cell_length_c   6.84915686
_cell_angle_alpha   90.00000000
_cell_angle_beta   90.00000000
_cell_angle_gamma   90.00000000
_symmetry_Int_Tables_number   1
_chemical_formula_structural   CeClO
_chemical_formula_sum   'Ce2 Cl2 O2'
_cell_volume   99.47477598
_cell_formula_units_Z   2
loop_
 _symmetry_equiv_pos_site_id
 _symmetry_equiv_pos_as_xyz
  1  'x, y, z'
loop_
 _atom_site_type_symbol
 _atom_site_label
 _atom_site_symmetry_multiplicity
 _atom_site_fract_x
 _atom_site_fract_y
 _atom_site_fract_z
 _atom_site_occupancy
  Ce  Ce0  1  0.00000000  0.49999999  0.81060602  1
  Ce  Ce1  1  0.49999999  0.00000000  0.18939400  1
  Cl  Cl2  1  0.00000000  0.49999999  0.35257501  1
  Cl  Cl3  1  0.49999999  0.00000000  0.64742501  1
  O  O4  1  0.49999999  0.49999999  0.00000000  1
  O  O5  1  0.00000000  0.00000000  0.00000000  1
