# generated using pymatgen
data_Sr3BiSbO8
_symmetry_space_group_name_H-M   'P 1'
_cell_length_a   5.62889576
_cell_length_b   5.67153740
_cell_length_c   7.51257992
_cell_angle_alpha   90.15462494
_cell_angle_beta   111.92441559
_cell_angle_gamma   119.74815369
_symmetry_Int_Tables_number   1
_chemical_formula_structural   Sr3BiSbO8
_chemical_formula_sum   'Sr3 Bi1 Sb1 O8'
_cell_volume   187.83479760
_cell_formula_units_Z   1
loop_
 _symmetry_equiv_pos_site_id
 _symmetry_equiv_pos_as_xyz
  1  'x, y, z'
loop_
 _atom_site_type_symbol
 _atom_site_label
 _atom_site_symmetry_multiplicity
 _atom_site_fract_x
 _atom_site_fract_y
 _atom_site_fract_z
 _atom_site_occupancy
  Sr  Sr0  1  0.40430802  0.20111401  0.60871903  1
  Sr  Sr1  1  0.59564210  0.79887905  0.39127908  1
  Sr  Sr2  1  0.99983399  0.00003800  0.99999203  1
  Bi  Bi3  1  0.81132204  0.40523102  0.21772704  1
  Sb  Sb4  1  0.18855507  0.59474403  0.78227407  1
  O  O5  1  0.96879909  0.73638604  0.69511708  1
  O  O6  1  0.96704702  0.23441801  0.69753004  1
  O  O7  1  0.46282609  0.73510504  0.69478908  1
  O  O8  1  0.53729903  0.26507902  0.30537603  1
  O  O9  1  0.03103403  0.26348602  0.30474203  1
  O  O10  1  0.35021208  0.66925004  0.03350806  1
  O  O11  1  0.65035704  0.33067102  0.96647306  1
  O  O12  1  0.03276710  0.76560004  0.30247407  1
