# generated using pymatgen
data_Tb(FeGe)2
_symmetry_space_group_name_H-M   'P 1'
_cell_length_a   3.95364189
_cell_length_b   3.95364189
_cell_length_c   5.81906939
_cell_angle_alpha   109.85946655
_cell_angle_beta   109.85946655
_cell_angle_gamma   90.00000000
_symmetry_Int_Tables_number   1
_chemical_formula_structural   Tb(FeGe)2
_chemical_formula_sum   'Tb1 Fe2 Ge2'
_cell_volume   79.77458767
_cell_formula_units_Z   1
loop_
 _symmetry_equiv_pos_site_id
 _symmetry_equiv_pos_as_xyz
  1  'x, y, z'
loop_
 _atom_site_type_symbol
 _atom_site_label
 _atom_site_symmetry_multiplicity
 _atom_site_fract_x
 _atom_site_fract_y
 _atom_site_fract_z
 _atom_site_occupancy
  Tb  Tb0  1  0.00000000  0.00000000  0.00000000  1
  Fe  Fe1  1  0.75000001  0.25000000  0.49999999  1
  Fe  Fe2  1  0.24999999  0.75000001  0.49999999  1
  Ge  Ge3  1  0.62591200  0.62591201  0.25182398  1
  Ge  Ge4  1  0.37408800  0.37408801  0.74817600  1
