# generated using pymatgen
data_UAlGe
_symmetry_space_group_name_H-M   'P 1'
_cell_length_a   3.98145294
_cell_length_b   3.98145294
_cell_length_c   7.41293478
_cell_angle_alpha   90.00000000
_cell_angle_beta   90.00000000
_cell_angle_gamma   90.00000000
_symmetry_Int_Tables_number   1
_chemical_formula_structural   UAlGe
_chemical_formula_sum   'U2 Al2 Ge2'
_cell_volume   117.50960143
_cell_formula_units_Z   2
loop_
 _symmetry_equiv_pos_site_id
 _symmetry_equiv_pos_as_xyz
  1  'x, y, z'
loop_
 _atom_site_type_symbol
 _atom_site_label
 _atom_site_symmetry_multiplicity
 _atom_site_fract_x
 _atom_site_fract_y
 _atom_site_fract_z
 _atom_site_occupancy
  U  U0  1  0.00000000  0.50000001  0.34400801  1
  U  U1  1  0.50000001  0.00000000  0.65599202  1
  Al  Al2  1  0.00000000  0.00000000  0.00000000  1
  Al  Al3  1  0.50000001  0.50000001  0.00000000  1
  Ge  Ge4  1  0.00000000  0.50000001  0.75410702  1
  Ge  Ge5  1  0.50000001  0.00000000  0.24589301  1
