# generated using pymatgen
data_MgCuAgTeSe3
_symmetry_space_group_name_H-M   'P 1'
_cell_length_a   5.93652010
_cell_length_b   5.93652010
_cell_length_c   7.32020617
_cell_angle_alpha   113.92174530
_cell_angle_beta   113.92174530
_cell_angle_gamma   90.00000000
_symmetry_Int_Tables_number   1
_chemical_formula_structural   MgCuAgTeSe3
_chemical_formula_sum   'Mg1 Cu1 Ag1 Te1 Se3'
_cell_volume   211.34871462
_cell_formula_units_Z   1
loop_
 _symmetry_equiv_pos_site_id
 _symmetry_equiv_pos_as_xyz
  1  'x, y, z'
loop_
 _atom_site_type_symbol
 _atom_site_label
 _atom_site_symmetry_multiplicity
 _atom_site_fract_x
 _atom_site_fract_y
 _atom_site_fract_z
 _atom_site_occupancy
  Cu  Cu0  1  0.24999996  0.74999997  0.49999996  1
  Mg  Mg1  1  0.49999996  0.49999998  -0.00000004  1
  Ag  Ag2  1  0.74999997  0.24999999  0.49999997  1
  Te  Te3  1  0.11508597  0.67511797  0.76935197  1
  Se  Se4  1  0.32488198  0.34573399  0.23064798  1
  Se  Se5  1  0.90576594  0.88491396  0.23064793  1
  Se  Se6  1  0.65426597  0.09423400  0.76935198  1
