# generated using pymatgen
data_YbSi2
_symmetry_space_group_name_H-M   'P 1'
_cell_length_a   4.28573608
_cell_length_b   4.28573561
_cell_length_c   16.16006279
_cell_angle_alpha   90.00000000
_cell_angle_beta   90.00000000
_cell_angle_gamma   120.00000000
_symmetry_Int_Tables_number   1
_chemical_formula_structural   YbSi2
_chemical_formula_sum   'Yb4 Si8'
_cell_volume   257.05406408
_cell_formula_units_Z   4
loop_
 _symmetry_equiv_pos_site_id
 _symmetry_equiv_pos_as_xyz
  1  'x, y, z'
loop_
 _atom_site_type_symbol
 _atom_site_label
 _atom_site_symmetry_multiplicity
 _atom_site_fract_x
 _atom_site_fract_y
 _atom_site_fract_z
 _atom_site_occupancy
  Yb  Yb0  1  0.00000000  0.00000000  0.75000001  1
  Yb  Yb1  1  0.00000000  0.00000000  0.25000000  1
  Yb  Yb2  1  0.00000000  0.00000000  0.00000000  1
  Yb  Yb3  1  0.00000000  0.00000000  0.50000001  1
  Si  Si4  1  0.66666664  0.33333334  0.85749701  1
  Si  Si5  1  0.33333330  0.66666668  0.14250300  1
  Si  Si6  1  0.33333330  0.66666668  0.35749700  1
  Si  Si7  1  0.66666664  0.33333334  0.64250301  1
  Si  Si8  1  0.66666664  0.33333334  0.38461100  1
  Si  Si9  1  0.33333330  0.66666668  0.61538901  1
  Si  Si10  1  0.33333330  0.66666668  0.88461101  1
  Si  Si11  1  0.66666664  0.33333334  0.11538900  1
