# generated using pymatgen
data_LiZrO4
_symmetry_space_group_name_H-M   'P 1'
_cell_length_a   5.87084484
_cell_length_b   5.87084484
_cell_length_c   7.57960033
_cell_angle_alpha   73.36360931
_cell_angle_beta   73.36360931
_cell_angle_gamma   73.66349792
_symmetry_Int_Tables_number   1
_chemical_formula_structural   LiZrO4
_chemical_formula_sum   'Li3 Zr3 O12'
_cell_volume   234.11100149
_cell_formula_units_Z   3
loop_
 _symmetry_equiv_pos_site_id
 _symmetry_equiv_pos_as_xyz
  1  'x, y, z'
loop_
 _atom_site_type_symbol
 _atom_site_label
 _atom_site_symmetry_multiplicity
 _atom_site_fract_x
 _atom_site_fract_y
 _atom_site_fract_z
 _atom_site_occupancy
  Li  Li0  1  0.32120197  0.32120199  0.15182603  1
  Li  Li1  1  0.66718293  0.66718299  0.31740406  1
  Li  Li2  1  0.33281697  0.33281699  0.68259603  1
  Zr  Zr3  1  0.67879793  0.67879799  0.84817406  1
  Zr  Zr4  1  0.00000000  0.00000000  0.50000000  1
  Zr  Zr5  1  0.00000000  0.00000000  0.00000000  1
  O  O6  1  0.78599992  0.78599998  0.03578206  1
  O  O7  1  0.21399998  0.21400000  0.96421802  1
  O  O8  1  0.96668294  0.36629399  0.33623405  1
  O  O9  1  0.63370597  0.03331700  0.66376603  1
  O  O10  1  0.09277099  0.09277100  0.70916001  1
  O  O11  1  0.42489896  0.42489899  0.37456304  1
  O  O12  1  0.90722891  0.90722898  0.29084007  1
  O  O13  1  0.57510094  0.57510099  0.62543705  1
  O  O14  1  0.03331696  0.63370599  0.66376603  1
  O  O15  1  0.36629392  0.96668298  0.33623406  1
  O  O16  1  0.69356395  0.30643599  0.00000004  1
  O  O17  1  0.30643594  0.69356398  0.00000004  1
