# generated using pymatgen
data_Ce2Si3Ge
_symmetry_space_group_name_H-M   'P 1'
_cell_length_a   4.14219618
_cell_length_b   4.14219618
_cell_length_c   7.71949196
_cell_angle_alpha   105.56281281
_cell_angle_beta   105.56281281
_cell_angle_gamma   90.00000000
_symmetry_Int_Tables_number   1
_chemical_formula_structural   Ce2Si3Ge
_chemical_formula_sum   'Ce2 Si3 Ge1'
_cell_volume   122.54512963
_cell_formula_units_Z   1
loop_
 _symmetry_equiv_pos_site_id
 _symmetry_equiv_pos_as_xyz
  1  'x, y, z'
loop_
 _atom_site_type_symbol
 _atom_site_label
 _atom_site_symmetry_multiplicity
 _atom_site_fract_x
 _atom_site_fract_y
 _atom_site_fract_z
 _atom_site_occupancy
  Ce  Ce0  1  0.75106399  0.75106398  0.50212804  1
  Ce  Ce1  1  0.50106398  0.00106400  0.00212801  1
  Si  Si2  1  0.32966800  0.32966799  0.65933602  1
  Si  Si3  1  0.07966801  0.57966798  0.15933602  1
  Si  Si4  1  0.91228798  0.41228799  0.82457604  1
  Ge  Ge5  1  0.16228800  0.16228800  0.32457601  1
