# generated using pymatgen
data_Ce2Ni3Ge5
_symmetry_space_group_name_H-M   'P 1'
_cell_length_a   4.18549013
_cell_length_b   4.18549013
_cell_length_c   9.63798904
_cell_angle_alpha   90.00000000
_cell_angle_beta   90.00000000
_cell_angle_gamma   90.00000000
_symmetry_Int_Tables_number   1
_chemical_formula_structural   Ce2Ni3Ge5
_chemical_formula_sum   'Ce2 Ni3 Ge5'
_cell_volume   168.84144987
_cell_formula_units_Z   1
loop_
 _symmetry_equiv_pos_site_id
 _symmetry_equiv_pos_as_xyz
  1  'x, y, z'
loop_
 _atom_site_type_symbol
 _atom_site_label
 _atom_site_symmetry_multiplicity
 _atom_site_fract_x
 _atom_site_fract_y
 _atom_site_fract_z
 _atom_site_occupancy
  Ce  Ce0  1  0.00000000  0.49999998  0.25762600  1
  Ce  Ce1  1  0.49999998  0.00000000  0.74237400  1
  Ni  Ni2  1  0.00000000  0.00000000  0.50000000  1
  Ni  Ni3  1  0.49999998  0.49999998  0.50000000  1
  Ni  Ni4  1  0.00000000  0.49999998  0.86223300  1
  Ge  Ge5  1  0.49999998  0.00000000  0.13776700  1
  Ge  Ge6  1  0.00000000  0.00000000  0.00000000  1
  Ge  Ge7  1  0.49999998  0.49999998  -0.00000000  1
  Ge  Ge8  1  0.00000000  0.49999998  0.61241200  1
  Ge  Ge9  1  0.49999998  0.00000000  0.38758800  1
