# generated using pymatgen
data_Er3Si2
_symmetry_space_group_name_H-M   'P 1'
_cell_length_a   3.53031707
_cell_length_b   7.69275379
_cell_length_c   7.69275379
_cell_angle_alpha   90.00000000
_cell_angle_beta   90.00000000
_cell_angle_gamma   90.00000000
_symmetry_Int_Tables_number   1
_chemical_formula_structural   Er3Si2
_chemical_formula_sum   'Er6 Si4'
_cell_volume   208.91873058
_cell_formula_units_Z   2
loop_
 _symmetry_equiv_pos_site_id
 _symmetry_equiv_pos_as_xyz
  1  'x, y, z'
loop_
 _atom_site_type_symbol
 _atom_site_label
 _atom_site_symmetry_multiplicity
 _atom_site_fract_x
 _atom_site_fract_y
 _atom_site_fract_z
 _atom_site_occupancy
  Er  Er0  1  0.00000000  0.16984800  0.33015201  1
  Er  Er1  1  0.99999998  0.83015202  0.66984802  1
  Er  Er2  1  0.99999998  0.66984802  0.16984800  1
  Er  Er3  1  0.00000000  0.33015201  0.83015202  1
  Er  Er4  1  0.49999999  0.00000000  0.00000000  1
  Er  Er5  1  0.49999999  0.50000001  0.50000001  1
  Si  Si6  1  0.49999999  0.36648901  0.13351100  1
  Si  Si7  1  0.49999999  0.63351102  0.86648902  1
  Si  Si8  1  0.49999999  0.86648902  0.36648901  1
  Si  Si9  1  0.49999999  0.13351100  0.63351102  1
