# generated using pymatgen
data_Pr5Sn4
_symmetry_space_group_name_H-M   'P 1'
_cell_length_a   6.84040785
_cell_length_b   9.65196419
_cell_length_c   9.65196514
_cell_angle_alpha   120.00000000
_cell_angle_beta   90.00000000
_cell_angle_gamma   90.00000000
_symmetry_Int_Tables_number   1
_chemical_formula_structural   Pr5Sn4
_chemical_formula_sum   'Pr10 Sn8'
_cell_volume   551.87926205
_cell_formula_units_Z   2
loop_
 _symmetry_equiv_pos_site_id
 _symmetry_equiv_pos_as_xyz
  1  'x, y, z'
loop_
 _atom_site_type_symbol
 _atom_site_label
 _atom_site_symmetry_multiplicity
 _atom_site_fract_x
 _atom_site_fract_y
 _atom_site_fract_z
 _atom_site_occupancy
  Pr  Pr0  1  0.25000001  0.72607301  0.72607302  1
  Pr  Pr1  1  0.75000002  0.27392700  0.27392701  1
  Pr  Pr2  1  0.25000001  0.00000000  0.27392699  1
  Pr  Pr3  1  0.75000002  0.00000000  0.72607298  1
  Pr  Pr4  1  0.25000001  0.27392700  0.00000002  1
  Pr  Pr5  1  0.75000002  0.72607301  0.00000004  1
  Pr  Pr6  1  0.50000001  0.66666667  0.33333336  1
  Pr  Pr7  1  0.50000001  0.33333334  0.66666667  1
  Pr  Pr8  1  -0.00000000  0.33333334  0.66666667  1
  Pr  Pr9  1  -0.00000000  0.66666667  0.33333336  1
  Sn  Sn10  1  0.50000001  0.00000000  -0.00000000  1
  Sn  Sn11  1  0.00000000  0.00000000  0.00000000  1
  Sn  Sn12  1  0.25000001  0.37911000  0.37911001  1
  Sn  Sn13  1  0.75000002  0.62089001  0.62089002  1
  Sn  Sn14  1  0.25000001  0.00000000  0.62088998  1
  Sn  Sn15  1  0.75000002  0.00000000  0.37910999  1
  Sn  Sn16  1  0.25000001  0.62089001  0.00000004  1
  Sn  Sn17  1  0.75000002  0.37911000  0.00000002  1
