# generated using pymatgen
data_Ca2AgWO6
_symmetry_space_group_name_H-M   'P 1'
_cell_length_a   5.56670523
_cell_length_b   5.79495478
_cell_length_c   7.88321018
_cell_angle_alpha   90.00000000
_cell_angle_beta   89.82405853
_cell_angle_gamma   90.00000000
_symmetry_Int_Tables_number   1
_chemical_formula_structural   Ca2AgWO6
_chemical_formula_sum   'Ca4 Ag2 W2 O12'
_cell_volume   254.30174142
_cell_formula_units_Z   2
loop_
 _symmetry_equiv_pos_site_id
 _symmetry_equiv_pos_as_xyz
  1  'x, y, z'
loop_
 _atom_site_type_symbol
 _atom_site_label
 _atom_site_symmetry_multiplicity
 _atom_site_fract_x
 _atom_site_fract_y
 _atom_site_fract_z
 _atom_site_occupancy
  Ca  Ca0  1  0.49999998  0.00000000  -0.00000002  1
  Ca  Ca1  1  0.00000000  0.50000002  0.50000000  1
  Ca  Ca2  1  0.48831898  0.55953902  0.24866998  1
  Ca  Ca3  1  0.01168100  0.05953900  0.25133000  1
  Ag  Ag4  1  0.51168098  0.44046102  0.75132998  1
  Ag  Ag5  1  0.98831896  0.94046104  0.74866996  1
  W  W6  1  0.00000000  0.50000002  -0.00000000  1
  W  W7  1  0.49999998  0.00000000  0.49999998  1
  O  O8  1  0.41061698  0.02718100  0.74243598  1
  O  O9  1  0.08938300  0.52718102  0.75756400  1
  O  O10  1  0.58938298  0.97281904  0.25756398  1
  O  O11  1  0.91061696  0.47281902  0.24243597  1
  O  O12  1  0.31290499  0.28507701  0.45087699  1
  O  O13  1  0.18709499  0.78507703  0.04912299  1
  O  O14  1  0.71077197  0.68983203  0.95525897  1
  O  O15  1  0.78922797  0.18983201  0.54474097  1
  O  O16  1  0.28922799  0.31016801  0.04474099  1
  O  O17  1  0.21077199  0.81016803  0.45525899  1
  O  O18  1  0.81290497  0.21492301  0.95087697  1
  O  O19  1  0.68709497  0.71492303  0.54912297  1
