# generated using pymatgen
data_Ce2Fe3Ge5
_symmetry_space_group_name_H-M   'P 1'
_cell_length_a   4.17877293
_cell_length_b   4.17877293
_cell_length_c   10.69956970
_cell_angle_alpha   90.00000000
_cell_angle_beta   90.00000000
_cell_angle_gamma   90.00000000
_symmetry_Int_Tables_number   1
_chemical_formula_structural   Ce2Fe3Ge5
_chemical_formula_sum   'Ce2 Fe3 Ge5'
_cell_volume   186.83741799
_cell_formula_units_Z   1
loop_
 _symmetry_equiv_pos_site_id
 _symmetry_equiv_pos_as_xyz
  1  'x, y, z'
loop_
 _atom_site_type_symbol
 _atom_site_label
 _atom_site_symmetry_multiplicity
 _atom_site_fract_x
 _atom_site_fract_y
 _atom_site_fract_z
 _atom_site_occupancy
  Ce  Ce0  1  0.50000001  0.00000000  0.24233901  1
  Ce  Ce1  1  0.00000000  0.50000001  0.75766102  1
  Fe  Fe2  1  0.50000001  0.00000000  0.86203402  1
  Ge  Ge3  1  0.00000000  0.50000001  0.13796600  1
  Fe  Fe4  1  0.00000000  0.00000000  0.50000001  1
  Fe  Fe5  1  0.50000001  0.50000001  0.50000001  1
  Ge  Ge6  1  0.50000001  0.00000000  0.63485202  1
  Ge  Ge7  1  0.00000000  0.50000001  0.36514801  1
  Ge  Ge8  1  0.00000000  0.00000000  0.00000000  1
  Ge  Ge9  1  0.50000001  0.50000001  0.00000000  1
