# generated using pymatgen
data_CsHO2
_symmetry_space_group_name_H-M   'P 1'
_cell_length_a   4.22672796
_cell_length_b   4.88270187
_cell_length_c   6.46361494
_cell_angle_alpha   98.50640869
_cell_angle_beta   90.00000000
_cell_angle_gamma   90.00000000
_symmetry_Int_Tables_number   1
_chemical_formula_structural   CsHO2
_chemical_formula_sum   'Cs2 H2 O4'
_cell_volume   131.92769545
_cell_formula_units_Z   2
loop_
 _symmetry_equiv_pos_site_id
 _symmetry_equiv_pos_as_xyz
  1  'x, y, z'
loop_
 _atom_site_type_symbol
 _atom_site_label
 _atom_site_symmetry_multiplicity
 _atom_site_fract_x
 _atom_site_fract_y
 _atom_site_fract_z
 _atom_site_occupancy
  Cs  Cs0  1  0.25000000  0.19535401  0.29560401  1
  Cs  Cs1  1  0.75000001  0.80464602  0.70439603  1
  H  H2  1  0.43829100  0.34387201  0.84591303  1
  H  H3  1  0.93829101  0.65612802  0.15408702  1
  O  O4  1  0.56170900  0.65612802  0.15408702  1
  O  O5  1  0.06170900  0.34387201  0.84591303  1
  O  O6  1  0.25000000  0.26369301  0.75415003  1
  O  O7  1  0.75000001  0.73630702  0.24585002  1
