# generated using pymatgen
data_FeHNO
_symmetry_space_group_name_H-M   'P 1'
_cell_length_a   2.78996992
_cell_length_b   3.53018618
_cell_length_c   4.44225264
_cell_angle_alpha   97.80365753
_cell_angle_beta   90.00000000
_cell_angle_gamma   113.27589417
_symmetry_Int_Tables_number   1
_chemical_formula_structural   FeHNO
_chemical_formula_sum   'Fe1 H1 N1 O1'
_cell_volume   39.74991019
_cell_formula_units_Z   1
loop_
 _symmetry_equiv_pos_site_id
 _symmetry_equiv_pos_as_xyz
  1  'x, y, z'
loop_
 _atom_site_type_symbol
 _atom_site_label
 _atom_site_symmetry_multiplicity
 _atom_site_fract_x
 _atom_site_fract_y
 _atom_site_fract_z
 _atom_site_occupancy
  Fe  Fe0  1  0.50000001  0.00000000  1.00000003  1
  H  H1  1  0.00000000  0.00000000  0.50000001  1
  N  N2  1  0.92123905  0.84247802  0.23552000  1
  O  O3  1  0.07876101  0.15752200  0.76448002  1
