# generated using pymatgen
data_KReO3
_symmetry_space_group_name_H-M   'P 1'
_cell_length_a   3.93443990
_cell_length_b   6.57394266
_cell_length_c   7.22983980
_cell_angle_alpha   104.57817841
_cell_angle_beta   105.78910828
_cell_angle_gamma   90.00000000
_symmetry_Int_Tables_number   1
_chemical_formula_structural   KReO3
_chemical_formula_sum   'K2 Re2 O6'
_cell_volume   173.67795061
_cell_formula_units_Z   2
loop_
 _symmetry_equiv_pos_site_id
 _symmetry_equiv_pos_as_xyz
  1  'x, y, z'
loop_
 _atom_site_type_symbol
 _atom_site_label
 _atom_site_symmetry_multiplicity
 _atom_site_fract_x
 _atom_site_fract_y
 _atom_site_fract_z
 _atom_site_occupancy
  K  K0  1  0.60589003  0.31443001  0.21178002  1
  K  K1  1  0.39411004  0.68557002  0.78822004  1
  Re  Re2  1  0.83953003  0.12064000  0.67906001  1
  Re  Re3  1  0.16047004  0.87936002  0.32094005  1
  O  O4  1  0.14583003  0.59805002  0.29166004  1
  O  O5  1  0.85417004  0.40195001  0.70834002  1
  O  O6  1  0.03347004  0.94476003  0.06694006  1
  O  O7  1  0.30943001  0.02302000  0.61886000  1
  O  O8  1  0.69057006  0.97698003  0.38114006  1
  O  O9  1  0.96653003  0.05524000  0.93306000  1
