# generated using pymatgen
data_Sr2CuO4
_symmetry_space_group_name_H-M   'P 1'
_cell_length_a   3.89907098
_cell_length_b   3.89907098
_cell_length_c   12.75195694
_cell_angle_alpha   90.00000000
_cell_angle_beta   90.00000000
_cell_angle_gamma   90.00000000
_symmetry_Int_Tables_number   1
_chemical_formula_structural   Sr2CuO4
_chemical_formula_sum   'Sr4 Cu2 O8'
_cell_volume   193.86487066
_cell_formula_units_Z   2
loop_
 _symmetry_equiv_pos_site_id
 _symmetry_equiv_pos_as_xyz
  1  'x, y, z'
loop_
 _atom_site_type_symbol
 _atom_site_label
 _atom_site_symmetry_multiplicity
 _atom_site_fract_x
 _atom_site_fract_y
 _atom_site_fract_z
 _atom_site_occupancy
  Sr  Sr0  1  0.00000000  0.00000000  0.64557000  1
  Sr  Sr1  1  0.00000000  0.00000000  0.35443000  1
  Sr  Sr2  1  0.50000000  0.50000000  0.13721700  1
  Sr  Sr3  1  0.50000000  0.50000000  0.86278300  1
  Cu  Cu4  1  0.00000000  0.00000000  0.00000000  1
  Cu  Cu5  1  0.50000000  0.50000000  0.50000000  1
  O  O6  1  0.50000000  0.50000000  0.33305300  1
  O  O7  1  0.00000000  0.00000000  0.82916600  1
  O  O8  1  0.00000000  0.00000000  0.17083400  1
  O  O9  1  0.50000000  0.50000000  0.66694700  1
  O  O10  1  0.00000000  0.50000000  0.50000000  1
  O  O11  1  0.50000000  0.00000000  -0.00000000  1
  O  O12  1  0.50000000  0.00000000  0.50000000  1
  O  O13  1  0.00000000  0.50000000  0.00000000  1
