# generated using pymatgen
data_ZrSnIr
_symmetry_space_group_name_H-M   'P 1'
_cell_length_a   4.03301620
_cell_length_b   7.04090595
_cell_length_c   7.04090643
_cell_angle_alpha   120.00000000
_cell_angle_beta   90.00000000
_cell_angle_gamma   90.00000000
_symmetry_Int_Tables_number   1
_chemical_formula_structural   ZrSnIr
_chemical_formula_sum   'Zr3 Sn3 Ir3'
_cell_volume   173.14809384
_cell_formula_units_Z   3
loop_
 _symmetry_equiv_pos_site_id
 _symmetry_equiv_pos_as_xyz
  1  'x, y, z'
loop_
 _atom_site_type_symbol
 _atom_site_label
 _atom_site_symmetry_multiplicity
 _atom_site_fract_x
 _atom_site_fract_y
 _atom_site_fract_z
 _atom_site_occupancy
  Zr  Zr0  1  0.49999997  0.00000000  0.41801700  1
  Zr  Zr1  1  0.49999997  0.41801701  0.00000002  1
  Zr  Zr2  1  0.49999997  0.58198302  0.58198303  1
  Sn  Sn3  1  -0.00000000  1.00000003  0.76334205  1
  Sn  Sn4  1  -0.00000000  0.76334202  0.00000003  1
  Sn  Sn5  1  -0.00000000  0.23665801  0.23665801  1
  Ir  Ir6  1  -0.00000000  0.66666669  0.33333336  1
  Ir  Ir7  1  -0.00000000  0.33333334  0.66666669  1
  Ir  Ir8  1  0.49999997  0.00000000  -0.00000000  1
