# generated using pymatgen
data_HoTl3
_symmetry_space_group_name_H-M   'P 1'
_cell_length_a   5.17210102
_cell_length_b   6.91087389
_cell_length_c   6.91087341
_cell_angle_alpha   120.00000000
_cell_angle_beta   90.00000000
_cell_angle_gamma   90.00000000
_symmetry_Int_Tables_number   1
_chemical_formula_structural   HoTl3
_chemical_formula_sum   'Ho2 Tl6'
_cell_volume   213.92598317
_cell_formula_units_Z   2
loop_
 _symmetry_equiv_pos_site_id
 _symmetry_equiv_pos_as_xyz
  1  'x, y, z'
loop_
 _atom_site_type_symbol
 _atom_site_label
 _atom_site_symmetry_multiplicity
 _atom_site_fract_x
 _atom_site_fract_y
 _atom_site_fract_z
 _atom_site_occupancy
  Ho  Ho0  1  0.75000000  0.66666666  0.33333332  1
  Ho  Ho1  1  0.25000000  0.33333333  0.66666667  1
  Tl  Tl2  1  0.75000000  0.16220700  0.32441400  1
  Tl  Tl3  1  0.75000000  0.16220700  0.83779202  1
  Tl  Tl4  1  0.75000000  0.67558500  0.83779200  1
  Tl  Tl5  1  0.25000000  0.83779300  0.67558599  1
  Tl  Tl6  1  0.25000000  0.83779300  0.16220797  1
  Tl  Tl7  1  0.25000000  0.32441500  0.16220799  1
