# generated using pymatgen
data_Li2Fe2O5
_symmetry_space_group_name_H-M   'P 1'
_cell_length_a   4.51251936
_cell_length_b   5.30591011
_cell_length_c   5.30591011
_cell_angle_alpha   63.90203094
_cell_angle_beta   89.23469543
_cell_angle_gamma   90.76530457
_symmetry_Int_Tables_number   1
_chemical_formula_structural   Li2Fe2O5
_chemical_formula_sum   'Li2 Fe2 O5'
_cell_volume   114.05063105
_cell_formula_units_Z   1
loop_
 _symmetry_equiv_pos_site_id
 _symmetry_equiv_pos_as_xyz
  1  'x, y, z'
loop_
 _atom_site_type_symbol
 _atom_site_label
 _atom_site_symmetry_multiplicity
 _atom_site_fract_x
 _atom_site_fract_y
 _atom_site_fract_z
 _atom_site_occupancy
  Li  Li0  1  0.00000000  0.00490600  0.00490600  1
  Li  Li1  1  0.50000006  0.32119800  0.32119795  1
  Fe  Fe2  1  0.50000009  0.66836899  0.66836893  1
  Fe  Fe3  1  0.26952012  0.96742399  0.67308093  1
  O  O4  1  0.74833514  0.99224399  0.33577191  1
  O  O5  1  0.25166505  0.33577200  0.99224395  1
  O  O6  1  0.72357707  0.37651800  0.65062193  1
  O  O7  1  0.73048010  0.67308099  0.96742391  1
  O  O8  1  0.27642308  0.65062199  0.37651795  1
