# generated using pymatgen
data_BaSi2AsRh
_symmetry_space_group_name_H-M   'P 1'
_cell_length_a   4.04107380
_cell_length_b   4.04107380
_cell_length_c   7.25043058
_cell_angle_alpha   106.18133545
_cell_angle_beta   106.18133545
_cell_angle_gamma   90.00000000
_symmetry_Int_Tables_number   1
_chemical_formula_structural   BaSi2AsRh
_chemical_formula_sum   'Ba1 Si2 As1 Rh1'
_cell_volume   108.81848046
_cell_formula_units_Z   1
loop_
 _symmetry_equiv_pos_site_id
 _symmetry_equiv_pos_as_xyz
  1  'x, y, z'
loop_
 _atom_site_type_symbol
 _atom_site_label
 _atom_site_symmetry_multiplicity
 _atom_site_fract_x
 _atom_site_fract_y
 _atom_site_fract_z
 _atom_site_occupancy
  Ba  Ba0  1  0.00000000  0.00000000  0.00000000  1
  Si  Si1  1  0.75000006  0.25000002  0.50000004  1
  Si  Si2  1  0.25000005  0.75000005  0.50000005  1
  As  As3  1  0.64022007  0.64022005  0.28044006  1
  Rh  Rh4  1  0.35978004  0.35978003  0.71956004  1
