# generated using pymatgen
data_Sr4Sn3S7
_symmetry_space_group_name_H-M   'P 1'
_cell_length_a   6.91451788
_cell_length_b   7.02468824
_cell_length_c   8.71027756
_cell_angle_alpha   82.34554291
_cell_angle_beta   74.29756165
_cell_angle_gamma   60.51745605
_symmetry_Int_Tables_number   1
_chemical_formula_structural   Sr4Sn3S7
_chemical_formula_sum   'Sr4 Sn3 S7'
_cell_volume   354.54765337
_cell_formula_units_Z   1
loop_
 _symmetry_equiv_pos_site_id
 _symmetry_equiv_pos_as_xyz
  1  'x, y, z'
loop_
 _atom_site_type_symbol
 _atom_site_label
 _atom_site_symmetry_multiplicity
 _atom_site_fract_x
 _atom_site_fract_y
 _atom_site_fract_z
 _atom_site_occupancy
  Sr  Sr0  1  0.66666666  0.66666666  0.00000001  1
  Sr  Sr1  1  0.33333333  0.33333333  0.00000001  1
  Sr  Sr2  1  0.00000000  0.00000000  0.00000000  1
  Sr  Sr3  1  0.50000001  0.00000000  0.50000001  1
  Sn  Sn4  1  0.78512400  0.33310800  0.64585602  1
  Sn  Sn5  1  0.88176800  0.33310800  0.35414402  1
  S  S6  1  0.11823199  0.66689200  0.64585601  1
  Sn  Sn7  1  0.21487599  0.66689200  0.35414401  1
  S  S8  1  0.92797800  0.65767700  0.23810802  1
  S  S9  1  0.58565500  0.34232300  0.23810801  1
  S  S10  1  0.41434499  0.65767700  0.76189201  1
  S  S11  1  0.24648500  0.00000000  0.23853800  1
  S  S12  1  0.07202199  0.34232300  0.76189201  1
  S  S13  1  0.75351501  0.00000000  0.76146201  1
