# generated using pymatgen
data_Sr4Sn4Pd3Pb
_symmetry_space_group_name_H-M   'P 1'
_cell_length_a   4.67432022
_cell_length_b   7.47006083
_cell_length_c   8.50819969
_cell_angle_alpha   90.00000000
_cell_angle_beta   90.00000000
_cell_angle_gamma   90.00000000
_symmetry_Int_Tables_number   1
_chemical_formula_structural   Sr4Sn4Pd3Pb
_chemical_formula_sum   'Sr4 Sn4 Pd3 Pb1'
_cell_volume   297.08469150
_cell_formula_units_Z   1
loop_
 _symmetry_equiv_pos_site_id
 _symmetry_equiv_pos_as_xyz
  1  'x, y, z'
loop_
 _atom_site_type_symbol
 _atom_site_label
 _atom_site_symmetry_multiplicity
 _atom_site_fract_x
 _atom_site_fract_y
 _atom_site_fract_z
 _atom_site_occupancy
  Sr  Sr0  1  0.74999996  0.97844502  0.68571102  1
  Sr  Sr1  1  0.24999999  0.02155500  0.31428901  1
  Sr  Sr2  1  0.74999996  0.47844501  0.81428903  1
  Sr  Sr3  1  0.24999999  0.52155501  0.18571101  1
  Sn  Sn4  1  0.74999996  0.33889501  0.43455002  1
  Sn  Sn5  1  0.24999999  0.16110500  0.93455003  1
  Sn  Sn6  1  0.24999999  0.66110502  0.56545002  1
  Sn  Sn7  1  0.74999996  0.83889502  0.06545000  1
  Pb  Pb8  1  0.24999999  0.77285502  0.88284203  1
  Pd  Pd9  1  0.24999999  0.27285501  0.61715802  1
  Pd  Pd10  1  0.74999996  0.72714502  0.38284201  1
  Pd  Pd11  1  0.74999996  0.22714501  0.11715800  1
