# generated using pymatgen
data_NdSnBr5
_symmetry_space_group_name_H-M   'P 1'
_cell_length_a   7.63655949
_cell_length_b   7.63655949
_cell_length_c   10.47655964
_cell_angle_alpha   69.79840851
_cell_angle_beta   69.79840851
_cell_angle_gamma   70.61901093
_symmetry_Int_Tables_number   1
_chemical_formula_structural   NdSnBr5
_chemical_formula_sum   'Nd2 Sn2 Br10'
_cell_volume   522.19348573
_cell_formula_units_Z   2
loop_
 _symmetry_equiv_pos_site_id
 _symmetry_equiv_pos_as_xyz
  1  'x, y, z'
loop_
 _atom_site_type_symbol
 _atom_site_label
 _atom_site_symmetry_multiplicity
 _atom_site_fract_x
 _atom_site_fract_y
 _atom_site_fract_z
 _atom_site_occupancy
  Nd  Nd0  1  0.55175701  0.44824300  0.74999998  1
  Nd  Nd1  1  0.44824301  0.55175700  0.24999997  1
  Sn  Sn2  1  0.00000000  0.00000000  0.00000000  1
  Sn  Sn3  1  0.00000000  0.00000000  0.50000001  1
  Br  Br4  1  0.25069301  0.20988900  0.88071300  1
  Br  Br5  1  0.31140702  0.71302500  0.52761697  1
  Br  Br6  1  0.20988901  0.25069300  0.38071299  1
  Br  Br7  1  0.92323300  0.07676700  0.74999998  1
  Br  Br8  1  0.28697502  0.68859300  0.97238298  1
  Br  Br9  1  0.71302501  0.31140700  0.02761697  1
  Br  Br10  1  0.07676702  0.92323300  0.24999997  1
  Br  Br11  1  0.79011102  0.74930700  0.61928696  1
  Br  Br12  1  0.68859301  0.28697500  0.47238298  1
  Br  Br13  1  0.74930702  0.79011100  0.11928695  1
