# generated using pymatgen
data_Li2Bi4ClO11
_symmetry_space_group_name_H-M   'P 1'
_cell_length_a   4.91988516
_cell_length_b   4.91988516
_cell_length_c   10.23238087
_cell_angle_alpha   90.00000000
_cell_angle_beta   90.00000000
_cell_angle_gamma   90.00000000
_symmetry_Int_Tables_number   1
_chemical_formula_structural   Li2Bi4ClO11
_chemical_formula_sum   'Li2 Bi4 Cl1 O11'
_cell_volume   247.67754135
_cell_formula_units_Z   1
loop_
 _symmetry_equiv_pos_site_id
 _symmetry_equiv_pos_as_xyz
  1  'x, y, z'
loop_
 _atom_site_type_symbol
 _atom_site_label
 _atom_site_symmetry_multiplicity
 _atom_site_fract_x
 _atom_site_fract_y
 _atom_site_fract_z
 _atom_site_occupancy
  Li  Li0  1  0.49999998  0.00000000  0.75220401  1
  Li  Li1  1  0.00000000  0.49999998  0.24779600  1
  Bi  Bi2  1  0.49999998  0.00000000  0.41498601  1
  Bi  Bi3  1  0.49999998  0.00000000  0.08333700  1
  Bi  Bi4  1  0.00000000  0.49999998  0.58501401  1
  Bi  Bi5  1  0.00000000  0.49999998  0.91666301  1
  Cl  Cl6  1  0.69579598  0.80420397  0.92056501  1
  O  O7  1  0.69838298  0.80161697  0.58143601  1
  O  O8  1  0.70123398  0.79876597  0.24712700  1
  O  O9  1  0.79876597  0.29876599  0.75287301  1
  O  O10  1  0.80161697  0.30161699  0.41856401  1
  O  O11  1  0.80420397  0.30420399  0.07943500  1
  O  O12  1  0.19579599  0.69579598  0.07943500  1
  O  O13  1  0.19838299  0.69838298  0.41856401  1
  O  O14  1  0.20123399  0.70123398  0.75287301  1
  O  O15  1  0.29876599  0.20123399  0.24712700  1
  O  O16  1  0.30161699  0.19838299  0.58143601  1
  O  O17  1  0.30420399  0.19579599  0.92056501  1
