# generated using pymatgen
data_NbSnS3
_symmetry_space_group_name_H-M   'P 1'
_cell_length_a   4.07182503
_cell_length_b   7.86885977
_cell_length_c   13.83946609
_cell_angle_alpha   90.00000000
_cell_angle_beta   90.00000000
_cell_angle_gamma   90.00000000
_symmetry_Int_Tables_number   1
_chemical_formula_structural   NbSnS3
_chemical_formula_sum   'Nb4 Sn4 S12'
_cell_volume   443.42507610
_cell_formula_units_Z   4
loop_
 _symmetry_equiv_pos_site_id
 _symmetry_equiv_pos_as_xyz
  1  'x, y, z'
loop_
 _atom_site_type_symbol
 _atom_site_label
 _atom_site_symmetry_multiplicity
 _atom_site_fract_x
 _atom_site_fract_y
 _atom_site_fract_z
 _atom_site_occupancy
  Nb  Nb0  1  0.99999999  0.12352400  0.66218800  1
  Nb  Nb1  1  0.99999999  0.12352400  0.33781200  1
  Nb  Nb2  1  0.50000000  0.87647603  0.83781199  1
  Nb  Nb3  1  0.50000000  0.87647603  0.16218800  1
  Sn  Sn4  1  -0.00000000  0.62639402  0.66578300  1
  Sn  Sn5  1  0.99999999  0.62639402  0.33421700  1
  Sn  Sn6  1  0.50000000  0.37360601  0.83421699  1
  Sn  Sn7  1  0.50000000  0.37360601  0.16578300  1
  S  S8  1  -0.00000000  0.15617400  0.00000000  1
  S  S9  1  0.50000000  0.84382602  0.50000000  1
  S  S10  1  -0.00000000  0.59335402  -0.00000000  1
  S  S11  1  0.50000000  0.40664601  0.50000000  1
  S  S12  1  0.99999999  0.37218501  0.74855399  1
  S  S13  1  -0.00000000  0.37218501  0.25144600  1
  S  S14  1  0.50000000  0.62781502  0.75144599  1
  S  S15  1  0.50000000  0.62781502  0.24855400  1
  S  S16  1  0.99999999  0.87782403  0.75524399  1
  S  S17  1  0.99999999  0.87782403  0.24475600  1
  S  S18  1  0.50000000  0.12217600  0.74475599  1
  S  S19  1  0.50000000  0.12217600  0.25524400  1
