# generated using pymatgen
data_ZnCuSe2
_symmetry_space_group_name_H-M   'P 1'
_cell_length_a   5.66857386
_cell_length_b   5.66857386
_cell_length_c   6.85568094
_cell_angle_alpha   114.41996002
_cell_angle_beta   114.41996002
_cell_angle_gamma   90.00000000
_symmetry_Int_Tables_number   1
_chemical_formula_structural   ZnCuSe2
_chemical_formula_sum   'Zn2 Cu2 Se4'
_cell_volume   178.71690307
_cell_formula_units_Z   2
loop_
 _symmetry_equiv_pos_site_id
 _symmetry_equiv_pos_as_xyz
  1  'x, y, z'
loop_
 _atom_site_type_symbol
 _atom_site_label
 _atom_site_symmetry_multiplicity
 _atom_site_fract_x
 _atom_site_fract_y
 _atom_site_fract_z
 _atom_site_occupancy
  Zn  Zn0  1  0.50000002  0.50000001  1.00000003  1
  Zn  Zn1  1  0.75000002  0.25000001  0.50000002  1
  Cu  Cu2  1  0.25000001  0.75000002  0.50000002  1
  Cu  Cu3  1  0.00000000  0.00000000  0.00000000  1
  Se  Se4  1  0.63468402  0.63468402  0.75039002  1
  Se  Se5  1  0.11570600  0.11570600  0.75039002  1
  Se  Se6  1  0.36531602  0.88429503  0.24961101  1
  Se  Se7  1  0.88429403  0.36531501  0.24960901  1
