# generated using pymatgen
data_SrCa3CdRh(CO3)2
_symmetry_space_group_name_H-M   'P 1'
_cell_length_a   5.78757620
_cell_length_b   5.78796911
_cell_length_c   6.89964676
_cell_angle_alpha   90.00000000
_cell_angle_beta   114.79740906
_cell_angle_gamma   90.00000000
_symmetry_Int_Tables_number   1
_chemical_formula_structural   SrCa3CdRh(CO3)2
_chemical_formula_sum   'Sr1 Ca3 Cd1 Rh1 C2 O6'
_cell_volume   209.81583485
_cell_formula_units_Z   1
loop_
 _symmetry_equiv_pos_site_id
 _symmetry_equiv_pos_as_xyz
  1  'x, y, z'
loop_
 _atom_site_type_symbol
 _atom_site_label
 _atom_site_symmetry_multiplicity
 _atom_site_fract_x
 _atom_site_fract_y
 _atom_site_fract_z
 _atom_site_occupancy
  Ca  Ca0  1  0.49999998  0.00000000  0.00000000  1
  Sr  Sr1  1  0.65031698  0.49999999  0.30063401  1
  Ca  Ca2  1  0.14964400  0.00000000  0.29928801  1
  Ca  Ca3  1  0.85035597  0.00000000  0.70071203  1
  Cd  Cd4  1  0.34968299  0.49999999  0.69936602  1
  Rh  Rh5  1  -0.00000000  0.49999999  -0.00000000  1
  C  C6  1  -0.00000000  0.24921400  0.50000001  1
  C  C7  1  0.49999998  0.75078599  0.50000002  1
  O  O8  1  -0.00000000  0.75078599  0.50000001  1
  O  O9  1  0.24906499  0.74904999  0.00000000  1
  O  O10  1  0.49999998  0.24921400  0.50000002  1
  O  O11  1  0.24906499  0.25095000  0.00000000  1
  O  O12  1  0.75093498  0.25095000  0.00000001  1
  O  O13  1  0.75093498  0.74904999  0.00000001  1
