# generated using pymatgen
data_ZrRuO3
_symmetry_space_group_name_H-M   'P 1'
_cell_length_a   6.88956594
_cell_length_b   6.94762182
_cell_length_c   7.49536943
_cell_angle_alpha   62.38933945
_cell_angle_beta   73.77648926
_cell_angle_gamma   90.00000000
_symmetry_Int_Tables_number   1
_chemical_formula_structural   ZrRuO3
_chemical_formula_sum   'Zr4 Ru4 O12'
_cell_volume   301.70062673
_cell_formula_units_Z   4
loop_
 _symmetry_equiv_pos_site_id
 _symmetry_equiv_pos_as_xyz
  1  'x, y, z'
loop_
 _atom_site_type_symbol
 _atom_site_label
 _atom_site_symmetry_multiplicity
 _atom_site_fract_x
 _atom_site_fract_y
 _atom_site_fract_z
 _atom_site_occupancy
  Zr  Zr0  1  0.00000000  0.00000000  0.00000000  1
  Zr  Zr1  1  0.49999996  0.73987700  1.00000008  1
  Zr  Zr2  1  0.49999998  0.26012300  0.00000004  1
  Zr  Zr3  1  0.47640798  0.23442400  0.53115205  1
  Ru  Ru4  1  0.52359196  0.76557600  0.46884807  1
  Ru  Ru5  1  -0.00000002  0.50000000  0.00000002  1
  Ru  Ru6  1  0.00000000  0.00000000  0.50000001  1
  Ru  Ru7  1  -0.00000002  0.50000000  0.50000003  1
  O  O8  1  0.54016898  0.39194000  0.21612005  1
  O  O9  1  0.45983097  0.60806000  0.78388006  1
  O  O10  1  0.16986699  0.21366100  0.57267803  1
  O  O11  1  0.83013295  0.78633900  0.42732209  1
  O  O12  1  0.39689499  0.07642400  0.84715204  1
  O  O13  1  0.60310495  0.92357600  0.15284808  1
  O  O14  1  0.11110099  0.21535500  0.14752202  1
  O  O15  1  0.88889895  0.78464500  0.85247810  1
  O  O16  1  0.88889897  0.36287700  0.85247808  1
  O  O17  1  0.11110097  0.63712300  0.14752204  1
  O  O18  1  0.22390496  0.75486800  0.49026405  1
  O  O19  1  0.77609498  0.24513200  0.50973607  1
