# generated using pymatgen
data_LiMoO4
_symmetry_space_group_name_H-M   'P 1'
_cell_length_a   5.95011520
_cell_length_b   5.95011520
_cell_length_c   5.95011520
_cell_angle_alpha   106.04170990
_cell_angle_beta   106.04170990
_cell_angle_gamma   116.57224274
_symmetry_Int_Tables_number   1
_chemical_formula_structural   LiMoO4
_chemical_formula_sum   'Li2 Mo2 O8'
_cell_volume   160.27361337
_cell_formula_units_Z   2
loop_
 _symmetry_equiv_pos_site_id
 _symmetry_equiv_pos_as_xyz
  1  'x, y, z'
loop_
 _atom_site_type_symbol
 _atom_site_label
 _atom_site_symmetry_multiplicity
 _atom_site_fract_x
 _atom_site_fract_y
 _atom_site_fract_z
 _atom_site_occupancy
  Li  Li0  1  0.49999999  0.50000000  -0.00000000  1
  Li  Li1  1  0.24999996  0.75000000  0.50000001  1
  Mo  Mo2  1  0.75000002  0.25000000  0.50000003  1
  Mo  Mo3  1  0.00000000  0.00000000  0.00000000  1
  O  O4  1  0.17614798  0.36120600  0.18505800  1
  O  O5  1  0.11120598  0.42614800  0.68505802  1
  O  O6  1  0.74109000  0.42614800  0.31494202  1
  O  O7  1  0.17614794  0.99109000  0.81494202  1
  O  O8  1  0.63879397  0.82385200  0.81494203  1
  O  O9  1  0.57385196  0.88879400  0.31494201  1
  O  O10  1  0.57385201  0.25891000  0.68505803  1
  O  O11  1  0.00890994  0.82385200  0.18505799  1
