# generated using pymatgen
data_Y2NiMoO6
_symmetry_space_group_name_H-M   'P 1'
_cell_length_a   5.42761898
_cell_length_b   5.64940310
_cell_length_c   8.09941864
_cell_angle_alpha   90.00000000
_cell_angle_beta   90.02449036
_cell_angle_gamma   90.00000000
_symmetry_Int_Tables_number   1
_chemical_formula_structural   Y2NiMoO6
_chemical_formula_sum   'Y4 Ni2 Mo2 O12'
_cell_volume   248.35089168
_cell_formula_units_Z   2
loop_
 _symmetry_equiv_pos_site_id
 _symmetry_equiv_pos_as_xyz
  1  'x, y, z'
loop_
 _atom_site_type_symbol
 _atom_site_label
 _atom_site_symmetry_multiplicity
 _atom_site_fract_x
 _atom_site_fract_y
 _atom_site_fract_z
 _atom_site_occupancy
  Y  Y0  1  0.98502500  0.20524700  0.74914801  1
  Y  Y1  1  0.48502500  0.79475299  0.24914800  1
  Y  Y2  1  0.53008200  0.69263399  0.74401901  1
  Y  Y3  1  0.03008200  0.30736599  0.24401900  1
  Ni  Ni4  1  0.00037800  0.75116199  0.00163800  1
  Ni  Ni5  1  0.50037800  0.24883800  0.50163801  1
  Mo  Mo6  1  0.00170700  0.74605699  0.50172301  1
  Mo  Mo7  1  0.50170700  0.25394300  0.00172300  1
  O  O8  1  0.64907500  0.20950100  0.23075500  1
  O  O9  1  0.19479000  0.06170500  0.06149800  1
  O  O10  1  0.17440400  0.04577100  0.42684801  1
  O  O11  1  0.67440400  0.95422898  0.92684801  1
  O  O12  1  0.69479000  0.93829498  0.56149801  1
  O  O13  1  0.14907500  0.79049899  0.73075501  1
  O  O14  1  0.89836900  0.68014299  0.26670100  1
  O  O15  1  0.28023500  0.53115499  0.44051401  1
  O  O16  1  0.28593500  0.51749199  0.07715600  1
  O  O17  1  0.78593500  0.48250799  0.57715601  1
  O  O18  1  0.78023500  0.46884499  0.94051401  1
  O  O19  1  0.39836900  0.31985699  0.76670101  1
