# generated using pymatgen
data_Li4Co3O8
_symmetry_space_group_name_H-M   'P 1'
_cell_length_a   5.77054691
_cell_length_b   5.77054739
_cell_length_c   5.89830065
_cell_angle_alpha   60.89682388
_cell_angle_beta   60.89683151
_cell_angle_gamma   61.00000381
_symmetry_Int_Tables_number   1
_chemical_formula_structural   Li4Co3O8
_chemical_formula_sum   'Li4 Co3 O8'
_cell_volume   141.79616757
_cell_formula_units_Z   1
loop_
 _symmetry_equiv_pos_site_id
 _symmetry_equiv_pos_as_xyz
  1  'x, y, z'
loop_
 _atom_site_type_symbol
 _atom_site_label
 _atom_site_symmetry_multiplicity
 _atom_site_fract_x
 _atom_site_fract_y
 _atom_site_fract_z
 _atom_site_occupancy
  Li  Li0  1  -0.00000001  0.50000001  0.49999999  1
  Li  Li1  1  0.49999999  0.50000001  0.49999999  1
  Li  Li2  1  0.50000000  0.00000000  0.49999999  1
  Li  Li3  1  -0.00000001  0.50000001  0.00000000  1
  Co  Co4  1  0.49999999  0.50000001  0.99999998  1
  Co  Co5  1  0.50000000  0.00000000  0.99999997  1
  Co  Co6  1  0.00000000  0.00000000  0.00000000  1
  O  O7  1  0.28173998  0.74224301  0.21210900  1
  O  O8  1  0.26987399  0.26987500  0.21962400  1
  O  O9  1  0.74224299  0.28174000  0.21210900  1
  O  O10  1  0.75228498  0.75228301  0.22740000  1
  O  O11  1  0.24771499  0.24771700  0.77259998  1
  O  O12  1  0.25775698  0.71826001  0.78789098  1
  O  O13  1  0.73012598  0.73012501  0.78037598  1
  O  O14  1  0.71825999  0.25775700  0.78789098  1
