# generated using pymatgen
data_KTlCuSe2
_symmetry_space_group_name_H-M   'P 1'
_cell_length_a   6.09401321
_cell_length_b   6.57766390
_cell_length_c   8.01711082
_cell_angle_alpha   65.78092957
_cell_angle_beta   90.00000000
_cell_angle_gamma   90.00000000
_symmetry_Int_Tables_number   1
_chemical_formula_structural   KTlCuSe2
_chemical_formula_sum   'K2 Tl2 Cu2 Se4'
_cell_volume   293.07582630
_cell_formula_units_Z   2
loop_
 _symmetry_equiv_pos_site_id
 _symmetry_equiv_pos_as_xyz
  1  'x, y, z'
loop_
 _atom_site_type_symbol
 _atom_site_label
 _atom_site_symmetry_multiplicity
 _atom_site_fract_x
 _atom_site_fract_y
 _atom_site_fract_z
 _atom_site_occupancy
  K  K0  1  0.24999999  0.57848902  0.84302200  1
  K  K1  1  0.74999997  0.42151101  0.15697799  1
  Tl  Tl2  1  0.24999999  0.20589101  0.58821800  1
  Tl  Tl3  1  0.74999997  0.79410902  0.41178199  1
  Cu  Cu4  1  0.74999997  0.29651601  0.77776401  1
  Se  Se5  1  0.24999999  0.70348402  0.22223599  1
  Se  Se6  1  0.24999999  0.07428000  0.22223600  1
  Cu  Cu7  1  0.74999997  0.92572003  0.77776399  1
  Se  Se8  1  0.00000000  0.00000000  0.00000000  1
  Se  Se9  1  0.49999998  0.00000000  0.00000000  1
