# generated using pymatgen
data_TbZn2
_symmetry_space_group_name_H-M   'P 1'
_cell_length_a   5.37972212
_cell_length_b   5.37972212
_cell_length_c   5.37972212
_cell_angle_alpha   88.52400970
_cell_angle_beta   60.80511093
_cell_angle_gamma   119.10818481
_symmetry_Int_Tables_number   1
_chemical_formula_structural   TbZn2
_chemical_formula_sum   'Tb2 Zn4'
_cell_volume   111.46602285
_cell_formula_units_Z   2
loop_
 _symmetry_equiv_pos_site_id
 _symmetry_equiv_pos_as_xyz
  1  'x, y, z'
loop_
 _atom_site_type_symbol
 _atom_site_label
 _atom_site_symmetry_multiplicity
 _atom_site_fract_x
 _atom_site_fract_y
 _atom_site_fract_z
 _atom_site_occupancy
  Tb  Tb0  1  0.25000002  0.37598800  0.87401198  1
  Tb  Tb1  1  0.75000003  0.62401200  0.12598798  1
  Zn  Zn2  1  0.50000000  0.00000000  0.99999997  1
  Zn  Zn3  1  0.00000000  0.00000000  0.49999999  1
  Zn  Zn4  1  0.00000002  0.50000000  0.49999999  1
  Zn  Zn5  1  0.50000000  0.00000000  0.49999998  1
