# generated using pymatgen
data_SiO3
_symmetry_space_group_name_H-M   'P 1'
_cell_length_a   5.04386425
_cell_length_b   5.04386425
_cell_length_c   8.83342934
_cell_angle_alpha   101.70837402
_cell_angle_beta   100.78334808
_cell_angle_gamma   108.47788239
_symmetry_Int_Tables_number   1
_chemical_formula_structural   SiO3
_chemical_formula_sum   'Si4 O12'
_cell_volume   200.91408821
_cell_formula_units_Z   4
loop_
 _symmetry_equiv_pos_site_id
 _symmetry_equiv_pos_as_xyz
  1  'x, y, z'
loop_
 _atom_site_type_symbol
 _atom_site_label
 _atom_site_symmetry_multiplicity
 _atom_site_fract_x
 _atom_site_fract_y
 _atom_site_fract_z
 _atom_site_occupancy
  Si  Si0  1  0.48197700  0.73197699  0.25000002  1
  Si  Si1  1  0.93029998  0.21749100  0.55530201  1
  Si  Si2  1  0.33781099  0.12500200  0.05530200  1
  Si  Si3  1  0.06970002  0.78250899  0.44469804  1
  O  O4  1  0.66218900  0.87499799  0.94469805  1
  O  O5  1  0.51802299  0.26802300  0.75000003  1
  O  O6  1  0.21088000  0.10049900  0.59974302  1
  O  O7  1  0.49214500  0.42060200  0.19169401  1
  O  O8  1  0.78912000  0.89950099  0.40025703  1
  O  O9  1  0.50075599  0.11113700  0.90025703  1
  O  O10  1  0.22890801  0.80045099  0.30830603  1
  O  O11  1  0.50785500  0.57939799  0.80830604  1
  O  O12  1  0.00000001  0.50000000  0.50000003  1
  O  O13  1  0.49924401  0.88886299  0.09974302  1
  O  O14  1  0.77109198  0.19954900  0.69169402  1
  O  O15  1  0.00000000  0.00000000  0.00000000  1
