# generated using pymatgen
data_Zr5Si4Ru3
_symmetry_space_group_name_H-M   'P 1'
_cell_length_a   4.24681997
_cell_length_b   6.91468096
_cell_length_c   7.22674608
_cell_angle_alpha   90.00000000
_cell_angle_beta   90.00000000
_cell_angle_gamma   90.00000000
_symmetry_Int_Tables_number   1
_chemical_formula_structural   Zr5Si4Ru3
_chemical_formula_sum   'Zr5 Si4 Ru3'
_cell_volume   212.21632697
_cell_formula_units_Z   1
loop_
 _symmetry_equiv_pos_site_id
 _symmetry_equiv_pos_as_xyz
  1  'x, y, z'
loop_
 _atom_site_type_symbol
 _atom_site_label
 _atom_site_symmetry_multiplicity
 _atom_site_fract_x
 _atom_site_fract_y
 _atom_site_fract_z
 _atom_site_occupancy
  Zr  Zr0  1  0.25000000  0.01041400  0.79502199  1
  Zr  Zr1  1  0.25000000  0.51041400  0.70497799  1
  Zr  Zr2  1  0.75000000  0.98958601  0.20497800  1
  Zr  Zr3  1  0.75000000  0.48958600  0.29502200  1
  Zr  Zr4  1  0.25000000  0.81833600  0.42351800  1
  Si  Si5  1  0.25000000  0.31833600  0.07648200  1
  Si  Si6  1  0.75000000  0.18166400  0.57648199  1
  Si  Si7  1  0.75000000  0.68166400  0.92351799  1
  Ru  Ru8  1  0.25000000  0.19870700  0.40621800  1
  Si  Si9  1  0.25000000  0.69870700  0.09378200  1
  Ru  Ru10  1  0.75000000  0.80129300  0.59378199  1
  Ru  Ru11  1  0.75000000  0.30129300  0.90621799  1
