# generated using pymatgen
data_Li5Cu2N7
_symmetry_space_group_name_H-M   'P 1'
_cell_length_a   2.96635389
_cell_length_b   2.98738790
_cell_length_c   13.08169365
_cell_angle_alpha   90.00000000
_cell_angle_beta   90.00000000
_cell_angle_gamma   90.00000000
_symmetry_Int_Tables_number   1
_chemical_formula_structural   Li5Cu2N7
_chemical_formula_sum   'Li5 Cu2 N7'
_cell_volume   115.92538680
_cell_formula_units_Z   1
loop_
 _symmetry_equiv_pos_site_id
 _symmetry_equiv_pos_as_xyz
  1  'x, y, z'
loop_
 _atom_site_type_symbol
 _atom_site_label
 _atom_site_symmetry_multiplicity
 _atom_site_fract_x
 _atom_site_fract_y
 _atom_site_fract_z
 _atom_site_occupancy
  Li  Li0  1  0.00000000  0.00000000  0.81054202  1
  Li  Li1  1  0.50000002  0.00000000  0.00113000  1
  Li  Li2  1  0.00000000  0.50000002  0.49889101  1
  Li  Li3  1  0.00000000  0.00000000  0.18666401  1
  Li  Li4  1  0.50000002  0.50000002  0.68822102  1
  Cu  Cu5  1  0.50000002  0.50000002  0.31338101  1
  Cu  Cu6  1  0.50000002  0.00000000  0.43259301  1
  N  N7  1  0.00000000  0.50000002  0.93491803  1
  N  N8  1  0.00000000  0.50000002  0.06791200  1
  N  N9  1  0.50000002  0.00000000  0.56558702  1
  N  N10  1  0.00000000  0.00000000  0.35982801  1
  N  N11  1  0.50000002  0.50000002  0.86272002  1
  N  N12  1  0.50000002  0.50000002  0.14067700  1
  N  N13  1  0.00000000  0.00000000  0.63693502  1
