# generated using pymatgen
data_Bi5Pd11
_symmetry_space_group_name_H-M   'P 1'
_cell_length_a   5.71053600
_cell_length_b   5.71053648
_cell_length_c   9.32488728
_cell_angle_alpha   90.00000000
_cell_angle_beta   90.00000000
_cell_angle_gamma   120.00000000
_symmetry_Int_Tables_number   1
_chemical_formula_structural   Bi5Pd11
_chemical_formula_sum   'Bi5 Pd11'
_cell_volume   263.34677631
_cell_formula_units_Z   1
loop_
 _symmetry_equiv_pos_site_id
 _symmetry_equiv_pos_as_xyz
  1  'x, y, z'
loop_
 _atom_site_type_symbol
 _atom_site_label
 _atom_site_symmetry_multiplicity
 _atom_site_fract_x
 _atom_site_fract_y
 _atom_site_fract_z
 _atom_site_occupancy
  Bi  Bi0  1  0.00000000  0.00000000  0.49999999  1
  Bi  Bi1  1  0.33333338  0.66666671  0.24999999  1
  Bi  Bi2  1  0.66666669  0.33333336  0.74999998  1
  Bi  Bi3  1  0.00000000  0.00000000  0.00000000  1
  Pd  Pd4  1  0.83090901  0.16909001  0.24999999  1
  Pd  Pd5  1  0.00000004  0.50000003  -0.00000000  1
  Pd  Pd6  1  0.16909106  0.83091006  0.74999998  1
  Pd  Pd7  1  0.66181906  0.83091006  0.74999998  1
  Pd  Pd8  1  0.50000000  0.00000000  0.00000000  1
  Pd  Pd9  1  0.16909103  0.33818202  0.74999998  1
  Pd  Pd10  1  0.50000000  0.00000000  0.49999999  1
  Pd  Pd11  1  0.50000004  0.50000003  0.49999999  1
  Pd  Pd12  1  0.83090905  0.66181804  0.24999999  1
  Pd  Pd13  1  0.33818101  0.16909001  0.24999999  1
  Pd  Pd14  1  0.50000004  0.50000003  -0.00000000  1
  Bi  Bi15  1  0.00000004  0.50000003  0.49999999  1
