# generated using pymatgen
data_In2Ni
_symmetry_space_group_name_H-M   'P 1'
_cell_length_a   4.24485970
_cell_length_b   4.24485970
_cell_length_c   7.31612396
_cell_angle_alpha   73.13588715
_cell_angle_beta   73.13588715
_cell_angle_gamma   60.00000000
_symmetry_Int_Tables_number   1
_chemical_formula_structural   In2Ni
_chemical_formula_sum   'In4 Ni2'
_cell_volume   107.57040126
_cell_formula_units_Z   2
loop_
 _symmetry_equiv_pos_site_id
 _symmetry_equiv_pos_as_xyz
  1  'x, y, z'
loop_
 _atom_site_type_symbol
 _atom_site_label
 _atom_site_symmetry_multiplicity
 _atom_site_fract_x
 _atom_site_fract_y
 _atom_site_fract_z
 _atom_site_occupancy
  In  In0  1  0.62962401  0.62962404  0.11112803  1
  In  In1  1  0.12016700  0.12016701  0.63949901  1
  In  In2  1  0.87983301  0.87983306  0.36050104  1
  In  In3  1  0.37037600  0.37037602  0.88887203  1
  Ni  Ni4  1  0.50000001  0.50000003  0.50000003  1
  Ni  Ni5  1  0.00000000  0.00000000  0.00000000  1
