# generated using pymatgen
data_Lu3Ga5Ni3
_symmetry_space_group_name_H-M   'P 1'
_cell_length_a   4.18958807
_cell_length_b   6.64667416
_cell_length_c   7.98515320
_cell_angle_alpha   114.59424591
_cell_angle_beta   105.20872498
_cell_angle_gamma   90.00000000
_symmetry_Int_Tables_number   1
_chemical_formula_structural   Lu3Ga5Ni3
_chemical_formula_sum   'Lu3 Ga5 Ni3'
_cell_volume   193.59041437
_cell_formula_units_Z   1
loop_
 _symmetry_equiv_pos_site_id
 _symmetry_equiv_pos_as_xyz
  1  'x, y, z'
loop_
 _atom_site_type_symbol
 _atom_site_label
 _atom_site_symmetry_multiplicity
 _atom_site_fract_x
 _atom_site_fract_y
 _atom_site_fract_z
 _atom_site_occupancy
  Lu  Lu0  1  0.13009700  0.13009700  0.26019400  1
  Lu  Lu1  1  0.86990300  0.86990297  0.73980600  1
  Lu  Lu2  1  0.00000000  0.49999998  -0.00000001  1
  Ga  Ga3  1  0.33105400  0.14139599  0.66210801  1
  Ga  Ga4  1  0.66894600  0.85860397  0.33789199  1
  Ga  Ga5  1  0.33105400  0.52071198  0.66210800  1
  Ga  Ga6  1  0.66894600  0.47928798  0.33789200  1
  Ga  Ga7  1  0.21681700  0.71681697  0.43363399  1
  Ni  Ni8  1  0.50000000  0.19159999  0.00000000  1
  Ni  Ni9  1  0.50000000  0.80839997  -0.00000001  1
  Ni  Ni10  1  0.78318299  0.28318299  0.56636601  1
