# generated using pymatgen
data_Li2FeO4
_symmetry_space_group_name_H-M   'P 1'
_cell_length_a   6.06714010
_cell_length_b   6.06856680
_cell_length_c   6.18449831
_cell_angle_alpha   117.57451630
_cell_angle_beta   119.30960083
_cell_angle_gamma   91.66543579
_symmetry_Int_Tables_number   1
_chemical_formula_structural   Li2FeO4
_chemical_formula_sum   'Li4 Fe2 O8'
_cell_volume   166.09552430
_cell_formula_units_Z   2
loop_
 _symmetry_equiv_pos_site_id
 _symmetry_equiv_pos_as_xyz
  1  'x, y, z'
loop_
 _atom_site_type_symbol
 _atom_site_label
 _atom_site_symmetry_multiplicity
 _atom_site_fract_x
 _atom_site_fract_y
 _atom_site_fract_z
 _atom_site_occupancy
  Li  Li0  1  0.62570699  0.87576802  0.75004802  1
  Li  Li1  1  0.37430100  0.12426700  0.25000000  1
  Li  Li2  1  0.50002599  0.49988801  0.99986201  1
  Li  Li3  1  -0.00000001  0.50000601  0.99997403  1
  Fe  Fe4  1  0.99998299  0.49988101  0.49986699  1
  Fe  Fe5  1  0.99997900  0.00001000  0.50002097  1
  O  O6  1  0.76928799  0.30527501  0.05094799  1
  O  O7  1  0.75409699  0.71817502  0.44892401  1
  O  O8  1  0.19123299  0.72453402  0.46641103  1
  O  O9  1  0.75833199  0.72513102  0.03393401  1
  O  O10  1  0.24166300  0.27489301  0.96610501  1
  O  O11  1  0.80877199  0.27550101  0.53363199  1
  O  O12  1  0.24590500  0.28188301  0.55115201  1
  O  O13  1  0.23071599  0.69478802  0.94912203  1
