# generated using pymatgen
data_TiZn3
_symmetry_space_group_name_H-M   'P 1'
_cell_length_a   4.65949202
_cell_length_b   5.75272799
_cell_length_c   5.75272751
_cell_angle_alpha   120.00000000
_cell_angle_beta   90.00000000
_cell_angle_gamma   90.00000000
_symmetry_Int_Tables_number   1
_chemical_formula_structural   TiZn3
_chemical_formula_sum   'Ti2 Zn6'
_cell_volume   133.54168318
_cell_formula_units_Z   2
loop_
 _symmetry_equiv_pos_site_id
 _symmetry_equiv_pos_as_xyz
  1  'x, y, z'
loop_
 _atom_site_type_symbol
 _atom_site_label
 _atom_site_symmetry_multiplicity
 _atom_site_fract_x
 _atom_site_fract_y
 _atom_site_fract_z
 _atom_site_occupancy
  Ti  Ti0  1  0.25000000  0.66666665  0.33333329  1
  Ti  Ti1  1  0.75000000  0.33333332  0.66666664  1
  Zn  Zn2  1  0.75000000  0.83292098  0.16707895  1
  Zn  Zn3  1  0.75000000  0.33415799  0.16707898  1
  Zn  Zn4  1  0.75000000  0.83292098  0.66584195  1
  Zn  Zn5  1  0.25000000  0.16707900  0.83292099  1
  Zn  Zn6  1  0.25000000  0.66584198  0.83292096  1
  Zn  Zn7  1  0.25000000  0.16707900  0.33415799  1
