# generated using pymatgen
data_TiFe2O5
_symmetry_space_group_name_H-M   'P 1'
_cell_length_a   5.04340792
_cell_length_b   5.64301300
_cell_length_c   7.06332254
_cell_angle_alpha   108.34416962
_cell_angle_beta   90.00000000
_cell_angle_gamma   116.54316711
_symmetry_Int_Tables_number   1
_chemical_formula_structural   TiFe2O5
_chemical_formula_sum   'Ti2 Fe4 O10'
_cell_volume   168.33789485
_cell_formula_units_Z   2
loop_
 _symmetry_equiv_pos_site_id
 _symmetry_equiv_pos_as_xyz
  1  'x, y, z'
loop_
 _atom_site_type_symbol
 _atom_site_label
 _atom_site_symmetry_multiplicity
 _atom_site_fract_x
 _atom_site_fract_y
 _atom_site_fract_z
 _atom_site_occupancy
  Ti  Ti0  1  0.00000000  0.00000000  0.50000000  1
  Ti  Ti1  1  0.00000000  0.00000000  0.00000000  1
  Fe  Fe2  1  0.63925403  0.27249401  0.72571500  1
  Fe  Fe3  1  0.63324002  0.27249401  0.22571500  1
  Fe  Fe4  1  0.36676005  0.72750604  0.77428501  1
  Fe  Fe5  1  0.36074605  0.72750604  0.27428501  1
  O  O6  1  0.75036002  0.16892001  0.94904300  1
  O  O7  1  0.41856002  0.16892001  0.44904300  1
  O  O8  1  0.03179102  0.36975602  0.64985300  1
  O  O9  1  0.66203505  0.63024403  0.85014701  1
  O  O10  1  0.33796503  0.36975602  0.14985301  1
  O  O11  1  0.96820905  0.63024403  0.35014701  1
  O  O12  1  0.58144005  0.83108004  0.55095701  1
  O  O13  1  0.19647500  0.00000000  0.75000000  1
  O  O14  1  0.24964005  0.83108004  0.05095702  1
  O  O15  1  0.80352501  0.00000000  0.25000000  1
