# generated using pymatgen
data_Rb2Zr3WO14
_symmetry_space_group_name_H-M   'P 1'
_cell_length_a   4.92731619
_cell_length_b   4.92731619
_cell_length_c   16.26155663
_cell_angle_alpha   88.70161438
_cell_angle_beta   88.70161438
_cell_angle_gamma   65.25917053
_symmetry_Int_Tables_number   1
_chemical_formula_structural   Rb2Zr3WO14
_chemical_formula_sum   'Rb2 Zr3 W1 O14'
_cell_volume   358.43638574
_cell_formula_units_Z   1
loop_
 _symmetry_equiv_pos_site_id
 _symmetry_equiv_pos_as_xyz
  1  'x, y, z'
loop_
 _atom_site_type_symbol
 _atom_site_label
 _atom_site_symmetry_multiplicity
 _atom_site_fract_x
 _atom_site_fract_y
 _atom_site_fract_z
 _atom_site_occupancy
  Zr  Zr0  1  0.47549901  0.52450099  0.24999999  1
  Rb  Rb1  1  0.52450101  0.47549899  0.75000000  1
  Zr  Zr2  1  0.50000001  0.49999999  0.49999999  1
  Zr  Zr3  1  0.50000001  0.49999999  -0.00000002  1
  W  W4  1  0.13784500  0.12336000  0.40668200  1
  Rb  Rb5  1  0.87664002  0.86215498  0.09331797  1
  O  O6  1  0.86215502  0.87663998  0.59331798  1
  O  O7  1  0.12336000  0.13784500  0.90668201  1
  O  O8  1  0.22698200  0.12969000  0.30526100  1
  O  O9  1  0.87031002  0.77301798  0.19473897  1
  O  O10  1  0.77301802  0.87030998  0.69473898  1
  O  O11  1  0.12969001  0.22698199  0.80526101  1
  O  O12  1  0.17737502  0.75004998  0.41799299  1
  O  O13  1  0.24995003  0.82262498  0.08200698  1
  O  O14  1  0.82262500  0.24994999  0.58200699  1
  O  O15  1  0.75005000  0.17737500  0.91799300  1
  O  O16  1  0.74650500  0.30357599  0.39854299  1
  O  O17  1  0.69642400  0.25349499  0.10145698  1
  O  O18  1  0.25349502  0.69642398  0.60145699  1
  O  O19  1  0.30357602  0.74650498  0.89854300  1
