# generated using pymatgen
data_Eu2Ni3Pd4
_symmetry_space_group_name_H-M   'P 1'
_cell_length_a   6.14907408
_cell_length_b   8.06974602
_cell_length_c   8.23930454
_cell_angle_alpha   90.00000000
_cell_angle_beta   111.91032410
_cell_angle_gamma   90.00000000
_symmetry_Int_Tables_number   1
_chemical_formula_structural   Eu2Ni3Pd4
_chemical_formula_sum   'Eu4 Ni6 Pd8'
_cell_volume   379.31500084
_cell_formula_units_Z   2
loop_
 _symmetry_equiv_pos_site_id
 _symmetry_equiv_pos_as_xyz
  1  'x, y, z'
loop_
 _atom_site_type_symbol
 _atom_site_label
 _atom_site_symmetry_multiplicity
 _atom_site_fract_x
 _atom_site_fract_y
 _atom_site_fract_z
 _atom_site_occupancy
  Eu  Eu0  1  0.11396800  0.58304400  0.22793601  1
  Eu  Eu1  1  0.38603200  0.08304400  0.77206404  1
  Eu  Eu2  1  0.61396801  0.91695600  0.22793604  1
  Eu  Eu3  1  0.88603201  0.41695600  0.77206407  1
  Ni  Ni4  1  0.03435800  0.75000000  0.56871602  1
  Ni  Ni5  1  0.00000000  0.00000000  0.00000000  1
  Ni  Ni6  1  0.53435801  0.75000000  0.56871604  1
  Ni  Ni7  1  0.50000001  0.50000000  0.00000002  1
  Ni  Ni8  1  0.96564201  0.25000000  0.43128406  1
  Ni  Ni9  1  0.46564201  0.25000000  0.43128404  1
  Pd  Pd10  1  0.70115801  0.75000000  0.90231606  1
  Pd  Pd11  1  0.20115800  0.75000000  0.90231604  1
  Pd  Pd12  1  0.29884200  0.25000000  0.09768402  1
  Pd  Pd13  1  0.68687301  0.55189900  0.37374604  1
  Pd  Pd14  1  0.79884201  0.25000000  0.09768404  1
  Pd  Pd15  1  0.81312701  0.05189900  0.62625406  1
  Pd  Pd16  1  0.18687300  0.94810100  0.37374602  1
  Pd  Pd17  1  0.31312700  0.44810100  0.62625403  1
