# generated using pymatgen
data_Y2Zr3CuS4
_symmetry_space_group_name_H-M   'P 1'
_cell_length_a   6.91280222
_cell_length_b   6.91280270
_cell_length_c   7.68409109
_cell_angle_alpha   90.00000000
_cell_angle_beta   90.00000000
_cell_angle_gamma   120.00000000
_symmetry_Int_Tables_number   1
_chemical_formula_structural   Y2Zr3CuS4
_chemical_formula_sum   'Y2 Zr3 Cu1 S4'
_cell_volume   318.00315542
_cell_formula_units_Z   1
loop_
 _symmetry_equiv_pos_site_id
 _symmetry_equiv_pos_as_xyz
  1  'x, y, z'
loop_
 _atom_site_type_symbol
 _atom_site_label
 _atom_site_symmetry_multiplicity
 _atom_site_fract_x
 _atom_site_fract_y
 _atom_site_fract_z
 _atom_site_occupancy
  Y  Y0  1  0.33333337  0.66666669  0.49999999  1
  Y  Y1  1  0.66666667  0.33333335  0.49999999  1
  Zr  Zr2  1  0.00000000  0.00000000  0.64956899  1
  Zr  Zr3  1  0.00000000  0.00000000  0.35043100  1
  S  S4  1  0.00000005  0.64451103  0.26785700  1
  Zr  Zr5  1  0.64451098  0.00000000  0.26785700  1
  S  S6  1  0.35548901  0.35548901  0.26785700  1
  Cu  Cu7  1  0.35548899  0.00000000  0.73214299  1
  S  S8  1  0.99999999  0.35548901  0.73214299  1
  S  S9  1  0.64451103  0.64451103  0.73214299  1
