# generated using pymatgen
data_Ce2Si3Ni
_symmetry_space_group_name_H-M   'P 1'
_cell_length_a   4.18910408
_cell_length_b   8.14658356
_cell_length_c   8.14658356
_cell_angle_alpha   120.00000000
_cell_angle_beta   90.00000000
_cell_angle_gamma   90.00000000
_symmetry_Int_Tables_number   1
_chemical_formula_structural   Ce2Si3Ni
_chemical_formula_sum   'Ce4 Si6 Ni2'
_cell_volume   240.77024520
_cell_formula_units_Z   2
loop_
 _symmetry_equiv_pos_site_id
 _symmetry_equiv_pos_as_xyz
  1  'x, y, z'
loop_
 _atom_site_type_symbol
 _atom_site_label
 _atom_site_symmetry_multiplicity
 _atom_site_fract_x
 _atom_site_fract_y
 _atom_site_fract_z
 _atom_site_occupancy
  Ce  Ce0  1  -0.00000000  0.33333334  0.66666664  1
  Ce  Ce1  1  -0.00000000  0.31576601  0.15788298  1
  Ce  Ce2  1  -0.00000000  0.84211703  0.68423395  1
  Ce  Ce3  1  -0.00000000  0.84211703  0.15788296  1
  Si  Si4  1  0.49999999  0.00000000  -0.00000000  1
  Si  Si5  1  0.49999999  0.67735002  0.83867495  1
  Si  Si6  1  0.49999999  0.16132500  0.32264999  1
  Si  Si7  1  0.49999999  0.16132500  0.83867498  1
  Si  Si8  1  0.49999999  0.01073700  0.50536899  1
  Si  Si9  1  0.49999999  0.49463201  0.50536897  1
  Ni  Ni10  1  0.49999999  0.49463201  0.98926396  1
  Ni  Ni11  1  0.49999999  0.66666669  0.33333329  1
