# generated using pymatgen
data_LiSm5MgSn2
_symmetry_space_group_name_H-M   'P 1'
_cell_length_a   3.82310200
_cell_length_b   8.22559452
_cell_length_c   8.23348522
_cell_angle_alpha   119.96830750
_cell_angle_beta   90.00000000
_cell_angle_gamma   90.00000000
_symmetry_Int_Tables_number   1
_chemical_formula_structural   LiSm5MgSn2
_chemical_formula_sum   'Li1 Sm5 Mg1 Sn2'
_cell_volume   224.30354089
_cell_formula_units_Z   1
loop_
 _symmetry_equiv_pos_site_id
 _symmetry_equiv_pos_as_xyz
  1  'x, y, z'
loop_
 _atom_site_type_symbol
 _atom_site_label
 _atom_site_symmetry_multiplicity
 _atom_site_fract_x
 _atom_site_fract_y
 _atom_site_fract_z
 _atom_site_occupancy
  Sm  Sm0  1  0.50000000  0.66803103  1.00000009  1
  Sm  Sm1  1  0.50000000  0.33189701  0.33149004  1
  Sm  Sm2  1  0.50000000  0.00040700  0.66851003  1
  Sm  Sm3  1  1.00000000  0.33333335  0.66672139  1
  Sm  Sm4  1  1.00000000  0.66661203  0.33327873  1
  Li  Li5  1  1.00000000  0.99978904  1.00000012  1
  Sn  Sn6  1  -0.00000000  0.33351601  1.00000007  1
  Sn  Sn7  1  -0.00000000  0.66623103  0.66611708  1
  Mg  Mg8  1  1.00000000  0.00011400  0.33388301  1
