# generated using pymatgen
data_YInAg
_symmetry_space_group_name_H-M   'P 1'
_cell_length_a   3.93287849
_cell_length_b   4.70111990
_cell_length_c   4.70111990
_cell_angle_alpha   71.03682709
_cell_angle_beta   78.91117859
_cell_angle_gamma   78.91117859
_symmetry_Int_Tables_number   1
_chemical_formula_structural   YInAg
_chemical_formula_sum   'Y1 In1 Ag1'
_cell_volume   79.87349978
_cell_formula_units_Z   1
loop_
 _symmetry_equiv_pos_site_id
 _symmetry_equiv_pos_as_xyz
  1  'x, y, z'
loop_
 _atom_site_type_symbol
 _atom_site_label
 _atom_site_symmetry_multiplicity
 _atom_site_fract_x
 _atom_site_fract_y
 _atom_site_fract_z
 _atom_site_occupancy
  Y  Y0  1  0.00000000  0.00000000  0.00000000  1
  In  In1  1  0.35250500  0.33654999  0.33654999  1
  Ag  Ag2  1  0.64749501  0.66344998  0.66344998  1
