# generated using pymatgen
data_ZnAgS2
_symmetry_space_group_name_H-M   'P 1'
_cell_length_a   5.70487404
_cell_length_b   5.70487404
_cell_length_c   6.69350958
_cell_angle_alpha   115.22345734
_cell_angle_beta   115.22345734
_cell_angle_gamma   90.00000000
_symmetry_Int_Tables_number   1
_chemical_formula_structural   ZnAgS2
_chemical_formula_sum   'Zn2 Ag2 S4'
_cell_volume   173.83815506
_cell_formula_units_Z   2
loop_
 _symmetry_equiv_pos_site_id
 _symmetry_equiv_pos_as_xyz
  1  'x, y, z'
loop_
 _atom_site_type_symbol
 _atom_site_label
 _atom_site_symmetry_multiplicity
 _atom_site_fract_x
 _atom_site_fract_y
 _atom_site_fract_z
 _atom_site_occupancy
  Zn  Zn0  1  0.50000001  0.50000000  0.00000001  1
  Zn  Zn1  1  0.25000001  0.75000000  0.50000001  1
  Ag  Ag2  1  0.00000000  0.00000000  0.00000000  1
  Ag  Ag3  1  0.75000000  0.25000000  0.50000001  1
  S  S4  1  0.87500001  0.82980000  0.25000002  1
  S  S5  1  0.37500001  0.42020000  0.25000001  1
  S  S6  1  0.17020001  0.62500000  0.75000001  1
  S  S7  1  0.57980000  0.12500000  0.75000000  1
