# generated using pymatgen
data_EuCuS2
_symmetry_space_group_name_H-M   'P 1'
_cell_length_a   3.61104012
_cell_length_b   3.61104012
_cell_length_c   6.86368370
_cell_angle_alpha   74.74863434
_cell_angle_beta   74.74863434
_cell_angle_gamma   59.99999619
_symmetry_Int_Tables_number   1
_chemical_formula_structural   EuCuS2
_chemical_formula_sum   'Eu1 Cu1 S2'
_cell_volume   73.84692864
_cell_formula_units_Z   1
loop_
 _symmetry_equiv_pos_site_id
 _symmetry_equiv_pos_as_xyz
  1  'x, y, z'
loop_
 _atom_site_type_symbol
 _atom_site_label
 _atom_site_symmetry_multiplicity
 _atom_site_fract_x
 _atom_site_fract_y
 _atom_site_fract_z
 _atom_site_occupancy
  Eu  Eu0  1  0.00000000  0.00000000  0.00000000  1
  Cu  Cu1  1  0.50000001  0.50000001  0.49999999  1
  S  S2  1  0.77336002  0.77336002  0.67991998  1
  S  S3  1  0.22664001  0.22664001  0.32008000  1
