# generated using pymatgen
data_Zr10Pb7W
_symmetry_space_group_name_H-M   'P 1'
_cell_length_a   8.39427185
_cell_length_b   9.65630341
_cell_length_c   8.39427185
_cell_angle_alpha   115.76318359
_cell_angle_beta   90.00000000
_cell_angle_gamma   115.76318359
_symmetry_Int_Tables_number   1
_chemical_formula_structural   Zr10Pb7W
_chemical_formula_sum   'Zr10 Pb7 W1'
_cell_volume   536.69315682
_cell_formula_units_Z   1
loop_
 _symmetry_equiv_pos_site_id
 _symmetry_equiv_pos_as_xyz
  1  'x, y, z'
loop_
 _atom_site_type_symbol
 _atom_site_label
 _atom_site_symmetry_multiplicity
 _atom_site_fract_x
 _atom_site_fract_y
 _atom_site_fract_z
 _atom_site_occupancy
  Zr  Zr0  1  0.50000001  0.00000000  0.50000001  1
  Zr  Zr1  1  0.00000000  0.00000000  0.00000000  1
  Zr  Zr2  1  0.48642502  0.30249701  0.31607202  1
  Zr  Zr3  1  0.81607203  0.30249701  0.98642503  1
  Zr  Zr4  1  0.98642503  0.30249701  0.48642502  1
  Zr  Zr5  1  0.31607202  0.30249701  0.81607203  1
  Zr  Zr6  1  0.51357505  0.69750302  0.68392805  1
  Zr  Zr7  1  0.18392804  0.69750302  0.01357504  1
  Zr  Zr8  1  0.01357504  0.69750302  0.51357505  1
  Zr  Zr9  1  0.68392805  0.69750302  0.18392804  1
  Pb  Pb10  1  0.75000004  0.50000001  0.75000004  1
  Pb  Pb11  1  0.25000003  0.50000001  0.25000003  1
  Pb  Pb12  1  0.12411600  0.00000000  0.37588401  1
  Pb  Pb13  1  0.87588402  0.00000000  0.62411601  1
  Pb  Pb14  1  0.62411607  1.00000002  0.12411606  1
  Pb  Pb15  1  0.37588401  0.00000000  0.87588402  1
  Pb  Pb16  1  0.75000004  0.50000001  0.25000003  1
  W  W17  1  0.25000003  0.50000001  0.75000004  1
