# generated using pymatgen
data_Na2Ni3O5
_symmetry_space_group_name_H-M   'P 1'
_cell_length_a   3.87916994
_cell_length_b   5.45022249
_cell_length_c   8.83219147
_cell_angle_alpha   103.26239014
_cell_angle_beta   90.00000000
_cell_angle_gamma   110.84693146
_symmetry_Int_Tables_number   1
_chemical_formula_structural   Na2Ni3O5
_chemical_formula_sum   'Na2 Ni3 O5'
_cell_volume   169.16886705
_cell_formula_units_Z   1
loop_
 _symmetry_equiv_pos_site_id
 _symmetry_equiv_pos_as_xyz
  1  'x, y, z'
loop_
 _atom_site_type_symbol
 _atom_site_label
 _atom_site_symmetry_multiplicity
 _atom_site_fract_x
 _atom_site_fract_y
 _atom_site_fract_z
 _atom_site_occupancy
  Na  Na0  1  0.60758699  0.21517401  0.79200102  1
  Na  Na1  1  0.39241295  0.78482602  0.20799901  1
  Ni  Ni2  1  0.13924798  0.27849601  0.50197201  1
  Ni  Ni3  1  0.86075196  0.72150402  0.49802802  1
  Ni  Ni4  1  0.33459496  0.66919002  0.87699702  1
  O  O5  1  0.66540499  0.33081001  0.12300301  1
  O  O6  1  0.68526898  0.37053801  0.55769401  1
  O  O7  1  0.02419100  0.04838200  0.66178801  1
  O  O8  1  0.97580894  0.95161802  0.33821202  1
  O  O9  1  0.31473096  0.62946201  0.44230602  1
