# generated using pymatgen
data_VCuO4
_symmetry_space_group_name_H-M   'P 1'
_cell_length_a   5.21905327
_cell_length_b   5.21919775
_cell_length_c   8.35470867
_cell_angle_alpha   80.49473572
_cell_angle_beta   80.48992157
_cell_angle_gamma   63.86684799
_symmetry_Int_Tables_number   1
_chemical_formula_structural   VCuO4
_chemical_formula_sum   'V2 Cu2 O8'
_cell_volume   200.40440047
_cell_formula_units_Z   2
loop_
 _symmetry_equiv_pos_site_id
 _symmetry_equiv_pos_as_xyz
  1  'x, y, z'
loop_
 _atom_site_type_symbol
 _atom_site_label
 _atom_site_symmetry_multiplicity
 _atom_site_fract_x
 _atom_site_fract_y
 _atom_site_fract_z
 _atom_site_occupancy
  V  V0  1  0.32047600  0.32051600  0.69560102  1
  V  V1  1  0.67952400  0.67951000  0.30439002  1
  Cu  Cu2  1  0.00000800  0.00001700  0.50002301  1
  Cu  Cu3  1  0.99996400  0.99992200  0.99998504  1
  O  O4  1  0.18368699  0.68097200  0.66981201  1
  O  O5  1  0.81627401  0.31908800  0.33023803  1
  O  O6  1  0.20642000  0.20642800  0.56107101  1
  O  O7  1  0.31912699  0.81625100  0.33024901  1
  O  O8  1  0.79367800  0.79365400  0.43888903  1
  O  O9  1  0.78043200  0.78037800  0.11316702  1
  O  O10  1  0.68092501  0.18375100  0.66981003  1
  O  O11  1  0.21948600  0.21951200  0.88676402  1
