# generated using pymatgen
data_In5As7Os6
_symmetry_space_group_name_H-M   'P 1'
_cell_length_a   6.61707020
_cell_length_b   7.46951580
_cell_length_c   7.13515186
_cell_angle_alpha   118.52995300
_cell_angle_beta   90.00000000
_cell_angle_gamma   116.29151154
_symmetry_Int_Tables_number   1
_chemical_formula_structural   In5As7Os6
_chemical_formula_sum   'In5 As7 Os6'
_cell_volume   267.58049154
_cell_formula_units_Z   1
loop_
 _symmetry_equiv_pos_site_id
 _symmetry_equiv_pos_as_xyz
  1  'x, y, z'
loop_
 _atom_site_type_symbol
 _atom_site_label
 _atom_site_symmetry_multiplicity
 _atom_site_fract_x
 _atom_site_fract_y
 _atom_site_fract_z
 _atom_site_occupancy
  In  In0  1  0.60363899  0.61442999  0.55721501  1
  In  In1  1  0.98920898  0.38557099  0.44278601  1
  In  In2  1  0.99360098  0.43438699  0.96719302  1
  In  In3  1  0.55921299  0.56561199  0.03280600  1
  In  In4  1  0.41455699  0.01705700  0.75852901  1
  As  As5  1  0.39750100  0.98294398  0.24147201  1
  As  As6  1  0.02861900  0.05527400  0.77763702  1
  As  As7  1  0.66360198  0.33411799  0.17439800  1
  As  As8  1  0.32948400  0.66588199  0.82560202  1
  As  As9  1  0.97334498  0.94472598  0.22236301  1
  As  As10  1  0.66360198  0.33411799  0.65972001  1
  As  As11  1  0.32948400  0.66588199  0.34028001  1
  Os  Os12  1  0.73977999  0.99999998  1.00000002  1
  Os  Os13  1  0.73977998  0.00000000  0.50000001  1
  Os  Os14  1  0.25806500  0.25773799  0.59518601  1
  Os  Os15  1  0.00032801  0.74226298  0.83744802  1
  Os  Os16  1  0.25806400  0.25773699  0.16255200  1
  Os  Os17  1  0.00032701  0.74226198  0.40481401  1
