# generated using pymatgen
data_BaTaN2
_symmetry_space_group_name_H-M   'P 1'
_cell_length_a   4.38893986
_cell_length_b   6.01970005
_cell_length_c   6.48730946
_cell_angle_alpha   90.00000000
_cell_angle_beta   109.77158356
_cell_angle_gamma   90.00000000
_symmetry_Int_Tables_number   1
_chemical_formula_structural   BaTaN2
_chemical_formula_sum   'Ba2 Ta2 N4'
_cell_volume   161.29138613
_cell_formula_units_Z   2
loop_
 _symmetry_equiv_pos_site_id
 _symmetry_equiv_pos_as_xyz
  1  'x, y, z'
loop_
 _atom_site_type_symbol
 _atom_site_label
 _atom_site_symmetry_multiplicity
 _atom_site_fract_x
 _atom_site_fract_y
 _atom_site_fract_z
 _atom_site_occupancy
  Ba  Ba0  1  0.29393001  0.74999999  0.58786002  1
  Ba  Ba1  1  0.70607003  0.25000000  0.41214003  1
  Ta  Ta2  1  0.00325000  0.74999999  0.00650000  1
  Ta  Ta3  1  0.99675005  0.25000000  0.99350004  1
  N  N4  1  0.11236001  0.00659000  0.22472001  1
  N  N5  1  0.88764004  0.50659000  0.77528004  1
  N  N6  1  0.11236001  0.49341000  0.22472001  1
  N  N7  1  0.88764004  0.99340999  0.77528004  1
