# generated using pymatgen
data_Ag3(CO3)4
_symmetry_space_group_name_H-M   'P 1'
_cell_length_a   5.73267841
_cell_length_b   6.50557375
_cell_length_c   8.14487267
_cell_angle_alpha   85.73061371
_cell_angle_beta   74.65962219
_cell_angle_gamma   67.26528931
_symmetry_Int_Tables_number   1
_chemical_formula_structural   Ag3(CO3)4
_chemical_formula_sum   'Ag3 C4 O12'
_cell_volume   270.04350009
_cell_formula_units_Z   1
loop_
 _symmetry_equiv_pos_site_id
 _symmetry_equiv_pos_as_xyz
  1  'x, y, z'
loop_
 _atom_site_type_symbol
 _atom_site_label
 _atom_site_symmetry_multiplicity
 _atom_site_fract_x
 _atom_site_fract_y
 _atom_site_fract_z
 _atom_site_occupancy
  Ag  Ag0  1  0.26263003  0.48751901  0.81607800  1
  Ag  Ag1  1  0.09356604  0.97959702  0.00032995  1
  Ag  Ag2  1  0.86526904  0.51574201  0.50233300  1
  C  C3  1  0.00368102  0.63055201  0.21646997  1
  C  C4  1  0.02444301  0.12134400  0.27951600  1
  C  C5  1  0.42025304  0.88244902  0.72431998  1
  C  C6  1  0.83346003  0.34586401  0.79055101  1
  O  O7  1  0.09530903  0.68428501  0.05732697  1
  O  O8  1  0.24046901  0.07713000  0.15321500  1
  O  O9  1  0.13155603  0.60826701  0.33005398  1
  O  O10  1  0.79394504  0.59247301  0.25809699  1
  O  O11  1  0.84707102  0.07666700  0.23779801  1
  O  O12  1  0.00395301  0.19965600  0.42276700  1
  O  O13  1  0.60703405  0.81820502  0.59145698  1
  O  O14  1  0.22112104  0.81958402  0.76400798  1
  O  O15  1  0.01735702  0.41849401  0.71749400  1
  O  O16  1  0.64293803  0.39627001  0.72049001  1
  O  O17  1  0.40862701  0.01624600  0.84112003  1
  O  O18  1  0.83662403  0.23359700  0.92911002  1
