# generated using pymatgen
data_ZrGa12
_symmetry_space_group_name_H-M   'P 1'
_cell_length_a   5.46017408
_cell_length_b   5.46017361
_cell_length_c   9.00659084
_cell_angle_alpha   90.00000000
_cell_angle_beta   90.00000000
_cell_angle_gamma   120.00000000
_symmetry_Int_Tables_number   1
_chemical_formula_structural   ZrGa12
_chemical_formula_sum   'Zr1 Ga12'
_cell_volume   232.54339368
_cell_formula_units_Z   1
loop_
 _symmetry_equiv_pos_site_id
 _symmetry_equiv_pos_as_xyz
  1  'x, y, z'
loop_
 _atom_site_type_symbol
 _atom_site_label
 _atom_site_symmetry_multiplicity
 _atom_site_fract_x
 _atom_site_fract_y
 _atom_site_fract_z
 _atom_site_occupancy
  Zr  Zr0  1  0.00000000  0.00000000  0.00000000  1
  Ga  Ga1  1  0.49999997  0.49999999  0.24852600  1
  Ga  Ga2  1  -0.00000002  0.49999999  0.75147401  1
  Ga  Ga3  1  0.49999997  0.49999999  0.75147401  1
  Ga  Ga4  1  0.49999999  0.00000000  0.75147401  1
  Ga  Ga5  1  0.49999999  0.00000000  0.24852600  1
  Ga  Ga6  1  -0.00000002  0.49999999  0.24852600  1
  Ga  Ga7  1  0.66666664  0.33333333  0.50000001  1
  Ga  Ga8  1  0.33333330  0.66666666  0.50000001  1
  Ga  Ga9  1  0.66666664  0.33333333  -0.00000000  1
  Ga  Ga10  1  0.33333330  0.66666666  -0.00000000  1
  Ga  Ga11  1  0.00000000  0.00000000  0.66638801  1
  Ga  Ga12  1  0.00000000  0.00000000  0.33361201  1
