# generated using pymatgen
data_Zr2Rh
_symmetry_space_group_name_H-M   'P 1'
_cell_length_a   3.27279997
_cell_length_b   7.88935423
_cell_length_c   7.88935375
_cell_angle_alpha   119.99623871
_cell_angle_beta   90.00000000
_cell_angle_gamma   90.00000000
_symmetry_Int_Tables_number   1
_chemical_formula_structural   Zr2Rh
_chemical_formula_sum   'Zr6 Rh3'
_cell_volume   176.42065866
_cell_formula_units_Z   3
loop_
 _symmetry_equiv_pos_site_id
 _symmetry_equiv_pos_as_xyz
  1  'x, y, z'
loop_
 _atom_site_type_symbol
 _atom_site_label
 _atom_site_symmetry_multiplicity
 _atom_site_fract_x
 _atom_site_fract_y
 _atom_site_fract_z
 _atom_site_occupancy
  Zr  Zr0  1  0.50000000  0.39871698  0.39871697  1
  Zr  Zr1  1  0.50000000  0.60126796  0.00000196  1
  Zr  Zr2  1  0.50000000  0.00000200  0.60126800  1
  Zr  Zr3  1  -0.00000000  0.74918896  0.74918895  1
  Zr  Zr4  1  -0.00000000  0.25088299  0.99998598  1
  Zr  Zr5  1  -0.00000000  0.99998594  0.25088294  1
  Rh  Rh6  1  -0.00000000  0.66666663  0.33333329  1
  Rh  Rh7  1  -0.00000000  0.33333331  0.66666665  1
  Rh  Rh8  1  0.50000000  0.00003600  0.00003600  1
