# generated using pymatgen
data_Zr2AlSi3
_symmetry_space_group_name_H-M   'P 1'
_cell_length_a   3.99441290
_cell_length_b   6.65993309
_cell_length_c   7.72627211
_cell_angle_alpha   90.00000000
_cell_angle_beta   90.00000000
_cell_angle_gamma   90.00000000
_symmetry_Int_Tables_number   1
_chemical_formula_structural   Zr2AlSi3
_chemical_formula_sum   'Zr4 Al2 Si6'
_cell_volume   205.53832864
_cell_formula_units_Z   2
loop_
 _symmetry_equiv_pos_site_id
 _symmetry_equiv_pos_as_xyz
  1  'x, y, z'
loop_
 _atom_site_type_symbol
 _atom_site_label
 _atom_site_symmetry_multiplicity
 _atom_site_fract_x
 _atom_site_fract_y
 _atom_site_fract_z
 _atom_site_occupancy
  Zr  Zr0  1  0.75000002  0.47036099  0.31649400  1
  Zr  Zr1  1  0.25000001  0.02963900  0.81649399  1
  Zr  Zr2  1  0.75000002  0.97036099  0.18350600  1
  Zr  Zr3  1  0.25000001  0.52963899  0.68350599  1
  Al  Al4  1  0.25000001  0.24960700  0.12114100  1
  Si  Si5  1  0.25000001  0.74960699  0.37885899  1
  Al  Al6  1  0.75000002  0.75039299  0.87885899  1
  Si  Si7  1  0.75000002  0.25039300  0.62114099  1
  Si  Si8  1  0.25000001  0.64437699  0.06461400  1
  Si  Si9  1  0.25000001  0.14437700  0.43538599  1
  Si  Si10  1  0.75000002  0.85562299  0.56461399  1
  Si  Si11  1  0.75000002  0.35562300  0.93538599  1
