# generated using pymatgen
data_TaAlNi2
_symmetry_space_group_name_H-M   'P 1'
_cell_length_a   4.27340984
_cell_length_b   5.26457405
_cell_length_c   5.26457310
_cell_angle_alpha   120.00000763
_cell_angle_beta   90.00000000
_cell_angle_gamma   90.00000000
_symmetry_Int_Tables_number   1
_chemical_formula_structural   TaAlNi2
_chemical_formula_sum   'Ta2 Al2 Ni4'
_cell_volume   102.57264232
_cell_formula_units_Z   2
loop_
 _symmetry_equiv_pos_site_id
 _symmetry_equiv_pos_as_xyz
  1  'x, y, z'
loop_
 _atom_site_type_symbol
 _atom_site_label
 _atom_site_symmetry_multiplicity
 _atom_site_fract_x
 _atom_site_fract_y
 _atom_site_fract_z
 _atom_site_occupancy
  Ta  Ta0  1  0.75000003  0.32469301  0.16234703  1
  Ta  Ta1  1  0.75000003  0.83765402  0.67530808  1
  Al  Al2  1  0.25000001  0.16234600  0.83765304  1
  Al  Al3  1  0.25000001  0.67530702  0.83765307  1
  Ni  Ni4  1  0.25000001  0.16234600  0.32469202  1
  Ni  Ni5  1  0.75000003  0.83765402  0.16234706  1
  Ni  Ni6  1  0.25000001  0.66666668  0.33333339  1
  Ni  Ni7  1  0.75000003  0.33333334  0.66666671  1
