# generated using pymatgen
data_Mn2CoSnS11
_symmetry_space_group_name_H-M   'P 1'
_cell_length_a   3.81529188
_cell_length_b   3.81529188
_cell_length_c   13.81323051
_cell_angle_alpha   97.93807983
_cell_angle_beta   97.93807983
_cell_angle_gamma   90.00000000
_symmetry_Int_Tables_number   1
_chemical_formula_structural   Mn2CoSnS11
_chemical_formula_sum   'Mn2 Co1 Sn1 S11'
_cell_volume   197.19942715
_cell_formula_units_Z   1
loop_
 _symmetry_equiv_pos_site_id
 _symmetry_equiv_pos_as_xyz
  1  'x, y, z'
loop_
 _atom_site_type_symbol
 _atom_site_label
 _atom_site_symmetry_multiplicity
 _atom_site_fract_x
 _atom_site_fract_y
 _atom_site_fract_z
 _atom_site_occupancy
  Mn  Mn0  1  0.40267302  0.40267301  0.80534601  1
  Mn  Mn1  1  0.80091703  0.80091703  0.60183401  1
  Sn  Sn2  1  0.19908301  0.19908301  0.39816601  1
  Co  Co3  1  0.59732702  0.59732702  0.19465401  1
  S  S4  1  0.00000000  0.00000000  0.00000000  1
  S  S5  1  0.54632102  0.04632100  0.09264200  1
  S  S6  1  0.75000003  0.25000001  0.50000001  1
  S  S7  1  0.14813801  0.64813802  0.29627601  1
  S  S8  1  0.95367903  0.45367902  0.90735802  1
  S  S9  1  0.35186202  0.85186203  0.70372401  1
  S  S10  1  0.45367902  0.95367903  0.90735802  1
  S  S11  1  0.64813802  0.14813800  0.29627601  1
  S  S12  1  0.04632100  0.54632102  0.09264200  1
  S  S13  1  0.85186203  0.35186201  0.70372401  1
  S  S14  1  0.25000001  0.75000002  0.50000001  1
