# generated using pymatgen
data_LiSn
_symmetry_space_group_name_H-M   'P 1'
_cell_length_a   4.33099985
_cell_length_b   4.33099985
_cell_length_c   10.60513592
_cell_angle_alpha   90.00000000
_cell_angle_beta   90.00000000
_cell_angle_gamma   120.00000000
_symmetry_Int_Tables_number   1
_chemical_formula_structural   LiSn
_chemical_formula_sum   'Li3 Sn3'
_cell_volume   172.27537670
_cell_formula_units_Z   3
loop_
 _symmetry_equiv_pos_site_id
 _symmetry_equiv_pos_as_xyz
  1  'x, y, z'
loop_
 _atom_site_type_symbol
 _atom_site_label
 _atom_site_symmetry_multiplicity
 _atom_site_fract_x
 _atom_site_fract_y
 _atom_site_fract_z
 _atom_site_occupancy
  Li  Li0  1  0.00000000  0.00000000  0.00000000  1
  Li  Li1  1  0.66666669  0.33333334  0.32911100  1
  Li  Li2  1  0.33333334  0.66666669  0.67088901  1
  Sn  Sn3  1  0.66666669  0.33333334  0.82953901  1
  Sn  Sn4  1  0.33333334  0.66666669  0.17046100  1
  Sn  Sn5  1  0.00000000  0.00000000  0.50000000  1
