# generated using pymatgen
data_CeIn7Ni5
_symmetry_space_group_name_H-M   'P 1'
_cell_length_a   5.60349417
_cell_length_b   7.25643826
_cell_length_c   7.25643826
_cell_angle_alpha   81.47463989
_cell_angle_beta   67.28764343
_cell_angle_gamma   67.28764343
_symmetry_Int_Tables_number   1
_chemical_formula_structural   CeIn7Ni5
_chemical_formula_sum   'Ce1 In7 Ni5'
_cell_volume   251.07065534
_cell_formula_units_Z   1
loop_
 _symmetry_equiv_pos_site_id
 _symmetry_equiv_pos_as_xyz
  1  'x, y, z'
loop_
 _atom_site_type_symbol
 _atom_site_label
 _atom_site_symmetry_multiplicity
 _atom_site_fract_x
 _atom_site_fract_y
 _atom_site_fract_z
 _atom_site_occupancy
  Ce  Ce0  1  -0.00000000  0.00085400  0.99914600  1
  In  In1  1  -0.00000003  0.65747800  0.34252204  1
  In  In2  1  -0.00000001  0.33530500  0.66469502  1
  In  In3  1  0.34162797  0.64635900  0.67038504  1
  In  In4  1  0.65837197  0.32961500  0.35364102  1
  In  In5  1  0.49999996  0.77503900  0.22496105  1
  In  In6  1  0.29858898  0.21348800  0.18933401  1
  In  In7  1  0.70141095  0.81066600  0.78651205  1
  Ni  Ni8  1  0.49138399  0.00787400  0.50449100  1
  Ni  Ni9  1  0.99625097  0.00787400  0.50449100  1
  Ni  Ni10  1  0.00374898  0.49550900  0.99212603  1
  Ni  Ni11  1  0.50861597  0.49550900  0.99212603  1
  Ni  Ni12  1  0.49999998  0.22443000  0.77557001  1
