# generated using pymatgen
data_CeNiGe3
_symmetry_space_group_name_H-M   'P 1'
_cell_length_a   4.08710814
_cell_length_b   4.09113216
_cell_length_c   10.93962574
_cell_angle_alpha   100.77699280
_cell_angle_beta   90.00000000
_cell_angle_gamma   90.00000000
_symmetry_Int_Tables_number   1
_chemical_formula_structural   CeNiGe3
_chemical_formula_sum   'Ce2 Ni2 Ge6'
_cell_volume   179.69410926
_cell_formula_units_Z   2
loop_
 _symmetry_equiv_pos_site_id
 _symmetry_equiv_pos_as_xyz
  1  'x, y, z'
loop_
 _atom_site_type_symbol
 _atom_site_label
 _atom_site_symmetry_multiplicity
 _atom_site_fract_x
 _atom_site_fract_y
 _atom_site_fract_z
 _atom_site_occupancy
  Ce  Ce0  1  0.49999998  0.83100797  0.66201599  1
  Ce  Ce1  1  0.49999998  0.16899199  0.33798399  1
  Ni  Ni2  1  0.00000000  0.61012398  0.22024800  1
  Ni  Ni3  1  0.00000000  0.38987599  0.77975199  1
  Ge  Ge4  1  0.00000000  0.71638997  0.43278000  1
  Ge  Ge5  1  0.99999997  0.28360999  0.56721999  1
  Ge  Ge6  1  0.49999998  0.55727098  0.11454200  1
  Ge  Ge7  1  0.49999998  0.44272898  0.88545799  1
  Ge  Ge8  1  0.99999997  0.94259097  0.88518199  1
  Ge  Ge9  1  0.99999997  0.05740900  0.11481800  1
