# generated using pymatgen
data_CeSb2
_symmetry_space_group_name_H-M   'P 1'
_cell_length_a   4.35313272
_cell_length_b   4.35313272
_cell_length_c   17.76695251
_cell_angle_alpha   90.00000000
_cell_angle_beta   90.00000000
_cell_angle_gamma   89.92803955
_symmetry_Int_Tables_number   1
_chemical_formula_structural   CeSb2
_chemical_formula_sum   'Ce4 Sb8'
_cell_volume   336.67930084
_cell_formula_units_Z   4
loop_
 _symmetry_equiv_pos_site_id
 _symmetry_equiv_pos_as_xyz
  1  'x, y, z'
loop_
 _atom_site_type_symbol
 _atom_site_label
 _atom_site_symmetry_multiplicity
 _atom_site_fract_x
 _atom_site_fract_y
 _atom_site_fract_z
 _atom_site_occupancy
  Ce  Ce0  1  0.64038599  0.35961399  0.88949602  1
  Ce  Ce1  1  0.35961400  0.64038599  0.11050400  1
  Ce  Ce2  1  0.85961398  0.14038600  0.38949601  1
  Ce  Ce3  1  0.14038601  0.85961398  0.61050402  1
  Sb  Sb4  1  0.63714899  0.36285099  0.56512302  1
  Sb  Sb5  1  0.36285100  0.63714899  0.43487701  1
  Sb  Sb6  1  0.86285098  0.13714900  0.06512300  1
  Sb  Sb7  1  0.13714901  0.86285098  0.93487703  1
  Sb  Sb8  1  0.12495500  0.37504499  0.75000002  1
  Sb  Sb9  1  0.37504499  0.12495500  0.25000001  1
  Sb  Sb10  1  0.87504499  0.62495499  0.25000001  1
  Sb  Sb11  1  0.62495500  0.87504498  0.75000002  1
