# generated using pymatgen
data_Ta4FeC3
_symmetry_space_group_name_H-M   'P 1'
_cell_length_a   3.64719009
_cell_length_b   6.04809618
_cell_length_c   6.04809618
_cell_angle_alpha   105.78868866
_cell_angle_beta   89.50893402
_cell_angle_gamma   89.50893402
_symmetry_Int_Tables_number   1
_chemical_formula_structural   Ta4FeC3
_chemical_formula_sum   'Ta4 Fe1 C3'
_cell_volume   128.36590102
_cell_formula_units_Z   1
loop_
 _symmetry_equiv_pos_site_id
 _symmetry_equiv_pos_as_xyz
  1  'x, y, z'
loop_
 _atom_site_type_symbol
 _atom_site_label
 _atom_site_symmetry_multiplicity
 _atom_site_fract_x
 _atom_site_fract_y
 _atom_site_fract_z
 _atom_site_occupancy
  Ta  Ta0  1  0.00000001  0.49999999  0.00000001  1
  Ta  Ta1  1  0.00000000  0.00000000  0.49999999  1
  Ta  Ta2  1  0.50000000  0.00000000  0.00000000  1
  Ta  Ta3  1  0.50000001  0.49999999  0.50000000  1
  Fe  Fe4  1  0.50000000  0.28096399  0.71903599  1
  C  C5  1  0.50000001  0.71903598  0.28096401  1
  C  C6  1  0.79056700  0.24933299  0.24933300  1
  C  C7  1  0.20943302  0.75066698  0.75066699  1
