# generated using pymatgen
data_LiTaO3
_symmetry_space_group_name_H-M   'P 1'
_cell_length_a   5.31062603
_cell_length_b   5.73114204
_cell_length_c   7.62643290
_cell_angle_alpha   90.00000000
_cell_angle_beta   90.00000000
_cell_angle_gamma   90.00000000
_symmetry_Int_Tables_number   1
_chemical_formula_structural   LiTaO3
_chemical_formula_sum   'Li4 Ta4 O12'
_cell_volume   232.11774646
_cell_formula_units_Z   4
loop_
 _symmetry_equiv_pos_site_id
 _symmetry_equiv_pos_as_xyz
  1  'x, y, z'
loop_
 _atom_site_type_symbol
 _atom_site_label
 _atom_site_symmetry_multiplicity
 _atom_site_fract_x
 _atom_site_fract_y
 _atom_site_fract_z
 _atom_site_occupancy
  Li  Li0  1  0.97935399  0.42904500  0.75000001  1
  Li  Li1  1  0.47935400  0.07095500  0.25000000  1
  Li  Li2  1  0.52064600  0.92904499  0.75000001  1
  Li  Li3  1  0.02064600  0.57095500  0.25000000  1
  Ta  Ta4  1  0.00000000  0.00000000  0.50000001  1
  Ta  Ta5  1  0.50000000  0.50000000  0.50000001  1
  Ta  Ta6  1  0.50000000  0.50000000  -0.00000000  1
  Ta  Ta7  1  0.00000000  0.00000000  0.00000000  1
  O  O8  1  0.19332400  0.31227600  0.43953001  1
  O  O9  1  0.69332400  0.18772400  0.56047001  1
  O  O10  1  0.30667600  0.81227599  0.06047000  1
  O  O11  1  0.80667600  0.68772399  0.93953001  1
  O  O12  1  0.80667600  0.68772399  0.56047001  1
  O  O13  1  0.30667600  0.81227599  0.43953001  1
  O  O14  1  0.69332400  0.18772400  0.93953001  1
  O  O15  1  0.19332400  0.31227600  0.06047000  1
  O  O16  1  0.87869500  0.95139299  0.25000000  1
  O  O17  1  0.37869500  0.54860700  0.75000001  1
  O  O18  1  0.62130500  0.45139300  0.25000000  1
  O  O19  1  0.12130500  0.04860700  0.75000001  1
