# generated using pymatgen
data_La(GePd)2
_symmetry_space_group_name_H-M   'P 1'
_cell_length_a   4.43867207
_cell_length_b   4.43867207
_cell_length_c   6.03054857
_cell_angle_alpha   111.59328461
_cell_angle_beta   111.59328461
_cell_angle_gamma   90.00000000
_symmetry_Int_Tables_number   1
_chemical_formula_structural   La(GePd)2
_chemical_formula_sum   'La1 Ge2 Pd2'
_cell_volume   101.45305929
_cell_formula_units_Z   1
loop_
 _symmetry_equiv_pos_site_id
 _symmetry_equiv_pos_as_xyz
  1  'x, y, z'
loop_
 _atom_site_type_symbol
 _atom_site_label
 _atom_site_symmetry_multiplicity
 _atom_site_fract_x
 _atom_site_fract_y
 _atom_site_fract_z
 _atom_site_occupancy
  La  La0  1  0.00000000  0.00000000  0.00000000  1
  Ge  Ge1  1  0.62942995  0.62942997  0.25885993  1
  Ge  Ge2  1  0.37056997  0.37056998  0.74113994  1
  Pd  Pd3  1  0.24999996  0.74999997  0.49999993  1
  Pd  Pd4  1  0.74999996  0.24999999  0.49999994  1
