# generated using pymatgen
data_TlS
_symmetry_space_group_name_H-M   'P 1'
_cell_length_a   4.70455599
_cell_length_b   4.70455599
_cell_length_c   10.41054535
_cell_angle_alpha   90.00000000
_cell_angle_beta   90.00000000
_cell_angle_gamma   120.00000000
_symmetry_Int_Tables_number   1
_chemical_formula_structural   TlS
_chemical_formula_sum   'Tl3 S3'
_cell_volume   199.54525025
_cell_formula_units_Z   3
loop_
 _symmetry_equiv_pos_site_id
 _symmetry_equiv_pos_as_xyz
  1  'x, y, z'
loop_
 _atom_site_type_symbol
 _atom_site_label
 _atom_site_symmetry_multiplicity
 _atom_site_fract_x
 _atom_site_fract_y
 _atom_site_fract_z
 _atom_site_occupancy
  Tl  Tl0  1  0.35094400  1.00000000  -0.00000000  1
  Tl  Tl1  1  0.64905600  0.64905600  0.33333332  1
  Tl  Tl2  1  -0.00000000  0.35094400  0.66666664  1
  S  S3  1  0.47630800  0.00000000  0.49999998  1
  S  S4  1  0.52369200  0.52369200  0.83333297  1
  S  S5  1  -0.00000000  0.47630800  0.16666699  1
