# generated using pymatgen
data_Li3TaO4
_symmetry_space_group_name_H-M   'P 1'
_cell_length_a   3.15462899
_cell_length_b   5.34965467
_cell_length_c   5.35297108
_cell_angle_alpha   100.13179016
_cell_angle_beta   106.31156921
_cell_angle_gamma   90.55375671
_symmetry_Int_Tables_number   1
_chemical_formula_structural   Li3TaO4
_chemical_formula_sum   'Li3 Ta1 O4'
_cell_volume   85.18242575
_cell_formula_units_Z   1
loop_
 _symmetry_equiv_pos_site_id
 _symmetry_equiv_pos_as_xyz
  1  'x, y, z'
loop_
 _atom_site_type_symbol
 _atom_site_label
 _atom_site_symmetry_multiplicity
 _atom_site_fract_x
 _atom_site_fract_y
 _atom_site_fract_z
 _atom_site_occupancy
  Li  Li0  1  0.49578398  0.50062600  0.99900794  1
  Li  Li1  1  0.75122998  0.25075400  0.49962496  1
  Li  Li2  1  0.00267998  0.99984400  0.00129799  1
  Ta  Ta3  1  0.24961098  0.75089600  0.49977496  1
  O  O4  1  0.87226197  0.64360800  0.74807894  1
  O  O5  1  0.39003399  0.14308400  0.74941096  1
  O  O6  1  0.11162699  0.35591800  0.25050098  1
  O  O7  1  0.62677197  0.85527200  0.25230196  1
