# generated using pymatgen
data_Pm
_symmetry_space_group_name_H-M   'P 1'
_cell_length_a   5.94381905
_cell_length_b   7.39233017
_cell_length_c   7.39232969
_cell_angle_alpha   120.00000000
_cell_angle_beta   90.00000000
_cell_angle_gamma   90.00000000
_symmetry_Int_Tables_number   1
_chemical_formula_structural   Pm
_chemical_formula_sum   Pm8
_cell_volume   281.29298050
_cell_formula_units_Z   8
loop_
 _symmetry_equiv_pos_site_id
 _symmetry_equiv_pos_as_xyz
  1  'x, y, z'
loop_
 _atom_site_type_symbol
 _atom_site_label
 _atom_site_symmetry_multiplicity
 _atom_site_fract_x
 _atom_site_fract_y
 _atom_site_fract_z
 _atom_site_occupancy
  Pm  Pm0  1  0.74999999  0.83228996  0.16770896  1
  Pm  Pm1  1  0.74999999  0.33541898  0.16770898  1
  Pm  Pm2  1  0.74999999  0.83228996  0.66457995  1
  Pm  Pm3  1  0.25000000  0.16770999  0.83229097  1
  Pm  Pm4  1  0.25000000  0.66458097  0.83229095  1
  Pm  Pm5  1  0.25000000  0.16770999  0.33541998  1
  Pm  Pm6  1  0.25000000  0.66666664  0.33333329  1
  Pm  Pm7  1  0.74999999  0.33333332  0.66666663  1
