# generated using pymatgen
data_SmSnPd
_symmetry_space_group_name_H-M   'P 1'
_cell_length_a   4.50191212
_cell_length_b   7.17284393
_cell_length_c   7.96346188
_cell_angle_alpha   90.00000000
_cell_angle_beta   90.00000000
_cell_angle_gamma   90.00000000
_symmetry_Int_Tables_number   1
_chemical_formula_structural   SmSnPd
_chemical_formula_sum   'Sm4 Sn4 Pd4'
_cell_volume   257.15223282
_cell_formula_units_Z   4
loop_
 _symmetry_equiv_pos_site_id
 _symmetry_equiv_pos_as_xyz
  1  'x, y, z'
loop_
 _atom_site_type_symbol
 _atom_site_label
 _atom_site_symmetry_multiplicity
 _atom_site_fract_x
 _atom_site_fract_y
 _atom_site_fract_z
 _atom_site_occupancy
  Sm  Sm0  1  0.24999999  0.51419900  0.18892000  1
  Sm  Sm1  1  0.74999998  0.48580100  0.81108001  1
  Sm  Sm2  1  0.74999998  0.98580101  0.68892001  1
  Sm  Sm3  1  0.24999999  0.01419900  0.31108000  1
  Sn  Sn4  1  0.24999999  0.67448401  0.58625001  1
  Sn  Sn5  1  0.74999998  0.32551600  0.41375001  1
  Sn  Sn6  1  0.74999998  0.82551601  0.08625000  1
  Sn  Sn7  1  0.24999999  0.17448400  0.91375001  1
  Pd  Pd8  1  0.24999999  0.78809301  0.90781201  1
  Pd  Pd9  1  0.74999998  0.21190700  0.09218800  1
  Pd  Pd10  1  0.74999998  0.71190701  0.40781201  1
  Pd  Pd11  1  0.24999999  0.28809300  0.59218801  1
