# generated using pymatgen
data_CoBC2
_symmetry_space_group_name_H-M   'P 1'
_cell_length_a   4.23282623
_cell_length_b   4.45285654
_cell_length_c   4.23282623
_cell_angle_alpha   118.37844849
_cell_angle_beta   90.00000000
_cell_angle_gamma   118.37844849
_symmetry_Int_Tables_number   1
_chemical_formula_structural   CoBC2
_chemical_formula_sum   'Co2 B2 C4'
_cell_volume   59.06988853
_cell_formula_units_Z   2
loop_
 _symmetry_equiv_pos_site_id
 _symmetry_equiv_pos_as_xyz
  1  'x, y, z'
loop_
 _atom_site_type_symbol
 _atom_site_label
 _atom_site_symmetry_multiplicity
 _atom_site_fract_x
 _atom_site_fract_y
 _atom_site_fract_z
 _atom_site_occupancy
  Co  Co0  1  0.74999993  0.49999997  0.24999996  1
  Co  Co1  1  0.49999997  0.00000000  0.49999997  1
  B  B2  1  0.24999996  0.49999997  0.74999993  1
  B  B3  1  0.00000000  0.00000000  0.00000000  1
  C  C4  1  0.28092497  0.24999999  0.87499994  1
  C  C5  1  0.62499992  0.74999996  0.71907492  1
  C  C6  1  0.12499995  0.74999996  0.03092496  1
  C  C7  1  0.96907493  0.24999999  0.37499997  1
