# generated using pymatgen
data_Sr2LaFeO6
_symmetry_space_group_name_H-M   'P 1'
_cell_length_a   5.73881102
_cell_length_b   5.77157450
_cell_length_c   8.60355759
_cell_angle_alpha   101.53723907
_cell_angle_beta   109.07897949
_cell_angle_gamma   102.29189301
_symmetry_Int_Tables_number   1
_chemical_formula_structural   Sr2LaFeO6
_chemical_formula_sum   'Sr4 La2 Fe2 O12'
_cell_volume   251.67495540
_cell_formula_units_Z   2
loop_
 _symmetry_equiv_pos_site_id
 _symmetry_equiv_pos_as_xyz
  1  'x, y, z'
loop_
 _atom_site_type_symbol
 _atom_site_label
 _atom_site_symmetry_multiplicity
 _atom_site_fract_x
 _atom_site_fract_y
 _atom_site_fract_z
 _atom_site_occupancy
  Sr  Sr0  1  0.69229598  0.48733701  0.90256104  1
  Sr  Sr1  1  0.88027198  0.49395201  0.29393001  1
  Sr  Sr2  1  0.69746699  0.00299800  0.39781102  1
  Sr  Sr3  1  0.30253298  0.99700203  0.60218901  1
  La  La4  1  0.30770399  0.51266301  0.09743900  1
  La  La5  1  0.49999999  0.50000001  0.50000002  1
  Fe  Fe6  1  0.49999999  0.00000000  0.00000000  1
  Fe  Fe7  1  0.11972799  0.50604801  0.70607003  1
  O  O8  1  0.89876598  0.99639103  0.79493203  1
  O  O9  1  0.10123400  0.00360900  0.20506801  1
  O  O10  1  0.24027399  0.21448801  0.84405204  1
  O  O11  1  0.75972598  0.78551202  0.15594800  1
  O  O12  1  0.90855098  0.77843802  0.60021702  1
  O  O13  1  0.09144900  0.22156201  0.39978302  1
  O  O14  1  0.43624199  0.22221901  0.24182301  1
  O  O15  1  0.56375798  0.77778102  0.75817703  1
  O  O16  1  0.07740799  0.80903702  0.96344703  1
  O  O17  1  0.92259199  0.19096301  0.03655300  1
  O  O18  1  0.25916999  0.79132702  0.31467600  1
  O  O19  1  0.74082999  0.20867301  0.68532404  1
