# generated using pymatgen
data_Li2FeO6
_symmetry_space_group_name_H-M   'P 1'
_cell_length_a   5.46419191
_cell_length_b   5.46419191
_cell_length_c   7.17873287
_cell_angle_alpha   71.47891235
_cell_angle_beta   71.47891235
_cell_angle_gamma   70.66633606
_symmetry_Int_Tables_number   1
_chemical_formula_structural   Li2FeO6
_chemical_formula_sum   'Li4 Fe2 O12'
_cell_volume   186.28915960
_cell_formula_units_Z   2
loop_
 _symmetry_equiv_pos_site_id
 _symmetry_equiv_pos_as_xyz
  1  'x, y, z'
loop_
 _atom_site_type_symbol
 _atom_site_label
 _atom_site_symmetry_multiplicity
 _atom_site_fract_x
 _atom_site_fract_y
 _atom_site_fract_z
 _atom_site_occupancy
  Li  Li0  1  0.50000006  0.50000001  0.99999993  1
  Li  Li1  1  0.83044011  0.83044002  0.15580591  1
  Li  Li2  1  0.50000006  0.50000001  0.49999994  1
  Li  Li3  1  0.84268111  0.84268102  0.67908889  1
  Fe  Fe4  1  0.15731902  0.15731900  0.32091098  1
  Fe  Fe5  1  0.16956002  0.16956000  0.84419396  1
  O  O6  1  0.13884505  0.52647101  0.17093596  1
  O  O7  1  0.80664505  0.19335500  0.49999994  1
  O  O8  1  0.60371708  0.60371702  0.20198593  1
  O  O9  1  0.93932612  0.93932602  0.87052188  1
  O  O10  1  0.06067401  0.06067400  0.12947799  1
  O  O11  1  0.39628305  0.39628301  0.79801394  1
  O  O12  1  0.19335507  0.80664502  0.49999993  1
  O  O13  1  0.52647104  0.13884500  0.17093596  1
  O  O14  1  0.86115508  0.47352901  0.82906391  1
  O  O15  1  0.47352909  0.86115502  0.82906391  1
  O  O16  1  0.25473603  0.25473601  0.53735796  1
  O  O17  1  0.74526410  0.74526402  0.46264191  1
