# generated using pymatgen
data_BiPb4O13
_symmetry_space_group_name_H-M   'P 1'
_cell_length_a   3.56694007
_cell_length_b   8.12875748
_cell_length_c   8.99139214
_cell_angle_alpha   63.12600327
_cell_angle_beta   85.36945343
_cell_angle_gamma   79.71205139
_symmetry_Int_Tables_number   1
_chemical_formula_structural   BiPb4O13
_chemical_formula_sum   'Bi1 Pb4 O13'
_cell_volume   228.80950874
_cell_formula_units_Z   1
loop_
 _symmetry_equiv_pos_site_id
 _symmetry_equiv_pos_as_xyz
  1  'x, y, z'
loop_
 _atom_site_type_symbol
 _atom_site_label
 _atom_site_symmetry_multiplicity
 _atom_site_fract_x
 _atom_site_fract_y
 _atom_site_fract_z
 _atom_site_occupancy
  Pb  Pb0  1  0.83254586  0.80152999  0.23023404  1
  Bi  Bi1  1  0.83254598  0.03176300  0.76976605  1
  Pb  Pb2  1  0.15018798  0.11508700  0.35672802  1
  Pb  Pb3  1  0.15018792  0.47181499  0.64327204  1
  Pb  Pb4  1  0.49984390  0.56047499  1.00000007  1
  O  O5  1  0.58222186  0.81201199  0.60125506  1
  O  O6  1  0.58222192  0.41326699  0.39874504  1
  O  O7  1  0.21218997  0.17912500  0.00000001  1
  O  O8  1  0.58487494  0.32632899  0.29423503  1
  O  O9  1  0.58487489  0.62056399  0.70576506  1
  O  O10  1  0.78457885  0.86969599  0.45417605  1
  O  O11  1  0.78457893  0.32387299  0.54582405  1
  O  O12  1  0.38600490  0.59214699  0.35192204  1
  O  O13  1  0.38600485  0.94406898  0.64807806  1
  O  O14  1  0.26523899  0.01965100  0.15092501  1
  O  O15  1  0.26523897  0.17057600  0.84907505  1
  O  O16  1  0.10210494  0.35161699  0.00000001  1
  O  O17  1  0.92145387  0.74519699  0.00000003  1
