# generated using pymatgen
data_CeSi2
_symmetry_space_group_name_H-M   'P 1'
_cell_length_a   4.01256800
_cell_length_b   4.01256800
_cell_length_c   7.77510500
_cell_angle_alpha   104.95376587
_cell_angle_beta   104.95376587
_cell_angle_gamma   90.00000000
_symmetry_Int_Tables_number   1
_chemical_formula_structural   CeSi2
_chemical_formula_sum   'Ce2 Si4'
_cell_volume   116.55162780
_cell_formula_units_Z   2
loop_
 _symmetry_equiv_pos_site_id
 _symmetry_equiv_pos_as_xyz
  1  'x, y, z'
loop_
 _atom_site_type_symbol
 _atom_site_label
 _atom_site_symmetry_multiplicity
 _atom_site_fract_x
 _atom_site_fract_y
 _atom_site_fract_z
 _atom_site_occupancy
  Ce  Ce0  1  0.25000002  0.75000001  0.50000002  1
  Ce  Ce1  1  0.50000002  0.50000001  0.00000002  1
  Si  Si2  1  0.83274202  0.33274200  0.66548402  1
  Si  Si3  1  0.91725803  0.91725801  0.83451603  1
  Si  Si4  1  0.66725801  0.16725800  0.33451601  1
  Si  Si5  1  0.08274200  0.08274200  0.16548400  1
