# generated using pymatgen
data_UAl2Ir3
_symmetry_space_group_name_H-M   'P 1'
_cell_length_a   5.03586006
_cell_length_b   5.20688534
_cell_length_c   5.20688534
_cell_angle_alpha   63.54634094
_cell_angle_beta   61.08071899
_cell_angle_gamma   61.08071899
_symmetry_Int_Tables_number   1
_chemical_formula_structural   UAl2Ir3
_chemical_formula_sum   'U1 Al2 Ir3'
_cell_volume   100.53363407
_cell_formula_units_Z   1
loop_
 _symmetry_equiv_pos_site_id
 _symmetry_equiv_pos_as_xyz
  1  'x, y, z'
loop_
 _atom_site_type_symbol
 _atom_site_label
 _atom_site_symmetry_multiplicity
 _atom_site_fract_x
 _atom_site_fract_y
 _atom_site_fract_z
 _atom_site_occupancy
  U  U0  1  0.00245703  0.99754303  0.99754302  1
  Al  Al1  1  0.87140699  0.37987901  0.37988003  1
  Al  Al2  1  0.36883300  0.37988001  0.37988002  1
  Ir  Ir3  1  0.75780600  0.74219402  0.74219403  1
  Ir  Ir4  1  0.37474801  0.87329002  0.37721401  1
  Ir  Ir5  1  0.37474700  0.37721401  0.87329103  1
