# generated using pymatgen
data_Ce7CrBr12
_symmetry_space_group_name_H-M   'P 1'
_cell_length_a   9.43376446
_cell_length_b   9.43376446
_cell_length_c   9.43376541
_cell_angle_alpha   107.28977203
_cell_angle_beta   107.28977203
_cell_angle_gamma   107.28977203
_symmetry_Int_Tables_number   1
_chemical_formula_structural   Ce7CrBr12
_chemical_formula_sum   'Ce7 Cr1 Br12'
_cell_volume   693.59791666
_cell_formula_units_Z   1
loop_
 _symmetry_equiv_pos_site_id
 _symmetry_equiv_pos_as_xyz
  1  'x, y, z'
loop_
 _atom_site_type_symbol
 _atom_site_label
 _atom_site_symmetry_multiplicity
 _atom_site_fract_x
 _atom_site_fract_y
 _atom_site_fract_z
 _atom_site_occupancy
  Ce  Ce0  1  0.50000002  0.50000002  0.49999998  1
  Ce  Ce1  1  0.08805900  0.02260300  0.27895299  1
  Ce  Ce2  1  0.02260301  0.27895301  0.08805900  1
  Ce  Ce3  1  0.27895301  0.08805900  0.02260300  1
  Ce  Ce4  1  0.91194104  0.97739703  0.72104697  1
  Ce  Ce5  1  0.97739704  0.72104703  0.91194096  1
  Ce  Ce6  1  0.72104704  0.91194103  0.97739696  1
  Cr  Cr7  1  0.00000000  0.00000000  0.00000000  1
  Br  Br8  1  0.77857704  0.92840603  0.31279698  1
  Br  Br9  1  0.92840603  0.31279701  0.77857697  1
  Br  Br10  1  0.31279702  0.77857703  0.92840597  1
  Br  Br11  1  0.22142301  0.07159400  0.68720298  1
  Br  Br12  1  0.07159401  0.68720302  0.22142299  1
  Br  Br13  1  0.68720302  0.22142301  0.07159399  1
  Br  Br14  1  0.16043501  0.38265001  0.45499399  1
  Br  Br15  1  0.38265002  0.45499402  0.16043499  1
  Br  Br16  1  0.45499402  0.16043501  0.38264998  1
  Br  Br17  1  0.83956503  0.61735002  0.54500597  1
  Br  Br18  1  0.61735003  0.54500602  0.83956497  1
  Br  Br19  1  0.54500603  0.83956503  0.61734997  1
