# generated using pymatgen
data_YNi4Sn
_symmetry_space_group_name_H-M   'P 1'
_cell_length_a   4.94594193
_cell_length_b   4.94594193
_cell_length_c   4.94594193
_cell_angle_alpha   60.00000000
_cell_angle_beta   60.00000000
_cell_angle_gamma   60.00000000
_symmetry_Int_Tables_number   1
_chemical_formula_structural   YNi4Sn
_chemical_formula_sum   'Y1 Ni4 Sn1'
_cell_volume   85.55236900
_cell_formula_units_Z   1
loop_
 _symmetry_equiv_pos_site_id
 _symmetry_equiv_pos_as_xyz
  1  'x, y, z'
loop_
 _atom_site_type_symbol
 _atom_site_label
 _atom_site_symmetry_multiplicity
 _atom_site_fract_x
 _atom_site_fract_y
 _atom_site_fract_z
 _atom_site_occupancy
  Y  Y0  1  0.00000000  0.00000000  0.00000000  1
  Ni  Ni1  1  0.37541099  0.87376498  0.37541199  1
  Ni  Ni2  1  0.37541099  0.37541199  0.37541199  1
  Ni  Ni3  1  0.37541099  0.37541199  0.87376498  1
  Ni  Ni4  1  0.87376398  0.37541199  0.37541199  1
  Sn  Sn5  1  0.74999998  0.74999998  0.74999998  1
