# generated using pymatgen
data_SrCa2Al(SiO3)4
_symmetry_space_group_name_H-M   'P 1'
_cell_length_a   5.78647566
_cell_length_b   6.90331459
_cell_length_c   6.90331459
_cell_angle_alpha   82.12333679
_cell_angle_beta   74.18605042
_cell_angle_gamma   74.18605042
_symmetry_Int_Tables_number   1
_chemical_formula_structural   SrCa2Al(SiO3)4
_chemical_formula_sum   'Sr1 Ca2 Al1 Si4 O12'
_cell_volume   254.69221049
_cell_formula_units_Z   1
loop_
 _symmetry_equiv_pos_site_id
 _symmetry_equiv_pos_as_xyz
  1  'x, y, z'
loop_
 _atom_site_type_symbol
 _atom_site_label
 _atom_site_symmetry_multiplicity
 _atom_site_fract_x
 _atom_site_fract_y
 _atom_site_fract_z
 _atom_site_occupancy
  Sr  Sr0  1  1.00000002  0.90396602  0.09603395  1
  Ca  Ca1  1  0.50000001  0.74616801  0.25383197  1
  Ca  Ca2  1  -0.00000000  0.24082600  0.75917400  1
  Al  Al3  1  0.98683903  0.38917501  0.20195297  1
  Si  Si4  1  0.48697801  0.18741400  0.39164899  1
  Si  Si5  1  0.01316099  0.79804701  0.61082498  1
  Si  Si6  1  0.51302201  0.60835101  0.81258598  1
  Si  Si7  1  0.50000001  0.08471800  0.91528200  1
  O  O8  1  0.11292600  0.21444700  0.01646199  1
  O  O9  1  0.94551102  0.62670401  0.09264997  1
  O  O10  1  0.58062402  0.02192900  0.19229099  1
  O  O11  1  0.18173500  0.35735201  0.36845799  1
  O  O12  1  0.05448899  0.90735002  0.37329597  1
  O  O13  1  0.68445802  0.37149701  0.33678198  1
  O  O14  1  0.81826502  0.63154201  0.64264797  1
  O  O15  1  0.42585401  0.10485700  0.64880600  1
  O  O16  1  0.31554200  0.66321801  0.62850298  1
  O  O17  1  0.88707402  0.98353802  0.78555296  1
  O  O18  1  0.57414601  0.35119401  0.89514299  1
  O  O19  1  0.41937601  0.80770901  0.97807098  1
