# generated using pymatgen
data_TiC
_symmetry_space_group_name_H-M   'P 1'
_cell_length_a   3.13189602
_cell_length_b   3.13189554
_cell_length_c   7.60501194
_cell_angle_alpha   90.00000000
_cell_angle_beta   90.00000000
_cell_angle_gamma   120.00000763
_symmetry_Int_Tables_number   1
_chemical_formula_structural   TiC
_chemical_formula_sum   'Ti3 C3'
_cell_volume   64.60187185
_cell_formula_units_Z   3
loop_
 _symmetry_equiv_pos_site_id
 _symmetry_equiv_pos_as_xyz
  1  'x, y, z'
loop_
 _atom_site_type_symbol
 _atom_site_label
 _atom_site_symmetry_multiplicity
 _atom_site_fract_x
 _atom_site_fract_y
 _atom_site_fract_z
 _atom_site_occupancy
  Ti  Ti0  1  0.66666668  0.33333335  0.32649400  1
  Ti  Ti1  1  0.33333337  0.66666669  0.67350601  1
  Ti  Ti2  1  0.00000000  0.00000000  0.00000000  1
  C  C3  1  0.66666668  0.33333335  0.84608201  1
  C  C4  1  0.33333337  0.66666669  0.15391800  1
  C  C5  1  0.00000000  0.00000000  0.50000000  1
