# generated using pymatgen
data_ZrMn(Si2Rh)2
_symmetry_space_group_name_H-M   'P 1'
_cell_length_a   4.01523781
_cell_length_b   4.01523781
_cell_length_c   7.80930090
_cell_angle_alpha   104.89689636
_cell_angle_beta   104.89689636
_cell_angle_gamma   90.00000000
_symmetry_Int_Tables_number   1
_chemical_formula_structural   ZrMn(Si2Rh)2
_chemical_formula_sum   'Zr1 Mn1 Si4 Rh2'
_cell_volume   117.28685759
_cell_formula_units_Z   1
loop_
 _symmetry_equiv_pos_site_id
 _symmetry_equiv_pos_as_xyz
  1  'x, y, z'
loop_
 _atom_site_type_symbol
 _atom_site_label
 _atom_site_symmetry_multiplicity
 _atom_site_fract_x
 _atom_site_fract_y
 _atom_site_fract_z
 _atom_site_occupancy
  Zr  Zr0  1  0.00000000  0.00000000  0.00000000  1
  Si  Si1  1  0.64660102  0.14660100  0.29320197  1
  Mn  Mn2  1  0.35339898  0.85339903  0.70679795  1
  Si  Si3  1  0.14660098  0.64660102  0.29320197  1
  Si  Si4  1  0.85339901  0.35339901  0.70679796  1
  Si  Si5  1  0.50000000  0.50000001  -0.00000003  1
  Rh  Rh6  1  0.23987700  0.23987701  0.47975398  1
  Rh  Rh7  1  0.76012300  0.76012302  0.52024594  1
