# generated using pymatgen
data_YIn2
_symmetry_space_group_name_H-M   'P 1'
_cell_length_a   3.38449192
_cell_length_b   6.73784637
_cell_length_c   7.30195761
_cell_angle_alpha   106.55807495
_cell_angle_beta   90.00000000
_cell_angle_gamma   104.54589081
_symmetry_Int_Tables_number   1
_chemical_formula_structural   YIn2
_chemical_formula_sum   'Y2 In4'
_cell_volume   154.03361684
_cell_formula_units_Z   2
loop_
 _symmetry_equiv_pos_site_id
 _symmetry_equiv_pos_as_xyz
  1  'x, y, z'
loop_
 _atom_site_type_symbol
 _atom_site_label
 _atom_site_symmetry_multiplicity
 _atom_site_fract_x
 _atom_site_fract_y
 _atom_site_fract_z
 _atom_site_occupancy
  Y  Y0  1  0.47087408  0.94174803  0.19924598  1
  Y  Y1  1  0.52912602  0.05825200  0.80075402  1
  In  In2  1  0.18233303  0.36466601  0.13528299  1
  In  In3  1  0.86700708  0.73401402  0.46623999  1
  In  In4  1  0.13299302  0.26598601  0.53376001  1
  In  In5  1  0.81766707  0.63533402  0.86471700  1
