# generated using pymatgen
data_LiTi2V2SbO12
_symmetry_space_group_name_H-M   'P 1'
_cell_length_a   4.55773306
_cell_length_b   5.44883251
_cell_length_c   7.53482437
_cell_angle_alpha   86.29191589
_cell_angle_beta   88.59193420
_cell_angle_gamma   87.89711761
_symmetry_Int_Tables_number   1
_chemical_formula_structural   LiTi2V2SbO12
_chemical_formula_sum   'Li1 Ti2 V2 Sb1 O12'
_cell_volume   186.55853311
_cell_formula_units_Z   1
loop_
 _symmetry_equiv_pos_site_id
 _symmetry_equiv_pos_as_xyz
  1  'x, y, z'
loop_
 _atom_site_type_symbol
 _atom_site_label
 _atom_site_symmetry_multiplicity
 _atom_site_fract_x
 _atom_site_fract_y
 _atom_site_fract_z
 _atom_site_occupancy
  Li  Li0  1  0.49490798  0.16201600  0.83246902  1
  Ti  Ti1  1  0.49999995  0.50000000  0.50000001  1
  Ti  Ti2  1  0.50509192  0.83798400  0.16753099  1
  V  V3  1  0.00000000  0.00000000  0.50000001  1
  Sb  Sb4  1  0.97951296  0.33031800  0.15124403  1
  V  V5  1  0.02048694  0.66968200  0.84875599  1
  O  O6  1  0.79895498  0.04357700  0.26321503  1
  O  O7  1  0.80552696  0.37499800  0.93267303  1
  O  O8  1  0.69321192  0.86827100  0.93595801  1
  O  O9  1  0.68714097  0.19698400  0.60079602  1
  O  O10  1  0.70514394  0.54558300  0.26919301  1
  O  O11  1  0.31285893  0.80301600  0.39920399  1
  O  O12  1  0.30678798  0.13172900  0.06404201  1
  O  O13  1  0.29485596  0.45441700  0.73080700  1
  O  O14  1  0.19447295  0.62500200  0.06732699  1
  O  O15  1  0.20104492  0.95642300  0.73678498  1
  O  O16  1  0.81687593  0.69338400  0.62002601  1
  O  O17  1  0.18312397  0.30661600  0.37997400  1
