# generated using pymatgen
data_Ce5Sb3
_symmetry_space_group_name_H-M   'P 1'
_cell_length_a   6.73534012
_cell_length_b   8.85247612
_cell_length_c   8.85247707
_cell_angle_alpha   60.00000381
_cell_angle_beta   90.00000000
_cell_angle_gamma   90.00000000
_symmetry_Int_Tables_number   1
_chemical_formula_structural   Ce5Sb3
_chemical_formula_sum   'Ce10 Sb6'
_cell_volume   457.10898130
_cell_formula_units_Z   2
loop_
 _symmetry_equiv_pos_site_id
 _symmetry_equiv_pos_as_xyz
  1  'x, y, z'
loop_
 _atom_site_type_symbol
 _atom_site_label
 _atom_site_symmetry_multiplicity
 _atom_site_fract_x
 _atom_site_fract_y
 _atom_site_fract_z
 _atom_site_occupancy
  Ce  Ce0  1  0.25000000  0.24496499  0.75503498  1
  Ce  Ce1  1  0.74999999  0.75503498  0.24496501  1
  Ce  Ce2  1  0.74999999  0.24496499  0.99999997  1
  Ce  Ce3  1  0.25000000  0.00000000  0.24496499  1
  Ce  Ce4  1  0.25000000  0.75503498  0.99999998  1
  Ce  Ce5  1  0.74999999  0.00000000  0.75503497  1
  Ce  Ce6  1  0.49999999  0.33333333  0.33333333  1
  Ce  Ce7  1  -0.00000000  0.66666665  0.66666666  1
  Ce  Ce8  1  0.49999999  0.66666665  0.66666666  1
  Ce  Ce9  1  0.99999998  0.33333333  0.33333333  1
  Sb  Sb10  1  0.25000000  0.00000000  0.60721898  1
  Sb  Sb11  1  0.74999999  0.60721899  0.99999998  1
  Sb  Sb12  1  0.74999999  0.39278099  0.60721899  1
  Sb  Sb13  1  0.25000000  0.60721899  0.39278100  1
  Sb  Sb14  1  0.25000000  0.39278099  0.99999997  1
  Sb  Sb15  1  0.74999999  0.00000000  0.39278099  1
