# generated using pymatgen
data_CeAu2
_symmetry_space_group_name_H-M   'P 1'
_cell_length_a   4.69319010
_cell_length_b   4.69319010
_cell_length_c   7.42595291
_cell_angle_alpha   90.00000000
_cell_angle_beta   90.00000000
_cell_angle_gamma   120.00000000
_symmetry_Int_Tables_number   1
_chemical_formula_structural   CeAu2
_chemical_formula_sum   'Ce2 Au4'
_cell_volume   141.65082689
_cell_formula_units_Z   2
loop_
 _symmetry_equiv_pos_site_id
 _symmetry_equiv_pos_as_xyz
  1  'x, y, z'
loop_
 _atom_site_type_symbol
 _atom_site_label
 _atom_site_symmetry_multiplicity
 _atom_site_fract_x
 _atom_site_fract_y
 _atom_site_fract_z
 _atom_site_occupancy
  Ce  Ce0  1  0.00000000  0.00000000  0.52040201  1
  Ce  Ce1  1  0.00000000  0.00000000  0.02040200  1
  Au  Au2  1  0.66666666  0.33333335  0.29229000  1
  Au  Au3  1  0.33333335  0.66666669  0.79229001  1
  Au  Au4  1  0.33333335  0.66666669  0.18730800  1
  Au  Au5  1  0.66666666  0.33333335  0.68730801  1
