# generated using pymatgen
data_Er2MgPd2
_symmetry_space_group_name_H-M   'P 1'
_cell_length_a   3.70616698
_cell_length_b   7.37724686
_cell_length_c   7.37724686
_cell_angle_alpha   90.00000000
_cell_angle_beta   90.00000000
_cell_angle_gamma   90.00000000
_symmetry_Int_Tables_number   1
_chemical_formula_structural   Er2MgPd2
_chemical_formula_sum   'Er4 Mg2 Pd4'
_cell_volume   201.70358384
_cell_formula_units_Z   2
loop_
 _symmetry_equiv_pos_site_id
 _symmetry_equiv_pos_as_xyz
  1  'x, y, z'
loop_
 _atom_site_type_symbol
 _atom_site_label
 _atom_site_symmetry_multiplicity
 _atom_site_fract_x
 _atom_site_fract_y
 _atom_site_fract_z
 _atom_site_occupancy
  Er  Er0  1  0.00000000  0.00000000  0.00000000  1
  Er  Er1  1  0.00000000  0.50000001  0.50000001  1
  Er  Er2  1  0.50000000  0.67679701  0.17679700  1
  Er  Er3  1  0.50000000  0.17679700  0.32320301  1
  Mg  Mg4  1  0.50000000  0.82320302  0.67679701  1
  Mg  Mg5  1  0.50000000  0.32320301  0.82320302  1
  Pd  Pd6  1  0.00000000  0.87705302  0.37705301  1
  Pd  Pd7  1  0.00000000  0.37705301  0.12294700  1
  Pd  Pd8  1  0.00000000  0.62294701  0.87705302  1
  Pd  Pd9  1  0.00000000  0.12294700  0.62294701  1
