# generated using pymatgen
data_Mg2Zn
_symmetry_space_group_name_H-M   'P 1'
_cell_length_a   3.31078005
_cell_length_b   4.95737410
_cell_length_c   7.61709404
_cell_angle_alpha   90.00000000
_cell_angle_beta   102.55200195
_cell_angle_gamma   90.00000000
_symmetry_Int_Tables_number   1
_chemical_formula_structural   Mg2Zn
_chemical_formula_sum   'Mg4 Zn2'
_cell_volume   122.02962603
_cell_formula_units_Z   2
loop_
 _symmetry_equiv_pos_site_id
 _symmetry_equiv_pos_as_xyz
  1  'x, y, z'
loop_
 _atom_site_type_symbol
 _atom_site_label
 _atom_site_symmetry_multiplicity
 _atom_site_fract_x
 _atom_site_fract_y
 _atom_site_fract_z
 _atom_site_occupancy
  Mg  Mg0  1  0.69122298  0.00000000  0.38244598  1
  Mg  Mg1  1  0.52794199  0.49999999  0.05588399  1
  Mg  Mg2  1  0.86746098  0.49999999  0.73492198  1
  Mg  Mg3  1  0.02928400  0.99999998  0.05856800  1
  Zn  Zn4  1  0.35364799  0.99999998  0.70729599  1
  Zn  Zn5  1  0.19711600  0.49999999  0.39423199  1
