# generated using pymatgen
data_UGe2
_symmetry_space_group_name_H-M   'P 1'
_cell_length_a   4.20275211
_cell_length_b   5.84073210
_cell_length_c   5.93123770
_cell_angle_alpha   119.33406067
_cell_angle_beta   110.74991608
_cell_angle_gamma   90.00000000
_symmetry_Int_Tables_number   1
_chemical_formula_structural   UGe2
_chemical_formula_sum   'U2 Ge4'
_cell_volume   115.97222992
_cell_formula_units_Z   2
loop_
 _symmetry_equiv_pos_site_id
 _symmetry_equiv_pos_as_xyz
  1  'x, y, z'
loop_
 _atom_site_type_symbol
 _atom_site_label
 _atom_site_symmetry_multiplicity
 _atom_site_fract_x
 _atom_site_fract_y
 _atom_site_fract_z
 _atom_site_occupancy
  U  U0  1  0.50265602  0.79186302  0.00531203  1
  U  U1  1  0.49734400  0.20813701  0.99468799  1
  Ge  Ge2  1  0.12960902  0.63556902  0.25921801  1
  Ge  Ge3  1  0.87039100  0.36443101  0.74078201  1
  Ge  Ge4  1  0.79134602  0.78753602  0.58269302  1
  Ge  Ge5  1  0.20865400  0.21246401  0.41730700  1
