# generated using pymatgen
data_Li8CuO10
_symmetry_space_group_name_H-M   'P 1'
_cell_length_a   5.07017803
_cell_length_b   5.82180309
_cell_length_c   6.42406654
_cell_angle_alpha   104.82785034
_cell_angle_beta   96.74523163
_cell_angle_gamma   107.47151184
_symmetry_Int_Tables_number   1
_chemical_formula_structural   Li8CuO10
_chemical_formula_sum   'Li8 Cu1 O10'
_cell_volume   170.92623438
_cell_formula_units_Z   1
loop_
 _symmetry_equiv_pos_site_id
 _symmetry_equiv_pos_as_xyz
  1  'x, y, z'
loop_
 _atom_site_type_symbol
 _atom_site_label
 _atom_site_symmetry_multiplicity
 _atom_site_fract_x
 _atom_site_fract_y
 _atom_site_fract_z
 _atom_site_occupancy
  Li  Li0  1  0.59909700  0.19337500  0.18997502  1
  Li  Li1  1  0.40090302  0.80662501  0.81002506  1
  Li  Li2  1  0.19598101  0.38813601  0.39068403  1
  Li  Li3  1  0.80401901  0.61186401  0.60931605  1
  Li  Li4  1  0.60494502  0.70275401  0.20248605  1
  Li  Li5  1  0.20318903  0.90310601  0.39889006  1
  Li  Li6  1  0.39505501  0.29724600  0.79751403  1
  Li  Li7  1  0.00000001  0.50000001  0.00000003  1
  Cu  Cu8  1  0.79681100  0.09689400  0.60111002  1
  O  O9  1  0.66674102  0.62578501  0.90922505  1
  O  O10  1  0.47997001  0.23866900  0.51400102  1
  O  O11  1  0.67356400  0.16309600  0.87329102  1
  O  O12  1  0.52003002  0.76133101  0.48599906  1
  O  O13  1  0.33325901  0.37421501  0.09077503  1
  O  O14  1  0.32643602  0.83690401  0.12670906  1
  O  O15  1  0.10396401  0.41908201  0.70115703  1
  O  O16  1  0.87548900  0.03419600  0.31719302  1
  O  O17  1  0.12451103  0.96580401  0.68280706  1
  O  O18  1  0.89603601  0.58091801  0.29884305  1
