# generated using pymatgen
data_HfNi2
_symmetry_space_group_name_H-M   'P 1'
_cell_length_a   4.99219179
_cell_length_b   4.99219084
_cell_length_c   7.77815199
_cell_angle_alpha   90.00000000
_cell_angle_beta   90.00000000
_cell_angle_gamma   120.00000763
_symmetry_Int_Tables_number   1
_chemical_formula_structural   HfNi2
_chemical_formula_sum   'Hf4 Ni8'
_cell_volume   167.87632918
_cell_formula_units_Z   4
loop_
 _symmetry_equiv_pos_site_id
 _symmetry_equiv_pos_as_xyz
  1  'x, y, z'
loop_
 _atom_site_type_symbol
 _atom_site_label
 _atom_site_symmetry_multiplicity
 _atom_site_fract_x
 _atom_site_fract_y
 _atom_site_fract_z
 _atom_site_occupancy
  Hf  Hf0  1  0.66666670  0.33333335  0.55445700  1
  Hf  Hf1  1  0.33333337  0.66666670  0.44554300  1
  Hf  Hf2  1  0.33333337  0.66666670  0.05445700  1
  Hf  Hf3  1  0.66666670  0.33333335  0.94554300  1
  Ni  Ni4  1  0.00000000  0.00000000  0.50000000  1
  Ni  Ni5  1  0.00000000  0.00000000  0.00000000  1
  Ni  Ni6  1  0.16720402  0.33440802  0.75000000  1
  Ni  Ni7  1  0.16720403  0.83279605  0.75000000  1
  Ni  Ni8  1  0.66559205  0.83279605  0.75000000  1
  Ni  Ni9  1  0.83279605  0.66559204  0.25000000  1
  Ni  Ni10  1  0.83279604  0.16720401  0.25000000  1
  Ni  Ni11  1  0.33440802  0.16720401  0.25000000  1
