# generated using pymatgen
data_MgAg
_symmetry_space_group_name_H-M   'P 1'
_cell_length_a   3.22409296
_cell_length_b   5.18140078
_cell_length_c   7.80533981
_cell_angle_alpha   105.74748993
_cell_angle_beta   90.00000000
_cell_angle_gamma   90.00000000
_symmetry_Int_Tables_number   1
_chemical_formula_structural   MgAg
_chemical_formula_sum   'Mg3 Ag3'
_cell_volume   125.49674496
_cell_formula_units_Z   3
loop_
 _symmetry_equiv_pos_site_id
 _symmetry_equiv_pos_as_xyz
  1  'x, y, z'
loop_
 _atom_site_type_symbol
 _atom_site_label
 _atom_site_symmetry_multiplicity
 _atom_site_fract_x
 _atom_site_fract_y
 _atom_site_fract_z
 _atom_site_occupancy
  Mg  Mg0  1  0.50000001  0.73197403  0.66829900  1
  Mg  Mg1  1  0.50000001  0.50000002  -0.00000001  1
  Mg  Mg2  1  0.50000001  0.26802601  0.33170100  1
  Ag  Ag3  1  -0.00000000  0.75872703  0.33805399  1
  Ag  Ag4  1  -0.00000000  0.24127301  0.66194600  1
  Ag  Ag5  1  0.00000000  0.00000000  0.00000000  1
