# generated using pymatgen
data_KMgH2I3O
_symmetry_space_group_name_H-M   'P 1'
_cell_length_a   7.55004263
_cell_length_b   7.55004263
_cell_length_c   8.98693943
_cell_angle_alpha   89.63034058
_cell_angle_beta   89.63034058
_cell_angle_gamma   85.42987823
_symmetry_Int_Tables_number   1
_chemical_formula_structural   KMgH2I3O
_chemical_formula_sum   'K2 Mg2 H4 I6 O2'
_cell_volume   510.63533888
_cell_formula_units_Z   2
loop_
 _symmetry_equiv_pos_site_id
 _symmetry_equiv_pos_as_xyz
  1  'x, y, z'
loop_
 _atom_site_type_symbol
 _atom_site_label
 _atom_site_symmetry_multiplicity
 _atom_site_fract_x
 _atom_site_fract_y
 _atom_site_fract_z
 _atom_site_occupancy
  K  K0  1  0.28714796  0.50813499  0.17398704  1
  K  K1  1  0.50813497  0.28714799  0.67398704  1
  Mg  Mg2  1  0.03413294  0.96649498  0.49995005  1
  Mg  Mg3  1  0.96649497  0.03413300  0.99995006  1
  H  H4  1  0.51240598  0.12965500  0.32197503  1
  H  H5  1  0.12965496  0.51240599  0.82197504  1
  H  H6  1  0.65250396  0.26937799  0.32080705  1
  H  H7  1  0.26937795  0.65250398  0.82080705  1
  I  I8  1  0.37896394  0.80280998  0.50544506  1
  I  I9  1  0.80280995  0.37896399  0.00544506  1
  I  I10  1  0.83204092  0.84624698  0.75132009  1
  I  I11  1  0.84624692  0.83204098  0.25132008  1
  I  I12  1  0.00912498  0.33794999  0.50575202  1
  I  I13  1  0.33794999  0.00912500  0.00575202  1
  O  O14  1  0.52923797  0.25397099  0.34826404  1
  O  O15  1  0.25397096  0.52923799  0.84826404  1
