# generated using pymatgen
data_BiCl3
_symmetry_space_group_name_H-M   'P 1'
_cell_length_a   6.95261288
_cell_length_b   6.95261288
_cell_length_c   7.47261572
_cell_angle_alpha   98.22113037
_cell_angle_beta   98.22113037
_cell_angle_gamma   119.96630096
_symmetry_Int_Tables_number   1
_chemical_formula_structural   BiCl3
_chemical_formula_sum   'Bi2 Cl6'
_cell_volume   299.87320879
_cell_formula_units_Z   2
loop_
 _symmetry_equiv_pos_site_id
 _symmetry_equiv_pos_as_xyz
  1  'x, y, z'
loop_
 _atom_site_type_symbol
 _atom_site_label
 _atom_site_symmetry_multiplicity
 _atom_site_fract_x
 _atom_site_fract_y
 _atom_site_fract_z
 _atom_site_occupancy
  Bi  Bi0  1  0.16668397  0.83331600  -0.00000002  1
  Bi  Bi1  1  0.83331601  0.16668400  -0.00000002  1
  Cl  Cl2  1  0.56371898  0.92036700  0.20797096  1
  Cl  Cl3  1  0.43628101  0.07963300  0.79202897  1
  Cl  Cl4  1  0.07963298  0.43628100  0.79202897  1
  Cl  Cl5  1  0.92036700  0.56371900  0.20797096  1
  Cl  Cl6  1  0.20772100  0.20772100  0.20798299  1
  Cl  Cl7  1  0.79227899  0.79227900  0.79201694  1
