# generated using pymatgen
data_LaNiGe4
_symmetry_space_group_name_H-M   'P 1'
_cell_length_a   5.16527510
_cell_length_b   6.28396988
_cell_length_c   6.28396988
_cell_angle_alpha   102.19156647
_cell_angle_beta   90.00000000
_cell_angle_gamma   90.00000000
_symmetry_Int_Tables_number   1
_chemical_formula_structural   LaNiGe4
_chemical_formula_sum   'La2 Ni2 Ge8'
_cell_volume   199.36772773
_cell_formula_units_Z   2
loop_
 _symmetry_equiv_pos_site_id
 _symmetry_equiv_pos_as_xyz
  1  'x, y, z'
loop_
 _atom_site_type_symbol
 _atom_site_label
 _atom_site_symmetry_multiplicity
 _atom_site_fract_x
 _atom_site_fract_y
 _atom_site_fract_z
 _atom_site_occupancy
  La  La0  1  0.25000000  0.65605101  0.65605104  1
  La  La1  1  0.74999999  0.34394901  0.34394902  1
  Ge  Ge2  1  0.74999999  0.90908102  0.53398905  1
  Ge  Ge3  1  0.74999999  0.53398901  0.90908103  1
  Ni  Ni4  1  0.25000000  0.09091900  0.46601101  1
  Ni  Ni5  1  0.74999999  0.95019002  0.95019006  1
  Ge  Ge6  1  0.25000000  0.04981000  0.04981000  1
  Ge  Ge7  1  0.25000000  0.46601101  0.09091903  1
  Ge  Ge8  1  0.49999999  0.78912401  0.21087604  1
  Ge  Ge9  1  -0.00000000  0.78912401  0.21087604  1
  Ge  Ge10  1  -0.00000000  0.21087600  0.78912402  1
  Ge  Ge11  1  0.49999999  0.21087600  0.78912402  1
