# generated using pymatgen
data_Ce2Sn3Ge3Pb2
_symmetry_space_group_name_H-M   'P 1'
_cell_length_a   5.59069681
_cell_length_b   5.59069681
_cell_length_c   7.65230274
_cell_angle_alpha   78.33470917
_cell_angle_beta   78.33470917
_cell_angle_gamma   60.96560287
_symmetry_Int_Tables_number   1
_chemical_formula_structural   Ce2Sn3Ge3Pb2
_chemical_formula_sum   'Ce2 Sn3 Ge3 Pb2'
_cell_volume   203.28414438
_cell_formula_units_Z   1
loop_
 _symmetry_equiv_pos_site_id
 _symmetry_equiv_pos_as_xyz
  1  'x, y, z'
loop_
 _atom_site_type_symbol
 _atom_site_label
 _atom_site_symmetry_multiplicity
 _atom_site_fract_x
 _atom_site_fract_y
 _atom_site_fract_z
 _atom_site_occupancy
  Ce  Ce0  1  0.78991002  0.50193300  0.85341301  1
  Ce  Ce1  1  0.49806701  0.21009000  0.64658700  1
  Sn  Sn2  1  0.21009001  0.49806700  0.14658701  1
  Sn  Sn3  1  0.50193302  0.78991000  0.35341301  1
  Sn  Sn4  1  0.11719802  0.88280200  0.75000000  1
  Pb  Pb5  1  0.88280201  0.11719800  0.25000001  1
  Ge  Ge6  1  0.99866202  0.71545300  0.50499801  1
  Ge  Ge7  1  0.28454700  0.00133800  0.99500199  1
  Ge  Ge8  1  0.71545303  0.99866200  0.00499802  1
  Pb  Pb9  1  0.00133801  0.28454700  0.49500200  1
