# generated using pymatgen
data_Zr7RuSe7
_symmetry_space_group_name_H-M   'P 1'
_cell_length_a   3.68355203
_cell_length_b   10.84652615
_cell_length_c   10.84652615
_cell_angle_alpha   120.00000000
_cell_angle_beta   90.00000000
_cell_angle_gamma   90.00000000
_symmetry_Int_Tables_number   1
_chemical_formula_structural   Zr7RuSe7
_chemical_formula_sum   'Zr7 Ru1 Se7'
_cell_volume   375.30018188
_cell_formula_units_Z   1
loop_
 _symmetry_equiv_pos_site_id
 _symmetry_equiv_pos_as_xyz
  1  'x, y, z'
loop_
 _atom_site_type_symbol
 _atom_site_label
 _atom_site_symmetry_multiplicity
 _atom_site_fract_x
 _atom_site_fract_y
 _atom_site_fract_z
 _atom_site_occupancy
  Zr  Zr0  1  0.74970699  0.89872999  0.51149499  1
  Zr  Zr1  1  0.74970699  0.48850499  0.38723499  1
  Zr  Zr2  1  0.74970699  0.61276499  0.10127000  1
  Zr  Zr3  1  0.25029300  0.10127000  0.48850499  1
  Zr  Zr4  1  0.25029300  0.51149499  0.61276499  1
  Zr  Zr5  1  0.25029300  0.38723499  0.89872998  1
  Zr  Zr6  1  0.50000000  0.00000000  -0.00000000  1
  Ru  Ru7  1  0.74978199  0.33333333  0.66666665  1
  Se  Se8  1  0.25021800  0.66666666  0.33333333  1
  Se  Se9  1  0.75192899  0.72693699  0.66298999  1
  Se  Se10  1  0.75192899  0.33700899  0.06394600  1
  Se  Se11  1  0.75192899  0.93605299  0.27306199  1
  Se  Se12  1  0.24807100  0.27306300  0.33700999  1
  Se  Se13  1  0.24807100  0.66299099  0.93605398  1
  Se  Se14  1  0.24807100  0.06394700  0.72693799  1
