# generated using pymatgen
data_Fe2S
_symmetry_space_group_name_H-M   'P 1'
_cell_length_a   3.25433111
_cell_length_b   5.34803391
_cell_length_c   5.34803391
_cell_angle_alpha   90.00000000
_cell_angle_beta   90.00000000
_cell_angle_gamma   90.00000000
_symmetry_Int_Tables_number   1
_chemical_formula_structural   Fe2S
_chemical_formula_sum   'Fe4 S2'
_cell_volume   93.07864276
_cell_formula_units_Z   2
loop_
 _symmetry_equiv_pos_site_id
 _symmetry_equiv_pos_as_xyz
  1  'x, y, z'
loop_
 _atom_site_type_symbol
 _atom_site_label
 _atom_site_symmetry_multiplicity
 _atom_site_fract_x
 _atom_site_fract_y
 _atom_site_fract_z
 _atom_site_occupancy
  Fe  Fe0  1  -0.00000000  0.29537201  0.29537201  1
  Fe  Fe1  1  -0.00000000  0.70462801  0.70462801  1
  Fe  Fe2  1  0.49999998  0.20462800  0.79537201  1
  Fe  Fe3  1  0.49999998  0.79537201  0.20462800  1
  S  S4  1  0.00000000  0.00000000  0.00000000  1
  S  S5  1  0.49999998  0.50000001  0.50000001  1
