# generated using pymatgen
data_Ba2TbPrCo4C9
_symmetry_space_group_name_H-M   'P 1'
_cell_length_a   5.69737053
_cell_length_b   5.69774485
_cell_length_c   8.54944134
_cell_angle_alpha   90.00218201
_cell_angle_beta   90.00435638
_cell_angle_gamma   60.00217438
_symmetry_Int_Tables_number   1
_chemical_formula_structural   Ba2TbPrCo4C9
_chemical_formula_sum   'Ba2 Tb1 Pr1 Co4 C9'
_cell_volume   240.35620821
_cell_formula_units_Z   1
loop_
 _symmetry_equiv_pos_site_id
 _symmetry_equiv_pos_as_xyz
  1  'x, y, z'
loop_
 _atom_site_type_symbol
 _atom_site_label
 _atom_site_symmetry_multiplicity
 _atom_site_fract_x
 _atom_site_fract_y
 _atom_site_fract_z
 _atom_site_occupancy
  Ba  Ba0  1  0.00001100  0.00000000  0.28745199  1
  Ba  Ba1  1  0.99999604  0.00000000  0.71269198  1
  Pr  Pr2  1  0.66660100  0.66677903  0.99999797  1
  Tb  Tb3  1  0.33344567  0.33322102  0.99999796  1
  Co  Co4  1  0.66660700  0.66676903  0.33342199  1
  Co  Co5  1  0.33343567  0.33323102  0.33342199  1
  Co  Co6  1  0.33343667  0.33323002  0.66653498  1
  Co  Co7  1  0.66661000  0.66677003  0.66653498  1
  C  C8  1  0.49995402  0.00000000  0.16336600  1
  C  C9  1  0.00001098  0.49995102  0.16334800  1
  C  C10  1  0.49996200  0.50004902  0.16334800  1
  C  C11  1  0.50000402  0.00000000  0.83662297  1
  C  C12  1  0.99997002  0.50002802  0.83658597  1
  C  C13  1  0.49999800  0.49997202  0.83658597  1
  C  C14  1  0.50001002  0.00000000  0.50000298  1
  C  C15  1  0.00000698  0.50001502  0.50004298  1
  C  C16  1  0.50002200  0.49998502  0.50004299  1
