# generated using pymatgen
data_GdZnO3
_symmetry_space_group_name_H-M   'P 1'
_cell_length_a   5.33684921
_cell_length_b   5.88754606
_cell_length_c   7.51291704
_cell_angle_alpha   90.00000000
_cell_angle_beta   90.00000000
_cell_angle_gamma   90.00000000
_symmetry_Int_Tables_number   1
_chemical_formula_structural   GdZnO3
_chemical_formula_sum   'Gd4 Zn4 O12'
_cell_volume   236.06295743
_cell_formula_units_Z   4
loop_
 _symmetry_equiv_pos_site_id
 _symmetry_equiv_pos_as_xyz
  1  'x, y, z'
loop_
 _atom_site_type_symbol
 _atom_site_label
 _atom_site_symmetry_multiplicity
 _atom_site_fract_x
 _atom_site_fract_y
 _atom_site_fract_z
 _atom_site_occupancy
  Gd  Gd0  1  0.51882198  0.58212499  0.25000000  1
  Gd  Gd1  1  0.98117796  0.08212500  0.25000000  1
  Gd  Gd2  1  0.48117798  0.41787500  0.75000000  1
  Gd  Gd3  1  0.01882200  0.91787499  0.75000000  1
  Zn  Zn4  1  0.00000000  0.49999999  -0.00000000  1
  Zn  Zn5  1  0.49999998  0.00000000  0.50000000  1
  Zn  Zn6  1  0.00000000  0.49999999  0.50000000  1
  Zn  Zn7  1  0.49999998  0.00000000  0.00000000  1
  O  O8  1  0.38449098  0.95974899  0.25000000  1
  O  O9  1  0.11550900  0.45974900  0.25000000  1
  O  O10  1  0.61550898  0.04025100  0.75000000  1
  O  O11  1  0.88449096  0.54025099  0.75000000  1
  O  O12  1  0.79891197  0.82585099  0.05541700  1
  O  O13  1  0.70108797  0.32585100  0.44458300  1
  O  O14  1  0.20108799  0.17414900  0.55541700  1
  O  O15  1  0.29891199  0.67414899  0.94458299  1
  O  O16  1  0.20108799  0.17414900  0.94458299  1
  O  O17  1  0.29891199  0.67414899  0.55541700  1
  O  O18  1  0.79891197  0.82585099  0.44458300  1
  O  O19  1  0.70108797  0.32585100  0.05541700  1
