# generated using pymatgen
data_Tm4ScAl5C8
_symmetry_space_group_name_H-M   'P 1'
_cell_length_a   3.13134599
_cell_length_b   8.41447067
_cell_length_c   8.41447067
_cell_angle_alpha   90.00000000
_cell_angle_beta   90.00000000
_cell_angle_gamma   90.00000000
_symmetry_Int_Tables_number   1
_chemical_formula_structural   Tm4ScAl5C8
_chemical_formula_sum   'Tm4 Sc1 Al5 C8'
_cell_volume   221.70968164
_cell_formula_units_Z   1
loop_
 _symmetry_equiv_pos_site_id
 _symmetry_equiv_pos_as_xyz
  1  'x, y, z'
loop_
 _atom_site_type_symbol
 _atom_site_label
 _atom_site_symmetry_multiplicity
 _atom_site_fract_x
 _atom_site_fract_y
 _atom_site_fract_z
 _atom_site_occupancy
  Tm  Tm0  1  0.00000000  0.00000000  0.00000000  1
  Tm  Tm1  1  0.50000000  0.50000002  0.50000002  1
  Tm  Tm2  1  1.00000000  0.36175501  0.82518203  1
  Tm  Tm3  1  0.00000000  0.63824502  0.17481801  1
  Al  Al4  1  0.00000000  0.17481801  0.36175501  1
  Al  Al5  1  0.00000000  0.82518203  0.63824502  1
  Al  Al6  1  0.50000000  0.12124400  0.65966603  1
  Sc  Sc7  1  0.50000000  0.87875603  0.34033401  1
  Al  Al8  1  0.50000000  0.34033401  0.12124400  1
  Al  Al9  1  0.50000000  0.65966603  0.87875603  1
  C  C10  1  0.50000000  0.20898701  0.89942703  1
  C  C11  1  0.50000000  0.79101303  0.10057300  1
  C  C12  1  0.50000000  0.10057300  0.20898701  1
  C  C13  1  0.50000000  0.89942703  0.79101303  1
  C  C14  1  0.00000000  0.28017401  0.58990902  1
  C  C15  1  1.00000000  0.71982603  0.41009102  1
  C  C16  1  1.00000000  0.41009102  0.28017401  1
  C  C17  1  0.00000000  0.58990902  0.71982603  1
