# generated using pymatgen
data_SrH3O4
_symmetry_space_group_name_H-M   'P 1'
_cell_length_a   3.68772292
_cell_length_b   6.23050594
_cell_length_c   6.76900482
_cell_angle_alpha   90.00000000
_cell_angle_beta   90.00000000
_cell_angle_gamma   90.00000000
_symmetry_Int_Tables_number   1
_chemical_formula_structural   SrH3O4
_chemical_formula_sum   'Sr2 H6 O8'
_cell_volume   155.52722416
_cell_formula_units_Z   2
loop_
 _symmetry_equiv_pos_site_id
 _symmetry_equiv_pos_as_xyz
  1  'x, y, z'
loop_
 _atom_site_type_symbol
 _atom_site_label
 _atom_site_symmetry_multiplicity
 _atom_site_fract_x
 _atom_site_fract_y
 _atom_site_fract_z
 _atom_site_occupancy
  Sr  Sr0  1  0.00000000  0.62630701  0.74890802  1
  Sr  Sr1  1  0.00000000  0.37369300  0.24890801  1
  H  H2  1  0.50000001  0.29617000  0.59408002  1
  H  H3  1  0.50000001  0.70383001  0.09408000  1
  H  H4  1  0.50000001  0.96667901  0.60631402  1
  H  H5  1  0.50000001  0.03332100  0.10631400  1
  H  H6  1  0.20964900  0.11991300  0.83091502  1
  H  H7  1  0.79035102  0.88008701  0.33091501  1
  O  O8  1  0.20964900  0.88008701  0.33091501  1
  O  O9  1  0.79035102  0.11991300  0.83091502  1
  O  O10  1  0.00000000  0.21323500  0.87631402  1
  O  O11  1  0.50000001  0.56191601  0.03315300  1
  O  O12  1  0.50000001  0.93920001  0.74820102  1
  O  O13  1  0.50000001  0.06080000  0.24820101  1
  O  O14  1  0.00000000  0.78676501  0.37631401  1
  O  O15  1  0.50000001  0.43808400  0.53315301  1
