# generated using pymatgen
data_K(InSb)2
_symmetry_space_group_name_H-M   'P 1'
_cell_length_a   4.88786793
_cell_length_b   4.88786793
_cell_length_c   7.21554947
_cell_angle_alpha   109.79792023
_cell_angle_beta   109.79792023
_cell_angle_gamma   90.00000000
_symmetry_Int_Tables_number   1
_chemical_formula_structural   K(InSb)2
_chemical_formula_sum   'K1 In2 Sb2'
_cell_volume   151.32525965
_cell_formula_units_Z   1
loop_
 _symmetry_equiv_pos_site_id
 _symmetry_equiv_pos_as_xyz
  1  'x, y, z'
loop_
 _atom_site_type_symbol
 _atom_site_label
 _atom_site_symmetry_multiplicity
 _atom_site_fract_x
 _atom_site_fract_y
 _atom_site_fract_z
 _atom_site_occupancy
  K  K0  1  0.00000000  0.00000000  0.00000000  1
  In  In1  1  0.75000000  0.25000000  0.50000000  1
  In  In2  1  0.24999999  0.75000000  0.49999999  1
  Sb  Sb3  1  0.38566700  0.38566700  0.77133400  1
  Sb  Sb4  1  0.61433299  0.61433300  0.22866598  1
