# generated using pymatgen
data_TaGa3
_symmetry_space_group_name_H-M   'P 1'
_cell_length_a   5.69938517
_cell_length_b   5.69938517
_cell_length_c   5.69938517
_cell_angle_alpha   60.00000000
_cell_angle_beta   60.00000000
_cell_angle_gamma   60.00000000
_symmetry_Int_Tables_number   1
_chemical_formula_structural   TaGa3
_chemical_formula_sum   'Ta2 Ga6'
_cell_volume   130.90885531
_cell_formula_units_Z   2
loop_
 _symmetry_equiv_pos_site_id
 _symmetry_equiv_pos_as_xyz
  1  'x, y, z'
loop_
 _atom_site_type_symbol
 _atom_site_label
 _atom_site_symmetry_multiplicity
 _atom_site_fract_x
 _atom_site_fract_y
 _atom_site_fract_z
 _atom_site_occupancy
  Ta  Ta0  1  0.00000000  0.00000000  0.00000000  1
  Ta  Ta1  1  0.50000001  0.50000001  0.50000001  1
  Ga  Ga2  1  0.00000000  1.00000003  0.50000001  1
  Ga  Ga3  1  0.00000000  0.50000001  -0.00000000  1
  Ga  Ga4  1  0.50000001  1.00000003  0.50000001  1
  Ga  Ga5  1  0.50000001  0.50000001  -0.00000000  1
  Ga  Ga6  1  0.50000001  1.00000003  -0.00000000  1
  Ga  Ga7  1  0.00000000  0.50000001  0.50000001  1
