# generated using pymatgen
data_V5(SbO4)3
_symmetry_space_group_name_H-M   'P 1'
_cell_length_a   5.22209692
_cell_length_b   5.22837496
_cell_length_c   7.72076654
_cell_angle_alpha   89.99761200
_cell_angle_beta   90.22850800
_cell_angle_gamma   89.98737335
_symmetry_Int_Tables_number   1
_chemical_formula_structural   V5(SbO4)3
_chemical_formula_sum   'V5 Sb3 O12'
_cell_volume   210.79903074
_cell_formula_units_Z   1
loop_
 _symmetry_equiv_pos_site_id
 _symmetry_equiv_pos_as_xyz
  1  'x, y, z'
loop_
 _atom_site_type_symbol
 _atom_site_label
 _atom_site_symmetry_multiplicity
 _atom_site_fract_x
 _atom_site_fract_y
 _atom_site_fract_z
 _atom_site_occupancy
  V  V0  1  0.00808803  0.96754901  0.75365599  1
  V  V1  1  0.49201402  0.46733401  0.74634301  1
  V  V2  1  0.50799202  0.53266801  0.25365501  1
  V  V3  1  0.99190401  0.03245300  0.24634303  1
  Sb  Sb4  1  0.99999702  0.49998701  0.99999903  1
  V  V5  1  0.49998103  0.99999601  0.50003201  1
  Sb  Sb6  1  0.00000701  0.50000201  0.49999600  1
  Sb  Sb7  1  0.49999100  0.00000000  0.00000502  1
  O  O8  1  0.88200002  0.41433601  0.25630502  1
  O  O9  1  0.82387601  0.17408200  0.93804402  1
  O  O10  1  0.83132501  0.17947500  0.56908202  1
  O  O11  1  0.66858203  0.67936001  0.93088701  1
  O  O12  1  0.67611703  0.67420701  0.56185201  1
  O  O13  1  0.61800503  0.91432901  0.24377301  1
  O  O14  1  0.38199401  0.08567200  0.75622401  1
  O  O15  1  0.32387901  0.32579200  0.43814701  1
  O  O16  1  0.33143401  0.32063900  0.06910501  1
  O  O17  1  0.17613903  0.82593301  0.06194800  1
  O  O18  1  0.16866902  0.82051801  0.43091500  1
  O  O19  1  0.11800602  0.58566801  0.74369100  1
