# generated using pymatgen
data_Ce(CuGe)2
_symmetry_space_group_name_H-M   'P 1'
_cell_length_a   3.97042608
_cell_length_b   3.97042608
_cell_length_c   6.13978243
_cell_angle_alpha   108.86479187
_cell_angle_beta   108.86479187
_cell_angle_gamma   90.00000000
_symmetry_Int_Tables_number   1
_chemical_formula_structural   Ce(CuGe)2
_chemical_formula_sum   'Ce1 Cu2 Ge2'
_cell_volume   86.07759158
_cell_formula_units_Z   1
loop_
 _symmetry_equiv_pos_site_id
 _symmetry_equiv_pos_as_xyz
  1  'x, y, z'
loop_
 _atom_site_type_symbol
 _atom_site_label
 _atom_site_symmetry_multiplicity
 _atom_site_fract_x
 _atom_site_fract_y
 _atom_site_fract_z
 _atom_site_occupancy
  Ce  Ce0  1  0.00000000  0.00000000  0.00000000  1
  Cu  Cu1  1  0.74999996  0.24999999  0.49999997  1
  Cu  Cu2  1  0.24999996  0.74999997  0.49999997  1
  Ge  Ge3  1  0.62050195  0.62050197  0.24100395  1
  Ge  Ge4  1  0.37949797  0.37949798  0.75899598  1
