# generated using pymatgen
data_CrS
_symmetry_space_group_name_H-M   'P 1'
_cell_length_a   3.84852791
_cell_length_b   3.84852791
_cell_length_c   12.78076172
_cell_angle_alpha   81.34064484
_cell_angle_beta   81.34064484
_cell_angle_gamma   60.00000381
_symmetry_Int_Tables_number   1
_chemical_formula_structural   CrS
_chemical_formula_sum   'Cr4 S4'
_cell_volume   161.44043861
_cell_formula_units_Z   4
loop_
 _symmetry_equiv_pos_site_id
 _symmetry_equiv_pos_as_xyz
  1  'x, y, z'
loop_
 _atom_site_type_symbol
 _atom_site_label
 _atom_site_symmetry_multiplicity
 _atom_site_fract_x
 _atom_site_fract_y
 _atom_site_fract_z
 _atom_site_occupancy
  Cr  Cr0  1  0.41665601  0.41665599  0.75003201  1
  Cr  Cr1  1  0.00003300  0.00003300  0.99990102  1
  Cr  Cr2  1  0.58337301  0.58337298  0.24988100  1
  Cr  Cr3  1  0.83332202  0.83332198  0.50003401  1
  S  S4  1  0.64591401  0.64591398  0.06225800  1
  S  S5  1  0.89584202  0.89584198  0.31247400  1
  S  S6  1  0.47912101  0.47912099  0.56263701  1
  S  S7  1  0.06250600  0.06250600  0.81248202  1
