# generated using pymatgen
data_Ta2Re5Mo
_symmetry_space_group_name_H-M   'P 1'
_cell_length_a   4.85069418
_cell_length_b   4.85069418
_cell_length_c   4.85069418
_cell_angle_alpha   98.20648956
_cell_angle_beta   98.20648956
_cell_angle_gamma   98.20648956
_symmetry_Int_Tables_number   1
_chemical_formula_structural   Ta2Re5Mo
_chemical_formula_sum   'Ta2 Re5 Mo1'
_cell_volume   110.24682004
_cell_formula_units_Z   1
loop_
 _symmetry_equiv_pos_site_id
 _symmetry_equiv_pos_as_xyz
  1  'x, y, z'
loop_
 _atom_site_type_symbol
 _atom_site_label
 _atom_site_symmetry_multiplicity
 _atom_site_fract_x
 _atom_site_fract_y
 _atom_site_fract_z
 _atom_site_occupancy
  Ta  Ta0  1  0.50000004  0.50000003  0.50000003  1
  Ta  Ta1  1  0.00000000  0.00000000  0.00000000  1
  Re  Re2  1  0.25200302  0.25200301  0.92418099  1
  Re  Re3  1  0.25200305  0.92418105  0.25200305  1
  Re  Re4  1  0.74799704  0.07581900  0.74799701  1
  Re  Re5  1  0.74799707  0.74799704  0.07581906  1
  Mo  Mo6  1  0.07581903  0.74799704  0.74799701  1
  Re  Re7  1  0.92418106  0.25200301  0.25200304  1
