# generated using pymatgen
data_Sm(Al2Fe)4
_symmetry_space_group_name_H-M   'P 1'
_cell_length_a   5.06091595
_cell_length_b   6.69482565
_cell_length_c   6.69482517
_cell_angle_alpha   81.78645325
_cell_angle_beta   67.79187775
_cell_angle_gamma   67.79185486
_symmetry_Int_Tables_number   1
_chemical_formula_structural   Sm(Al2Fe)4
_chemical_formula_sum   'Sm1 Al8 Fe4'
_cell_volume   194.42758401
_cell_formula_units_Z   1
loop_
 _symmetry_equiv_pos_site_id
 _symmetry_equiv_pos_as_xyz
  1  'x, y, z'
loop_
 _atom_site_type_symbol
 _atom_site_label
 _atom_site_symmetry_multiplicity
 _atom_site_fract_x
 _atom_site_fract_y
 _atom_site_fract_z
 _atom_site_occupancy
  Sm  Sm0  1  0.00000000  0.00000000  0.00000000  1
  Al  Al1  1  0.34111891  0.65888102  0.65888105  1
  Al  Al2  1  0.65888095  0.34111901  0.34111905  1
  Al  Al3  1  -0.00000008  0.65888102  0.34111904  1
  Al  Al4  1  -0.00000004  0.34111901  0.65888101  1
  Al  Al5  1  0.27761197  0.22238801  0.22238803  1
  Al  Al6  1  0.72238789  0.77761202  0.77761208  1
  Al  Al7  1  0.49999996  0.22238801  0.77761202  1
  Al  Al8  1  0.49999989  0.77761202  0.22238808  1
  Fe  Fe9  1  0.49999999  0.00000000  0.50000001  1
  Fe  Fe10  1  0.00000000  0.00000000  0.49999998  1
  Fe  Fe11  1  0.49999993  0.50000002  0.00000007  1
  Fe  Fe12  1  -0.00000006  0.50000002  0.00000004  1
