# generated using pymatgen
data_Li7FeMoO8
_symmetry_space_group_name_H-M   'P 1'
_cell_length_a   5.78325891
_cell_length_b   5.82931852
_cell_length_c   6.33912611
_cell_angle_alpha   115.82722473
_cell_angle_beta   116.68878937
_cell_angle_gamma   91.45436096
_symmetry_Int_Tables_number   1
_chemical_formula_structural   Li7FeMoO8
_chemical_formula_sum   'Li7 Fe1 Mo1 O8'
_cell_volume   165.24636855
_cell_formula_units_Z   1
loop_
 _symmetry_equiv_pos_site_id
 _symmetry_equiv_pos_as_xyz
  1  'x, y, z'
loop_
 _atom_site_type_symbol
 _atom_site_label
 _atom_site_symmetry_multiplicity
 _atom_site_fract_x
 _atom_site_fract_y
 _atom_site_fract_z
 _atom_site_occupancy
  Li  Li0  1  0.99972893  0.49983000  0.99963395  1
  Li  Li1  1  0.07771699  0.18422000  0.16839000  1
  Li  Li2  1  0.92243594  0.81629899  0.83182896  1
  Li  Li3  1  0.50014697  0.50003100  0.50012598  1
  Li  Li4  1  0.99980993  0.50003300  0.50004095  1
  Li  Li5  1  0.49990096  0.99961199  0.99977498  1
  Fe  Fe6  1  0.00033600  0.00010400  0.50004199  1
  Li  Li7  1  0.49972797  0.50014000  0.99977597  1
  Mo  Mo8  1  0.49972996  0.99972399  0.50014498  1
  O  O9  1  0.25493898  0.76231799  0.49827699  1
  O  O10  1  0.74552195  0.23776100  0.50222296  1
  O  O11  1  0.27521598  0.25014700  0.52426498  1
  O  O12  1  0.72506795  0.75000899  0.47581497  1
  O  O13  1  0.74105595  0.24597600  0.00482397  1
  O  O14  1  0.24926898  0.22193400  0.98586098  1
  O  O15  1  0.75076495  0.77796099  0.01397497  1
  O  O16  1  0.25863098  0.75390099  0.99499999  1
