# generated using pymatgen
data_ZrSe2
_symmetry_space_group_name_H-M   'P 1'
_cell_length_a   3.85690308
_cell_length_b   3.85690308
_cell_length_c   7.98132086
_cell_angle_alpha   90.00000000
_cell_angle_beta   90.00000000
_cell_angle_gamma   90.00000000
_symmetry_Int_Tables_number   1
_chemical_formula_structural   ZrSe2
_chemical_formula_sum   'Zr2 Se4'
_cell_volume   118.72774537
_cell_formula_units_Z   2
loop_
 _symmetry_equiv_pos_site_id
 _symmetry_equiv_pos_as_xyz
  1  'x, y, z'
loop_
 _atom_site_type_symbol
 _atom_site_label
 _atom_site_symmetry_multiplicity
 _atom_site_fract_x
 _atom_site_fract_y
 _atom_site_fract_z
 _atom_site_occupancy
  Zr  Zr0  1  0.00000000  0.49999999  0.72582801  1
  Zr  Zr1  1  0.49999999  0.00000000  0.27417200  1
  Se  Se2  1  0.00000000  0.49999999  0.36847701  1
  Se  Se3  1  0.49999999  0.00000000  0.63152301  1
  Se  Se4  1  0.00000000  0.00000000  0.00000000  1
  Se  Se5  1  0.49999999  0.49999999  0.00000000  1
