# generated using pymatgen
data_Li5Ni3O8
_symmetry_space_group_name_H-M   'P 1'
_cell_length_a   4.95334101
_cell_length_b   5.11978960
_cell_length_c   5.90683794
_cell_angle_alpha   72.66223907
_cell_angle_beta   89.53348541
_cell_angle_gamma   79.71871948
_symmetry_Int_Tables_number   1
_chemical_formula_structural   Li5Ni3O8
_chemical_formula_sum   'Li5 Ni3 O8'
_cell_volume   140.53380116
_cell_formula_units_Z   1
loop_
 _symmetry_equiv_pos_site_id
 _symmetry_equiv_pos_as_xyz
  1  'x, y, z'
loop_
 _atom_site_type_symbol
 _atom_site_label
 _atom_site_symmetry_multiplicity
 _atom_site_fract_x
 _atom_site_fract_y
 _atom_site_fract_z
 _atom_site_occupancy
  Li  Li0  1  0.75545602  0.50290197  0.61874701  1
  Li  Li1  1  0.24454402  0.49709797  0.38125302  1
  Li  Li2  1  0.75284802  0.49796797  0.12947400  1
  Li  Li3  1  0.24715202  0.50203197  0.87052603  1
  Li  Li4  1  0.00000000  0.00000000  0.50000001  1
  Ni  Ni5  1  0.00000000  0.00000000  0.00000000  1
  Ni  Ni6  1  0.50091500  0.00049800  0.74009600  1
  Ni  Ni7  1  0.49908504  0.99950194  0.25990403  1
  O  O8  1  0.60465701  0.23532299  0.44273000  1
  O  O9  1  0.13903401  0.21819699  0.17587801  1
  O  O10  1  0.64423401  0.22678199  0.94774000  1
  O  O11  1  0.13583001  0.22506399  0.71194402  1
  O  O12  1  0.86096603  0.78180296  0.82412202  1
  O  O13  1  0.39534303  0.76467696  0.55727003  1
  O  O14  1  0.86417003  0.77493596  0.28805601  1
  O  O15  1  0.35576603  0.77321796  0.05226002  1
