# generated using pymatgen
data_Hf2Ga3Ni
_symmetry_space_group_name_H-M   'P 1'
_cell_length_a   5.22921801
_cell_length_b   5.22942924
_cell_length_c   8.23239994
_cell_angle_alpha   90.00000000
_cell_angle_beta   90.00000000
_cell_angle_gamma   119.99864960
_symmetry_Int_Tables_number   1
_chemical_formula_structural   Hf2Ga3Ni
_chemical_formula_sum   'Hf4 Ga6 Ni2'
_cell_volume   194.96382707
_cell_formula_units_Z   2
loop_
 _symmetry_equiv_pos_site_id
 _symmetry_equiv_pos_as_xyz
  1  'x, y, z'
loop_
 _atom_site_type_symbol
 _atom_site_label
 _atom_site_symmetry_multiplicity
 _atom_site_fract_x
 _atom_site_fract_y
 _atom_site_fract_z
 _atom_site_occupancy
  Hf  Hf0  1  0.33333330  0.66666664  0.43930900  1
  Hf  Hf1  1  0.66666665  0.33333332  0.56069100  1
  Hf  Hf2  1  0.66666665  0.33333332  0.93930901  1
  Hf  Hf3  1  0.33333330  0.66666664  0.06069100  1
  Ga  Ga4  1  0.83414199  0.16580699  0.25000000  1
  Ga  Ga5  1  0.83415597  0.66831297  0.25000000  1
  Ga  Ga6  1  0.33166399  0.16580699  0.25000000  1
  Ga  Ga7  1  0.16585796  0.83419296  0.75000001  1
  Ga  Ga8  1  0.16584398  0.33168699  0.75000001  1
  Ga  Ga9  1  0.66833596  0.83419296  0.75000001  1
  Ni  Ni10  1  0.00000000  0.00000000  0.50000000  1
  Ni  Ni11  1  0.00000000  0.00000000  0.00000000  1
