# generated using pymatgen
data_NaCd7(GaRh)2
_symmetry_space_group_name_H-M   'P 1'
_cell_length_a   4.36531687
_cell_length_b   8.84173012
_cell_length_c   8.84172916
_cell_angle_alpha   120.00000000
_cell_angle_beta   90.00000000
_cell_angle_gamma   90.00000000
_symmetry_Int_Tables_number   1
_chemical_formula_structural   NaCd7(GaRh)2
_chemical_formula_sum   'Na1 Cd7 Ga2 Rh2'
_cell_volume   295.54312929
_cell_formula_units_Z   1
loop_
 _symmetry_equiv_pos_site_id
 _symmetry_equiv_pos_as_xyz
  1  'x, y, z'
loop_
 _atom_site_type_symbol
 _atom_site_label
 _atom_site_symmetry_multiplicity
 _atom_site_fract_x
 _atom_site_fract_y
 _atom_site_fract_z
 _atom_site_occupancy
  Na  Na0  1  0.00000000  0.00000000  0.00000000  1
  Cd  Cd1  1  0.50000002  0.20812999  0.79187000  1
  Cd  Cd2  1  0.50000002  0.41625998  0.20812998  1
  Cd  Cd3  1  -0.00000000  0.49999998  -0.00000003  1
  Cd  Cd4  1  0.50000002  0.79186997  0.20812996  1
  Cd  Cd5  1  0.50000002  0.20812999  0.41626000  1
  Cd  Cd6  1  0.50000002  0.79186997  0.58373997  1
  Cd  Cd7  1  0.50000002  0.58373998  0.79186998  1
  Ga  Ga8  1  -0.00000000  0.49999998  0.49999998  1
  Ga  Ga9  1  1.00000003  0.00000000  0.50000001  1
  Rh  Rh10  1  -0.00000000  0.66666664  0.33333330  1
  Rh  Rh11  1  -0.00000000  0.33333332  0.66666666  1
