# generated using pymatgen
data_Nd2Sb9
_symmetry_space_group_name_H-M   'P 1'
_cell_length_a   4.68214989
_cell_length_b   4.68214989
_cell_length_c   12.27621555
_cell_angle_alpha   90.00000000
_cell_angle_beta   90.00000000
_cell_angle_gamma   90.00000000
_symmetry_Int_Tables_number   1
_chemical_formula_structural   Nd2Sb9
_chemical_formula_sum   'Nd2 Sb9'
_cell_volume   269.12567386
_cell_formula_units_Z   1
loop_
 _symmetry_equiv_pos_site_id
 _symmetry_equiv_pos_as_xyz
  1  'x, y, z'
loop_
 _atom_site_type_symbol
 _atom_site_label
 _atom_site_symmetry_multiplicity
 _atom_site_fract_x
 _atom_site_fract_y
 _atom_site_fract_z
 _atom_site_occupancy
  Nd  Nd0  1  0.00000000  0.00000000  0.69536703  1
  Nd  Nd1  1  0.00000000  0.00000000  0.30463301  1
  Sb  Sb2  1  0.50000001  0.00000000  0.88338403  1
  Sb  Sb3  1  0.00000000  0.50000001  0.88338403  1
  Sb  Sb4  1  0.50000001  0.00000000  0.11661600  1
  Sb  Sb5  1  0.00000000  0.50000001  0.11661600  1
  Sb  Sb6  1  0.50000001  0.00000000  0.50000002  1
  Sb  Sb7  1  0.00000000  0.50000001  0.50000002  1
  Sb  Sb8  1  0.50000001  0.50000001  0.69541603  1
  Sb  Sb9  1  0.50000001  0.50000001  0.30458401  1
  Sb  Sb10  1  0.00000000  0.00000000  0.00000000  1
