# generated using pymatgen
data_F2
_symmetry_space_group_name_H-M   'P 1'
_cell_length_a   4.35495615
_cell_length_b   5.35329771
_cell_length_c   5.35329771
_cell_angle_alpha   80.47666931
_cell_angle_beta   65.99887848
_cell_angle_gamma   65.99887848
_symmetry_Int_Tables_number   1
_chemical_formula_structural   F2
_chemical_formula_sum   F6
_cell_volume   104.15481075
_cell_formula_units_Z   3
loop_
 _symmetry_equiv_pos_site_id
 _symmetry_equiv_pos_as_xyz
  1  'x, y, z'
loop_
 _atom_site_type_symbol
 _atom_site_label
 _atom_site_symmetry_multiplicity
 _atom_site_fract_x
 _atom_site_fract_y
 _atom_site_fract_z
 _atom_site_occupancy
  F  F0  1  0.00000000  0.00000000  0.00000000  1
  F  F1  1  0.90640196  0.36903300  0.81816300  1
  F  F2  1  0.49999999  0.00000000  -0.00000000  1
  F  F3  1  0.09359797  0.63096700  0.18183702  1
  F  F4  1  0.27543396  0.81816400  0.63096703  1
  F  F5  1  0.72456597  0.18183600  0.36903300  1
