# generated using pymatgen
data_Ca3YTi2NbVO12
_symmetry_space_group_name_H-M   'P 1'
_cell_length_a   5.47628832
_cell_length_b   5.67769194
_cell_length_c   7.99925995
_cell_angle_alpha   90.00000000
_cell_angle_beta   90.13834381
_cell_angle_gamma   90.00000000
_symmetry_Int_Tables_number   1
_chemical_formula_structural   Ca3YTi2NbVO12
_chemical_formula_sum   'Ca3 Y1 Ti2 Nb1 V1 O12'
_cell_volume   248.71768903
_cell_formula_units_Z   1
loop_
 _symmetry_equiv_pos_site_id
 _symmetry_equiv_pos_as_xyz
  1  'x, y, z'
loop_
 _atom_site_type_symbol
 _atom_site_label
 _atom_site_symmetry_multiplicity
 _atom_site_fract_x
 _atom_site_fract_y
 _atom_site_fract_z
 _atom_site_occupancy
  Ca  Ca0  1  0.25323100  0.73751601  0.00096600  1
  Ca  Ca1  1  0.74676899  0.23751600  0.99903403  1
  Ca  Ca2  1  0.26600800  0.83642201  0.50175101  1
  Y  Y3  1  0.73399199  0.33642200  0.49824902  1
  Ti  Ti4  1  0.75283899  0.78023201  0.24299202  1
  Ti  Ti5  1  0.24716100  0.28023200  0.75700801  1
  V  V6  1  0.76267899  0.76964101  0.75651002  1
  Nb  Nb7  1  0.23732100  0.26964100  0.24349001  1
  O  O8  1  0.56905599  0.04515600  0.67709702  1
  O  O9  1  0.43094400  0.54515601  0.32290301  1
  O  O10  1  0.53038099  0.07872000  0.32104501  1
  O  O11  1  0.46961900  0.57872001  0.67895502  1
  O  O12  1  0.93784899  0.43605800  0.22487802  1
  O  O13  1  0.06215100  0.93605801  0.77512201  1
  O  O14  1  0.91066899  0.46520801  0.78474603  1
  O  O15  1  0.08933100  0.96520801  0.21525400  1
  O  O16  1  0.86634099  0.72546701  0.50693602  1
  O  O17  1  0.13365900  0.22546700  0.49306401  1
  O  O18  1  0.67030699  0.80898801  0.97948502  1
  O  O19  1  0.32969300  0.30898800  0.02051501  1
