# generated using pymatgen
data_MgH2O3
_symmetry_space_group_name_H-M   'P 1'
_cell_length_a   3.81532741
_cell_length_b   5.72285748
_cell_length_c   5.76524734
_cell_angle_alpha   65.16007996
_cell_angle_beta   70.68119812
_cell_angle_gamma   70.53334045
_symmetry_Int_Tables_number   1
_chemical_formula_structural   MgH2O3
_chemical_formula_sum   'Mg2 H4 O6'
_cell_volume   104.99259604
_cell_formula_units_Z   2
loop_
 _symmetry_equiv_pos_site_id
 _symmetry_equiv_pos_as_xyz
  1  'x, y, z'
loop_
 _atom_site_type_symbol
 _atom_site_label
 _atom_site_symmetry_multiplicity
 _atom_site_fract_x
 _atom_site_fract_y
 _atom_site_fract_z
 _atom_site_occupancy
  Mg  Mg0  1  0.56434296  0.75000199  0.25001305  1
  Mg  Mg1  1  0.43565698  0.24999800  0.74998603  1
  H  H2  1  0.08217499  0.21383000  0.23413901  1
  H  H3  1  0.53014298  0.28614900  0.26581803  1
  H  H4  1  0.91782595  0.78616999  0.76586106  1
  H  H5  1  0.46985896  0.71384999  0.73418105  1
  O  O6  1  0.00758097  0.75004899  0.25001204  1
  O  O7  1  0.64549195  0.85093199  0.85327106  1
  O  O8  1  0.99241598  0.24995000  0.74998804  1
  O  O9  1  0.35450699  0.14906800  0.14672902  1
  O  O10  1  0.34973697  0.64905199  0.64675104  1
  O  O11  1  0.65026298  0.35094700  0.35325003  1
