# generated using pymatgen
data_HfFe2
_symmetry_space_group_name_H-M   'P 1'
_cell_length_a   4.86629391
_cell_length_b   5.00388575
_cell_length_c   8.05499935
_cell_angle_alpha   90.00000000
_cell_angle_beta   90.00000000
_cell_angle_gamma   119.09449768
_symmetry_Int_Tables_number   1
_chemical_formula_structural   HfFe2
_chemical_formula_sum   'Hf4 Fe8'
_cell_volume   171.39284015
_cell_formula_units_Z   4
loop_
 _symmetry_equiv_pos_site_id
 _symmetry_equiv_pos_as_xyz
  1  'x, y, z'
loop_
 _atom_site_type_symbol
 _atom_site_label
 _atom_site_symmetry_multiplicity
 _atom_site_fract_x
 _atom_site_fract_y
 _atom_site_fract_z
 _atom_site_occupancy
  Hf  Hf0  1  0.66488800  0.32977600  0.81194696  1
  Hf  Hf1  1  0.33585797  0.67171599  0.68946797  1
  Hf  Hf2  1  0.33585797  0.67171599  0.31053199  1
  Hf  Hf3  1  0.66488800  0.32977600  0.18805299  1
  Fe  Fe4  1  0.99551897  0.99103799  0.75555297  1
  Fe  Fe5  1  0.99551897  0.99103799  0.24444699  1
  Fe  Fe6  1  0.17223296  0.83881699  0.99999996  1
  Fe  Fe7  1  0.66658397  0.83881699  0.99999996  1
  Fe  Fe8  1  0.17147699  0.34295400  0.99999996  1
  Fe  Fe9  1  0.83237401  0.16425800  0.49999998  1
  Fe  Fe10  1  0.33188400  0.16425800  0.49999998  1
  Fe  Fe11  1  0.83434798  0.66869599  0.49999998  1
