# generated using pymatgen
data_CeMg3ZrGa
_symmetry_space_group_name_H-M   'P 1'
_cell_length_a   5.68087482
_cell_length_b   5.68087482
_cell_length_c   5.68087482
_cell_angle_alpha   60.63845825
_cell_angle_beta   60.63845825
_cell_angle_gamma   60.63845444
_symmetry_Int_Tables_number   1
_chemical_formula_structural   CeMg3ZrGa
_chemical_formula_sum   'Ce1 Mg3 Zr1 Ga1'
_cell_volume   131.50635216
_cell_formula_units_Z   1
loop_
 _symmetry_equiv_pos_site_id
 _symmetry_equiv_pos_as_xyz
  1  'x, y, z'
loop_
 _atom_site_type_symbol
 _atom_site_label
 _atom_site_symmetry_multiplicity
 _atom_site_fract_x
 _atom_site_fract_y
 _atom_site_fract_z
 _atom_site_occupancy
  Zr  Zr0  1  0.87644300  0.87644298  0.87644304  1
  Ce  Ce1  1  0.12355700  0.12355700  0.12355700  1
  Mg  Mg2  1  0.49999999  0.00000000  0.50000001  1
  Mg  Mg3  1  0.50000000  0.49999999  0.00000003  1
  Mg  Mg4  1  0.00000001  0.49999999  0.50000000  1
  Ga  Ga5  1  0.50000000  0.49999999  0.50000002  1
