# generated using pymatgen
data_CeFeSb2
_symmetry_space_group_name_H-M   'P 1'
_cell_length_a   4.45106983
_cell_length_b   4.51581907
_cell_length_c   22.62601852
_cell_angle_alpha   90.00000000
_cell_angle_beta   90.00000000
_cell_angle_gamma   90.00000000
_symmetry_Int_Tables_number   1
_chemical_formula_structural   CeFeSb2
_chemical_formula_sum   'Ce4 Fe4 Sb8'
_cell_volume   454.78808674
_cell_formula_units_Z   4
loop_
 _symmetry_equiv_pos_site_id
 _symmetry_equiv_pos_as_xyz
  1  'x, y, z'
loop_
 _atom_site_type_symbol
 _atom_site_label
 _atom_site_symmetry_multiplicity
 _atom_site_fract_x
 _atom_site_fract_y
 _atom_site_fract_z
 _atom_site_occupancy
  Ce  Ce0  1  0.25000001  0.72503099  0.11885900  1
  Ce  Ce1  1  0.75000003  0.27496900  0.88114102  1
  Ce  Ce2  1  0.75000003  0.22503100  0.38114101  1
  Ce  Ce3  1  0.25000001  0.77496899  0.61885901  1
  Fe  Fe4  1  0.25000001  0.22342100  0.25005801  1
  Fe  Fe5  1  0.75000003  0.77657899  0.74994202  1
  Fe  Fe6  1  0.75000003  0.72342099  0.24994201  1
  Fe  Fe7  1  0.25000001  0.27657900  0.75005802  1
  Sb  Sb8  1  0.25000001  0.72553599  0.31915701  1
  Sb  Sb9  1  0.75000003  0.27446400  0.68084301  1
  Sb  Sb10  1  0.75000003  0.22553600  0.18084300  1
  Sb  Sb11  1  0.25000001  0.77446399  0.81915702  1
  Sb  Sb12  1  0.25000001  0.21469300  0.00162200  1
  Sb  Sb13  1  0.75000003  0.78530699  0.99837802  1
  Sb  Sb14  1  0.75000003  0.71469299  0.49837801  1
  Sb  Sb15  1  0.25000001  0.28530700  0.50162201  1
