# generated using pymatgen
data_MgPb3
_symmetry_space_group_name_H-M   'P 1'
_cell_length_a   5.29960680
_cell_length_b   6.64458179
_cell_length_c   6.64458227
_cell_angle_alpha   60.00000000
_cell_angle_beta   90.00000000
_cell_angle_gamma   90.00000000
_symmetry_Int_Tables_number   1
_chemical_formula_structural   MgPb3
_chemical_formula_sum   'Mg2 Pb6'
_cell_volume   202.63273927
_cell_formula_units_Z   2
loop_
 _symmetry_equiv_pos_site_id
 _symmetry_equiv_pos_as_xyz
  1  'x, y, z'
loop_
 _atom_site_type_symbol
 _atom_site_label
 _atom_site_symmetry_multiplicity
 _atom_site_fract_x
 _atom_site_fract_y
 _atom_site_fract_z
 _atom_site_occupancy
  Mg  Mg0  1  0.25000001  0.33333335  0.33333332  1
  Mg  Mg1  1  0.75000003  0.66666669  0.66666664  1
  Pb  Pb2  1  0.75000003  0.66183603  0.16908199  1
  Pb  Pb3  1  0.75000003  0.16908201  0.16908199  1
  Pb  Pb4  1  0.75000003  0.16908201  0.66183599  1
  Pb  Pb5  1  0.25000001  0.33816401  0.83091798  1
  Pb  Pb6  1  0.25000001  0.83091803  0.83091797  1
  Pb  Pb7  1  0.25000001  0.83091803  0.33816398  1
