# generated using pymatgen
data_NdFe4(CuO4)3
_symmetry_space_group_name_H-M   'P 1'
_cell_length_a   6.49060249
_cell_length_b   6.49060249
_cell_length_c   6.49060249
_cell_angle_alpha   109.47122192
_cell_angle_beta   109.47122192
_cell_angle_gamma   109.47122192
_symmetry_Int_Tables_number   1
_chemical_formula_structural   NdFe4(CuO4)3
_chemical_formula_sum   'Nd1 Fe4 Cu3 O12'
_cell_volume   210.49080320
_cell_formula_units_Z   1
loop_
 _symmetry_equiv_pos_site_id
 _symmetry_equiv_pos_as_xyz
  1  'x, y, z'
loop_
 _atom_site_type_symbol
 _atom_site_label
 _atom_site_symmetry_multiplicity
 _atom_site_fract_x
 _atom_site_fract_y
 _atom_site_fract_z
 _atom_site_occupancy
  Nd  Nd0  1  0.00000000  0.00000000  0.00000000  1
  Fe  Fe1  1  0.49999999  0.00000000  0.00000001  1
  Fe  Fe2  1  0.50000002  0.50000001  0.50000003  1
  Fe  Fe3  1  0.00000003  0.50000001  0.00000003  1
  Fe  Fe4  1  0.00000000  0.00000000  0.49999999  1
  Cu  Cu5  1  0.00000003  0.50000001  0.50000002  1
  Cu  Cu6  1  0.50000002  0.50000001  0.00000004  1
  Cu  Cu7  1  0.49999999  0.00000000  0.50000000  1
  O  O8  1  0.52192503  0.68845701  0.83346703  1
  O  O9  1  0.47807501  0.31154300  0.16653302  1
  O  O10  1  0.85499003  0.68845801  0.16653205  1
  O  O11  1  0.14501002  0.31154200  0.83346800  1
  O  O12  1  0.31154205  0.83346701  0.14501005  1
  O  O13  1  0.68845800  0.16653300  0.85499000  1
  O  O14  1  0.31154201  0.16653200  0.47807400  1
  O  O15  1  0.68845804  0.83346801  0.52192605  1
  O  O16  1  0.16653203  0.47807401  0.31154202  1
  O  O17  1  0.83346802  0.52192601  0.68845803  1
  O  O18  1  0.83346800  0.14501000  0.31154302  1
  O  O19  1  0.16653205  0.85499001  0.68845703  1
