# generated using pymatgen
data_TaNi3
_symmetry_space_group_name_H-M   'P 1'
_cell_length_a   4.30299091
_cell_length_b   5.37801981
_cell_length_c   5.37801933
_cell_angle_alpha   120.00000763
_cell_angle_beta   90.00000000
_cell_angle_gamma   90.00000000
_symmetry_Int_Tables_number   1
_chemical_formula_structural   TaNi3
_chemical_formula_sum   'Ta2 Ni6'
_cell_volume   107.78188730
_cell_formula_units_Z   2
loop_
 _symmetry_equiv_pos_site_id
 _symmetry_equiv_pos_as_xyz
  1  'x, y, z'
loop_
 _atom_site_type_symbol
 _atom_site_label
 _atom_site_symmetry_multiplicity
 _atom_site_fract_x
 _atom_site_fract_y
 _atom_site_fract_z
 _atom_site_occupancy
  Ta  Ta0  1  0.25000001  0.66666671  0.33333336  1
  Ta  Ta1  1  0.75000002  0.33333335  0.66666667  1
  Ni  Ni2  1  0.75000002  0.83289305  0.16710704  1
  Ni  Ni3  1  0.75000002  0.33421402  0.16710701  1
  Ni  Ni4  1  0.75000002  0.83289305  0.66578602  1
  Ni  Ni5  1  0.25000001  0.16710701  0.83289299  1
  Ni  Ni6  1  0.25000001  0.66578604  0.83289301  1
  Ni  Ni7  1  0.25000001  0.16710701  0.33421400  1
