# generated using pymatgen
data_Ba2Sb3
_symmetry_space_group_name_H-M   'P 1'
_cell_length_a   4.48431587
_cell_length_b   13.38222408
_cell_length_c   13.52519321
_cell_angle_alpha   104.52753448
_cell_angle_beta   90.00000000
_cell_angle_gamma   99.64525604
_symmetry_Int_Tables_number   1
_chemical_formula_structural   Ba2Sb3
_chemical_formula_sum   'Ba8 Sb12'
_cell_volume   773.83966983
_cell_formula_units_Z   4
loop_
 _symmetry_equiv_pos_site_id
 _symmetry_equiv_pos_as_xyz
  1  'x, y, z'
loop_
 _atom_site_type_symbol
 _atom_site_label
 _atom_site_symmetry_multiplicity
 _atom_site_fract_x
 _atom_site_fract_y
 _atom_site_fract_z
 _atom_site_occupancy
  Ba  Ba0  1  0.11363501  0.22727000  0.11872399  1
  Ba  Ba1  1  0.88636505  0.77272999  0.88127595  1
  Ba  Ba2  1  0.34137104  0.68274199  0.12929497  1
  Ba  Ba3  1  0.43575804  0.87151599  0.63063895  1
  Ba  Ba4  1  0.08003401  0.16006800  0.88247497  1
  Ba  Ba5  1  0.98633406  0.97266799  0.38084595  1
  Ba  Ba6  1  0.91996606  0.83993199  0.11752496  1
  Ba  Ba7  1  0.79052604  0.58105199  0.37223097  1
  Sb  Sb8  1  0.46460805  0.92921599  0.86888694  1
  Sb  Sb9  1  0.56424202  0.12848400  0.36936099  1
  Sb  Sb10  1  0.01366600  0.02733200  0.61915398  1
  Sb  Sb11  1  0.53539202  0.07078400  0.13111299  1
  Sb  Sb12  1  0.65862903  0.31725800  0.87070497  1
  Sb  Sb13  1  0.62901703  0.25803400  0.63577598  1
  Sb  Sb14  1  0.37098304  0.74196599  0.36422396  1
  Sb  Sb15  1  0.20947402  0.41894800  0.62776897  1
  Sb  Sb16  1  0.26892903  0.53785799  0.86316196  1
  Sb  Sb17  1  0.73107104  0.46214199  0.13683798  1
  Sb  Sb18  1  0.81929005  0.63857999  0.61045896  1
  Sb  Sb19  1  0.18071002  0.36142000  0.38954098  1
