# generated using pymatgen
data_Zr10Si9Sn
_symmetry_space_group_name_H-M   'P 1'
_cell_length_a   6.79215622
_cell_length_b   7.18420315
_cell_length_c   9.84614182
_cell_angle_alpha   90.00000000
_cell_angle_beta   90.00000000
_cell_angle_gamma   90.00000000
_symmetry_Int_Tables_number   1
_chemical_formula_structural   Zr10Si9Sn
_chemical_formula_sum   'Zr10 Si9 Sn1'
_cell_volume   480.45460154
_cell_formula_units_Z   1
loop_
 _symmetry_equiv_pos_site_id
 _symmetry_equiv_pos_as_xyz
  1  'x, y, z'
loop_
 _atom_site_type_symbol
 _atom_site_label
 _atom_site_symmetry_multiplicity
 _atom_site_fract_x
 _atom_site_fract_y
 _atom_site_fract_z
 _atom_site_occupancy
  Zr  Zr0  1  0.47501098  0.08013000  0.25000000  1
  Zr  Zr1  1  0.97501097  0.41986999  0.75000001  1
  Zr  Zr2  1  0.02498900  0.58012999  0.25000000  1
  Zr  Zr3  1  0.52498898  0.91986998  0.75000001  1
  Zr  Zr4  1  0.00000000  0.00000000  0.00000000  1
  Zr  Zr5  1  0.49999998  0.49999999  0.00000000  1
  Zr  Zr6  1  0.49999998  0.49999999  0.50000001  1
  Zr  Zr7  1  0.00000000  0.00000000  0.50000001  1
  Zr  Zr8  1  0.40172299  0.51988499  0.75000001  1
  Si  Si9  1  0.90172297  0.98011498  0.25000000  1
  Zr  Zr10  1  0.09827700  0.01988500  0.75000001  1
  Si  Si11  1  0.59827698  0.48011499  0.25000000  1
  Si  Si12  1  0.19229299  0.30321899  0.05052300  1
  Si  Si13  1  0.69229298  0.19678100  0.94947702  1
  Si  Si14  1  0.30770699  0.80321898  0.44947701  1
  Si  Si15  1  0.80770697  0.69678099  0.55052301  1
  Si  Si16  1  0.19229299  0.30321899  0.44947701  1
  Sn  Sn17  1  0.69229298  0.19678100  0.55052301  1
  Si  Si18  1  0.30770699  0.80321898  0.05052300  1
  Si  Si19  1  0.80770697  0.69678099  0.94947702  1
