# generated using pymatgen
data_KRbZr2(SO7)2
_symmetry_space_group_name_H-M   'P 1'
_cell_length_a   5.75131512
_cell_length_b   5.75131512
_cell_length_c   10.49150085
_cell_angle_alpha   74.64324951
_cell_angle_beta   74.64324951
_cell_angle_gamma   86.81237793
_symmetry_Int_Tables_number   1
_chemical_formula_structural   KRbZr2(SO7)2
_chemical_formula_sum   'Rb1 K1 Zr2 S2 O14'
_cell_volume   322.65566050
_cell_formula_units_Z   1
loop_
 _symmetry_equiv_pos_site_id
 _symmetry_equiv_pos_as_xyz
  1  'x, y, z'
loop_
 _atom_site_type_symbol
 _atom_site_label
 _atom_site_symmetry_multiplicity
 _atom_site_fract_x
 _atom_site_fract_y
 _atom_site_fract_z
 _atom_site_occupancy
  Zr  Zr0  1  0.00000000  0.00000000  0.50000001  1
  Rb  Rb1  1  0.00000000  0.00000000  0.00000000  1
  Zr  Zr2  1  0.33407404  0.66592600  0.24999997  1
  K  K3  1  0.66592602  0.33407400  0.74999998  1
  S  S4  1  0.59608704  0.53878900  0.83277298  1
  O  O5  1  0.46121103  0.40391300  0.66722699  1
  S  S6  1  0.40391303  0.46121100  0.16722697  1
  O  O7  1  0.53878904  0.59608700  0.33277297  1
  O  O8  1  0.18145801  0.21083300  0.52499400  1
  O  O9  1  0.78916705  0.81854200  0.97500596  1
  O  O10  1  0.81854205  0.78916700  0.47500595  1
  O  O11  1  0.21083301  0.18145800  0.02499399  1
  O  O12  1  0.24334706  0.96249900  0.35345696  1
  O  O13  1  0.03750105  0.75665300  0.14654297  1
  O  O14  1  0.75665300  0.03750100  0.64654299  1
  O  O15  1  0.96249901  0.24334700  0.85345698  1
  O  O16  1  0.88455701  0.23383900  0.39000997  1
  O  O17  1  0.76616101  0.11544300  0.10998997  1
  O  O18  1  0.11544305  0.76616100  0.60998998  1
  O  O19  1  0.23383906  0.88455700  0.89000998  1
