# generated using pymatgen
data_CrSe2
_symmetry_space_group_name_H-M   'P 1'
_cell_length_a   6.09980488
_cell_length_b   6.09980488
_cell_length_c   6.09980488
_cell_angle_alpha   90.00000000
_cell_angle_beta   90.00000000
_cell_angle_gamma   90.00000000
_symmetry_Int_Tables_number   1
_chemical_formula_structural   CrSe2
_chemical_formula_sum   'Cr4 Se8'
_cell_volume   226.95921925
_cell_formula_units_Z   4
loop_
 _symmetry_equiv_pos_site_id
 _symmetry_equiv_pos_as_xyz
  1  'x, y, z'
loop_
 _atom_site_type_symbol
 _atom_site_label
 _atom_site_symmetry_multiplicity
 _atom_site_fract_x
 _atom_site_fract_y
 _atom_site_fract_z
 _atom_site_occupancy
  Cr  Cr0  1  0.00000000  0.50000001  0.50000001  1
  Cr  Cr1  1  0.50000001  0.50000001  0.00000000  1
  Cr  Cr2  1  0.50000001  0.00000000  0.50000001  1
  Cr  Cr3  1  0.00000000  0.00000000  0.00000000  1
  Se  Se4  1  0.37807201  0.12192800  0.87807202  1
  Se  Se5  1  0.12192800  0.87807202  0.37807201  1
  Se  Se6  1  0.87807202  0.37807201  0.12192800  1
  Se  Se7  1  0.62192801  0.62192801  0.62192801  1
  Se  Se8  1  0.37807201  0.37807201  0.37807201  1
  Se  Se9  1  0.12192800  0.62192801  0.87807202  1
  Se  Se10  1  0.87807202  0.12192800  0.62192801  1
  Se  Se11  1  0.62192801  0.87807202  0.12192800  1
