# generated using pymatgen
data_Li3FeCoNiO6
_symmetry_space_group_name_H-M   'P 1'
_cell_length_a   4.97967291
_cell_length_b   5.03553295
_cell_length_c   5.05887127
_cell_angle_alpha   81.05319214
_cell_angle_beta   71.68100739
_cell_angle_gamma   60.37676620
_symmetry_Int_Tables_number   1
_chemical_formula_structural   Li3FeCoNiO6
_chemical_formula_sum   'Li3 Fe1 Co1 Ni1 O6'
_cell_volume   104.68394647
_cell_formula_units_Z   1
loop_
 _symmetry_equiv_pos_site_id
 _symmetry_equiv_pos_as_xyz
  1  'x, y, z'
loop_
 _atom_site_type_symbol
 _atom_site_label
 _atom_site_symmetry_multiplicity
 _atom_site_fract_x
 _atom_site_fract_y
 _atom_site_fract_z
 _atom_site_occupancy
  Li  Li0  1  0.00045599  0.99991501  0.99981904  1
  Li  Li1  1  0.66651397  0.66645301  0.99997303  1
  Li  Li2  1  0.33293599  0.33363300  0.99996802  1
  Fe  Fe3  1  0.83419497  0.33233100  0.50045801  1
  Co  Co4  1  0.16600999  0.66756801  0.49995502  1
  Ni  Ni5  1  0.49973198  0.00015900  0.49996700  1
  O  O6  1  0.77064497  0.99984901  0.73070303  1
  O  O7  1  0.07180899  0.34487900  0.72297602  1
  O  O8  1  0.41633898  0.65534901  0.72308302  1
  O  O9  1  0.92815496  0.65457301  0.27754002  1
  O  O10  1  0.58249198  0.34560200  0.27756201  1
  O  O11  1  0.23064798  0.99969001  0.26811103  1
