# generated using pymatgen
data_CeSi4
_symmetry_space_group_name_H-M   'P 1'
_cell_length_a   5.69306850
_cell_length_b   8.11737537
_cell_length_c   8.11737537
_cell_angle_alpha   93.33997345
_cell_angle_beta   108.90982819
_cell_angle_gamma   108.90982819
_symmetry_Int_Tables_number   1
_chemical_formula_structural   CeSi4
_chemical_formula_sum   'Ce4 Si16'
_cell_volume   330.09260676
_cell_formula_units_Z   4
loop_
 _symmetry_equiv_pos_site_id
 _symmetry_equiv_pos_as_xyz
  1  'x, y, z'
loop_
 _atom_site_type_symbol
 _atom_site_label
 _atom_site_symmetry_multiplicity
 _atom_site_fract_x
 _atom_site_fract_y
 _atom_site_fract_z
 _atom_site_occupancy
  Ce  Ce0  1  0.23811001  0.59799103  0.86694203  1
  Ce  Ce1  1  0.26189001  0.13305801  0.40200902  1
  Ce  Ce2  1  0.76189002  0.40200902  0.13305800  1
  Ce  Ce3  1  0.73811002  0.86694204  0.59799101  1
  Si  Si4  1  0.16224501  0.26622301  0.05881700  1
  Si  Si5  1  0.33775502  0.94118304  0.73377701  1
  Si  Si6  1  0.83775502  0.73377703  0.94118303  1
  Si  Si7  1  0.66224501  0.05881700  0.26622302  1
  Si  Si8  1  0.25000001  0.79030604  0.20969399  1
  Si  Si9  1  0.75000001  0.20969401  0.79030604  1
  Si  Si10  1  0.25000001  0.48834202  0.51165801  1
  Si  Si11  1  0.75000002  0.51165802  0.48834202  1
  Si  Si12  1  0.25000001  0.22285401  0.77714603  1
  Si  Si13  1  0.75000002  0.77714604  0.22285400  1
  Si  Si14  1  0.37501601  0.54043203  0.26032500  1
  Si  Si15  1  0.12498401  0.73967503  0.45956800  1
  Si  Si16  1  0.62498402  0.45956802  0.73967503  1
  Si  Si17  1  0.87501602  0.26032501  0.54043203  1
  Si  Si18  1  0.25000002  0.99821705  0.00178298  1
  Si  Si19  1  0.75000001  0.00178300  0.99821705  1
