# generated using pymatgen
data_RbMn4As3
_symmetry_space_group_name_H-M   'P 1'
_cell_length_a   3.86703610
_cell_length_b   3.86703610
_cell_length_c   10.13096142
_cell_angle_alpha   90.00000000
_cell_angle_beta   90.00000000
_cell_angle_gamma   90.00000000
_symmetry_Int_Tables_number   1
_chemical_formula_structural   RbMn4As3
_chemical_formula_sum   'Rb1 Mn4 As3'
_cell_volume   151.49807520
_cell_formula_units_Z   1
loop_
 _symmetry_equiv_pos_site_id
 _symmetry_equiv_pos_as_xyz
  1  'x, y, z'
loop_
 _atom_site_type_symbol
 _atom_site_label
 _atom_site_symmetry_multiplicity
 _atom_site_fract_x
 _atom_site_fract_y
 _atom_site_fract_z
 _atom_site_occupancy
  Rb  Rb0  1  0.00000000  0.00000000  0.49999998  1
  Mn  Mn1  1  -0.00000000  0.49999999  0.16170099  1
  Mn  Mn2  1  -0.00000000  0.49999999  0.83829897  1
  Mn  Mn3  1  0.49999999  0.00000000  0.16170099  1
  Mn  Mn4  1  0.49999999  0.00000000  0.83829897  1
  As  As5  1  0.49999999  0.49999999  0.30643599  1
  As  As6  1  0.49999999  0.49999999  0.69356397  1
  As  As7  1  0.00000000  0.00000000  0.00000000  1
