# generated using pymatgen
data_Ba4Tl3In2
_symmetry_space_group_name_H-M   'P 1'
_cell_length_a   5.53202391
_cell_length_b   6.85225725
_cell_length_c   11.13277721
_cell_angle_alpha   74.37964630
_cell_angle_beta   75.61380005
_cell_angle_gamma   66.19254303
_symmetry_Int_Tables_number   1
_chemical_formula_structural   Ba4Tl3In2
_chemical_formula_sum   'Ba4 Tl3 In2'
_cell_volume   367.13107400
_cell_formula_units_Z   1
loop_
 _symmetry_equiv_pos_site_id
 _symmetry_equiv_pos_as_xyz
  1  'x, y, z'
loop_
 _atom_site_type_symbol
 _atom_site_label
 _atom_site_symmetry_multiplicity
 _atom_site_fract_x
 _atom_site_fract_y
 _atom_site_fract_z
 _atom_site_occupancy
  Ba  Ba0  1  0.10053799  0.68932999  0.10959401  1
  Ba  Ba1  1  0.89939601  0.30774300  0.89346503  1
  Ba  Ba2  1  0.75199301  0.16147200  0.33454201  1
  Ba  Ba3  1  0.24181199  0.84962299  0.66675302  1
  Tl  Tl4  1  0.97939501  0.52840299  0.51280702  1
  Tl  Tl5  1  0.45687799  0.76214799  0.32409601  1
  Tl  Tl6  1  0.54460800  0.23555400  0.67523002  1
  In  In7  1  0.39514700  0.10040000  0.10930600  1
  In  In8  1  0.60523299  0.89802699  0.89150703  1
