# generated using pymatgen
data_Mn2O5
_symmetry_space_group_name_H-M   'P 1'
_cell_length_a   3.32501197
_cell_length_b   5.72129393
_cell_length_c   10.71310425
_cell_angle_alpha   90.00000000
_cell_angle_beta   90.00000000
_cell_angle_gamma   90.00000000
_symmetry_Int_Tables_number   1
_chemical_formula_structural   Mn2O5
_chemical_formula_sum   'Mn4 O10'
_cell_volume   203.79935432
_cell_formula_units_Z   2
loop_
 _symmetry_equiv_pos_site_id
 _symmetry_equiv_pos_as_xyz
  1  'x, y, z'
loop_
 _atom_site_type_symbol
 _atom_site_label
 _atom_site_symmetry_multiplicity
 _atom_site_fract_x
 _atom_site_fract_y
 _atom_site_fract_z
 _atom_site_occupancy
  Mn  Mn0  1  0.00000000  0.70380201  0.37163599  1
  Mn  Mn1  1  0.00000000  0.29619800  0.62836399  1
  Mn  Mn2  1  0.00000000  0.20380200  0.12836400  1
  Mn  Mn3  1  -0.00000000  0.79619801  0.87163598  1
  O  O4  1  0.50000000  0.81899201  0.40222499  1
  O  O5  1  0.50000000  0.18100800  0.59777499  1
  O  O6  1  0.50000000  0.31899200  0.09777500  1
  O  O7  1  0.50000000  0.68100801  0.90222498  1
  O  O8  1  0.00000000  0.03070900  0.25183999  1
  O  O9  1  -0.00000000  0.96929101  0.74815998  1
  O  O10  1  -0.00000000  0.53070901  0.24815999  1
  O  O11  1  -0.00000000  0.46929101  0.75183998  1
  O  O12  1  -0.00000000  0.50000001  0.49999999  1
  O  O13  1  0.00000000  0.00000000  0.00000000  1
