# generated using pymatgen
data_Cs3SO5
_symmetry_space_group_name_H-M   'P 1'
_cell_length_a   7.97083616
_cell_length_b   8.12206078
_cell_length_c   7.97083616
_cell_angle_alpha   119.38597870
_cell_angle_beta   90.00000000
_cell_angle_gamma   119.38597870
_symmetry_Int_Tables_number   1
_chemical_formula_structural   Cs3SO5
_chemical_formula_sum   'Cs6 S2 O10'
_cell_volume   371.55712475
_cell_formula_units_Z   2
loop_
 _symmetry_equiv_pos_site_id
 _symmetry_equiv_pos_as_xyz
  1  'x, y, z'
loop_
 _atom_site_type_symbol
 _atom_site_label
 _atom_site_symmetry_multiplicity
 _atom_site_fract_x
 _atom_site_fract_y
 _atom_site_fract_z
 _atom_site_occupancy
  Cs  Cs0  1  0.31871999  0.00000100  0.18128100  1
  Cs  Cs1  1  0.68128004  0.99999902  0.81871904  1
  Cs  Cs2  1  0.81872004  1.00000002  0.31872005  1
  Cs  Cs3  1  0.18128000  0.00000000  0.68127999  1
  Cs  Cs4  1  0.25000002  0.50000001  0.25000002  1
  Cs  Cs5  1  0.75000001  0.50000001  0.75000001  1
  S  S6  1  0.25000002  0.50000001  0.75000001  1
  S  S7  1  0.75000001  0.50000001  0.25000002  1
  O  O8  1  0.04511102  0.32963300  0.78452200  1
  O  O9  1  0.28452101  0.32963100  0.54511001  1
  O  O10  1  0.54511101  0.32963200  0.04511102  1
  O  O11  1  0.78452100  0.32963200  0.28452101  1
  O  O12  1  0.95488902  0.67036701  0.21547803  1
  O  O13  1  0.71547902  0.67036901  0.45489003  1
  O  O14  1  0.45488903  0.67036801  0.95488902  1
  O  O15  1  0.21547903  0.67036801  0.71547902  1
  O  O16  1  0.00000000  0.00000000  0.00000000  1
  O  O17  1  0.49999999  0.00000000  0.49999999  1
