# generated using pymatgen
data_Ba3Ca
_symmetry_space_group_name_H-M   'P 1'
_cell_length_a   6.14740992
_cell_length_b   6.14740992
_cell_length_c   7.47802019
_cell_angle_alpha   114.26967621
_cell_angle_beta   114.26967621
_cell_angle_gamma   90.00000000
_symmetry_Int_Tables_number   1
_chemical_formula_structural   Ba3Ca
_chemical_formula_sum   'Ba3 Ca1'
_cell_volume   229.95061406
_cell_formula_units_Z   1
loop_
 _symmetry_equiv_pos_site_id
 _symmetry_equiv_pos_as_xyz
  1  'x, y, z'
loop_
 _atom_site_type_symbol
 _atom_site_label
 _atom_site_symmetry_multiplicity
 _atom_site_fract_x
 _atom_site_fract_y
 _atom_site_fract_z
 _atom_site_occupancy
  Ba  Ba0  1  0.00000000  0.00000000  0.00000000  1
  Ba  Ba1  1  0.75000002  0.25000001  0.50000002  1
  Ba  Ba2  1  0.25000002  0.75000002  0.50000002  1
  Ca  Ca3  1  0.50000002  0.50000001  0.00000002  1
