# generated using pymatgen
data_Ce2Ge3
_symmetry_space_group_name_H-M   'P 1'
_cell_length_a   4.13985300
_cell_length_b   4.19720078
_cell_length_c   7.79855824
_cell_angle_alpha   105.61078644
_cell_angle_beta   105.39215851
_cell_angle_gamma   90.00000000
_symmetry_Int_Tables_number   1
_chemical_formula_structural   Ce2Ge3
_chemical_formula_sum   'Ce2 Ge3'
_cell_volume   125.45370574
_cell_formula_units_Z   1
loop_
 _symmetry_equiv_pos_site_id
 _symmetry_equiv_pos_as_xyz
  1  'x, y, z'
loop_
 _atom_site_type_symbol
 _atom_site_label
 _atom_site_symmetry_multiplicity
 _atom_site_fract_x
 _atom_site_fract_y
 _atom_site_fract_z
 _atom_site_occupancy
  Ce  Ce0  1  0.74881599  0.24881701  0.49763298  1
  Ce  Ce1  1  0.00212200  0.00212100  0.00424300  1
  Ge  Ge2  1  0.40404599  0.40404602  0.80809199  1
  Ge  Ge3  1  0.18334699  0.68334803  0.36669499  1
  Ge  Ge4  1  0.57666799  0.57666803  0.15333599  1
