# generated using pymatgen
data_TeBr4
_symmetry_space_group_name_H-M   'P 1'
_cell_length_a   5.86490202
_cell_length_b   5.86814213
_cell_length_c   5.87076283
_cell_angle_alpha   89.58245087
_cell_angle_beta   89.53211212
_cell_angle_gamma   89.85346222
_symmetry_Int_Tables_number   1
_chemical_formula_structural   TeBr4
_chemical_formula_sum   'Te1 Br4'
_cell_volume   202.03590242
_cell_formula_units_Z   1
loop_
 _symmetry_equiv_pos_site_id
 _symmetry_equiv_pos_as_xyz
  1  'x, y, z'
loop_
 _atom_site_type_symbol
 _atom_site_label
 _atom_site_symmetry_multiplicity
 _atom_site_fract_x
 _atom_site_fract_y
 _atom_site_fract_z
 _atom_site_occupancy
  Te  Te0  1  0.00524900  0.00760000  0.01423100  1
  Br  Br1  1  0.49406899  0.48951101  0.48506698  1
  Br  Br2  1  0.49857699  0.49380701  0.98187698  1
  Br  Br3  1  0.48192697  0.98600801  0.48080599  1
  Br  Br4  1  0.99017699  0.47307301  0.46801796  1
