# generated using pymatgen
data_NaTaO3
_symmetry_space_group_name_H-M   'P 1'
_cell_length_a   5.57977819
_cell_length_b   5.66864395
_cell_length_c   7.96772814
_cell_angle_alpha   90.00000000
_cell_angle_beta   90.00000000
_cell_angle_gamma   90.00000000
_symmetry_Int_Tables_number   1
_chemical_formula_structural   NaTaO3
_chemical_formula_sum   'Na4 Ta4 O12'
_cell_volume   252.01745553
_cell_formula_units_Z   4
loop_
 _symmetry_equiv_pos_site_id
 _symmetry_equiv_pos_as_xyz
  1  'x, y, z'
loop_
 _atom_site_type_symbol
 _atom_site_label
 _atom_site_symmetry_multiplicity
 _atom_site_fract_x
 _atom_site_fract_y
 _atom_site_fract_z
 _atom_site_occupancy
  Na  Na0  1  0.00831000  0.45534200  0.25000000  1
  Na  Na1  1  0.99168997  0.54465800  0.74999999  1
  Na  Na2  1  0.50830998  0.04465800  0.74999999  1
  Na  Na3  1  0.49168998  0.95534201  0.25000000  1
  Ta  Ta4  1  0.00000000  0.00000000  0.00000000  1
  Ta  Ta5  1  0.49999998  0.50000000  0.00000000  1
  Ta  Ta6  1  0.00000000  0.00000000  0.49999999  1
  Ta  Ta7  1  0.49999998  0.50000000  0.49999999  1
  O  O8  1  0.29662899  0.20484300  0.03760400  1
  O  O9  1  0.70337098  0.79515701  0.96239598  1
  O  O10  1  0.79662897  0.29515700  0.96239598  1
  O  O11  1  0.70337098  0.79515701  0.53760399  1
  O  O12  1  0.20337099  0.70484301  0.03760400  1
  O  O13  1  0.29662899  0.20484300  0.46239599  1
  O  O14  1  0.20337099  0.70484301  0.46239599  1
  O  O15  1  0.79662897  0.29515700  0.53760399  1
  O  O16  1  0.57314498  0.51319600  0.25000000  1
  O  O17  1  0.42685499  0.48680400  0.74999999  1
  O  O18  1  0.07314500  0.98680401  0.74999999  1
  O  O19  1  0.92685497  0.01319600  0.25000000  1
