# generated using pymatgen
data_Cs2CuAs2
_symmetry_space_group_name_H-M   'P 1'
_cell_length_a   6.70347786
_cell_length_b   7.37592602
_cell_length_c   8.55043221
_cell_angle_alpha   115.55129242
_cell_angle_beta   113.07878113
_cell_angle_gamma   90.00000000
_symmetry_Int_Tables_number   1
_chemical_formula_structural   Cs2CuAs2
_chemical_formula_sum   'Cs4 Cu2 As4'
_cell_volume   343.53924438
_cell_formula_units_Z   2
loop_
 _symmetry_equiv_pos_site_id
 _symmetry_equiv_pos_as_xyz
  1  'x, y, z'
loop_
 _atom_site_type_symbol
 _atom_site_label
 _atom_site_symmetry_multiplicity
 _atom_site_fract_x
 _atom_site_fract_y
 _atom_site_fract_z
 _atom_site_occupancy
  Cs  Cs0  1  0.35372501  0.18632500  0.70744999  1
  Cs  Cs1  1  0.64627502  0.81367501  0.29255002  1
  Cs  Cs2  1  0.14627501  0.47887501  0.29255001  1
  Cs  Cs3  1  0.85372502  0.52112501  0.70745000  1
  Cu  Cu4  1  0.75000001  0.00000000  0.99999997  1
  Cu  Cu5  1  0.25000000  0.00000000  -0.00000000  1
  As  As6  1  0.39911502  0.71360801  0.79823001  1
  As  As7  1  0.10088502  0.91537802  0.20177003  1
  As  As8  1  0.89911502  0.08462200  0.79822998  1
  As  As9  1  0.60088502  0.28639200  0.20177000  1
