# generated using pymatgen
data_Ba2MoO3
_symmetry_space_group_name_H-M   'P 1'
_cell_length_a   6.40495777
_cell_length_b   6.40495777
_cell_length_c   7.20373487
_cell_angle_alpha   90.00000000
_cell_angle_beta   90.00000000
_cell_angle_gamma   120.00000000
_symmetry_Int_Tables_number   1
_chemical_formula_structural   Ba2MoO3
_chemical_formula_sum   'Ba4 Mo2 O6'
_cell_volume   255.92982157
_cell_formula_units_Z   2
loop_
 _symmetry_equiv_pos_site_id
 _symmetry_equiv_pos_as_xyz
  1  'x, y, z'
loop_
 _atom_site_type_symbol
 _atom_site_label
 _atom_site_symmetry_multiplicity
 _atom_site_fract_x
 _atom_site_fract_y
 _atom_site_fract_z
 _atom_site_occupancy
  Ba  Ba0  1  0.00000000  0.00000000  0.00000000  1
  Ba  Ba1  1  0.66666668  0.33333333  0.37582801  1
  Ba  Ba2  1  0.00000000  0.00000000  0.50000001  1
  Ba  Ba3  1  0.33333333  0.66666665  0.62417201  1
  Mo  Mo4  1  0.33333333  0.66666665  0.14592300  1
  Mo  Mo5  1  0.66666668  0.33333333  0.85407701  1
  O  O6  1  0.10387999  0.37987599  0.26421900  1
  O  O7  1  0.62012400  0.72400398  0.26421900  1
  O  O8  1  0.27599598  0.89611998  0.26421900  1
  O  O9  1  0.89612001  0.62012398  0.73578101  1
  O  O10  1  0.72400402  0.10388000  0.73578101  1
  O  O11  1  0.37987601  0.27599599  0.73578101  1
