# generated using pymatgen
data_Pr10RuPb7
_symmetry_space_group_name_H-M   'P 1'
_cell_length_a   6.87821293
_cell_length_b   9.55863571
_cell_length_c   9.55863667
_cell_angle_alpha   120.00000000
_cell_angle_beta   90.00000000
_cell_angle_gamma   90.00000000
_symmetry_Int_Tables_number   1
_chemical_formula_structural   Pr10RuPb7
_chemical_formula_sum   'Pr10 Ru1 Pb7'
_cell_volume   544.24959219
_cell_formula_units_Z   1
loop_
 _symmetry_equiv_pos_site_id
 _symmetry_equiv_pos_as_xyz
  1  'x, y, z'
loop_
 _atom_site_type_symbol
 _atom_site_label
 _atom_site_symmetry_multiplicity
 _atom_site_fract_x
 _atom_site_fract_y
 _atom_site_fract_z
 _atom_site_occupancy
  Pr  Pr0  1  0.50000001  0.33333335  0.66666665  1
  Pr  Pr1  1  0.50000001  0.66666670  0.33333334  1
  Pr  Pr2  1  -0.00000000  0.66666670  0.33333334  1
  Pr  Pr3  1  -0.00000000  0.33333335  0.66666665  1
  Pr  Pr4  1  0.75000001  0.21235101  0.99999997  1
  Pr  Pr5  1  0.75000001  0.78764903  0.78764899  1
  Pr  Pr6  1  0.75000001  0.00000000  0.21235099  1
  Pr  Pr7  1  0.25000000  0.78764903  0.99999999  1
  Pr  Pr8  1  0.25000000  0.21235101  0.21235100  1
  Pr  Pr9  1  0.25000000  0.00000000  0.78764897  1
  Pb  Pb10  1  0.75000001  0.58986903  0.99999998  1
  Pb  Pb11  1  0.75000001  0.41013102  0.41013100  1
  Pb  Pb12  1  0.75000001  0.00000000  0.58986898  1
  Pb  Pb13  1  0.25000000  0.41013102  0.99999998  1
  Pb  Pb14  1  0.25000000  0.58986903  0.58986899  1
  Pb  Pb15  1  0.25000000  0.00000000  0.41013099  1
  Ru  Ru16  1  0.50000001  0.00000000  -0.00000000  1
  Pb  Pb17  1  0.00000000  0.00000000  0.00000000  1
