# generated using pymatgen
data_Nb2Mo3WS12
_symmetry_space_group_name_H-M   'P 1'
_cell_length_a   6.91041994
_cell_length_b   6.91041994
_cell_length_c   9.53067303
_cell_angle_alpha   90.00000000
_cell_angle_beta   90.00000000
_cell_angle_gamma   90.00000000
_symmetry_Int_Tables_number   1
_chemical_formula_structural   Nb2Mo3WS12
_chemical_formula_sum   'Nb2 Mo3 W1 S12'
_cell_volume   455.12684250
_cell_formula_units_Z   1
loop_
 _symmetry_equiv_pos_site_id
 _symmetry_equiv_pos_as_xyz
  1  'x, y, z'
loop_
 _atom_site_type_symbol
 _atom_site_label
 _atom_site_symmetry_multiplicity
 _atom_site_fract_x
 _atom_site_fract_y
 _atom_site_fract_z
 _atom_site_occupancy
  Nb  Nb0  1  0.00000000  0.00000000  0.75000000  1
  Nb  Nb1  1  0.00000000  0.00000000  0.25000000  1
  Mo  Mo2  1  0.65699101  0.05493400  0.00000000  1
  Mo  Mo3  1  0.34300900  0.94506601  0.00000000  1
  Mo  Mo4  1  0.05493400  0.34300900  0.50000000  1
  W  W5  1  0.94506601  0.65699101  0.50000000  1
  S  S6  1  0.20326700  0.30567200  0.68088100  1
  S  S7  1  0.69432801  0.20326700  0.18088100  1
  S  S8  1  0.15846500  0.17688600  0.00000000  1
  S  S9  1  0.82311401  0.15846500  0.50000000  1
  S  S10  1  0.17688600  0.84153501  0.50000000  1
  S  S11  1  0.84153501  0.82311401  0.00000000  1
  S  S12  1  0.20326700  0.30567200  0.31911900  1
  S  S13  1  0.69432801  0.20326700  0.81911900  1
  S  S14  1  0.30567200  0.79673301  0.81911900  1
  S  S15  1  0.79673301  0.69432801  0.31911900  1
  S  S16  1  0.79673301  0.69432801  0.68088100  1
  S  S17  1  0.30567200  0.79673301  0.18088100  1
