# generated using pymatgen
data_HoFe12
_symmetry_space_group_name_H-M   'P 1'
_cell_length_a   4.77044582
_cell_length_b   6.24942017
_cell_length_c   6.31792402
_cell_angle_alpha   81.71521759
_cell_angle_beta   67.81906128
_cell_angle_gamma   67.56276703
_symmetry_Int_Tables_number   1
_chemical_formula_structural   HoFe12
_chemical_formula_sum   'Ho1 Fe12'
_cell_volume   161.21090702
_cell_formula_units_Z   1
loop_
 _symmetry_equiv_pos_site_id
 _symmetry_equiv_pos_as_xyz
  1  'x, y, z'
loop_
 _atom_site_type_symbol
 _atom_site_label
 _atom_site_symmetry_multiplicity
 _atom_site_fract_x
 _atom_site_fract_y
 _atom_site_fract_z
 _atom_site_occupancy
  Ho  Ho0  1  0.00000000  0.00000000  0.00000000  1
  Fe  Fe1  1  0.00311500  0.63852302  0.35524696  1
  Fe  Fe2  1  0.99688505  0.36147701  0.64475295  1
  Fe  Fe3  1  0.64163803  0.36147701  0.35524696  1
  Fe  Fe4  1  0.35836202  0.63852302  0.64475295  1
  Fe  Fe5  1  1.00000005  0.00000000  0.49999997  1
  Fe  Fe6  1  0.50000003  0.00000000  0.49999999  1
  Fe  Fe7  1  0.49894403  0.22038801  0.78172398  1
  Fe  Fe8  1  0.50105603  0.77961202  0.21827594  1
  Fe  Fe9  1  0.71933204  0.77961202  0.78172394  1
  Fe  Fe10  1  0.28066802  0.22038801  0.21827598  1
  Fe  Fe11  1  0.50000003  0.50000001  -0.00000005  1
  Fe  Fe12  1  0.00000000  0.50000001  -0.00000003  1
