# generated using pymatgen
data_Hf2AlSiRh2
_symmetry_space_group_name_H-M   'P 1'
_cell_length_a   3.96995711
_cell_length_b   6.71332979
_cell_length_c   11.54052448
_cell_angle_alpha   89.89770508
_cell_angle_beta   90.00000000
_cell_angle_gamma   90.00000000
_symmetry_Int_Tables_number   1
_chemical_formula_structural   Hf2AlSiRh2
_chemical_formula_sum   'Hf6 Al3 Si3 Rh6'
_cell_volume   307.57331402
_cell_formula_units_Z   3
loop_
 _symmetry_equiv_pos_site_id
 _symmetry_equiv_pos_as_xyz
  1  'x, y, z'
loop_
 _atom_site_type_symbol
 _atom_site_label
 _atom_site_symmetry_multiplicity
 _atom_site_fract_x
 _atom_site_fract_y
 _atom_site_fract_z
 _atom_site_occupancy
  Hf  Hf0  1  0.24999999  0.46799701  0.62222899  1
  Hf  Hf1  1  0.74999998  0.02958000  0.29237900  1
  Hf  Hf2  1  0.24999999  0.97042003  0.70762098  1
  Hf  Hf3  1  0.24999999  0.33865601  0.92072199  1
  Hf  Hf4  1  0.74999998  0.53200302  0.37777099  1
  Hf  Hf5  1  0.74999998  0.66134402  0.07927799  1
  Al  Al6  1  0.74999998  0.25074001  0.08413900  1
  Al  Al7  1  0.24999999  0.73869102  0.25011899  1
  Si  Si8  1  0.24999999  0.24865601  0.41584999  1
  Si  Si9  1  0.24999999  0.74926002  0.91586098  1
  Si  Si10  1  0.74999998  0.75134402  0.58414999  1
  Al  Al11  1  0.74999998  0.26130901  0.74988099  1
  Rh  Rh12  1  0.74999998  0.00338300  0.90897199  1
  Rh  Rh13  1  0.74999998  0.14256700  0.54140299  1
  Rh  Rh14  1  0.24999999  0.37159201  0.20593799  1
  Rh  Rh15  1  0.24999999  0.85743303  0.45859699  1
  Rh  Rh16  1  0.74999998  0.62840802  0.79406199  1
  Rh  Rh17  1  0.24999999  0.99661703  0.09102799  1
