# generated using pymatgen
data_CaSn2
_symmetry_space_group_name_H-M   'P 1'
_cell_length_a   5.25233507
_cell_length_b   6.72685003
_cell_length_c   9.84595490
_cell_angle_alpha   90.00000000
_cell_angle_beta   90.00000000
_cell_angle_gamma   90.00000000
_symmetry_Int_Tables_number   1
_chemical_formula_structural   CaSn2
_chemical_formula_sum   'Ca4 Sn8'
_cell_volume   347.87403262
_cell_formula_units_Z   4
loop_
 _symmetry_equiv_pos_site_id
 _symmetry_equiv_pos_as_xyz
  1  'x, y, z'
loop_
 _atom_site_type_symbol
 _atom_site_label
 _atom_site_symmetry_multiplicity
 _atom_site_fract_x
 _atom_site_fract_y
 _atom_site_fract_z
 _atom_site_occupancy
  Ca  Ca0  1  0.25000000  0.81028700  0.92531901  1
  Ca  Ca1  1  0.25000000  0.31028700  0.57468101  1
  Ca  Ca2  1  0.74999999  0.18971300  0.07468100  1
  Ca  Ca3  1  0.74999999  0.68971300  0.42531900  1
  Sn  Sn4  1  0.25000000  0.97037500  0.29666200  1
  Sn  Sn5  1  0.25000000  0.47037500  0.20333800  1
  Sn  Sn6  1  0.74999999  0.02962500  0.70333801  1
  Sn  Sn7  1  0.74999999  0.52962500  0.79666201  1
  Sn  Sn8  1  0.25000000  0.29289600  0.89596201  1
  Sn  Sn9  1  0.25000000  0.79289600  0.60403801  1
  Sn  Sn10  1  0.74999999  0.70710400  0.10403800  1
  Sn  Sn11  1  0.74999999  0.20710400  0.39596200  1
