# generated using pymatgen
data_Zr5Pd3
_symmetry_space_group_name_H-M   'P 1'
_cell_length_a   5.90871716
_cell_length_b   7.97261000
_cell_length_c   7.97261095
_cell_angle_alpha   119.99999237
_cell_angle_beta   90.00000000
_cell_angle_gamma   90.00000000
_symmetry_Int_Tables_number   1
_chemical_formula_structural   Zr5Pd3
_chemical_formula_sum   'Zr10 Pd6'
_cell_volume   325.25573129
_cell_formula_units_Z   2
loop_
 _symmetry_equiv_pos_site_id
 _symmetry_equiv_pos_as_xyz
  1  'x, y, z'
loop_
 _atom_site_type_symbol
 _atom_site_label
 _atom_site_symmetry_multiplicity
 _atom_site_fract_x
 _atom_site_fract_y
 _atom_site_fract_z
 _atom_site_occupancy
  Zr  Zr0  1  0.99999997  0.66666664  0.33333329  1
  Zr  Zr1  1  0.49999999  0.33333332  0.66666665  1
  Zr  Zr2  1  0.99999997  0.33333332  0.66666665  1
  Zr  Zr3  1  0.49999999  0.66666664  0.33333329  1
  Zr  Zr4  1  0.74999998  0.75959097  0.75959096  1
  Zr  Zr5  1  0.24999999  0.75959097  0.99999996  1
  Zr  Zr6  1  0.24999999  0.99999997  0.75959094  1
  Zr  Zr7  1  0.74999998  0.99999997  0.24040894  1
  Zr  Zr8  1  0.74999998  0.24040899  -0.00000002  1
  Zr  Zr9  1  0.24999999  0.24040899  0.24040899  1
  Pd  Pd10  1  0.74999998  0.39378699  0.39378698  1
  Pd  Pd11  1  0.24999999  0.39378699  0.99999999  1
  Pd  Pd12  1  0.24999999  0.00000000  0.39378700  1
  Pd  Pd13  1  0.74999998  0.99999997  0.60621294  1
  Pd  Pd14  1  0.74999998  0.60621298  0.99999997  1
  Pd  Pd15  1  0.24999999  0.60621298  0.60621297  1
