# generated using pymatgen
data_CsSO3
_symmetry_space_group_name_H-M   'P 1'
_cell_length_a   4.72617292
_cell_length_b   6.57345200
_cell_length_c   6.81280613
_cell_angle_alpha   90.00000000
_cell_angle_beta   90.00000000
_cell_angle_gamma   90.00000000
_symmetry_Int_Tables_number   1
_chemical_formula_structural   CsSO3
_chemical_formula_sum   'Cs2 S2 O6'
_cell_volume   211.65529321
_cell_formula_units_Z   2
loop_
 _symmetry_equiv_pos_site_id
 _symmetry_equiv_pos_as_xyz
  1  'x, y, z'
loop_
 _atom_site_type_symbol
 _atom_site_label
 _atom_site_symmetry_multiplicity
 _atom_site_fract_x
 _atom_site_fract_y
 _atom_site_fract_z
 _atom_site_occupancy
  Cs  Cs0  1  0.00269600  0.00000000  0.48853899  1
  Cs  Cs1  1  0.99730402  0.50000000  0.98853898  1
  S  S2  1  0.46927101  0.00000000  0.02997600  1
  S  S3  1  0.53072901  0.50000000  0.52997599  1
  O  O4  1  0.52035601  0.81571600  0.15736700  1
  O  O5  1  0.52035601  0.18428400  0.15736700  1
  O  O6  1  0.84328801  0.50000000  0.47975399  1
  O  O7  1  0.47964401  0.68428400  0.65736699  1
  O  O8  1  0.47964401  0.31571600  0.65736699  1
  O  O9  1  0.15671200  0.00000000  0.97975398  1
