# generated using pymatgen
data_Ce(GeIr)2
_symmetry_space_group_name_H-M   'P 1'
_cell_length_a   4.14531183
_cell_length_b   4.14531183
_cell_length_c   5.94914150
_cell_angle_alpha   110.38922882
_cell_angle_beta   110.38922882
_cell_angle_gamma   90.00000000
_symmetry_Int_Tables_number   1
_chemical_formula_structural   Ce(GeIr)2
_chemical_formula_sum   'Ce1 Ge2 Ir2'
_cell_volume   88.95813697
_cell_formula_units_Z   1
loop_
 _symmetry_equiv_pos_site_id
 _symmetry_equiv_pos_as_xyz
  1  'x, y, z'
loop_
 _atom_site_type_symbol
 _atom_site_label
 _atom_site_symmetry_multiplicity
 _atom_site_fract_x
 _atom_site_fract_y
 _atom_site_fract_z
 _atom_site_occupancy
  Ce  Ce0  1  0.00000000  0.00000000  0.00000000  1
  Ge  Ge1  1  0.62753505  0.62753504  0.25507004  1
  Ge  Ge2  1  0.37246503  0.37246502  0.74493003  1
  Ir  Ir3  1  0.75000005  0.25000001  0.50000003  1
  Ir  Ir4  1  0.25000003  0.75000004  0.50000004  1
