# generated using pymatgen
data_Nd(CoGe)2
_symmetry_space_group_name_H-M   'P 1'
_cell_length_a   3.99656105
_cell_length_b   3.99656105
_cell_length_c   10.58840275
_cell_angle_alpha   90.00000000
_cell_angle_beta   90.00000000
_cell_angle_gamma   90.00000000
_symmetry_Int_Tables_number   1
_chemical_formula_structural   Nd(CoGe)2
_chemical_formula_sum   'Nd2 Co4 Ge4'
_cell_volume   169.12326533
_cell_formula_units_Z   2
loop_
 _symmetry_equiv_pos_site_id
 _symmetry_equiv_pos_as_xyz
  1  'x, y, z'
loop_
 _atom_site_type_symbol
 _atom_site_label
 _atom_site_symmetry_multiplicity
 _atom_site_fract_x
 _atom_site_fract_y
 _atom_site_fract_z
 _atom_site_occupancy
  Nd  Nd0  1  0.00000000  0.00000000  0.00000000  1
  Nd  Nd1  1  0.49999999  0.49999999  0.50000001  1
  Co  Co2  1  -0.00000000  0.49999999  0.25065201  1
  Co  Co3  1  0.49999999  0.00000000  0.74934802  1
  Co  Co4  1  0.49999999  0.00000000  0.25065201  1
  Co  Co5  1  -0.00000000  0.49999999  0.74934802  1
  Ge  Ge6  1  0.49999999  0.49999999  0.12856000  1
  Ge  Ge7  1  0.00000000  0.00000000  0.62637301  1
  Ge  Ge8  1  0.00000000  0.00000000  0.37362701  1
  Ge  Ge9  1  0.49999999  0.49999999  0.87144002  1
