# generated using pymatgen
data_Li2MoO4
_symmetry_space_group_name_H-M   'P 1'
_cell_length_a   5.46700191
_cell_length_b   5.47078180
_cell_length_c   6.48362827
_cell_angle_alpha   65.04590607
_cell_angle_beta   90.00000000
_cell_angle_gamma   90.00000000
_symmetry_Int_Tables_number   1
_chemical_formula_structural   Li2MoO4
_chemical_formula_sum   'Li4 Mo2 O8'
_cell_volume   175.81443376
_cell_formula_units_Z   2
loop_
 _symmetry_equiv_pos_site_id
 _symmetry_equiv_pos_as_xyz
  1  'x, y, z'
loop_
 _atom_site_type_symbol
 _atom_site_label
 _atom_site_symmetry_multiplicity
 _atom_site_fract_x
 _atom_site_fract_y
 _atom_site_fract_z
 _atom_site_occupancy
  Li  Li0  1  -0.00000000  0.65502501  0.68995001  1
  Li  Li1  1  0.00000000  0.34497500  0.31005001  1
  Li  Li2  1  0.50000001  0.84497501  0.31005003  1
  Li  Li3  1  0.50000001  0.15502500  0.68994999  1
  Mo  Mo4  1  0.00000000  0.00000000  0.00000000  1
  Mo  Mo5  1  0.50000001  0.50000001  0.00000002  1
  O  O6  1  0.80176401  0.30248500  0.99999999  1
  O  O7  1  0.75000001  0.99026301  0.50000003  1
  O  O8  1  0.75000001  0.49026301  0.50000001  1
  O  O9  1  0.69823601  0.80248501  1.00000001  1
  O  O10  1  0.30176400  0.19751500  0.00000001  1
  O  O11  1  0.25000000  0.50973701  0.50000001  1
  O  O12  1  0.25000000  0.00973700  0.49999999  1
  O  O13  1  0.19823600  0.69751501  0.00000003  1
