# generated using pymatgen
data_LiFeF4
_symmetry_space_group_name_H-M   'P 1'
_cell_length_a   5.67969894
_cell_length_b   5.67999506
_cell_length_c   7.38399649
_cell_angle_alpha   73.15538788
_cell_angle_beta   73.34516144
_cell_angle_gamma   72.76354980
_symmetry_Int_Tables_number   1
_chemical_formula_structural   LiFeF4
_chemical_formula_sum   'Li3 Fe3 F12'
_cell_volume   212.43738780
_cell_formula_units_Z   3
loop_
 _symmetry_equiv_pos_site_id
 _symmetry_equiv_pos_as_xyz
  1  'x, y, z'
loop_
 _atom_site_type_symbol
 _atom_site_label
 _atom_site_symmetry_multiplicity
 _atom_site_fract_x
 _atom_site_fract_y
 _atom_site_fract_z
 _atom_site_occupancy
  Li  Li0  1  0.66811798  0.70881800  0.83861102  1
  Li  Li1  1  0.35566999  0.32244400  0.67029301  1
  Li  Li2  1  0.66956999  0.62433700  0.31665402  1
  Fe  Fe3  1  0.31229799  0.33261000  0.17132901  1
  Fe  Fe4  1  0.98621300  0.00499700  0.49532104  1
  Fe  Fe5  1  0.99252300  0.01824600  0.99673604  1
  F  F6  1  0.22755399  0.23100400  0.95783701  1
  F  F7  1  0.77082598  0.79394400  0.02640402  1
  F  F8  1  0.43565899  0.41387200  0.38232501  1
  F  F9  1  0.96145299  0.33822800  0.33268003  1
  F  F10  1  0.65481000  0.03563400  0.66606503  1
  F  F11  1  0.05502299  0.64274400  0.65652400  1
  F  F12  1  0.35450998  0.93727800  0.34126200  1
  F  F13  1  0.88784698  0.87223300  0.29772402  1
  F  F14  1  0.58241599  0.58169200  0.64306602  1
  F  F15  1  0.10530000  0.09794900  0.70255201  1
  F  F16  1  0.29447198  0.70857300  0.00365200  1
  F  F17  1  0.68573999  0.33539700  0.00096702  1
