# generated using pymatgen
data_La2B7Ru9
_symmetry_space_group_name_H-M   'P 1'
_cell_length_a   4.01887178
_cell_length_b   7.59258986
_cell_length_c   7.59258986
_cell_angle_alpha   90.00000000
_cell_angle_beta   90.00000000
_cell_angle_gamma   90.00000000
_symmetry_Int_Tables_number   1
_chemical_formula_structural   La2B7Ru9
_chemical_formula_sum   'La2 B7 Ru9'
_cell_volume   231.67759252
_cell_formula_units_Z   1
loop_
 _symmetry_equiv_pos_site_id
 _symmetry_equiv_pos_as_xyz
  1  'x, y, z'
loop_
 _atom_site_type_symbol
 _atom_site_label
 _atom_site_symmetry_multiplicity
 _atom_site_fract_x
 _atom_site_fract_y
 _atom_site_fract_z
 _atom_site_occupancy
  La  La0  1  0.00000000  0.50000001  0.50000001  1
  La  La1  1  0.50000003  0.00000000  0.00000000  1
  B  B2  1  0.60939903  0.66651501  0.78812902  1
  B  B3  1  0.10939901  0.28812901  0.83348502  1
  B  B4  1  0.89060105  0.83348502  0.71187101  1
  B  B5  1  0.39060102  0.21187100  0.66651501  1
  B  B6  1  0.39060102  0.78812902  0.33348501  1
  B  B7  1  0.89060105  0.16651500  0.28812901  1
  B  B8  1  0.10939901  0.71187101  0.16651500  1
  Ru  Ru9  1  0.60939903  0.33348501  0.21187100  1
  Ru  Ru10  1  0.10868401  0.35602601  0.10802500  1
  Ru  Ru11  1  0.60868403  0.39197501  0.85602602  1
  Ru  Ru12  1  0.89131605  0.10802500  0.64397401  1
  Ru  Ru13  1  0.39131602  0.14397400  0.39197501  1
  Ru  Ru14  1  0.39131602  0.85602602  0.60802501  1
  Ru  Ru15  1  0.89131605  0.89197502  0.35602601  1
  Ru  Ru16  1  0.10868401  0.64397401  0.89197502  1
  Ru  Ru17  1  0.60868403  0.60802501  0.14397400  1
