# generated using pymatgen
data_Ce5Ru2
_symmetry_space_group_name_H-M   'P 1'
_cell_length_a   6.46356201
_cell_length_b   7.16172028
_cell_length_c   8.41069031
_cell_angle_alpha   96.32315063
_cell_angle_beta   112.59699249
_cell_angle_gamma   90.00000000
_symmetry_Int_Tables_number   1
_chemical_formula_structural   Ce5Ru2
_chemical_formula_sum   'Ce10 Ru4'
_cell_volume   356.87700711
_cell_formula_units_Z   2
loop_
 _symmetry_equiv_pos_site_id
 _symmetry_equiv_pos_as_xyz
  1  'x, y, z'
loop_
 _atom_site_type_symbol
 _atom_site_label
 _atom_site_symmetry_multiplicity
 _atom_site_fract_x
 _atom_site_fract_y
 _atom_site_fract_z
 _atom_site_occupancy
  Ce  Ce0  1  0.78819002  0.08152200  0.81841906  1
  Ce  Ce1  1  0.96977104  0.41847799  0.18158107  1
  Ce  Ce2  1  0.21181004  0.91847799  0.18158107  1
  Ce  Ce3  1  0.03022902  0.58152199  0.81841905  1
  Ce  Ce4  1  0.21127701  0.18119700  0.55727403  1
  Ce  Ce5  1  0.65400303  0.31880300  0.44272606  1
  Ce  Ce6  1  0.78872305  0.81880299  0.44272609  1
  Ce  Ce7  1  0.34599703  0.68119699  0.55727407  1
  Ce  Ce8  1  0.42723902  0.25000000  0.00000003  1
  Ce  Ce9  1  0.57276104  0.74999999  1.00000009  1
  Ru  Ru10  1  0.60874803  0.42662399  0.78127407  1
  Ru  Ru11  1  0.82747402  0.07337600  0.21872605  1
  Ru  Ru12  1  0.39125203  0.57337599  0.21872606  1
  Ru  Ru13  1  0.17252604  0.92662399  0.78127408  1
