# generated using pymatgen
data_Cr5MoIrSe7
_symmetry_space_group_name_H-M   'P 1'
_cell_length_a   6.73517084
_cell_length_b   6.75043058
_cell_length_c   6.76142454
_cell_angle_alpha   92.98532867
_cell_angle_beta   92.99855042
_cell_angle_gamma   93.72270203
_symmetry_Int_Tables_number   1
_chemical_formula_structural   Cr5MoIrSe7
_chemical_formula_sum   'Cr5 Mo1 Ir1 Se7'
_cell_volume   305.86650198
_cell_formula_units_Z   1
loop_
 _symmetry_equiv_pos_site_id
 _symmetry_equiv_pos_as_xyz
  1  'x, y, z'
loop_
 _atom_site_type_symbol
 _atom_site_label
 _atom_site_symmetry_multiplicity
 _atom_site_fract_x
 _atom_site_fract_y
 _atom_site_fract_z
 _atom_site_occupancy
  Cr  Cr0  1  0.76781901  0.58631700  0.45178001  1
  Cr  Cr1  1  0.41537701  0.54776500  0.23389002  1
  Cr  Cr2  1  0.54553701  0.23553100  0.41058999  1
  Cr  Cr3  1  0.23461400  0.41361600  0.54491301  1
  Ir  Ir4  1  0.58526801  0.45252700  0.76667000  1
  Cr  Cr5  1  0.45358201  0.76940800  0.58869803  1
  Se  Se6  1  0.77656101  0.78084901  0.78411002  1
  Mo  Mo7  1  0.21075500  0.21269400  0.21394800  1
  Se  Se8  1  0.86938502  0.26671200  0.62918798  1
  Se  Se9  1  0.27602300  0.62489300  0.86955102  1
  Se  Se10  1  0.62512501  0.87486601  0.27607903  1
  Se  Se11  1  0.13132000  0.73532800  0.37095304  1
  Se  Se12  1  0.73720501  0.37174200  0.12234000  1
  Se  Se13  1  0.37142901  0.12775300  0.73729099  1
