# generated using pymatgen
data_Na2Se
_symmetry_space_group_name_H-M   'P 1'
_cell_length_a   4.99225998
_cell_length_b   4.99225903
_cell_length_c   7.85626078
_cell_angle_alpha   90.00000000
_cell_angle_beta   90.00000000
_cell_angle_gamma   120.00000763
_symmetry_Int_Tables_number   1
_chemical_formula_structural   Na2Se
_chemical_formula_sum   'Na4 Se2'
_cell_volume   169.56678800
_cell_formula_units_Z   2
loop_
 _symmetry_equiv_pos_site_id
 _symmetry_equiv_pos_as_xyz
  1  'x, y, z'
loop_
 _atom_site_type_symbol
 _atom_site_label
 _atom_site_symmetry_multiplicity
 _atom_site_fract_x
 _atom_site_fract_y
 _atom_site_fract_z
 _atom_site_occupancy
  Na  Na0  1  0.00000000  0.00000000  0.25322201  1
  Na  Na1  1  0.00000000  0.00000000  0.75322202  1
  Na  Na2  1  0.33333336  0.66666670  0.45696201  1
  Na  Na3  1  0.66666668  0.33333335  0.95696203  1
  Se  Se4  1  0.33333336  0.66666670  0.04281600  1
  Se  Se5  1  0.66666668  0.33333335  0.54281602  1
