# generated using pymatgen
data_PrCo5
_symmetry_space_group_name_H-M   'P 1'
_cell_length_a   3.96150494
_cell_length_b   5.10666990
_cell_length_c   8.81185532
_cell_angle_alpha   90.00000000
_cell_angle_beta   90.00000000
_cell_angle_gamma   90.00000000
_symmetry_Int_Tables_number   1
_chemical_formula_structural   PrCo5
_chemical_formula_sum   'Pr2 Co10'
_cell_volume   178.26469685
_cell_formula_units_Z   2
loop_
 _symmetry_equiv_pos_site_id
 _symmetry_equiv_pos_as_xyz
  1  'x, y, z'
loop_
 _atom_site_type_symbol
 _atom_site_label
 _atom_site_symmetry_multiplicity
 _atom_site_fract_x
 _atom_site_fract_y
 _atom_site_fract_z
 _atom_site_occupancy
  Pr  Pr0  1  -0.00000000  0.50000001  0.00000000  1
  Pr  Pr1  1  0.00000000  0.00000000  0.49999998  1
  Co  Co2  1  -0.00000000  0.50000001  0.33130699  1
  Co  Co3  1  0.00000000  0.00000000  0.83262097  1
  Co  Co4  1  0.00000000  0.00000000  0.16737899  1
  Co  Co5  1  -0.00000000  0.50000001  0.66869298  1
  Co  Co6  1  0.50000001  0.50000001  0.49999998  1
  Co  Co7  1  0.50000001  0.00000000  0.00000000  1
  Co  Co8  1  0.50000001  0.75178401  0.24913299  1
  Co  Co9  1  0.50000001  0.24821600  0.75086697  1
  Co  Co10  1  0.50000001  0.24821600  0.24913299  1
  Co  Co11  1  0.50000001  0.75178401  0.75086697  1
