# generated using pymatgen
data_CePd5
_symmetry_space_group_name_H-M   'P 1'
_cell_length_a   4.14660406
_cell_length_b   8.65265083
_cell_length_c   10.09712505
_cell_angle_alpha   107.29630280
_cell_angle_beta   90.00000000
_cell_angle_gamma   103.86380005
_symmetry_Int_Tables_number   1
_chemical_formula_structural   CePd5
_chemical_formula_sum   'Ce3 Pd15'
_cell_volume   334.82403692
_cell_formula_units_Z   3
loop_
 _symmetry_equiv_pos_site_id
 _symmetry_equiv_pos_as_xyz
  1  'x, y, z'
loop_
 _atom_site_type_symbol
 _atom_site_label
 _atom_site_symmetry_multiplicity
 _atom_site_fract_x
 _atom_site_fract_y
 _atom_site_fract_z
 _atom_site_occupancy
  Ce  Ce0  1  0.84430902  0.68861798  0.29789903  1
  Ce  Ce1  1  0.15569101  0.31138199  0.70210100  1
  Ce  Ce2  1  0.00000000  0.00000000  0.00000000  1
  Pd  Pd3  1  0.19887201  0.39774399  0.12914102  1
  Pd  Pd4  1  0.36338303  0.72676598  0.54364703  1
  Pd  Pd5  1  0.63661700  0.27323399  0.45635301  1
  Pd  Pd6  1  0.80112801  0.60225599  0.87085902  1
  Pd  Pd7  1  0.46239003  0.92477998  0.21268305  1
  Pd  Pd8  1  0.53761000  0.07522000  0.78731699  1
  Pd  Pd9  1  0.95745703  0.91491398  0.66565104  1
  Pd  Pd10  1  0.67818201  0.35636399  0.96693900  1
  Pd  Pd11  1  0.32181802  0.64363598  0.03306104  1
  Pd  Pd12  1  0.21973302  0.43946599  0.39178402  1
  Pd  Pd13  1  0.62553600  0.25107199  0.20381401  1
  Pd  Pd14  1  0.04254300  0.08508600  0.33434900  1
  Pd  Pd15  1  0.78026701  0.56053399  0.60821602  1
  Pd  Pd16  1  0.49999999  0.00000000  0.49999999  1
  Pd  Pd17  1  0.37446403  0.74892798  0.79618603  1
