# generated using pymatgen
data_SmGaPd
_symmetry_space_group_name_H-M   'P 1'
_cell_length_a   4.46868277
_cell_length_b   7.21289682
_cell_length_c   7.79687405
_cell_angle_alpha   90.00000000
_cell_angle_beta   90.00000000
_cell_angle_gamma   90.00000000
_symmetry_Int_Tables_number   1
_chemical_formula_structural   SmGaPd
_chemical_formula_sum   'Sm4 Ga4 Pd4'
_cell_volume   251.30999609
_cell_formula_units_Z   4
loop_
 _symmetry_equiv_pos_site_id
 _symmetry_equiv_pos_as_xyz
  1  'x, y, z'
loop_
 _atom_site_type_symbol
 _atom_site_label
 _atom_site_symmetry_multiplicity
 _atom_site_fract_x
 _atom_site_fract_y
 _atom_site_fract_z
 _atom_site_occupancy
  Sm  Sm0  1  0.25000001  0.00921300  0.30565200  1
  Sm  Sm1  1  0.25000001  0.50921301  0.19434800  1
  Sm  Sm2  1  0.75000004  0.99078702  0.69434800  1
  Sm  Sm3  1  0.75000004  0.49078701  0.80565200  1
  Ga  Ga4  1  0.25000001  0.16859100  0.92367299  1
  Ga  Ga5  1  0.25000001  0.66859102  0.57632700  1
  Ga  Ga6  1  0.75000004  0.83140902  0.07632700  1
  Ga  Ga7  1  0.75000004  0.33140901  0.42367300  1
  Pd  Pd8  1  0.25000001  0.28541701  0.59780800  1
  Pd  Pd9  1  0.25000001  0.78541702  0.90219199  1
  Pd  Pd10  1  0.75000004  0.71458302  0.40219200  1
  Pd  Pd11  1  0.75000004  0.21458301  0.09780800  1
