# generated using pymatgen
data_Ti2Cr2P3
_symmetry_space_group_name_H-M   'P 1'
_cell_length_a   3.38653207
_cell_length_b   3.38653135
_cell_length_c   13.23894024
_cell_angle_alpha   90.00000000
_cell_angle_beta   90.00000000
_cell_angle_gamma   120.00000763
_symmetry_Int_Tables_number   1
_chemical_formula_structural   Ti2Cr2P3
_chemical_formula_sum   'Ti2 Cr2 P3'
_cell_volume   131.49042020
_cell_formula_units_Z   1
loop_
 _symmetry_equiv_pos_site_id
 _symmetry_equiv_pos_as_xyz
  1  'x, y, z'
loop_
 _atom_site_type_symbol
 _atom_site_label
 _atom_site_symmetry_multiplicity
 _atom_site_fract_x
 _atom_site_fract_y
 _atom_site_fract_z
 _atom_site_occupancy
  Ti  Ti0  1  0.66666666  0.33333334  0.24808800  1
  Ti  Ti1  1  0.00000000  0.00000000  0.75139799  1
  Cr  Cr2  1  0.66666666  0.33333334  0.46560799  1
  Cr  Cr3  1  0.66666666  0.33333334  0.63252499  1
  P  P4  1  0.00000000  0.00000000  0.36980799  1
  P  P5  1  0.00000000  0.00000000  0.13285200  1
  P  P6  1  0.66666666  0.33333334  0.86572098  1
