# generated using pymatgen
data_LiGd2Mn3S8
_symmetry_space_group_name_H-M   'P 1'
_cell_length_a   5.98511219
_cell_length_b   6.47521925
_cell_length_c   7.00711298
_cell_angle_alpha   90.00000000
_cell_angle_beta   90.00000000
_cell_angle_gamma   91.98439026
_symmetry_Int_Tables_number   1
_chemical_formula_structural   LiGd2Mn3S8
_chemical_formula_sum   'Li1 Gd2 Mn3 S8'
_cell_volume   271.39720347
_cell_formula_units_Z   1
loop_
 _symmetry_equiv_pos_site_id
 _symmetry_equiv_pos_as_xyz
  1  'x, y, z'
loop_
 _atom_site_type_symbol
 _atom_site_label
 _atom_site_symmetry_multiplicity
 _atom_site_fract_x
 _atom_site_fract_y
 _atom_site_fract_z
 _atom_site_occupancy
  Gd  Gd0  1  -0.00000001  0.50000000  0.50000000  1
  Gd  Gd1  1  0.49999997  0.50000000  0.75067400  1
  Mn  Mn2  1  0.49999997  0.50000000  0.24932600  1
  Li  Li3  1  -0.00000001  0.50000000  -0.00000000  1
  Mn  Mn4  1  0.00000000  0.00000000  0.00000000  1
  Mn  Mn5  1  -0.00000000  0.00000000  0.50000000  1
  S  S6  1  0.67120396  0.69996200  1.00000000  1
  S  S7  1  0.66318096  0.71525999  0.50000000  1
  S  S8  1  0.17839498  0.71638599  0.75647000  1
  S  S9  1  0.17839498  0.71638599  0.24353000  1
  S  S10  1  0.82160497  0.28361400  0.75647000  1
  S  S11  1  0.82160497  0.28361400  0.24353000  1
  S  S12  1  0.33681898  0.28474000  0.50000000  1
  S  S13  1  0.32879598  0.30003800  -0.00000000  1
