# generated using pymatgen
data_CeTi4BIrC4
_symmetry_space_group_name_H-M   'P 1'
_cell_length_a   4.24295712
_cell_length_b   4.24295712
_cell_length_c   8.30118942
_cell_angle_alpha   90.00000000
_cell_angle_beta   90.00000000
_cell_angle_gamma   90.00000000
_symmetry_Int_Tables_number   1
_chemical_formula_structural   CeTi4BIrC4
_chemical_formula_sum   'Ce1 Ti4 B1 Ir1 C4'
_cell_volume   149.44369897
_cell_formula_units_Z   1
loop_
 _symmetry_equiv_pos_site_id
 _symmetry_equiv_pos_as_xyz
  1  'x, y, z'
loop_
 _atom_site_type_symbol
 _atom_site_label
 _atom_site_symmetry_multiplicity
 _atom_site_fract_x
 _atom_site_fract_y
 _atom_site_fract_z
 _atom_site_occupancy
  Ce  Ce0  1  0.00000000  0.00000000  0.00000000  1
  Ti  Ti1  1  0.49999999  0.00000000  0.49999997  1
  Ti  Ti2  1  0.00000000  0.49999999  0.49999997  1
  Ti  Ti3  1  0.49999999  0.49999999  0.25355699  1
  Ti  Ti4  1  0.49999999  0.49999999  0.74644296  1
  B  B5  1  0.49999999  0.49999999  -0.00000000  1
  C  C6  1  0.49999999  0.00000000  0.24310999  1
  C  C7  1  0.00000000  0.49999999  0.24310999  1
  Ir  Ir8  1  0.49999999  0.00000000  0.75688996  1
  C  C9  1  0.00000000  0.49999999  0.75688996  1
  C  C10  1  0.00000000  0.00000000  0.49999997  1
