# generated using pymatgen
data_Nb2Si3Ge5
_symmetry_space_group_name_H-M   'P 1'
_cell_length_a   3.57647705
_cell_length_b   6.47133684
_cell_length_c   18.02380753
_cell_angle_alpha   90.00000000
_cell_angle_beta   90.00000000
_cell_angle_gamma   90.00000000
_symmetry_Int_Tables_number   1
_chemical_formula_structural   Nb2Si3Ge5
_chemical_formula_sum   'Nb4 Si6 Ge10'
_cell_volume   417.15359400
_cell_formula_units_Z   2
loop_
 _symmetry_equiv_pos_site_id
 _symmetry_equiv_pos_as_xyz
  1  'x, y, z'
loop_
 _atom_site_type_symbol
 _atom_site_label
 _atom_site_symmetry_multiplicity
 _atom_site_fract_x
 _atom_site_fract_y
 _atom_site_fract_z
 _atom_site_occupancy
  Nb  Nb0  1  0.25000000  0.90578002  0.72484498  1
  Nb  Nb1  1  0.74999999  0.09422000  0.27515499  1
  Nb  Nb2  1  0.25000000  0.40578001  0.77515498  1
  Nb  Nb3  1  0.74999999  0.59422001  0.22484499  1
  Si  Si4  1  0.25000000  0.28871301  0.18555999  1
  Ge  Ge5  1  0.74999999  0.71128702  0.81443998  1
  Si  Si6  1  0.74999999  0.21128701  0.68555998  1
  Si  Si7  1  0.25000000  0.78871302  0.31443999  1
  Si  Si8  1  0.25000000  0.89787102  0.18680499  1
  Ge  Ge9  1  0.74999999  0.10212900  0.81319498  1
  Si  Si10  1  0.25000000  0.39787101  0.31319499  1
  Si  Si11  1  0.74999999  0.60212901  0.68680498  1
  Ge  Ge12  1  0.25000000  0.59434101  0.09782600  1
  Ge  Ge13  1  0.74999999  0.40565901  0.90217397  1
  Ge  Ge14  1  0.74999999  0.90565902  0.59782598  1
  Ge  Ge15  1  0.25000000  0.09434100  0.40217399  1
  Ge  Ge16  1  0.74999999  0.59159701  0.38835399  1
  Ge  Ge17  1  0.25000000  0.40840301  0.61164598  1
  Ge  Ge18  1  0.74999999  0.09159700  0.11164600  1
  Ge  Ge19  1  0.25000000  0.90840302  0.88835397  1
