# generated using pymatgen
data_Y4Ni5Ge7
_symmetry_space_group_name_H-M   'P 1'
_cell_length_a   5.53923416
_cell_length_b   6.97998285
_cell_length_c   7.34132910
_cell_angle_alpha   90.00000000
_cell_angle_beta   90.00000000
_cell_angle_gamma   90.00000000
_symmetry_Int_Tables_number   1
_chemical_formula_structural   Y4Ni5Ge7
_chemical_formula_sum   'Y4 Ni5 Ge7'
_cell_volume   283.84338239
_cell_formula_units_Z   1
loop_
 _symmetry_equiv_pos_site_id
 _symmetry_equiv_pos_as_xyz
  1  'x, y, z'
loop_
 _atom_site_type_symbol
 _atom_site_label
 _atom_site_symmetry_multiplicity
 _atom_site_fract_x
 _atom_site_fract_y
 _atom_site_fract_z
 _atom_site_occupancy
  Y  Y0  1  0.35551799  0.75000002  0.02782100  1
  Y  Y1  1  0.14448200  0.75000002  0.52782099  1
  Y  Y2  1  0.64448198  0.25000001  0.97217899  1
  Y  Y3  1  0.85551798  0.25000001  0.47217899  1
  Ni  Ni4  1  0.64515498  0.75000002  0.37744699  1
  Ge  Ge5  1  0.85484498  0.75000002  0.87744699  1
  Ni  Ni6  1  0.35484499  0.25000001  0.62255299  1
  Ni  Ni7  1  0.14515500  0.25000001  0.12255300  1
  Ni  Ni8  1  0.90587197  0.55085601  0.17731200  1
  Ni  Ni9  1  0.59412798  0.94914402  0.67731199  1
  Ge  Ge10  1  0.09412800  0.05085600  0.82268799  1
  Ge  Ge11  1  0.40587199  0.44914401  0.32268800  1
  Ge  Ge12  1  0.09412800  0.44914401  0.82268799  1
  Ge  Ge13  1  0.40587199  0.05085600  0.32268800  1
  Ge  Ge14  1  0.90587197  0.94914402  0.17731200  1
  Ge  Ge15  1  0.59412798  0.55085601  0.67731199  1
