# generated using pymatgen
data_LiCuF5
_symmetry_space_group_name_H-M   'P 1'
_cell_length_a   5.34868860
_cell_length_b   5.34868860
_cell_length_c   7.49087048
_cell_angle_alpha   69.36801910
_cell_angle_beta   69.36801910
_cell_angle_gamma   72.65218353
_symmetry_Int_Tables_number   1
_chemical_formula_structural   LiCuF5
_chemical_formula_sum   'Li2 Cu2 F10'
_cell_volume   183.95269840
_cell_formula_units_Z   2
loop_
 _symmetry_equiv_pos_site_id
 _symmetry_equiv_pos_as_xyz
  1  'x, y, z'
loop_
 _atom_site_type_symbol
 _atom_site_label
 _atom_site_symmetry_multiplicity
 _atom_site_fract_x
 _atom_site_fract_y
 _atom_site_fract_z
 _atom_site_occupancy
  Li  Li0  1  0.52319896  0.47680101  0.25000004  1
  Li  Li1  1  0.47680096  0.52319901  0.75000004  1
  Cu  Cu2  1  0.00000000  0.00000000  0.00000000  1
  Cu  Cu3  1  0.00000000  0.00000000  0.50000000  1
  F  F4  1  0.13658693  0.86341302  0.75000005  1
  F  F5  1  0.86341299  0.13658700  0.25000004  1
  F  F6  1  0.73004294  0.77892601  0.62807207  1
  F  F7  1  0.22107398  0.26995701  0.87192802  1
  F  F8  1  0.68075598  0.29791401  0.94951504  1
  F  F9  1  0.70208598  0.31924401  0.55048504  1
  F  F10  1  0.31924394  0.70208601  0.05048505  1
  F  F11  1  0.29791394  0.68075601  0.44951505  1
  F  F12  1  0.77892594  0.73004301  0.12807207  1
  F  F13  1  0.26995698  0.22107400  0.37192802  1
