# generated using pymatgen
data_AsS
_symmetry_space_group_name_H-M   'P 1'
_cell_length_a   4.18258905
_cell_length_b   7.83838224
_cell_length_c   7.86074591
_cell_angle_alpha   78.11087036
_cell_angle_beta   74.57107544
_cell_angle_gamma   74.52595520
_symmetry_Int_Tables_number   1
_chemical_formula_structural   AsS
_chemical_formula_sum   'As6 S6'
_cell_volume   236.87700389
_cell_formula_units_Z   6
loop_
 _symmetry_equiv_pos_site_id
 _symmetry_equiv_pos_as_xyz
  1  'x, y, z'
loop_
 _atom_site_type_symbol
 _atom_site_label
 _atom_site_symmetry_multiplicity
 _atom_site_fract_x
 _atom_site_fract_y
 _atom_site_fract_z
 _atom_site_occupancy
  As  As0  1  0.86959805  0.94939101  0.31141301  1
  As  As1  1  0.13040200  0.05060900  0.68858700  1
  As  As2  1  0.82864803  0.61247500  0.73023001  1
  As  As3  1  0.17135203  0.38752500  0.26977000  1
  As  As4  1  0.45002804  0.64573600  0.45420700  1
  As  As5  1  0.54997201  0.35426400  0.54579301  1
  S  S6  1  0.85046500  0.26384300  0.03522801  1
  S  S7  1  0.14953505  0.73615700  0.96477200  1
  S  S8  1  0.58711804  0.70069700  0.12506700  1
  S  S9  1  0.41288201  0.29930300  0.87493301  1
  S  S10  1  0.72513105  0.92284301  0.62689501  1
  S  S11  1  0.27486900  0.07715700  0.37310501  1
