# generated using pymatgen
data_Al2ZnSe4
_symmetry_space_group_name_H-M   'P 1'
_cell_length_a   7.46837139
_cell_length_b   7.46837139
_cell_length_c   7.46837139
_cell_angle_alpha   60.00000000
_cell_angle_beta   60.00000000
_cell_angle_gamma   60.00000000
_symmetry_Int_Tables_number   1
_chemical_formula_structural   Al2ZnSe4
_chemical_formula_sum   'Al4 Zn2 Se8'
_cell_volume   294.55250609
_cell_formula_units_Z   2
loop_
 _symmetry_equiv_pos_site_id
 _symmetry_equiv_pos_as_xyz
  1  'x, y, z'
loop_
 _atom_site_type_symbol
 _atom_site_label
 _atom_site_symmetry_multiplicity
 _atom_site_fract_x
 _atom_site_fract_y
 _atom_site_fract_z
 _atom_site_occupancy
  Al  Al0  1  0.87897399  0.87897499  0.36307600  1
  Al  Al1  1  0.87897399  0.87897499  0.87897499  1
  Al  Al2  1  0.87897399  0.36307600  0.87897499  1
  Al  Al3  1  0.36307500  0.87897499  0.87897499  1
  Zn  Zn4  1  0.49999999  0.49999999  0.49999999  1
  Zn  Zn5  1  0.25000000  0.25000000  0.25000000  1
  Se  Se6  1  0.11651600  0.11651600  0.65045199  1
  Se  Se7  1  0.11651600  0.11651600  0.11651600  1
  Se  Se8  1  0.11651600  0.65045199  0.11651600  1
  Se  Se9  1  0.65045199  0.11651600  0.11651600  1
  Se  Se10  1  0.63525599  0.63525599  0.09423200  1
  Se  Se11  1  0.63525599  0.63525599  0.63525599  1
  Se  Se12  1  0.63525599  0.09423200  0.63525599  1
  Se  Se13  1  0.09423200  0.63525599  0.63525599  1
