# generated using pymatgen
data_NaY2CuSe4
_symmetry_space_group_name_H-M   'P 1'
_cell_length_a   4.08844995
_cell_length_b   7.28608847
_cell_length_c   14.30799580
_cell_angle_alpha   90.00000000
_cell_angle_beta   90.00000000
_cell_angle_gamma   106.29396057
_symmetry_Int_Tables_number   1
_chemical_formula_structural   NaY2CuSe4
_chemical_formula_sum   'Na2 Y4 Cu2 Se8'
_cell_volume   409.09903401
_cell_formula_units_Z   2
loop_
 _symmetry_equiv_pos_site_id
 _symmetry_equiv_pos_as_xyz
  1  'x, y, z'
loop_
 _atom_site_type_symbol
 _atom_site_label
 _atom_site_symmetry_multiplicity
 _atom_site_fract_x
 _atom_site_fract_y
 _atom_site_fract_z
 _atom_site_occupancy
  Na  Na0  1  0.88715408  0.77430802  0.75000001  1
  Na  Na1  1  0.11284602  0.22569201  0.25000000  1
  Y  Y2  1  0.63407703  0.26815401  0.56513501  1
  Y  Y3  1  0.36592307  0.73184602  0.43486501  1
  Y  Y4  1  0.36592307  0.73184602  0.06513500  1
  Y  Y5  1  0.63407703  0.26815401  0.93486501  1
  Cu  Cu6  1  0.16053203  0.32106401  0.75000001  1
  Cu  Cu7  1  0.83946807  0.67893602  0.25000000  1
  Se  Se8  1  0.43614809  0.87229603  0.25000000  1
  Se  Se9  1  0.56385202  0.12770400  0.75000001  1
  Se  Se10  1  0.73522605  0.47045201  0.11053200  1
  Se  Se11  1  0.26477405  0.52954802  0.88946801  1
  Se  Se12  1  0.26477405  0.52954802  0.61053201  1
  Se  Se13  1  0.73522605  0.47045201  0.38946801  1
  Se  Se14  1  0.00000000  0.00000000  0.00000000  1
  Se  Se15  1  0.00000000  0.00000000  0.50000001  1
