# generated using pymatgen
data_PrGa3Si2
_symmetry_space_group_name_H-M   'P 1'
_cell_length_a   3.68042493
_cell_length_b   5.53769779
_cell_length_c   5.53769779
_cell_angle_alpha   120.00000000
_cell_angle_beta   90.00000000
_cell_angle_gamma   90.00000000
_symmetry_Int_Tables_number   1
_chemical_formula_structural   PrGa3Si2
_chemical_formula_sum   'Pr1 Ga3 Si2'
_cell_volume   97.74332263
_cell_formula_units_Z   1
loop_
 _symmetry_equiv_pos_site_id
 _symmetry_equiv_pos_as_xyz
  1  'x, y, z'
loop_
 _atom_site_type_symbol
 _atom_site_label
 _atom_site_symmetry_multiplicity
 _atom_site_fract_x
 _atom_site_fract_y
 _atom_site_fract_z
 _atom_site_occupancy
  Pr  Pr0  1  0.00000000  0.00000000  0.00000000  1
  Si  Si1  1  -0.00000000  0.33333334  0.66666667  1
  Si  Si2  1  -0.00000000  0.66666669  0.33333333  1
  Ga  Ga3  1  0.50000001  1.00000003  0.49999999  1
  Ga  Ga4  1  0.50000001  0.50000001  0.50000000  1
  Ga  Ga5  1  0.50000001  0.50000001  -0.00000001  1
