# generated using pymatgen
data_KSrS2
_symmetry_space_group_name_H-M   'P 1'
_cell_length_a   4.27694416
_cell_length_b   4.27694416
_cell_length_c   7.41675568
_cell_angle_alpha   73.24199677
_cell_angle_beta   73.24199677
_cell_angle_gamma   59.99999619
_symmetry_Int_Tables_number   1
_chemical_formula_structural   KSrS2
_chemical_formula_sum   'K1 Sr1 S2'
_cell_volume   110.78994317
_cell_formula_units_Z   1
loop_
 _symmetry_equiv_pos_site_id
 _symmetry_equiv_pos_as_xyz
  1  'x, y, z'
loop_
 _atom_site_type_symbol
 _atom_site_label
 _atom_site_symmetry_multiplicity
 _atom_site_fract_x
 _atom_site_fract_y
 _atom_site_fract_z
 _atom_site_occupancy
  Sr  Sr0  1  0.50000001  0.50000001  0.49999997  1
  K  K1  1  0.00000000  0.00000000  0.00000000  1
  S  S2  1  0.24909001  0.24909001  0.25272998  1
  S  S3  1  0.75091002  0.75091002  0.74726995  1
