# generated using pymatgen
data_HoErMn2Ni3O
_symmetry_space_group_name_H-M   'P 1'
_cell_length_a   3.75104403
_cell_length_b   3.75104451
_cell_length_c   12.48695183
_cell_angle_alpha   90.00000000
_cell_angle_beta   90.00000000
_cell_angle_gamma   119.99999237
_symmetry_Int_Tables_number   1
_chemical_formula_structural   HoErMn2Ni3O
_chemical_formula_sum   'Ho1 Er1 Mn2 Ni3 O1'
_cell_volume   152.15684050
_cell_formula_units_Z   1
loop_
 _symmetry_equiv_pos_site_id
 _symmetry_equiv_pos_as_xyz
  1  'x, y, z'
loop_
 _atom_site_type_symbol
 _atom_site_label
 _atom_site_symmetry_multiplicity
 _atom_site_fract_x
 _atom_site_fract_y
 _atom_site_fract_z
 _atom_site_occupancy
  Ho  Ho0  1  0.00000000  0.00000000  0.00000000  1
  Mn  Mn1  1  0.00000000  0.00000000  0.50000001  1
  Mn  Mn2  1  0.33333329  0.66666665  0.25000000  1
  Er  Er3  1  0.66666664  0.33333332  0.75000001  1
  Ni  Ni4  1  0.33333329  0.66666665  0.41082301  1
  Ni  Ni5  1  0.66666664  0.33333332  0.91082301  1
  Ni  Ni6  1  0.66666664  0.33333332  0.58917701  1
  O  O7  1  0.33333329  0.66666665  0.08917700  1
