# generated using pymatgen
data_CeGe3Ir
_symmetry_space_group_name_H-M   'P 1'
_cell_length_a   4.15603685
_cell_length_b   4.15603685
_cell_length_c   5.88523388
_cell_angle_alpha   110.67643738
_cell_angle_beta   110.67644501
_cell_angle_gamma   90.00000000
_symmetry_Int_Tables_number   1
_chemical_formula_structural   CeGe3Ir
_chemical_formula_sum   'Ce1 Ge3 Ir1'
_cell_volume   88.07296074
_cell_formula_units_Z   1
loop_
 _symmetry_equiv_pos_site_id
 _symmetry_equiv_pos_as_xyz
  1  'x, y, z'
loop_
 _atom_site_type_symbol
 _atom_site_label
 _atom_site_symmetry_multiplicity
 _atom_site_fract_x
 _atom_site_fract_y
 _atom_site_fract_z
 _atom_site_occupancy
  Ce  Ce0  1  0.00981900  0.00981900  0.01963800  1
  Ge  Ge1  1  0.59611200  0.59611202  0.19222398  1
  Ge  Ge2  1  0.76108301  0.26108401  0.52216698  1
  Ge  Ge3  1  0.26108299  0.76108402  0.52216700  1
  Ir  Ir4  1  0.37190200  0.37190201  0.74380401  1
