# generated using pymatgen
data_HoCo2SiNi
_symmetry_space_group_name_H-M   'P 1'
_cell_length_a   3.87065792
_cell_length_b   3.87065792
_cell_length_c   5.43082571
_cell_angle_alpha   110.87681580
_cell_angle_beta   110.87681580
_cell_angle_gamma   90.00000000
_symmetry_Int_Tables_number   1
_chemical_formula_structural   HoCo2SiNi
_chemical_formula_sum   'Ho1 Co2 Si1 Ni1'
_cell_volume   70.27636283
_cell_formula_units_Z   1
loop_
 _symmetry_equiv_pos_site_id
 _symmetry_equiv_pos_as_xyz
  1  'x, y, z'
loop_
 _atom_site_type_symbol
 _atom_site_label
 _atom_site_symmetry_multiplicity
 _atom_site_fract_x
 _atom_site_fract_y
 _atom_site_fract_z
 _atom_site_occupancy
  Ho  Ho0  1  0.00000000  0.00000000  0.00000000  1
  Co  Co1  1  0.24999998  0.75000000  0.49999999  1
  Co  Co2  1  0.75000000  0.25000000  0.49999999  1
  Si  Si3  1  0.62285399  0.62285400  0.24570797  1
  Ni  Ni4  1  0.37714599  0.37714600  0.75429200  1
