# generated using pymatgen
data_Lu2Ge3Pt
_symmetry_space_group_name_H-M   'P 1'
_cell_length_a   4.37326193
_cell_length_b   4.37326193
_cell_length_c   6.71077681
_cell_angle_alpha   90.00000000
_cell_angle_beta   90.00000000
_cell_angle_gamma   120.00000000
_symmetry_Int_Tables_number   1
_chemical_formula_structural   Lu2Ge3Pt
_chemical_formula_sum   'Lu2 Ge3 Pt1'
_cell_volume   111.15126388
_cell_formula_units_Z   1
loop_
 _symmetry_equiv_pos_site_id
 _symmetry_equiv_pos_as_xyz
  1  'x, y, z'
loop_
 _atom_site_type_symbol
 _atom_site_label
 _atom_site_symmetry_multiplicity
 _atom_site_fract_x
 _atom_site_fract_y
 _atom_site_fract_z
 _atom_site_occupancy
  Lu  Lu0  1  0.00000000  0.00000000  0.50000001  1
  Lu  Lu1  1  0.00000000  0.00000000  0.00000000  1
  Ge  Ge2  1  0.33333334  0.66666668  0.78902702  1
  Ge  Ge3  1  0.33333334  0.66666668  0.21097301  1
  Pt  Pt4  1  0.66666668  0.33333334  0.28643401  1
  Ge  Ge5  1  0.66666668  0.33333334  0.71356602  1
