# generated using pymatgen
data_SrLaRuO4
_symmetry_space_group_name_H-M   'P 1'
_cell_length_a   5.71337795
_cell_length_b   5.87691593
_cell_length_c   6.80719328
_cell_angle_alpha   90.00000000
_cell_angle_beta   114.81295776
_cell_angle_gamma   90.00000000
_symmetry_Int_Tables_number   1
_chemical_formula_structural   SrLaRuO4
_chemical_formula_sum   'Sr2 La2 Ru2 O8'
_cell_volume   207.46484789
_cell_formula_units_Z   2
loop_
 _symmetry_equiv_pos_site_id
 _symmetry_equiv_pos_as_xyz
  1  'x, y, z'
loop_
 _atom_site_type_symbol
 _atom_site_label
 _atom_site_symmetry_multiplicity
 _atom_site_fract_x
 _atom_site_fract_y
 _atom_site_fract_z
 _atom_site_occupancy
  Sr  Sr0  1  0.89561000  0.48662901  0.79122001  1
  Sr  Sr1  1  0.10439000  0.98662901  0.20878000  1
  La  La2  1  0.60827500  0.51422601  0.21655000  1
  La  La3  1  0.39172500  0.01422600  0.78345002  1
  Ru  Ru4  1  0.24632500  0.50479801  0.49265001  1
  Ru  Ru5  1  0.75367500  0.00479800  0.50735001  1
  O  O6  1  0.91648000  0.06556000  0.83296001  1
  O  O7  1  0.56905200  0.90739301  0.13810400  1
  O  O8  1  0.08352000  0.56556001  0.16704000  1
  O  O9  1  0.43094800  0.40739300  0.86189602  1
  O  O10  1  0.97001500  0.26069700  0.45307000  1
  O  O11  1  0.02998500  0.76069701  0.54693002  1
  O  O12  1  0.51694500  0.76069701  0.54693001  1
  O  O13  1  0.48305500  0.26069700  0.45307001  1
