# generated using pymatgen
data_K3Rb5
_symmetry_space_group_name_H-M   'P 1'
_cell_length_a   8.71480846
_cell_length_b   10.74755955
_cell_length_c   10.74755955
_cell_angle_alpha   60.00000000
_cell_angle_beta   90.00000000
_cell_angle_gamma   90.00000000
_symmetry_Int_Tables_number   1
_chemical_formula_structural   K3Rb5
_chemical_formula_sum   'K3 Rb5'
_cell_volume   871.78260330
_cell_formula_units_Z   1
loop_
 _symmetry_equiv_pos_site_id
 _symmetry_equiv_pos_as_xyz
  1  'x, y, z'
loop_
 _atom_site_type_symbol
 _atom_site_label
 _atom_site_symmetry_multiplicity
 _atom_site_fract_x
 _atom_site_fract_y
 _atom_site_fract_z
 _atom_site_occupancy
  K  K0  1  0.74999996  0.66430103  0.16785001  1
  Rb  Rb1  1  0.74999996  0.16784901  0.16785001  1
  Rb  Rb2  1  0.74999996  0.16784901  0.66430203  1
  Rb  Rb3  1  0.24999999  0.33569901  0.83215004  1
  Rb  Rb4  1  0.24999999  0.83215104  0.83215004  1
  Rb  Rb5  1  0.24999999  0.83215104  0.33569801  1
  K  K6  1  0.24999999  0.33333335  0.33333335  1
  K  K7  1  0.74999996  0.66666669  0.66666669  1
