# generated using pymatgen
data_Zr3Al
_symmetry_space_group_name_H-M   'P 1'
_cell_length_a   4.02886295
_cell_length_b   7.51026583
_cell_length_c   7.51026583
_cell_angle_alpha   120.00000000
_cell_angle_beta   90.00000000
_cell_angle_gamma   90.00000000
_symmetry_Int_Tables_number   1
_chemical_formula_structural   Zr3Al
_chemical_formula_sum   'Zr6 Al2'
_cell_volume   196.79938851
_cell_formula_units_Z   2
loop_
 _symmetry_equiv_pos_site_id
 _symmetry_equiv_pos_as_xyz
  1  'x, y, z'
loop_
 _atom_site_type_symbol
 _atom_site_label
 _atom_site_symmetry_multiplicity
 _atom_site_fract_x
 _atom_site_fract_y
 _atom_site_fract_z
 _atom_site_occupancy
  Zr  Zr0  1  0.25000000  0.33333334  0.66666667  1
  Zr  Zr1  1  0.75000001  0.66666668  0.33333333  1
  Zr  Zr2  1  0.75000001  0.30334801  0.39447600  1
  Zr  Zr3  1  0.25000000  0.39447501  0.09112700  1
  Zr  Zr4  1  0.75000001  0.60552501  0.90887300  1
  Zr  Zr5  1  0.75000001  0.09112800  0.69665300  1
  Al  Al6  1  0.25000000  0.69665201  0.60552400  1
  Al  Al7  1  0.25000000  0.90887202  0.30334699  1
