# generated using pymatgen
data_LiFe5O8
_symmetry_space_group_name_H-M   'P 1'
_cell_length_a   6.00206423
_cell_length_b   6.00198078
_cell_length_c   6.12853336
_cell_angle_alpha   89.99695587
_cell_angle_beta   119.31893921
_cell_angle_gamma   120.00064087
_symmetry_Int_Tables_number   1
_chemical_formula_structural   LiFe5O8
_chemical_formula_sum   'Li1 Fe5 O8'
_cell_volume   157.70250615
_cell_formula_units_Z   1
loop_
 _symmetry_equiv_pos_site_id
 _symmetry_equiv_pos_as_xyz
  1  'x, y, z'
loop_
 _atom_site_type_symbol
 _atom_site_label
 _atom_site_symmetry_multiplicity
 _atom_site_fract_x
 _atom_site_fract_y
 _atom_site_fract_z
 _atom_site_occupancy
  Li  Li0  1  0.76220684  0.88111391  0.64329486  1
  Fe  Fe1  1  0.23779598  0.11890099  0.35668798  1
  Fe  Fe2  1  0.49999682  0.99998689  0.99999485  1
  Fe  Fe3  1  0.49997191  0.50001295  0.99998792  1
  Fe  Fe4  1  0.99998290  0.49998595  0.99998591  1
  Fe  Fe5  1  0.99999190  0.49997895  0.49999391  1
  O  O6  1  0.46060587  0.73036792  0.19087988  1
  O  O7  1  0.48626686  0.74315892  0.77116188  1
  O  O8  1  0.02805887  0.74315992  0.77116289  1
  O  O9  1  0.02804195  0.28491697  0.77115996  1
  O  O10  1  0.97198486  0.71511292  0.22883387  1
  O  O11  1  0.97193795  0.25683197  0.22882294  1
  O  O12  1  0.51372295  0.25682597  0.22882495  1
  O  O13  1  0.53943395  0.26964497  0.80920895  1
