# generated using pymatgen
data_TaGe
_symmetry_space_group_name_H-M   'P 1'
_cell_length_a   4.03183413
_cell_length_b   4.03183365
_cell_length_c   5.67355919
_cell_angle_alpha   90.00000000
_cell_angle_beta   90.00000000
_cell_angle_gamma   120.00000763
_symmetry_Int_Tables_number   1
_chemical_formula_structural   TaGe
_chemical_formula_sum   'Ta2 Ge2'
_cell_volume   79.87142811
_cell_formula_units_Z   2
loop_
 _symmetry_equiv_pos_site_id
 _symmetry_equiv_pos_as_xyz
  1  'x, y, z'
loop_
 _atom_site_type_symbol
 _atom_site_label
 _atom_site_symmetry_multiplicity
 _atom_site_fract_x
 _atom_site_fract_y
 _atom_site_fract_z
 _atom_site_occupancy
  Ta  Ta0  1  0.33333336  0.66666665  0.24999999  1
  Ta  Ta1  1  0.66666667  0.33333332  0.74999998  1
  Ge  Ge2  1  0.00000000  0.00000000  0.49999998  1
  Ge  Ge3  1  0.00000000  0.00000000  0.00000000  1
