# generated using pymatgen
data_ZrSiRh
_symmetry_space_group_name_H-M   'P 1'
_cell_length_a   3.77113199
_cell_length_b   6.56465578
_cell_length_c   11.26933861
_cell_angle_alpha   89.71382141
_cell_angle_beta   90.00000000
_cell_angle_gamma   90.00000000
_symmetry_Int_Tables_number   1
_chemical_formula_structural   ZrSiRh
_chemical_formula_sum   'Zr6 Si6 Rh6'
_cell_volume   278.98233374
_cell_formula_units_Z   6
loop_
 _symmetry_equiv_pos_site_id
 _symmetry_equiv_pos_as_xyz
  1  'x, y, z'
loop_
 _atom_site_type_symbol
 _atom_site_label
 _atom_site_symmetry_multiplicity
 _atom_site_fract_x
 _atom_site_fract_y
 _atom_site_fract_z
 _atom_site_occupancy
  Zr  Zr0  1  0.50000000  0.28808501  0.29001199  1
  Zr  Zr1  1  0.50000000  0.28881401  0.71025499  1
  Zr  Zr2  1  0.50000000  0.78906603  0.20914298  1
  Zr  Zr3  1  0.50000000  0.42312601  0.99885999  1
  Zr  Zr4  1  0.50000000  0.92061703  0.50226398  1
  Zr  Zr5  1  0.50000000  0.78893203  0.79118898  1
  Si  Si6  1  0.50000000  0.00563700  0.99589700  1
  Si  Si7  1  0.50000000  0.50733302  0.50009499  1
  Si  Si8  1  0.00000000  0.99270603  0.66743898  1
  Si  Si9  1  0.00000000  0.49816502  0.16219999  1
  Si  Si10  1  0.00000000  0.50284902  0.83514199  1
  Si  Si11  1  0.00000000  0.99677603  0.33766198  1
  Rh  Rh12  1  0.00000000  0.25154501  0.50242799  1
  Rh  Rh13  1  0.00000000  0.75364003  0.99684298  1
  Rh  Rh14  1  0.00000000  0.62490302  0.62430899  1
  Rh  Rh15  1  0.00000000  0.12295900  0.12098000  1
  Rh  Rh16  1  0.00000000  0.12237300  0.87641799  1
  Rh  Rh17  1  0.00000000  0.62267202  0.37886399  1
