# generated using pymatgen
data_Y7C3S10
_symmetry_space_group_name_H-M   'P 1'
_cell_length_a   5.60916996
_cell_length_b   6.75201416
_cell_length_c   9.83975697
_cell_angle_alpha   90.00000000
_cell_angle_beta   106.56039429
_cell_angle_gamma   90.00000000
_symmetry_Int_Tables_number   1
_chemical_formula_structural   Y7C3S10
_chemical_formula_sum   'Y7 C3 S10'
_cell_volume   357.20490737
_cell_formula_units_Z   1
loop_
 _symmetry_equiv_pos_site_id
 _symmetry_equiv_pos_as_xyz
  1  'x, y, z'
loop_
 _atom_site_type_symbol
 _atom_site_label
 _atom_site_symmetry_multiplicity
 _atom_site_fract_x
 _atom_site_fract_y
 _atom_site_fract_z
 _atom_site_occupancy
  Y  Y0  1  0.57391801  0.47178399  0.14783600  1
  Y  Y1  1  0.42608200  0.52821599  0.85216399  1
  Y  Y2  1  0.07391800  0.02821600  0.14783600  1
  Y  Y3  1  0.90883501  0.74999998  0.31767000  1
  Y  Y4  1  0.40883500  0.74999998  0.31767000  1
  Y  Y5  1  0.59116501  0.24999999  0.68232999  1
  Y  Y6  1  0.92608201  0.97178398  0.85216399  1
  S  S7  1  0.09116500  0.24999999  0.68232999  1
  C  C8  1  0.76814501  0.74999998  0.03629001  1
  S  S9  1  0.73185501  0.24999999  0.96370999  1
  S  S10  1  0.23185500  0.24999999  0.96370998  1
  C  C11  1  0.26814500  0.74999998  0.03629000  1
  S  S12  1  0.72172801  0.42228399  0.44345600  1
  S  S13  1  0.38865200  0.92300398  0.77730399  1
  S  S14  1  0.27827200  0.57771599  0.55654399  1
  S  S15  1  0.22172800  0.07771600  0.44345599  1
  S  S16  1  0.77827201  0.92228398  0.55654399  1
  S  S17  1  0.88865201  0.57699599  0.77730399  1
  C  C18  1  0.61134801  0.07699600  0.22269600  1
  S  S19  1  0.11134800  0.42300399  0.22269600  1
