# generated using pymatgen
data_Zr2SnSe2
_symmetry_space_group_name_H-M   'P 1'
_cell_length_a   4.25092220
_cell_length_b   10.16417694
_cell_length_c   13.14184380
_cell_angle_alpha   94.61852264
_cell_angle_beta   90.00000000
_cell_angle_gamma   90.00000000
_symmetry_Int_Tables_number   1
_chemical_formula_structural   Zr2SnSe2
_chemical_formula_sum   'Zr8 Sn4 Se8'
_cell_volume   565.97752055
_cell_formula_units_Z   4
loop_
 _symmetry_equiv_pos_site_id
 _symmetry_equiv_pos_as_xyz
  1  'x, y, z'
loop_
 _atom_site_type_symbol
 _atom_site_label
 _atom_site_symmetry_multiplicity
 _atom_site_fract_x
 _atom_site_fract_y
 _atom_site_fract_z
 _atom_site_occupancy
  Zr  Zr0  1  0.74999996  0.56104101  0.84602802  1
  Zr  Zr1  1  0.24999999  0.43895900  0.15397201  1
  Zr  Zr2  1  0.74999996  0.15991100  0.40885301  1
  Zr  Zr3  1  0.24999999  0.84008901  0.59114703  1
  Zr  Zr4  1  0.24999999  0.44772600  0.59496502  1
  Zr  Zr5  1  0.74999996  0.55227400  0.40503502  1
  Zr  Zr6  1  0.74999996  0.95621801  0.83509803  1
  Sn  Sn7  1  0.24999999  0.04378200  0.16490200  1
  Sn  Sn8  1  0.24999999  0.81098401  0.03543902  1
  Zr  Zr9  1  0.74999996  0.18901600  0.96456101  1
  Sn  Sn10  1  0.24999999  0.22776600  0.71687401  1
  Sn  Sn11  1  0.74999996  0.77223401  0.28312602  1
  Se  Se12  1  0.24999999  0.80027101  0.83394603  1
  Se  Se13  1  0.74999996  0.19972900  0.16605401  1
  Se  Se14  1  0.74999996  0.60784201  0.60685602  1
  Se  Se15  1  0.24999999  0.39215800  0.39314401  1
  Se  Se16  1  0.74999996  0.07858500  0.66166201  1
  Se  Se17  1  0.24999999  0.92141501  0.33833803  1
  Se  Se18  1  0.24999999  0.32937900  0.91059701  1
  Se  Se19  1  0.74999996  0.67062101  0.08940302  1
