# generated using pymatgen
data_Li2FeWO6
_symmetry_space_group_name_H-M   'P 1'
_cell_length_a   5.11673403
_cell_length_b   5.42253494
_cell_length_c   7.90438414
_cell_angle_alpha   89.99940491
_cell_angle_beta   85.84149170
_cell_angle_gamma   89.99956512
_symmetry_Int_Tables_number   1
_chemical_formula_structural   Li2FeWO6
_chemical_formula_sum   'Li4 Fe2 W2 O12'
_cell_volume   218.73503207
_cell_formula_units_Z   2
loop_
 _symmetry_equiv_pos_site_id
 _symmetry_equiv_pos_as_xyz
  1  'x, y, z'
loop_
 _atom_site_type_symbol
 _atom_site_label
 _atom_site_symmetry_multiplicity
 _atom_site_fract_x
 _atom_site_fract_y
 _atom_site_fract_z
 _atom_site_occupancy
  Li  Li0  1  0.02472600  0.07060500  0.76963601  1
  Li  Li1  1  0.52472098  0.42939200  0.26963399  1
  Li  Li2  1  0.97528195  0.92939401  0.23036697  1
  Li  Li3  1  0.47527897  0.57060301  0.73036300  1
  Fe  Fe4  1  0.00000098  0.49999301  0.49999700  1
  Fe  Fe5  1  0.49999896  0.99999801  1.00000000  1
  W  W6  1  0.50000496  0.99999801  0.50000499  1
  W  W7  1  0.99999896  0.50000301  0.00000197  1
  O  O8  1  0.20485497  0.81873801  0.59980100  1
  O  O9  1  0.70483896  0.68126501  0.09980098  1
  O  O10  1  0.79514598  0.18126500  0.40019599  1
  O  O11  1  0.29514498  0.31873300  0.90019901  1
  O  O12  1  0.84794997  0.42243400  0.72688699  1
  O  O13  1  0.34794299  0.07757400  0.22689800  1
  O  O14  1  0.15205498  0.57757801  0.27310200  1
  O  O15  1  0.65206396  0.92243201  0.77310499  1
  O  O16  1  0.31879998  0.31262000  0.55293000  1
  O  O17  1  0.81879598  0.18738500  0.05292498  1
  O  O18  1  0.68119596  0.68737101  0.44707598  1
  O  O19  1  0.18119897  0.81262001  0.94707401  1
