# generated using pymatgen
data_Li2V4O11
_symmetry_space_group_name_H-M   'P 1'
_cell_length_a   5.18441582
_cell_length_b   5.36637783
_cell_length_c   8.98954678
_cell_angle_alpha   74.03954315
_cell_angle_beta   89.48326874
_cell_angle_gamma   61.33332825
_symmetry_Int_Tables_number   1
_chemical_formula_structural   Li2V4O11
_chemical_formula_sum   'Li2 V4 O11'
_cell_volume   208.73675477
_cell_formula_units_Z   1
loop_
 _symmetry_equiv_pos_site_id
 _symmetry_equiv_pos_as_xyz
  1  'x, y, z'
loop_
 _atom_site_type_symbol
 _atom_site_label
 _atom_site_symmetry_multiplicity
 _atom_site_fract_x
 _atom_site_fract_y
 _atom_site_fract_z
 _atom_site_occupancy
  Li  Li0  1  0.18556699  0.61851602  0.40691498  1
  Li  Li1  1  0.01896600  0.01655300  0.99346499  1
  V  V2  1  0.25110899  0.51876902  0.76236098  1
  V  V3  1  0.49602098  0.95953903  0.49682298  1
  V  V4  1  0.78814897  0.49252702  0.25930900  1
  V  V5  1  0.15805399  0.25088301  0.32748399  1
  O  O6  1  0.17076599  0.23160201  0.91748699  1
  O  O7  1  0.21459099  0.73172502  0.87799598  1
  O  O8  1  0.32428398  0.75095802  0.57333898  1
  O  O9  1  0.73450397  0.76052402  0.37212399  1
  O  O10  1  0.27405499  0.27659101  0.61491799  1
  O  O11  1  0.31665798  0.74459002  0.18480699  1
  O  O12  1  0.63835998  0.27718801  0.41989400  1
  O  O13  1  0.67659998  0.23817101  0.82490200  1
  O  O14  1  0.77163597  0.25686301  0.12360801  1
  O  O15  1  0.82592397  0.75138302  0.67168699  1
  O  O16  1  0.82180197  0.76272902  0.07591600  1
