# generated using pymatgen
data_K2LiTa3O12
_symmetry_space_group_name_H-M   'P 1'
_cell_length_a   7.38996744
_cell_length_b   7.38996744
_cell_length_c   7.46333694
_cell_angle_alpha   118.94705963
_cell_angle_beta   118.94705963
_cell_angle_gamma   90.50626373
_symmetry_Int_Tables_number   1
_chemical_formula_structural   K2LiTa3O12
_chemical_formula_sum   'K2 Li1 Ta3 O12'
_cell_volume   295.96045989
_cell_formula_units_Z   1
loop_
 _symmetry_equiv_pos_site_id
 _symmetry_equiv_pos_as_xyz
  1  'x, y, z'
loop_
 _atom_site_type_symbol
 _atom_site_label
 _atom_site_symmetry_multiplicity
 _atom_site_fract_x
 _atom_site_fract_y
 _atom_site_fract_z
 _atom_site_occupancy
  K  K0  1  0.12886409  0.87113603  0.50000010  1
  K  K1  1  0.87208101  0.12791900  0.00000005  1
  Ta  Ta2  1  0.99108305  0.50517102  0.73837410  1
  Li  Li3  1  0.49482900  0.00891700  0.26162602  1
  Ta  Ta4  1  0.49537005  0.47923502  0.73414007  1
  Ta  Ta5  1  0.52076505  0.50463002  0.26586007  1
  O  O6  1  0.82404206  0.56891002  0.50850409  1
  O  O7  1  0.81040906  0.55483502  0.85844610  1
  O  O8  1  0.44516502  0.18959101  0.14155404  1
  O  O9  1  0.56302704  0.43697301  1.00000008  1
  O  O10  1  0.43438406  0.56561602  0.50000008  1
  O  O11  1  0.43109002  0.17595801  0.49149604  1
  O  O12  1  0.54993608  0.80617103  0.34853111  1
  O  O13  1  0.19382905  0.45006401  0.65146906  1
  O  O14  1  0.81658402  0.18341601  0.50000005  1
  O  O15  1  0.57154408  0.82622703  0.00579110  1
  O  O16  1  0.17377304  0.42845601  0.99420906  1
  O  O17  1  0.18322408  0.81677603  1.00000010  1
