# generated using pymatgen
data_Na5Np(BO3)2
_symmetry_space_group_name_H-M   'P 1'
_cell_length_a   6.40467358
_cell_length_b   6.40467358
_cell_length_c   6.40467358
_cell_angle_alpha   109.47122192
_cell_angle_beta   109.47122192
_cell_angle_gamma   109.47122192
_symmetry_Int_Tables_number   1
_chemical_formula_structural   Na5Np(BO3)2
_chemical_formula_sum   'Na5 Np1 B2 O6'
_cell_volume   202.24094647
_cell_formula_units_Z   1
loop_
 _symmetry_equiv_pos_site_id
 _symmetry_equiv_pos_as_xyz
  1  'x, y, z'
loop_
 _atom_site_type_symbol
 _atom_site_label
 _atom_site_symmetry_multiplicity
 _atom_site_fract_x
 _atom_site_fract_y
 _atom_site_fract_z
 _atom_site_occupancy
  Na  Na0  1  0.50000000  0.00000000  0.00000001  1
  Na  Na1  1  0.50000003  0.50000002  0.50000004  1
  Na  Na2  1  1.00000004  0.50000002  0.00000005  1
  Na  Na3  1  0.00000000  0.00000000  0.50000000  1
  Na  Na4  1  0.00000000  0.00000000  0.00000000  1
  Np  Np5  1  0.50000007  1.00000004  0.50000007  1
  B  B6  1  0.50000003  0.50000002  0.00000004  1
  B  B7  1  1.00000004  0.50000002  0.50000005  1
  O  O8  1  0.68238600  0.00000000  0.68238601  1
  O  O9  1  0.31761400  0.00000000  0.31761401  1
  O  O10  1  0.68238605  0.68238602  0.00000005  1
  O  O11  1  0.31761402  0.31761401  0.00000003  1
  O  O12  1  0.00000002  0.31761401  0.31761402  1
  O  O13  1  1.00000005  0.68238602  0.68238606  1
