# generated using pymatgen
data_V4SiN4
_symmetry_space_group_name_H-M   'P 1'
_cell_length_a   3.18334866
_cell_length_b   5.45692396
_cell_length_c   5.45692444
_cell_angle_alpha   89.99459076
_cell_angle_beta   87.30442810
_cell_angle_gamma   87.30442810
_symmetry_Int_Tables_number   1
_chemical_formula_structural   V4SiN4
_chemical_formula_sum   'V4 Si1 N4'
_cell_volume   94.58395218
_cell_formula_units_Z   1
loop_
 _symmetry_equiv_pos_site_id
 _symmetry_equiv_pos_as_xyz
  1  'x, y, z'
loop_
 _atom_site_type_symbol
 _atom_site_label
 _atom_site_symmetry_multiplicity
 _atom_site_fract_x
 _atom_site_fract_y
 _atom_site_fract_z
 _atom_site_occupancy
  V  V0  1  0.07243098  0.35756201  0.35756199  1
  V  V1  1  0.56411898  0.28191701  0.76577799  1
  V  V2  1  0.03321396  0.66545802  0.66545798  1
  V  V3  1  0.56411895  0.76577802  0.28191695  1
  Si  Si4  1  0.97868099  0.05292200  0.05292197  1
  N  N5  1  0.80425594  0.90613602  0.90613595  1
  N  N6  1  0.55107796  0.51019601  0.51019597  1
  N  N7  1  0.05536594  0.98512402  0.27682796  1
  N  N8  1  0.05536598  0.27682801  0.98512401  1
