# generated using pymatgen
data_Zr5(RuSe4)3
_symmetry_space_group_name_H-M   'P 1'
_cell_length_a   3.92280293
_cell_length_b   10.96602058
_cell_length_c   11.18110180
_cell_angle_alpha   108.94334412
_cell_angle_beta   90.00000000
_cell_angle_gamma   90.00000000
_symmetry_Int_Tables_number   1
_chemical_formula_structural   Zr5(RuSe4)3
_chemical_formula_sum   'Zr5 Ru3 Se12'
_cell_volume   454.93342457
_cell_formula_units_Z   1
loop_
 _symmetry_equiv_pos_site_id
 _symmetry_equiv_pos_as_xyz
  1  'x, y, z'
loop_
 _atom_site_type_symbol
 _atom_site_label
 _atom_site_symmetry_multiplicity
 _atom_site_fract_x
 _atom_site_fract_y
 _atom_site_fract_z
 _atom_site_occupancy
  Zr  Zr0  1  0.25000000  0.44953102  0.80463401  1
  Zr  Zr1  1  0.75000001  0.55046902  0.19536601  1
  Zr  Zr2  1  0.25000000  0.82039003  0.00012701  1
  Zr  Zr3  1  0.75000001  0.17961001  0.99987301  1
  Zr  Zr4  1  0.25000000  0.05674900  0.66616201  1
  Ru  Ru5  1  0.75000001  0.94325104  0.33383801  1
  Ru  Ru6  1  0.25000000  0.33962401  0.41351901  1
  Ru  Ru7  1  0.75000001  0.66037603  0.58648101  1
  Se  Se8  1  0.25000000  0.02159800  0.88808401  1
  Se  Se9  1  0.75000001  0.97840204  0.11191601  1
  Se  Se10  1  0.25000000  0.69745603  0.74947602  1
  Se  Se11  1  0.75000001  0.30254401  0.25052401  1
  Se  Se12  1  0.25000000  0.10764600  0.44245901  1
  Se  Se13  1  0.75000001  0.89235404  0.55754101  1
  Se  Se14  1  0.25000000  0.58109702  0.40675501  1
  Se  Se15  1  0.75000001  0.41890302  0.59324501  1
  Se  Se16  1  0.25000000  0.76852503  0.23035901  1
  Se  Se17  1  0.75000001  0.23147501  0.76964101  1
  Se  Se18  1  0.25000000  0.37982502  0.03642000  1
  Se  Se19  1  0.75000001  0.62017503  0.96358002  1
