# generated using pymatgen
data_Li4Ta2SiO12
_symmetry_space_group_name_H-M   'P 1'
_cell_length_a   5.11925268
_cell_length_b   6.46169424
_cell_length_c   6.46169424
_cell_angle_alpha   86.56061554
_cell_angle_beta   85.06233978
_cell_angle_gamma   85.06233978
_symmetry_Int_Tables_number   1
_chemical_formula_structural   Li4Ta2SiO12
_chemical_formula_sum   'Li4 Ta2 Si1 O12'
_cell_volume   211.86523723
_cell_formula_units_Z   1
loop_
 _symmetry_equiv_pos_site_id
 _symmetry_equiv_pos_as_xyz
  1  'x, y, z'
loop_
 _atom_site_type_symbol
 _atom_site_label
 _atom_site_symmetry_multiplicity
 _atom_site_fract_x
 _atom_site_fract_y
 _atom_site_fract_z
 _atom_site_occupancy
  Li  Li0  1  1.00000001  0.17706700  0.82293305  1
  Li  Li1  1  0.00000003  0.82293301  0.17706702  1
  Li  Li2  1  0.50000002  0.33768701  0.66231303  1
  Li  Li3  1  0.50000003  0.66231301  0.33768703  1
  Ta  Ta4  1  0.50000000  0.00000000  0.00000001  1
  Ta  Ta5  1  0.05332801  0.31611601  0.31611601  1
  Si  Si6  1  0.94667203  0.68388401  0.68388405  1
  O  O7  1  0.12352402  0.47135101  0.78927903  1
  O  O8  1  0.12352403  0.78927901  0.47135103  1
  O  O9  1  0.87647603  0.52864901  0.21072104  1
  O  O10  1  0.87647601  0.21072100  0.52864904  1
  O  O11  1  0.11003101  0.12775800  0.12775801  1
  O  O12  1  0.88996904  0.87224201  0.87224206  1
  O  O13  1  0.36314502  0.37665501  0.37665503  1
  O  O14  1  0.63685503  0.62334501  0.62334504  1
  O  O15  1  0.64121001  0.25758300  0.92283904  1
  O  O16  1  0.64121004  0.92283901  0.25758304  1
  O  O17  1  0.35879003  0.74241701  0.07716103  1
  O  O18  1  0.35879000  0.07716100  0.74241703  1
