# generated using pymatgen
data_Ba2TmReO6
_symmetry_space_group_name_H-M   'P 1'
_cell_length_a   5.90842915
_cell_length_b   5.96567917
_cell_length_c   8.37512493
_cell_angle_alpha   90.00000000
_cell_angle_beta   90.00000000
_cell_angle_gamma   90.00000000
_symmetry_Int_Tables_number   1
_chemical_formula_structural   Ba2TmReO6
_chemical_formula_sum   'Ba4 Tm2 Re2 O12'
_cell_volume   295.20466721
_cell_formula_units_Z   2
loop_
 _symmetry_equiv_pos_site_id
 _symmetry_equiv_pos_as_xyz
  1  'x, y, z'
loop_
 _atom_site_type_symbol
 _atom_site_label
 _atom_site_symmetry_multiplicity
 _atom_site_fract_x
 _atom_site_fract_y
 _atom_site_fract_z
 _atom_site_occupancy
  Ba  Ba0  1  -0.00000000  0.51629099  0.25457600  1
  Ba  Ba1  1  0.49999999  0.99069497  0.24823000  1
  Ba  Ba2  1  -0.00000000  0.51629099  0.74542401  1
  Ba  Ba3  1  0.49999999  0.99069497  0.75177001  1
  Tm  Tm4  1  0.49999999  0.47275799  0.00000000  1
  Tm  Tm5  1  -0.00000000  0.99689897  0.50000000  1
  Re  Re6  1  -0.00000000  0.96812797  -0.00000000  1
  Re  Re7  1  0.49999999  0.49144699  0.50000000  1
  O  O8  1  0.26917599  0.72585698  0.50000000  1
  O  O9  1  0.26435199  0.26360999  0.50000000  1
  O  O10  1  -0.00000000  0.95841297  0.23266100  1
  O  O11  1  -0.00000000  0.95841297  0.76733901  1
  O  O12  1  0.49999999  0.48423799  0.73218801  1
  O  O13  1  0.22276999  0.72357898  -0.00000000  1
  O  O14  1  0.73082398  0.72585698  0.50000000  1
  O  O15  1  0.77722998  0.72357898  -0.00000000  1
  O  O16  1  0.75514198  0.18270099  0.00000000  1
  O  O17  1  0.73564798  0.26360999  0.50000000  1
  O  O18  1  0.49999999  0.48423799  0.26781200  1
  O  O19  1  0.24485799  0.18270099  -0.00000000  1
