# generated using pymatgen
data_Li2FeF8
_symmetry_space_group_name_H-M   'P 1'
_cell_length_a   5.15268517
_cell_length_b   5.15268517
_cell_length_c   5.15268517
_cell_angle_alpha   102.03469849
_cell_angle_beta   102.03469849
_cell_angle_gamma   102.03469849
_symmetry_Int_Tables_number   1
_chemical_formula_structural   Li2FeF8
_chemical_formula_sum   'Li2 Fe1 F8'
_cell_volume   126.23512190
_cell_formula_units_Z   1
loop_
 _symmetry_equiv_pos_site_id
 _symmetry_equiv_pos_as_xyz
  1  'x, y, z'
loop_
 _atom_site_type_symbol
 _atom_site_label
 _atom_site_symmetry_multiplicity
 _atom_site_fract_x
 _atom_site_fract_y
 _atom_site_fract_z
 _atom_site_occupancy
  Li  Li0  1  0.41708798  0.02672100  0.41708798  1
  Li  Li1  1  0.41708796  0.41708797  0.02672095  1
  Fe  Fe2  1  0.02672098  0.41708797  0.41708798  1
  F  F3  1  0.87493992  0.87493994  0.87493991  1
  F  F4  1  0.70982496  0.02868100  0.70982497  1
  F  F5  1  0.26561598  0.26561598  0.64394598  1
  F  F6  1  0.26561596  0.64394596  0.26561595  1
  F  F7  1  0.70982494  0.70982495  0.02868092  1
  F  F8  1  0.02868097  0.70982495  0.70982496  1
  F  F9  1  0.10912099  0.10912099  0.10912099  1
  F  F10  1  0.64394595  0.26561598  0.26561595  1
