# generated using pymatgen
data_ZrNbCo4
_symmetry_space_group_name_H-M   'P 1'
_cell_length_a   4.65736151
_cell_length_b   4.65736151
_cell_length_c   4.71500063
_cell_angle_alpha   60.40356827
_cell_angle_beta   60.40356827
_cell_angle_gamma   60.00000000
_symmetry_Int_Tables_number   1
_chemical_formula_structural   ZrNbCo4
_chemical_formula_sum   'Zr1 Nb1 Co4'
_cell_volume   72.75604176
_cell_formula_units_Z   1
loop_
 _symmetry_equiv_pos_site_id
 _symmetry_equiv_pos_as_xyz
  1  'x, y, z'
loop_
 _atom_site_type_symbol
 _atom_site_label
 _atom_site_symmetry_multiplicity
 _atom_site_fract_x
 _atom_site_fract_y
 _atom_site_fract_z
 _atom_site_occupancy
  Zr  Zr0  1  0.24976901  0.24976801  0.25069399  1
  Nb  Nb1  1  0.00023100  0.00023200  0.99930597  1
  Co  Co2  1  0.62500002  0.12500000  0.62499998  1
  Co  Co3  1  0.12500000  0.62500002  0.62499998  1
  Co  Co4  1  0.62500002  0.62500002  0.62499998  1
  Co  Co5  1  0.62500002  0.62500002  0.12500000  1
