# generated using pymatgen
data_Sr3TiRuO7
_symmetry_space_group_name_H-M   'P 1'
_cell_length_a   3.94711590
_cell_length_b   3.94711590
_cell_length_c   10.72710323
_cell_angle_alpha   100.60159302
_cell_angle_beta   100.60159302
_cell_angle_gamma   90.00000000
_symmetry_Int_Tables_number   1
_chemical_formula_structural   Sr3TiRuO7
_chemical_formula_sum   'Sr3 Ti1 Ru1 O7'
_cell_volume   161.36930154
_cell_formula_units_Z   1
loop_
 _symmetry_equiv_pos_site_id
 _symmetry_equiv_pos_as_xyz
  1  'x, y, z'
loop_
 _atom_site_type_symbol
 _atom_site_label
 _atom_site_symmetry_multiplicity
 _atom_site_fract_x
 _atom_site_fract_y
 _atom_site_fract_z
 _atom_site_occupancy
  Sr  Sr0  1  0.32034501  0.32034501  0.64068998  1
  Sr  Sr1  1  0.68500603  0.68500602  0.37001200  1
  Sr  Sr2  1  0.48904202  0.48904201  0.97808397  1
  Ti  Ti3  1  0.89451403  0.89451403  0.78902798  1
  Ru  Ru4  1  0.09668200  0.09668200  0.19336399  1
  O  O5  1  0.80375903  0.80375902  0.60751799  1
  O  O6  1  0.19555901  0.19555901  0.39111799  1
  O  O7  1  0.00497100  0.00497100  0.00994200  1
  O  O8  1  0.90492503  0.40492501  0.80984998  1
  O  O9  1  0.40492502  0.90492503  0.80984998  1
  O  O10  1  0.10013601  0.60013602  0.20027200  1
  O  O11  1  0.60013602  0.10013600  0.20027200  1
