# generated using pymatgen
data_Rb2PaO4
_symmetry_space_group_name_H-M   'P 1'
_cell_length_a   4.40350819
_cell_length_b   4.40350819
_cell_length_c   8.38372421
_cell_angle_alpha   105.22572327
_cell_angle_beta   105.22572327
_cell_angle_gamma   90.00000000
_symmetry_Int_Tables_number   1
_chemical_formula_structural   Rb2PaO4
_chemical_formula_sum   'Rb2 Pa1 O4'
_cell_volume   150.93956071
_cell_formula_units_Z   1
loop_
 _symmetry_equiv_pos_site_id
 _symmetry_equiv_pos_as_xyz
  1  'x, y, z'
loop_
 _atom_site_type_symbol
 _atom_site_label
 _atom_site_symmetry_multiplicity
 _atom_site_fract_x
 _atom_site_fract_y
 _atom_site_fract_z
 _atom_site_occupancy
  Rb  Rb0  1  0.34920698  0.34920698  0.69841397  1
  Rb  Rb1  1  0.65079296  0.65079297  0.30158597  1
  Pa  Pa2  1  0.00000000  0.00000000  0.00000000  1
  O  O3  1  0.12348299  0.12348299  0.24696599  1
  O  O4  1  0.87651694  0.87651695  0.75303395  1
  O  O5  1  0.49999997  0.00000000  -0.00000001  1
  O  O6  1  -0.00000001  0.49999997  0.99999997  1
