# generated using pymatgen
data_Zr5(RuSe4)3
_symmetry_space_group_name_H-M   'P 1'
_cell_length_a   3.96668291
_cell_length_b   11.03745174
_cell_length_c   11.27441502
_cell_angle_alpha   108.79824066
_cell_angle_beta   90.00000000
_cell_angle_gamma   90.00000000
_symmetry_Int_Tables_number   1
_chemical_formula_structural   Zr5(RuSe4)3
_chemical_formula_sum   'Zr5 Ru3 Se12'
_cell_volume   467.28728050
_cell_formula_units_Z   1
loop_
 _symmetry_equiv_pos_site_id
 _symmetry_equiv_pos_as_xyz
  1  'x, y, z'
loop_
 _atom_site_type_symbol
 _atom_site_label
 _atom_site_symmetry_multiplicity
 _atom_site_fract_x
 _atom_site_fract_y
 _atom_site_fract_z
 _atom_site_occupancy
  Zr  Zr0  1  0.25000001  0.45061902  0.80578099  1
  Zr  Zr1  1  0.75000002  0.54938102  0.19421901  1
  Zr  Zr2  1  0.25000001  0.82031003  0.99961200  1
  Zr  Zr3  1  0.75000002  0.17969001  0.00038801  1
  Zr  Zr4  1  0.25000001  0.05712200  0.66680998  1
  Ru  Ru5  1  0.75000002  0.94287803  0.33319002  1
  Ru  Ru6  1  0.25000001  0.33990401  0.41350800  1
  Ru  Ru7  1  0.75000002  0.66009602  0.58649201  1
  Se  Se8  1  0.25000001  0.02132700  0.88843997  1
  Se  Se9  1  0.75000002  0.97867303  0.11156003  1
  Se  Se10  1  0.25000001  0.69602802  0.74958500  1
  Se  Se11  1  0.75000002  0.30397201  0.25041500  1
  Se  Se12  1  0.25000001  0.10674800  0.44213399  1
  Se  Se13  1  0.75000002  0.89325203  0.55786601  1
  Se  Se14  1  0.25000001  0.58134302  0.40523201  1
  Se  Se15  1  0.75000002  0.41865701  0.59476800  1
  Se  Se16  1  0.25000001  0.76674303  0.22998402  1
  Se  Se17  1  0.75000002  0.23325701  0.77001599  1
  Se  Se18  1  0.25000001  0.38169401  0.03709001  1
  Se  Se19  1  0.75000002  0.61830602  0.96290999  1
