# generated using pymatgen
data_Eu2Ni2P2C
_symmetry_space_group_name_H-M   'P 1'
_cell_length_a   4.01887608
_cell_length_b   5.83562422
_cell_length_c   6.08620691
_cell_angle_alpha   73.14610291
_cell_angle_beta   70.72135162
_cell_angle_gamma   69.85849762
_symmetry_Int_Tables_number   1
_chemical_formula_structural   Eu2Ni2P2C
_chemical_formula_sum   'Eu2 Ni2 P2 C1'
_cell_volume   123.96714256
_cell_formula_units_Z   1
loop_
 _symmetry_equiv_pos_site_id
 _symmetry_equiv_pos_as_xyz
  1  'x, y, z'
loop_
 _atom_site_type_symbol
 _atom_site_label
 _atom_site_symmetry_multiplicity
 _atom_site_fract_x
 _atom_site_fract_y
 _atom_site_fract_z
 _atom_site_occupancy
  Eu  Eu0  1  0.44350004  0.81036499  0.30263497  1
  Eu  Eu1  1  0.55650001  0.18963500  0.69736498  1
  Ni  Ni2  1  0.80914101  0.29989800  0.08181997  1
  Ni  Ni3  1  0.19085903  0.70010199  0.91817999  1
  P  P4  1  0.81251003  0.61972399  0.75525597  1
  P  P5  1  0.18749002  0.38027600  0.24474399  1
  C  C6  1  0.00000000  0.00000000  0.00000000  1
