# generated using pymatgen
data_NaFe9Mo2
_symmetry_space_group_name_H-M   'P 1'
_cell_length_a   3.90082002
_cell_length_b   7.89510202
_cell_length_c   7.89510202
_cell_angle_alpha   120.00000000
_cell_angle_beta   90.00000000
_cell_angle_gamma   90.00000000
_symmetry_Int_Tables_number   1
_chemical_formula_structural   NaFe9Mo2
_chemical_formula_sum   'Na1 Fe9 Mo2'
_cell_volume   210.57268618
_cell_formula_units_Z   1
loop_
 _symmetry_equiv_pos_site_id
 _symmetry_equiv_pos_as_xyz
  1  'x, y, z'
loop_
 _atom_site_type_symbol
 _atom_site_label
 _atom_site_symmetry_multiplicity
 _atom_site_fract_x
 _atom_site_fract_y
 _atom_site_fract_z
 _atom_site_occupancy
  Na  Na0  1  0.00000000  0.00000000  0.00000000  1
  Fe  Fe1  1  0.50000000  0.21315600  0.78684301  1
  Fe  Fe2  1  0.50000000  0.78684400  0.57368801  1
  Fe  Fe3  1  0.50000000  0.42631300  0.21315700  1
  Fe  Fe4  1  -0.00000000  0.50000000  0.50000001  1
  Fe  Fe5  1  -0.00000000  0.50000000  0.00000000  1
  Fe  Fe6  1  0.00000000  0.00000000  0.50000000  1
  Fe  Fe7  1  0.50000000  0.78684400  0.21315701  1
  Fe  Fe8  1  0.50000000  0.21315600  0.42631201  1
  Fe  Fe9  1  0.50000000  0.57368700  0.78684301  1
  Mo  Mo10  1  -0.00000000  0.33333333  0.66666667  1
  Mo  Mo11  1  -0.00000000  0.66666667  0.33333334  1
