# generated using pymatgen
data_Ho4Cu3Sn5
_symmetry_space_group_name_H-M   'P 1'
_cell_length_a   4.51117802
_cell_length_b   4.51117802
_cell_length_c   16.11918831
_cell_angle_alpha   90.00000000
_cell_angle_beta   90.00000000
_cell_angle_gamma   120.00000000
_symmetry_Int_Tables_number   1
_chemical_formula_structural   Ho4Cu3Sn5
_chemical_formula_sum   'Ho4 Cu3 Sn5'
_cell_volume   284.08855059
_cell_formula_units_Z   1
loop_
 _symmetry_equiv_pos_site_id
 _symmetry_equiv_pos_as_xyz
  1  'x, y, z'
loop_
 _atom_site_type_symbol
 _atom_site_label
 _atom_site_symmetry_multiplicity
 _atom_site_fract_x
 _atom_site_fract_y
 _atom_site_fract_z
 _atom_site_occupancy
  Ho  Ho0  1  0.00000000  0.00000000  0.00000000  1
  Ho  Ho1  1  0.00000000  0.00000000  0.75000003  1
  Ho  Ho2  1  0.00000000  0.00000000  0.50000002  1
  Ho  Ho3  1  0.00000000  0.00000000  0.25000001  1
  Cu  Cu4  1  0.33333335  0.66666671  0.16122901  1
  Sn  Sn5  1  0.66666668  0.33333335  0.66122903  1
  Cu  Cu6  1  0.33333335  0.66666671  0.33877101  1
  Cu  Cu7  1  0.66666668  0.33333335  0.83877104  1
  Sn  Sn8  1  0.66666668  0.33333335  0.38621002  1
  Sn  Sn9  1  0.33333335  0.66666671  0.88621004  1
  Sn  Sn10  1  0.33333335  0.66666671  0.61379003  1
  Sn  Sn11  1  0.66666668  0.33333335  0.11379000  1
