# generated using pymatgen
data_CrIBr
_symmetry_space_group_name_H-M   'P 1'
_cell_length_a   3.60283208
_cell_length_b   5.52056122
_cell_length_c   6.41575718
_cell_angle_alpha   91.54916382
_cell_angle_beta   90.00000000
_cell_angle_gamma   90.00000000
_symmetry_Int_Tables_number   1
_chemical_formula_structural   CrIBr
_chemical_formula_sum   'Cr2 I2 Br2'
_cell_volume   127.56055615
_cell_formula_units_Z   2
loop_
 _symmetry_equiv_pos_site_id
 _symmetry_equiv_pos_as_xyz
  1  'x, y, z'
loop_
 _atom_site_type_symbol
 _atom_site_label
 _atom_site_symmetry_multiplicity
 _atom_site_fract_x
 _atom_site_fract_y
 _atom_site_fract_z
 _atom_site_occupancy
  Cr  Cr0  1  0.49999999  0.49999998  0.50000000  1
  Cr  Cr1  1  0.00000000  0.00000000  0.00000000  1
  I  I2  1  0.49999999  0.70341097  0.14401401  1
  I  I3  1  0.49999999  0.29658899  0.85598598  1
  Br  Br4  1  0.00000000  0.21467399  0.35514699  1
  Br  Br5  1  0.00000000  0.78532597  0.64485300  1
