# generated using pymatgen
data_YbFe2C3
_symmetry_space_group_name_H-M   'P 1'
_cell_length_a   3.77840805
_cell_length_b   3.77840805
_cell_length_c   5.58913040
_cell_angle_alpha   109.75592041
_cell_angle_beta   109.75592041
_cell_angle_gamma   90.00000000
_symmetry_Int_Tables_number   1
_chemical_formula_structural   YbFe2C3
_chemical_formula_sum   'Yb1 Fe2 C3'
_cell_volume   70.08546922
_cell_formula_units_Z   1
loop_
 _symmetry_equiv_pos_site_id
 _symmetry_equiv_pos_as_xyz
  1  'x, y, z'
loop_
 _atom_site_type_symbol
 _atom_site_label
 _atom_site_symmetry_multiplicity
 _atom_site_fract_x
 _atom_site_fract_y
 _atom_site_fract_z
 _atom_site_occupancy
  Yb  Yb0  1  0.00000000  0.00000000  0.00000000  1
  Fe  Fe1  1  0.75000000  0.25000000  0.50000003  1
  Fe  Fe2  1  0.25000002  0.75000000  0.50000003  1
  C  C3  1  0.34812801  0.34812800  0.69625602  1
  C  C4  1  0.65187202  0.65187200  0.30374403  1
  C  C5  1  0.50000001  0.50000000  0.00000003  1
