# generated using pymatgen
data_Ce2InNi2
_symmetry_space_group_name_H-M   'P 1'
_cell_length_a   3.78810406
_cell_length_b   7.59078217
_cell_length_c   7.59078217
_cell_angle_alpha   90.00000000
_cell_angle_beta   90.00000000
_cell_angle_gamma   90.00000000
_symmetry_Int_Tables_number   1
_chemical_formula_structural   Ce2InNi2
_chemical_formula_sum   'Ce4 In2 Ni4'
_cell_volume   218.27045685
_cell_formula_units_Z   2
loop_
 _symmetry_equiv_pos_site_id
 _symmetry_equiv_pos_as_xyz
  1  'x, y, z'
loop_
 _atom_site_type_symbol
 _atom_site_label
 _atom_site_symmetry_multiplicity
 _atom_site_fract_x
 _atom_site_fract_y
 _atom_site_fract_z
 _atom_site_occupancy
  Ce  Ce0  1  0.49999999  0.67515499  0.17515500  1
  Ce  Ce1  1  0.49999999  0.32484499  0.82484498  1
  Ce  Ce2  1  0.49999999  0.17515500  0.32484499  1
  Ce  Ce3  1  0.49999999  0.82484498  0.67515499  1
  In  In4  1  -0.00000000  0.49999999  0.49999999  1
  In  In5  1  0.00000000  0.00000000  0.00000000  1
  Ni  Ni6  1  0.99999998  0.11735100  0.61735099  1
  Ni  Ni7  1  0.99999998  0.88264898  0.38264899  1
  Ni  Ni8  1  -0.00000000  0.61735099  0.88264898  1
  Ni  Ni9  1  0.00000000  0.38264899  0.11735100  1
