# generated using pymatgen
data_SrEuMn2O5
_symmetry_space_group_name_H-M   'P 1'
_cell_length_a   5.40470695
_cell_length_b   5.63581705
_cell_length_c   8.21788120
_cell_angle_alpha   110.05160522
_cell_angle_beta   109.19518280
_cell_angle_gamma   90.00267029
_symmetry_Int_Tables_number   1
_chemical_formula_structural   SrEuMn2O5
_chemical_formula_sum   'Sr2 Eu2 Mn4 O10'
_cell_volume   220.26842451
_cell_formula_units_Z   2
loop_
 _symmetry_equiv_pos_site_id
 _symmetry_equiv_pos_as_xyz
  1  'x, y, z'
loop_
 _atom_site_type_symbol
 _atom_site_label
 _atom_site_symmetry_multiplicity
 _atom_site_fract_x
 _atom_site_fract_y
 _atom_site_fract_z
 _atom_site_occupancy
  Sr  Sr0  1  0.39011703  0.86310600  0.78532604  1
  Sr  Sr1  1  0.60475700  0.13693300  0.21467699  1
  Eu  Eu2  1  0.89014300  0.42223900  0.78532301  1
  Eu  Eu3  1  0.10487602  0.57770500  0.21469902  1
  Mn  Mn4  1  0.70633602  0.82104900  0.50008201  1
  Mn  Mn5  1  0.20626700  0.17900500  0.49992602  1
  Mn  Mn6  1  0.49327301  0.49999900  0.00001699  1
  Mn  Mn7  1  0.99303799  0.00002500  1.00000001  1
  O  O8  1  0.36279903  0.88177000  0.49996103  1
  O  O9  1  0.86285399  0.11829400  0.50002799  1
  O  O10  1  0.29308203  0.76087000  0.02434401  1
  O  O11  1  0.26841701  0.23878800  0.97563304  1
  O  O12  1  0.79292502  0.76332400  0.02433299  1
  O  O13  1  0.76826000  0.23691500  0.97563902  1
  O  O14  1  0.88188202  0.80038100  0.71825602  1
  O  O15  1  0.16355701  0.19960900  0.28173201  1
  O  O16  1  0.38158301  0.41780000  0.71770703  1
  O  O17  1  0.66383801  0.58218900  0.28231700  1
