# generated using pymatgen
data_LiFeO3
_symmetry_space_group_name_H-M   'P 1'
_cell_length_a   5.12819386
_cell_length_b   5.12801838
_cell_length_c   5.63426399
_cell_angle_alpha   62.92985916
_cell_angle_beta   62.93221283
_cell_angle_gamma   60.00063324
_symmetry_Int_Tables_number   1
_chemical_formula_structural   LiFeO3
_chemical_formula_sum   'Li2 Fe2 O6'
_cell_volume   109.17433689
_cell_formula_units_Z   2
loop_
 _symmetry_equiv_pos_site_id
 _symmetry_equiv_pos_as_xyz
  1  'x, y, z'
loop_
 _atom_site_type_symbol
 _atom_site_label
 _atom_site_symmetry_multiplicity
 _atom_site_fract_x
 _atom_site_fract_y
 _atom_site_fract_z
 _atom_site_occupancy
  Li  Li0  1  0.00070800  0.00070800  0.99787200  1
  Li  Li1  1  0.50047901  0.50046500  0.49858002  1
  Fe  Fe2  1  0.68524801  0.68525600  0.94425003  1
  Fe  Fe3  1  0.31347000  0.31346400  0.05960101  1
  O  O4  1  0.28275201  0.60980700  0.22020202  1
  O  O5  1  0.39094501  0.11449900  0.77969701  1
  O  O6  1  0.11447800  0.71485500  0.77969101  1
  O  O7  1  0.88727301  0.28274100  0.22020403  1
  O  O8  1  0.60982601  0.88723800  0.22020103  1
  O  O9  1  0.71482201  0.39096900  0.77970203  1
