# generated using pymatgen
data_NaAg3BiTe(WO6)2
_symmetry_space_group_name_H-M   'P 1'
_cell_length_a   5.58151579
_cell_length_b   5.82047606
_cell_length_c   7.91362572
_cell_angle_alpha   90.00000000
_cell_angle_beta   89.72387695
_cell_angle_gamma   90.00000000
_symmetry_Int_Tables_number   1
_chemical_formula_structural   NaAg3BiTe(WO6)2
_chemical_formula_sum   'Na1 Ag3 Bi1 Te1 W2 O12'
_cell_volume   257.08759837
_cell_formula_units_Z   1
loop_
 _symmetry_equiv_pos_site_id
 _symmetry_equiv_pos_as_xyz
  1  'x, y, z'
loop_
 _atom_site_type_symbol
 _atom_site_label
 _atom_site_symmetry_multiplicity
 _atom_site_fract_x
 _atom_site_fract_y
 _atom_site_fract_z
 _atom_site_occupancy
  Na  Na0  1  0.00000000  0.00000000  0.00000000  1
  Te  Te1  1  0.50000002  0.50000000  0.50000003  1
  Bi  Bi2  1  0.51249402  0.05965800  0.25132902  1
  Ag  Ag3  1  0.98750604  0.55965799  0.24867104  1
  Ag  Ag4  1  0.01249400  0.44034200  0.75132902  1
  Ag  Ag5  1  0.48750602  0.94034199  0.74867103  1
  W  W6  1  0.50000002  0.50000000  0.00000002  1
  W  W7  1  0.00000000  0.99999999  0.50000001  1
  O  O8  1  0.81404503  0.28485800  0.44961104  1
  O  O9  1  0.68595503  0.78485799  0.05038902  1
  O  O10  1  0.18595501  0.71514199  0.55038902  1
  O  O11  1  0.31404501  0.21514200  0.94961103  1
  O  O12  1  0.90857903  0.02863000  0.74223005  1
  O  O13  1  0.59142102  0.52862999  0.75777004  1
  O  O14  1  0.78958403  0.31046400  0.04547603  1
  O  O15  1  0.71041603  0.81046399  0.45452403  1
  O  O16  1  0.21041601  0.68953599  0.95452403  1
  O  O17  1  0.28958401  0.18953600  0.54547602  1
  O  O18  1  0.40857902  0.47137000  0.24223002  1
  O  O19  1  0.09142100  0.97136999  0.25777001  1
