# generated using pymatgen
data_Ce2Ti3P3C
_symmetry_space_group_name_H-M   'P 1'
_cell_length_a   4.12984085
_cell_length_b   4.12984085
_cell_length_c   9.86690903
_cell_angle_alpha   102.08000946
_cell_angle_beta   102.08000183
_cell_angle_gamma   90.00000000
_symmetry_Int_Tables_number   1
_chemical_formula_structural   Ce2Ti3P3C
_chemical_formula_sum   'Ce2 Ti3 P3 C1'
_cell_volume   160.74660911
_cell_formula_units_Z   1
loop_
 _symmetry_equiv_pos_site_id
 _symmetry_equiv_pos_as_xyz
  1  'x, y, z'
loop_
 _atom_site_type_symbol
 _atom_site_label
 _atom_site_symmetry_multiplicity
 _atom_site_fract_x
 _atom_site_fract_y
 _atom_site_fract_z
 _atom_site_occupancy
  Ce  Ce0  1  0.41038901  0.41038902  0.82077799  1
  Ce  Ce1  1  0.58961102  0.58961102  0.17922199  1
  Ti  Ti2  1  0.00000000  0.00000000  0.00000000  1
  Ti  Ti3  1  0.25000000  0.75000003  0.50000000  1
  Ti  Ti4  1  0.75000002  0.25000001  0.49999999  1
  P  P5  1  0.16792600  0.16792601  0.33585200  1
  P  P6  1  0.83207402  0.83207403  0.66414799  1
  P  P7  1  0.50029602  0.00029600  0.00059200  1
  C  C8  1  0.99970403  0.49970402  0.99940798  1
