# generated using pymatgen
data_K2BiI7
_symmetry_space_group_name_H-M   'P 1'
_cell_length_a   8.25432301
_cell_length_b   8.61899567
_cell_length_c   11.87549973
_cell_angle_alpha   90.00000000
_cell_angle_beta   90.00000000
_cell_angle_gamma   90.00000000
_symmetry_Int_Tables_number   1
_chemical_formula_structural   K2BiI7
_chemical_formula_sum   'K4 Bi2 I14'
_cell_volume   844.87024626
_cell_formula_units_Z   2
loop_
 _symmetry_equiv_pos_site_id
 _symmetry_equiv_pos_as_xyz
  1  'x, y, z'
loop_
 _atom_site_type_symbol
 _atom_site_label
 _atom_site_symmetry_multiplicity
 _atom_site_fract_x
 _atom_site_fract_y
 _atom_site_fract_z
 _atom_site_occupancy
  K  K0  1  0.02000900  0.43697102  0.25000001  1
  K  K1  1  0.97999100  0.56302902  0.75000002  1
  K  K2  1  0.52000900  0.06302900  0.75000002  1
  K  K3  1  0.47999100  0.93697104  0.25000001  1
  Bi  Bi4  1  0.00000000  0.00000000  0.00000000  1
  Bi  Bi5  1  0.50000000  0.50000002  -0.00000000  1
  I  I6  1  0.00000000  0.00000000  0.50000001  1
  I  I7  1  0.50000000  0.50000002  0.50000001  1
  I  I8  1  0.29715800  0.20737601  0.04314900  1
  I  I9  1  0.70284200  0.79262403  0.95685102  1
  I  I10  1  0.79715800  0.29262401  0.95685102  1
  I  I11  1  0.70284200  0.79262403  0.54314901  1
  I  I12  1  0.20284200  0.70737603  0.04314900  1
  I  I13  1  0.29715800  0.20737601  0.45685101  1
  I  I14  1  0.20284200  0.70737603  0.45685101  1
  I  I15  1  0.79715800  0.29262401  0.54314901  1
  I  I16  1  0.58429000  0.52306802  0.25000001  1
  I  I17  1  0.41571000  0.47693202  0.75000002  1
  I  I18  1  0.08429000  0.97693204  0.75000002  1
  I  I19  1  0.91571000  0.02306800  0.25000001  1
