# generated using pymatgen
data_FeO2
_symmetry_space_group_name_H-M   'P 1'
_cell_length_a   3.55242991
_cell_length_b   5.06432581
_cell_length_c   6.79462814
_cell_angle_alpha   107.30329132
_cell_angle_beta   90.00000000
_cell_angle_gamma   110.53202057
_symmetry_Int_Tables_number   1
_chemical_formula_structural   FeO2
_chemical_formula_sum   'Fe3 O6'
_cell_volume   108.54758408
_cell_formula_units_Z   3
loop_
 _symmetry_equiv_pos_site_id
 _symmetry_equiv_pos_as_xyz
  1  'x, y, z'
loop_
 _atom_site_type_symbol
 _atom_site_label
 _atom_site_symmetry_multiplicity
 _atom_site_fract_x
 _atom_site_fract_y
 _atom_site_fract_z
 _atom_site_occupancy
  Fe  Fe0  1  0.20221300  0.40442598  0.66466500  1
  Fe  Fe1  1  0.79778701  0.59557397  0.33533500  1
  Fe  Fe2  1  0.00000000  0.00000000  0.00000000  1
  O  O3  1  0.04526100  0.09052200  0.73574500  1
  O  O4  1  0.95473901  0.90947796  0.26425500  1
  O  O5  1  0.34874900  0.69749797  0.88616599  1
  O  O6  1  0.65125101  0.30250199  0.11383400  1
  O  O7  1  0.30167300  0.60334597  0.42913100  1
  O  O8  1  0.69832701  0.39665398  0.57086900  1
