# generated using pymatgen
data_ZrFe5(SiC)4
_symmetry_space_group_name_H-M   'P 1'
_cell_length_a   3.18731189
_cell_length_b   4.52957153
_cell_length_c   10.80454445
_cell_angle_alpha   90.00000000
_cell_angle_beta   90.00000000
_cell_angle_gamma   110.59951782
_symmetry_Int_Tables_number   1
_chemical_formula_structural   ZrFe5(SiC)4
_chemical_formula_sum   'Zr1 Fe5 Si4 C4'
_cell_volume   146.01349326
_cell_formula_units_Z   1
loop_
 _symmetry_equiv_pos_site_id
 _symmetry_equiv_pos_as_xyz
  1  'x, y, z'
loop_
 _atom_site_type_symbol
 _atom_site_label
 _atom_site_symmetry_multiplicity
 _atom_site_fract_x
 _atom_site_fract_y
 _atom_site_fract_z
 _atom_site_occupancy
  Zr  Zr0  1  0.50000002  0.00000000  0.00000000  1
  Fe  Fe1  1  0.50000002  0.00000000  0.49999998  1
  Fe  Fe2  1  0.20920704  0.41841400  0.74999997  1
  Fe  Fe3  1  0.79079307  0.58158600  0.24999999  1
  Fe  Fe4  1  0.91388509  0.82776999  0.39726698  1
  Fe  Fe5  1  0.08611501  0.17223000  0.60273297  1
  C  C6  1  0.08611501  0.17223000  0.89726696  1
  C  C7  1  0.91388509  0.82776999  0.10273300  1
  Si  Si8  1  0.50228502  0.00457000  0.74999997  1
  Si  Si9  1  0.49771509  0.99542999  0.24999999  1
  Si  Si10  1  0.21141804  0.42283600  0.39308098  1
  Si  Si11  1  0.78858207  0.57716400  0.60691897  1
  C  C12  1  0.78858207  0.57716400  0.89308096  1
  C  C13  1  0.21141804  0.42283600  0.10691900  1
