# generated using pymatgen
data_Li5TaNbO6
_symmetry_space_group_name_H-M   'P 1'
_cell_length_a   5.94480419
_cell_length_b   5.96919394
_cell_length_c   6.18732452
_cell_angle_alpha   90.00000000
_cell_angle_beta   63.20063019
_cell_angle_gamma   90.00000000
_symmetry_Int_Tables_number   1
_chemical_formula_structural   Li5TaNbO6
_chemical_formula_sum   'Li5 Ta1 Nb1 O6'
_cell_volume   195.97854732
_cell_formula_units_Z   1
loop_
 _symmetry_equiv_pos_site_id
 _symmetry_equiv_pos_as_xyz
  1  'x, y, z'
loop_
 _atom_site_type_symbol
 _atom_site_label
 _atom_site_symmetry_multiplicity
 _atom_site_fract_x
 _atom_site_fract_y
 _atom_site_fract_z
 _atom_site_occupancy
  Li  Li0  1  0.49999998  0.74634001  -0.00000000  1
  Li  Li1  1  -0.00000000  0.49106401  0.50000002  1
  Li  Li2  1  0.49999998  0.25883800  -0.00000000  1
  Li  Li3  1  -0.00000000  0.75819401  0.00000000  1
  Nb  Nb4  1  0.49999998  0.99213301  0.50000002  1
  Ta  Ta5  1  0.69626098  0.22301300  0.56240102  1
  O  O6  1  0.77877498  0.52851801  0.89711003  1
  Li  Li7  1  0.30373899  0.22301300  0.43759901  1
  O  O8  1  0.23770899  0.77118601  0.56618002  1
  O  O9  1  0.34359399  0.97901601  0.86624303  1
  O  O10  1  0.22122499  0.52851801  0.10289000  1
  O  O11  1  0.76229098  0.77118601  0.43382001  1
  O  O12  1  0.65640598  0.97901601  0.13375700  1
