# generated using pymatgen
data_Er2Ga7Co10
_symmetry_space_group_name_H-M   'P 1'
_cell_length_a   6.39439011
_cell_length_b   6.42615891
_cell_length_c   6.39439011
_cell_angle_alpha   82.73925018
_cell_angle_beta   82.70331573
_cell_angle_gamma   82.73925781
_symmetry_Int_Tables_number   1
_chemical_formula_structural   Er2Ga7Co10
_chemical_formula_sum   'Er2 Ga7 Co10'
_cell_volume   256.90595667
_cell_formula_units_Z   1
loop_
 _symmetry_equiv_pos_site_id
 _symmetry_equiv_pos_as_xyz
  1  'x, y, z'
loop_
 _atom_site_type_symbol
 _atom_site_label
 _atom_site_symmetry_multiplicity
 _atom_site_fract_x
 _atom_site_fract_y
 _atom_site_fract_z
 _atom_site_occupancy
  Er  Er0  1  0.33895699  0.33782500  0.33895702  1
  Er  Er1  1  0.65686998  0.65738201  0.65687004  1
  Ga  Ga2  1  0.50402599  0.99763301  0.99780504  1
  Ga  Ga3  1  0.99812398  0.50334801  0.99812407  1
  Ga  Ga4  1  0.99780498  0.99763301  0.50402606  1
  Ga  Ga5  1  0.09600200  0.09625100  0.09600201  1
  Co  Co6  1  0.90686598  0.90357701  0.90686606  1
  Ga  Ga7  1  0.99994798  0.29523400  0.70478206  1
  Co  Co8  1  0.70630498  0.99933501  0.29584404  1
  Ga  Ga9  1  0.29653799  0.70657901  0.00167701  1
  Co  Co10  1  0.29584399  0.99933501  0.70630502  1
  Ga  Ga11  1  0.70478198  0.29523400  0.99994805  1
  Co  Co12  1  0.00167700  0.70657901  0.29653800  1
  Co  Co13  1  0.65915499  0.15701700  0.65915504  1
  Co  Co14  1  0.33889099  0.34087300  0.84125603  1
  Co  Co15  1  0.84125598  0.34087300  0.33889105  1
  Co  Co16  1  0.34092499  0.84416101  0.34092502  1
  Co  Co17  1  0.66152598  0.66056501  0.15450304  1
  Co  Co18  1  0.15450300  0.66056501  0.66152602  1
