# generated using pymatgen
data_BiPd3
_symmetry_space_group_name_H-M   'P 1'
_cell_length_a   5.67067814
_cell_length_b   5.67067766
_cell_length_c   9.30004215
_cell_angle_alpha   90.00000000
_cell_angle_beta   90.00000000
_cell_angle_gamma   120.00000000
_symmetry_Int_Tables_number   1
_chemical_formula_structural   BiPd3
_chemical_formula_sum   'Bi4 Pd12'
_cell_volume   258.99149826
_cell_formula_units_Z   4
loop_
 _symmetry_equiv_pos_site_id
 _symmetry_equiv_pos_as_xyz
  1  'x, y, z'
loop_
 _atom_site_type_symbol
 _atom_site_label
 _atom_site_symmetry_multiplicity
 _atom_site_fract_x
 _atom_site_fract_y
 _atom_site_fract_z
 _atom_site_occupancy
  Bi  Bi0  1  0.33333331  0.66666668  0.25000000  1
  Bi  Bi1  1  0.66666664  0.33333334  0.74999999  1
  Bi  Bi2  1  0.00000000  0.00000000  0.49999999  1
  Bi  Bi3  1  0.00000000  0.00000000  0.00000000  1
  Pd  Pd4  1  0.83120598  0.16879400  0.25000000  1
  Pd  Pd5  1  0.16879399  0.33758801  0.74999999  1
  Pd  Pd6  1  0.66241197  0.83120601  0.74999999  1
  Pd  Pd7  1  0.33758799  0.16879400  0.25000000  1
  Pd  Pd8  1  0.49999998  0.50000001  -0.00000000  1
  Pd  Pd9  1  0.49999999  0.00000000  0.49999999  1
  Pd  Pd10  1  -0.00000001  0.50000001  0.49999999  1
  Pd  Pd11  1  -0.00000001  0.50000001  -0.00000000  1
  Pd  Pd12  1  0.49999999  0.00000000  0.00000000  1
  Pd  Pd13  1  0.49999998  0.50000001  0.49999999  1
  Pd  Pd14  1  0.16879398  0.83120601  0.74999999  1
  Pd  Pd15  1  0.83120597  0.66241201  0.25000000  1
