# generated using pymatgen
data_Li2TlCuS3
_symmetry_space_group_name_H-M   'P 1'
_cell_length_a   3.68728995
_cell_length_b   6.83152342
_cell_length_c   7.16535425
_cell_angle_alpha   116.39747620
_cell_angle_beta   104.90991211
_cell_angle_gamma   90.00000000
_symmetry_Int_Tables_number   1
_chemical_formula_structural   Li2TlCuS3
_chemical_formula_sum   'Li2 Tl1 Cu1 S3'
_cell_volume   154.86032985
_cell_formula_units_Z   1
loop_
 _symmetry_equiv_pos_site_id
 _symmetry_equiv_pos_as_xyz
  1  'x, y, z'
loop_
 _atom_site_type_symbol
 _atom_site_label
 _atom_site_symmetry_multiplicity
 _atom_site_fract_x
 _atom_site_fract_y
 _atom_site_fract_z
 _atom_site_occupancy
  Li  Li0  1  0.74719005  0.81283798  0.49437999  1
  Li  Li1  1  0.25281001  0.18716200  0.50561999  1
  Tl  Tl2  1  0.00000000  0.00000000  0.00000000  1
  Cu  Cu3  1  0.63458903  0.31734999  0.26917801  1
  S  S4  1  0.36541104  0.68264999  0.73082198  1
  S  S5  1  0.88770103  0.21508600  0.77540200  1
  S  S6  1  0.11229903  0.78491398  0.22459798  1
