# generated using pymatgen
data_Mg4Al3B3Ir10
_symmetry_space_group_name_H-M   'P 1'
_cell_length_a   3.17039609
_cell_length_b   9.28116894
_cell_length_c   9.28116894
_cell_angle_alpha   90.00000000
_cell_angle_beta   90.00000000
_cell_angle_gamma   90.00000000
_symmetry_Int_Tables_number   1
_chemical_formula_structural   Mg4Al3B3Ir10
_chemical_formula_sum   'Mg4 Al3 B3 Ir10'
_cell_volume   273.09822621
_cell_formula_units_Z   1
loop_
 _symmetry_equiv_pos_site_id
 _symmetry_equiv_pos_as_xyz
  1  'x, y, z'
loop_
 _atom_site_type_symbol
 _atom_site_label
 _atom_site_symmetry_multiplicity
 _atom_site_fract_x
 _atom_site_fract_y
 _atom_site_fract_z
 _atom_site_occupancy
  Mg  Mg0  1  0.00000000  0.67491100  0.17491100  1
  Mg  Mg1  1  0.00000000  0.32508900  0.82508901  1
  Mg  Mg2  1  0.00000000  0.17491100  0.32508900  1
  Mg  Mg3  1  0.00000000  0.82508901  0.67491100  1
  Al  Al4  1  0.00000000  0.00000000  0.00000000  1
  Al  Al5  1  0.00000000  0.50000000  0.50000000  1
  Al  Al6  1  0.00000000  0.12464600  0.62464600  1
  B  B7  1  0.00000000  0.87535401  0.37535400  1
  B  B8  1  0.00000000  0.62464600  0.87535401  1
  B  B9  1  0.00000000  0.37535400  0.12464600  1
  Ir  Ir10  1  0.49999999  0.21534300  0.07189800  1
  Ir  Ir11  1  0.49999999  0.78465701  0.92810201  1
  Ir  Ir12  1  0.49999999  0.07189800  0.78465701  1
  Ir  Ir13  1  0.49999999  0.71534300  0.42810200  1
  Ir  Ir14  1  0.49999999  0.92810201  0.21534300  1
  Ir  Ir15  1  0.49999999  0.28465700  0.57189800  1
  Ir  Ir16  1  0.49999999  0.57189800  0.71534300  1
  Ir  Ir17  1  0.49999999  0.42810200  0.28465700  1
  Ir  Ir18  1  0.49999999  0.50000000  -0.00000000  1
  Ir  Ir19  1  0.49999999  0.00000000  0.50000000  1
