# generated using pymatgen
data_Y3Sn4
_symmetry_space_group_name_H-M   'P 1'
_cell_length_a   7.85390043
_cell_length_b   7.85390043
_cell_length_c   7.85390043
_cell_angle_alpha   109.50801849
_cell_angle_beta   109.45282745
_cell_angle_gamma   109.45282745
_symmetry_Int_Tables_number   1
_chemical_formula_structural   Y3Sn4
_chemical_formula_sum   'Y6 Sn8'
_cell_volume   372.93583868
_cell_formula_units_Z   2
loop_
 _symmetry_equiv_pos_site_id
 _symmetry_equiv_pos_as_xyz
  1  'x, y, z'
loop_
 _atom_site_type_symbol
 _atom_site_label
 _atom_site_symmetry_multiplicity
 _atom_site_fract_x
 _atom_site_fract_y
 _atom_site_fract_z
 _atom_site_occupancy
  Y  Y0  1  0.50000009  0.75000004  0.25000005  1
  Y  Y1  1  1.00000008  0.50000003  0.50000008  1
  Y  Y2  1  0.87676905  0.25176901  0.87500007  1
  Y  Y3  1  0.12323111  0.99823105  0.37500004  1
  Y  Y4  1  0.37676902  0.12500001  0.00176903  1
  Y  Y5  1  0.62323108  0.62500003  0.74823106  1
  Sn  Sn6  1  0.25095005  0.36629402  0.77083003  1
  Sn  Sn7  1  0.24905005  0.36534402  0.26988103  1
  Sn  Sn8  1  0.75095002  0.02083000  0.11629405  1
  Sn  Sn9  1  0.40453611  0.88465605  0.63370505  1
  Sn  Sn10  1  0.74905008  0.51988103  0.11534406  1
  Sn  Sn11  1  0.09546408  0.73012004  0.97917003  1
  Sn  Sn12  1  0.59546404  0.22917001  0.48012005  1
  Sn  Sn13  1  0.90453612  0.88370505  0.63465608  1
