# generated using pymatgen
data_UFeRu
_symmetry_space_group_name_H-M   'P 1'
_cell_length_a   5.16833210
_cell_length_b   5.19518423
_cell_length_c   5.19518423
_cell_angle_alpha   62.67543030
_cell_angle_beta   60.17083359
_cell_angle_gamma   60.17083359
_symmetry_Int_Tables_number   1
_chemical_formula_structural   UFeRu
_chemical_formula_sum   'U2 Fe2 Ru2'
_cell_volume   100.74397412
_cell_formula_units_Z   2
loop_
 _symmetry_equiv_pos_site_id
 _symmetry_equiv_pos_as_xyz
  1  'x, y, z'
loop_
 _atom_site_type_symbol
 _atom_site_label
 _atom_site_symmetry_multiplicity
 _atom_site_fract_x
 _atom_site_fract_y
 _atom_site_fract_z
 _atom_site_occupancy
  U  U0  1  0.87431798  0.37568201  0.87568205  1
  U  U1  1  0.12568200  0.62431802  0.12431802  1
  Fe  Fe2  1  0.99999997  0.00000000  0.50000003  1
  Fe  Fe3  1  0.49999999  0.00000000  0.50000003  1
  Ru  Ru4  1  0.49999999  0.50000001  0.50000004  1
  Ru  Ru5  1  0.49999999  0.00000000  0.00000001  1
