# generated using pymatgen
data_Sm4Sc(GaC3)2
_symmetry_space_group_name_H-M   'P 1'
_cell_length_a   5.34535599
_cell_length_b   5.34535599
_cell_length_c   7.94982100
_cell_angle_alpha   70.35487366
_cell_angle_beta   70.35487366
_cell_angle_gamma   60.00000000
_symmetry_Int_Tables_number   1
_chemical_formula_structural   Sm4Sc(GaC3)2
_chemical_formula_sum   'Sm4 Sc1 Ga2 C6'
_cell_volume   181.28900327
_cell_formula_units_Z   1
loop_
 _symmetry_equiv_pos_site_id
 _symmetry_equiv_pos_as_xyz
  1  'x, y, z'
loop_
 _atom_site_type_symbol
 _atom_site_label
 _atom_site_symmetry_multiplicity
 _atom_site_fract_x
 _atom_site_fract_y
 _atom_site_fract_z
 _atom_site_occupancy
  Sm  Sm0  1  0.25602299  0.25602300  0.23193001  1
  Sm  Sm1  1  0.74397698  0.74397699  0.76807002  1
  Sm  Sm2  1  0.41201299  0.41201299  0.76396001  1
  Sm  Sm3  1  0.58798698  0.58798699  0.23604003  1
  Sc  Sc4  1  0.00000000  0.00000000  0.00000000  1
  Ga  Ga5  1  0.11330300  0.11330300  0.66009199  1
  Ga  Ga6  1  0.88669697  0.88669699  0.33990804  1
  C  C7  1  0.83273798  0.49999999  0.50000003  1
  C  C8  1  0.49999999  0.16726200  0.50000001  1
  C  C9  1  0.16726199  0.83273799  0.50000001  1
  C  C10  1  0.49999998  0.83273799  0.50000002  1
  C  C11  1  0.83273798  0.16726200  0.50000003  1
  C  C12  1  0.16726199  0.49999999  0.50000000  1
