# generated using pymatgen
data_Bi4IClO6
_symmetry_space_group_name_H-M   'P 1'
_cell_length_a   4.27185822
_cell_length_b   7.96373081
_cell_length_c   7.97880411
_cell_angle_alpha   78.07269287
_cell_angle_beta   74.47252655
_cell_angle_gamma   74.44239807
_symmetry_Int_Tables_number   1
_chemical_formula_structural   Bi4IClO6
_chemical_formula_sum   'Bi4 I1 Cl1 O6'
_cell_volume   249.27534624
_cell_formula_units_Z   1
loop_
 _symmetry_equiv_pos_site_id
 _symmetry_equiv_pos_as_xyz
  1  'x, y, z'
loop_
 _atom_site_type_symbol
 _atom_site_label
 _atom_site_symmetry_multiplicity
 _atom_site_fract_x
 _atom_site_fract_y
 _atom_site_fract_z
 _atom_site_occupancy
  Bi  Bi0  1  0.13241209  0.68812100  0.04705498  1
  Bi  Bi1  1  0.86758800  0.31187900  0.95294496  1
  Bi  Bi2  1  0.17208703  0.26995900  0.38586698  1
  Bi  Bi3  1  0.82791306  0.73004100  0.61413295  1
  I  I4  1  0.54844405  0.54653700  0.35657397  1
  Cl  Cl5  1  0.45155604  0.45346300  0.64342596  1
  O  O6  1  0.14763912  0.97213400  0.73258895  1
  O  O7  1  0.85236096  0.02786600  0.26741099  1
  O  O8  1  0.41160910  0.87460100  0.30218096  1
  O  O9  1  0.58839099  0.12539900  0.69781897  1
  O  O10  1  0.27833504  0.36993000  0.07339898  1
  O  O11  1  0.72166505  0.63007000  0.92660095  1
