# generated using pymatgen
data_Sr(GaAu)2
_symmetry_space_group_name_H-M   'P 1'
_cell_length_a   4.46923018
_cell_length_b   4.46923018
_cell_length_c   10.62646770
_cell_angle_alpha   90.00000000
_cell_angle_beta   90.00000000
_cell_angle_gamma   90.00000000
_symmetry_Int_Tables_number   1
_chemical_formula_structural   Sr(GaAu)2
_chemical_formula_sum   'Sr2 Ga4 Au4'
_cell_volume   212.25326101
_cell_formula_units_Z   2
loop_
 _symmetry_equiv_pos_site_id
 _symmetry_equiv_pos_as_xyz
  1  'x, y, z'
loop_
 _atom_site_type_symbol
 _atom_site_label
 _atom_site_symmetry_multiplicity
 _atom_site_fract_x
 _atom_site_fract_y
 _atom_site_fract_z
 _atom_site_occupancy
  Sr  Sr0  1  0.00000000  0.00000000  0.99808303  1
  Sr  Sr1  1  0.49999998  0.49999998  0.49429401  1
  Ga  Ga2  1  -0.00000000  0.49999998  0.24985301  1
  Ga  Ga3  1  0.49999998  0.00000000  0.74973602  1
  Ga  Ga4  1  0.49999998  0.00000000  0.24985301  1
  Ga  Ga5  1  -0.00000000  0.49999998  0.74973602  1
  Au  Au6  1  0.00000000  0.00000000  0.61942602  1
  Au  Au7  1  0.00000000  0.00000000  0.38312101  1
  Au  Au8  1  0.49999998  0.49999998  0.88414202  1
  Au  Au9  1  0.49999998  0.49999998  0.12175700  1
