# generated using pymatgen
data_Ce2SnP2
_symmetry_space_group_name_H-M   'P 1'
_cell_length_a   4.08559608
_cell_length_b   4.08559608
_cell_length_c   17.54585838
_cell_angle_alpha   90.00000000
_cell_angle_beta   90.00000000
_cell_angle_gamma   120.00000000
_symmetry_Int_Tables_number   1
_chemical_formula_structural   Ce2SnP2
_chemical_formula_sum   'Ce4 Sn2 P4'
_cell_volume   253.63904466
_cell_formula_units_Z   2
loop_
 _symmetry_equiv_pos_site_id
 _symmetry_equiv_pos_as_xyz
  1  'x, y, z'
loop_
 _atom_site_type_symbol
 _atom_site_label
 _atom_site_symmetry_multiplicity
 _atom_site_fract_x
 _atom_site_fract_y
 _atom_site_fract_z
 _atom_site_occupancy
  Ce  Ce0  1  0.00000000  0.00000000  0.00000000  1
  Ce  Ce1  1  0.00000000  0.00000000  0.49999999  1
  Ce  Ce2  1  0.33333333  0.66666667  0.83017198  1
  Ce  Ce3  1  0.66666666  0.33333333  0.16982800  1
  Sn  Sn4  1  0.66666666  0.33333333  0.33017199  1
  Sn  Sn5  1  0.33333333  0.66666667  0.66982799  1
  P  P6  1  0.66666666  0.33333333  0.89708898  1
  P  P7  1  0.33333333  0.66666667  0.10291100  1
  P  P8  1  0.33333333  0.66666667  0.39708899  1
  P  P9  1  0.66666666  0.33333333  0.60291099  1
