# generated using pymatgen
data_Ce2CuGe6
_symmetry_space_group_name_H-M   'P 1'
_cell_length_a   4.05014801
_cell_length_b   4.08374691
_cell_length_c   10.83878994
_cell_angle_alpha   90.00000000
_cell_angle_beta   100.76818085
_cell_angle_gamma   90.00000000
_symmetry_Int_Tables_number   1
_chemical_formula_structural   Ce2CuGe6
_chemical_formula_sum   'Ce2 Cu1 Ge6'
_cell_volume   176.11443725
_cell_formula_units_Z   1
loop_
 _symmetry_equiv_pos_site_id
 _symmetry_equiv_pos_as_xyz
  1  'x, y, z'
loop_
 _atom_site_type_symbol
 _atom_site_label
 _atom_site_symmetry_multiplicity
 _atom_site_fract_x
 _atom_site_fract_y
 _atom_site_fract_z
 _atom_site_occupancy
  Ce  Ce0  1  0.00501400  0.00000000  0.01002800  1
  Ce  Ce1  1  0.66882299  0.00000000  0.33764598  1
  Cu  Cu2  1  0.22414300  0.50000001  0.44828598  1
  Ge  Ge3  1  0.28533200  0.00000000  0.57066398  1
  Ge  Ge4  1  0.40237100  1.00000002  0.80474197  1
  Ge  Ge5  1  0.54177900  0.50000001  0.08355799  1
  Ge  Ge6  1  0.11542600  0.50000001  0.23085199  1
  Ge  Ge7  1  0.90305099  0.50000001  0.80610196  1
  Ge  Ge8  1  0.78506099  0.50000001  0.57012197  1
