# generated using pymatgen
data_TeAs2(ClO)3
_symmetry_space_group_name_H-M   'P 1'
_cell_length_a   6.79667473
_cell_length_b   9.44364071
_cell_length_c   9.44364071
_cell_angle_alpha   114.43557739
_cell_angle_beta   103.88081360
_cell_angle_gamma   103.88081360
_symmetry_Int_Tables_number   1
_chemical_formula_structural   TeAs2(ClO)3
_chemical_formula_sum   'Te2 As4 Cl6 O6'
_cell_volume   494.72376153
_cell_formula_units_Z   2
loop_
 _symmetry_equiv_pos_site_id
 _symmetry_equiv_pos_as_xyz
  1  'x, y, z'
loop_
 _atom_site_type_symbol
 _atom_site_label
 _atom_site_symmetry_multiplicity
 _atom_site_fract_x
 _atom_site_fract_y
 _atom_site_fract_z
 _atom_site_occupancy
  As  As0  1  0.24708992  0.66325998  0.52289697  1
  Te  Te1  1  0.27580694  0.52289699  0.85963698  1
  Te  Te2  1  0.41616999  0.14036300  0.66325999  1
  As  As3  1  0.58382990  0.85963698  0.33673995  1
  As  As4  1  0.72419295  0.47710299  0.14036296  1
  As  As5  1  0.75290997  0.33673999  0.47710296  1
  Cl  Cl6  1  0.08017491  0.70469498  0.95416198  1
  Cl  Cl7  1  0.62451991  0.75053298  0.70469496  1
  Cl  Cl8  1  0.12601300  0.04583800  0.75053300  1
  Cl  Cl9  1  0.87398689  0.95416198  0.24946693  1
  Cl  Cl10  1  0.37547997  0.24946699  0.29530498  1
  Cl  Cl11  1  0.91982498  0.29530499  0.04583795  1
  O  O12  1  0.13384594  0.44599899  0.61955199  1
  O  O13  1  0.31215290  0.82644698  0.44599896  1
  O  O14  1  0.48570593  0.61955198  0.17355296  1
  O  O15  1  0.51429396  0.38044799  0.82644698  1
  O  O16  1  0.68784699  0.17355300  0.55400097  1
  O  O17  1  0.86615394  0.55400099  0.38044795  1
