# generated using pymatgen
data_Zr8Si5Mo
_symmetry_space_group_name_H-M   'P 1'
_cell_length_a   4.51596785
_cell_length_b   9.90537167
_cell_length_c   9.90537262
_cell_angle_alpha   120.00000000
_cell_angle_beta   90.00000000
_cell_angle_gamma   90.00000000
_symmetry_Int_Tables_number   1
_chemical_formula_structural   Zr8Si5Mo
_chemical_formula_sum   'Zr8 Si5 Mo1'
_cell_volume   383.72762511
_cell_formula_units_Z   1
loop_
 _symmetry_equiv_pos_site_id
 _symmetry_equiv_pos_as_xyz
  1  'x, y, z'
loop_
 _atom_site_type_symbol
 _atom_site_label
 _atom_site_symmetry_multiplicity
 _atom_site_fract_x
 _atom_site_fract_y
 _atom_site_fract_z
 _atom_site_occupancy
  Zr  Zr0  1  0.25000001  0.66666669  0.33333333  1
  Zr  Zr1  1  0.75000003  0.33333335  0.66666664  1
  Zr  Zr2  1  0.25000001  0.02125800  0.85605596  1
  Zr  Zr3  1  0.25000001  0.14394401  0.16520199  1
  Zr  Zr4  1  0.25000001  0.83479803  0.97874197  1
  Zr  Zr5  1  0.75000003  0.97874204  0.14394401  1
  Zr  Zr6  1  0.75000003  0.85605603  0.83479797  1
  Zr  Zr7  1  0.75000003  0.16520201  0.02125800  1
  Mo  Mo8  1  0.25000001  0.71634503  0.67352498  1
  Si  Si9  1  0.25000001  0.32647501  0.04282000  1
  Si  Si10  1  0.25000001  0.95718004  0.28365500  1
  Si  Si11  1  0.75000003  0.28365501  0.32647499  1
  Si  Si12  1  0.75000003  0.67352503  0.95717997  1
  Si  Si13  1  0.75000003  0.04282000  0.71634497  1
