# generated using pymatgen
data_MgIn2
_symmetry_space_group_name_H-M   'P 1'
_cell_length_a   3.16130805
_cell_length_b   5.95621490
_cell_length_c   7.26085234
_cell_angle_alpha   103.63286591
_cell_angle_beta   90.00000000
_cell_angle_gamma   105.38947296
_symmetry_Int_Tables_number   1
_chemical_formula_structural   MgIn2
_chemical_formula_sum   'Mg2 In4'
_cell_volume   127.81604932
_cell_formula_units_Z   2
loop_
 _symmetry_equiv_pos_site_id
 _symmetry_equiv_pos_as_xyz
  1  'x, y, z'
loop_
 _atom_site_type_symbol
 _atom_site_label
 _atom_site_symmetry_multiplicity
 _atom_site_fract_x
 _atom_site_fract_y
 _atom_site_fract_z
 _atom_site_occupancy
  Mg  Mg0  1  0.99679406  0.99358801  0.00797700  1
  Mg  Mg1  1  0.67104502  0.34209000  0.33143599  1
  In  In2  1  0.05075101  0.10150200  0.60068298  1
  In  In3  1  0.33333338  0.66666667  0.66331298  1
  In  In4  1  0.72505402  0.45010801  0.95100297  1
  In  In5  1  0.38974805  0.77949601  0.27892099  1
