# generated using pymatgen
data_Ta5NbGe12
_symmetry_space_group_name_H-M   'P 1'
_cell_length_a   3.93736005
_cell_length_b   6.85871649
_cell_length_c   11.00718975
_cell_angle_alpha   90.00000000
_cell_angle_beta   90.00000000
_cell_angle_gamma   106.68042755
_symmetry_Int_Tables_number   1
_chemical_formula_structural   Ta5NbGe12
_chemical_formula_sum   'Ta5 Nb1 Ge12'
_cell_volume   284.74358501
_cell_formula_units_Z   1
loop_
 _symmetry_equiv_pos_site_id
 _symmetry_equiv_pos_as_xyz
  1  'x, y, z'
loop_
 _atom_site_type_symbol
 _atom_site_label
 _atom_site_symmetry_multiplicity
 _atom_site_fract_x
 _atom_site_fract_y
 _atom_site_fract_z
 _atom_site_occupancy
  Ta  Ta0  1  0.44123902  0.88247802  0.39414701  1
  Ta  Ta1  1  0.55876100  0.11752200  0.60585301  1
  Ta  Ta2  1  0.55876100  0.11752200  0.89414702  1
  Ta  Ta3  1  0.44123902  0.88247802  0.10585300  1
  Ge  Ge4  1  0.82151201  0.64302402  0.48235801  1
  Ta  Ta5  1  0.17848801  0.35697601  0.51764201  1
  Ge  Ge6  1  0.23374601  0.46749201  0.25000001  1
  Nb  Nb7  1  0.76625401  0.53250801  0.75000002  1
  Ge  Ge8  1  0.04040500  0.08081000  0.25000001  1
  Ge  Ge9  1  0.95959502  0.91919002  0.75000002  1
  Ge  Ge10  1  0.82151201  0.64302402  0.01764200  1
  Ge  Ge11  1  0.17848801  0.35697601  0.98235802  1
  Ge  Ge12  1  0.64029500  0.28059001  0.37718601  1
  Ge  Ge13  1  0.35970502  0.71941002  0.62281401  1
  Ge  Ge14  1  0.35970502  0.71941002  0.87718602  1
  Ge  Ge15  1  0.64029500  0.28059001  0.12281400  1
  Ge  Ge16  1  0.14868401  0.29736801  0.75000002  1
  Ge  Ge17  1  0.85131601  0.70263202  0.25000001  1
