# generated using pymatgen
data_GdSiO4
_symmetry_space_group_name_H-M   'P 1'
_cell_length_a   6.03281975
_cell_length_b   6.03281975
_cell_length_c   6.03281975
_cell_angle_alpha   106.46926117
_cell_angle_beta   106.46926117
_cell_angle_gamma   115.65798187
_symmetry_Int_Tables_number   1
_chemical_formula_structural   GdSiO4
_chemical_formula_sum   'Gd2 Si2 O8'
_cell_volume   167.52665921
_cell_formula_units_Z   2
loop_
 _symmetry_equiv_pos_site_id
 _symmetry_equiv_pos_as_xyz
  1  'x, y, z'
loop_
 _atom_site_type_symbol
 _atom_site_label
 _atom_site_symmetry_multiplicity
 _atom_site_fract_x
 _atom_site_fract_y
 _atom_site_fract_z
 _atom_site_occupancy
  Gd  Gd0  1  0.49999998  0.49999999  -0.00000001  1
  Gd  Gd1  1  0.24999996  0.74999998  0.49999998  1
  Si  Si2  1  0.74999999  0.24999999  0.49999999  1
  Si  Si3  1  0.00000000  0.00000000  0.00000000  1
  O  O4  1  0.16877098  0.35320599  0.18443399  1
  O  O5  1  0.10320598  0.41877099  0.68443499  1
  O  O6  1  0.73433698  0.41877199  0.31556599  1
  O  O7  1  0.16877095  0.98433597  0.81556498  1
  O  O8  1  0.64679396  0.83122898  0.81556498  1
  O  O9  1  0.58122895  0.89679398  0.31556598  1
  O  O10  1  0.58122899  0.26566399  0.68443499  1
  O  O11  1  0.01566296  0.83122798  0.18443398  1
