# generated using pymatgen
data_Ba2Sn
_symmetry_space_group_name_H-M   'P 1'
_cell_length_a   5.41883516
_cell_length_b   8.52438736
_cell_length_c   10.17434692
_cell_angle_alpha   90.00000000
_cell_angle_beta   90.00000000
_cell_angle_gamma   90.00000000
_symmetry_Int_Tables_number   1
_chemical_formula_structural   Ba2Sn
_chemical_formula_sum   'Ba8 Sn4'
_cell_volume   469.97597637
_cell_formula_units_Z   4
loop_
 _symmetry_equiv_pos_site_id
 _symmetry_equiv_pos_as_xyz
  1  'x, y, z'
loop_
 _atom_site_type_symbol
 _atom_site_label
 _atom_site_symmetry_multiplicity
 _atom_site_fract_x
 _atom_site_fract_y
 _atom_site_fract_z
 _atom_site_occupancy
  Ba  Ba0  1  0.74999998  0.47938798  0.66971401  1
  Ba  Ba1  1  0.24999999  0.52061198  0.33028600  1
  Ba  Ba2  1  0.74999998  0.97938796  0.83028601  1
  Ba  Ba3  1  0.24999999  0.02061200  0.16971400  1
  Ba  Ba4  1  0.24999999  0.14453099  0.58292200  1
  Ba  Ba5  1  0.74999998  0.85546896  0.41707800  1
  Ba  Ba6  1  0.24999999  0.64453097  0.91707801  1
  Ba  Ba7  1  0.74999998  0.35546899  0.08292200  1
  Sn  Sn8  1  0.24999999  0.74909997  0.60135700  1
  Sn  Sn9  1  0.74999998  0.25089999  0.39864300  1
  Sn  Sn10  1  0.24999999  0.24909999  0.89864301  1
  Sn  Sn11  1  0.74999998  0.75089997  0.10135700  1
