# generated using pymatgen
data_EuSnGeSN
_symmetry_space_group_name_H-M   'P 1'
_cell_length_a   4.20156384
_cell_length_b   4.20156384
_cell_length_c   4.20156384
_cell_angle_alpha   90.00000000
_cell_angle_beta   90.00000000
_cell_angle_gamma   90.00000000
_symmetry_Int_Tables_number   1
_chemical_formula_structural   EuSnGeSN
_chemical_formula_sum   'Eu1 Sn1 Ge1 S1 N1'
_cell_volume   74.17078897
_cell_formula_units_Z   1
loop_
 _symmetry_equiv_pos_site_id
 _symmetry_equiv_pos_as_xyz
  1  'x, y, z'
loop_
 _atom_site_type_symbol
 _atom_site_label
 _atom_site_symmetry_multiplicity
 _atom_site_fract_x
 _atom_site_fract_y
 _atom_site_fract_z
 _atom_site_occupancy
  Eu  Eu0  1  0.00000000  0.50000002  0.50000002  1
  Sn  Sn1  1  0.50000002  0.50000002  0.00000000  1
  Ge  Ge2  1  0.50000002  0.00000000  0.50000002  1
  S  S3  1  0.00000000  0.00000000  0.00000000  1
  N  N4  1  0.50000002  0.50000002  0.50000002  1
