# generated using pymatgen
data_Zr3Ti3VS8
_symmetry_space_group_name_H-M   'P 1'
_cell_length_a   6.93305779
_cell_length_b   6.93305779
_cell_length_c   7.57147312
_cell_angle_alpha   62.75214005
_cell_angle_beta   62.75214005
_cell_angle_gamma   60.00000381
_symmetry_Int_Tables_number   1
_chemical_formula_structural   Zr3Ti3VS8
_chemical_formula_sum   'Zr3 Ti3 V1 S8'
_cell_volume   267.53489097
_cell_formula_units_Z   1
loop_
 _symmetry_equiv_pos_site_id
 _symmetry_equiv_pos_as_xyz
  1  'x, y, z'
loop_
 _atom_site_type_symbol
 _atom_site_label
 _atom_site_symmetry_multiplicity
 _atom_site_fract_x
 _atom_site_fract_y
 _atom_site_fract_z
 _atom_site_occupancy
  Zr  Zr0  1  0.10349303  0.78432499  0.63559302  1
  Zr  Zr1  1  0.52341103  0.89650699  0.36440702  1
  Ti  Ti2  1  0.21567502  0.52341099  0.36440701  1
  Zr  Zr3  1  0.34572801  0.34572799  0.96281603  1
  Ti  Ti4  1  0.65427202  0.65427199  0.03718401  1
  Ti  Ti5  1  0.78432501  0.47658899  0.63559302  1
  V  V6  1  0.47658900  0.10349300  0.63559302  1
  S  S7  1  0.89650700  0.21567500  0.36440702  1
  S  S8  1  0.00000000  0.00000000  0.00000000  1
  S  S9  1  0.24852903  0.90208699  0.24862801  1
  S  S10  1  0.39924402  0.75147099  0.75137202  1
  S  S11  1  0.09791301  0.39924399  0.75137202  1
  S  S12  1  0.90208702  0.60075599  0.24862802  1
  S  S13  1  0.60075601  0.24852900  0.24862801  1
  S  S14  1  0.75147100  0.09791300  0.75137203  1
