# generated using pymatgen
data_Li8Tl3S5
_symmetry_space_group_name_H-M   'P 1'
_cell_length_a   6.93602324
_cell_length_b   7.26073980
_cell_length_c   8.21613979
_cell_angle_alpha   90.00000000
_cell_angle_beta   90.00000000
_cell_angle_gamma   90.00000000
_symmetry_Int_Tables_number   1
_chemical_formula_structural   Li8Tl3S5
_chemical_formula_sum   'Li8 Tl3 S5'
_cell_volume   413.77022249
_cell_formula_units_Z   1
loop_
 _symmetry_equiv_pos_site_id
 _symmetry_equiv_pos_as_xyz
  1  'x, y, z'
loop_
 _atom_site_type_symbol
 _atom_site_label
 _atom_site_symmetry_multiplicity
 _atom_site_fract_x
 _atom_site_fract_y
 _atom_site_fract_z
 _atom_site_occupancy
  Li  Li0  1  0.01413200  0.81221902  0.73852202  1
  Li  Li1  1  0.51413198  0.18778101  0.76147802  1
  Li  Li2  1  0.51413198  0.18778101  0.23852201  1
  Li  Li3  1  0.01413200  0.81221902  0.26147801  1
  Li  Li4  1  0.98384897  0.35602701  0.00000000  1
  Li  Li5  1  0.48384898  0.64397302  0.50000001  1
  Li  Li6  1  0.99577297  0.31721701  0.50000001  1
  Li  Li7  1  0.49577298  0.68278302  0.00000000  1
  Tl  Tl8  1  0.89226597  0.16514900  0.27413301  1
  Tl  Tl9  1  0.39226599  0.83485102  0.22586701  1
  Tl  Tl10  1  0.37274299  0.39520901  0.00000000  1
  S  S11  1  0.87274297  0.60479102  0.50000001  1
  S  S12  1  0.39226599  0.83485102  0.77413302  1
  S  S13  1  0.89226597  0.16514900  0.72586702  1
  S  S14  1  0.32093099  0.31050701  0.50000001  1
  S  S15  1  0.82093097  0.68949302  -0.00000000  1
