# generated using pymatgen
data_ZrZnGe
_symmetry_space_group_name_H-M   'P 1'
_cell_length_a   4.12098598
_cell_length_b   6.74286413
_cell_length_c   6.74286366
_cell_angle_alpha   120.00000000
_cell_angle_beta   90.00000000
_cell_angle_gamma   90.00000000
_symmetry_Int_Tables_number   1
_chemical_formula_structural   ZrZnGe
_chemical_formula_sum   'Zr3 Zn3 Ge3'
_cell_volume   162.26339413
_cell_formula_units_Z   3
loop_
 _symmetry_equiv_pos_site_id
 _symmetry_equiv_pos_as_xyz
  1  'x, y, z'
loop_
 _atom_site_type_symbol
 _atom_site_label
 _atom_site_symmetry_multiplicity
 _atom_site_fract_x
 _atom_site_fract_y
 _atom_site_fract_z
 _atom_site_occupancy
  Zr  Zr0  1  0.50000000  0.58185598  0.99999996  1
  Zr  Zr1  1  0.50000000  0.41814398  0.41814397  1
  Zr  Zr2  1  0.50000000  0.00000000  0.58185599  1
  Zn  Zn3  1  -0.00000000  0.23504599  -0.00000001  1
  Zn  Zn4  1  -0.00000000  0.76495397  0.76495395  1
  Zn  Zn5  1  1.00000000  0.00000000  0.23504600  1
  Ge  Ge6  1  1.00000000  0.33333332  0.66666664  1
  Ge  Ge7  1  1.00000000  0.66666664  0.33333330  1
  Ge  Ge8  1  0.50000000  0.00000000  -0.00000000  1
