# generated using pymatgen
data_NaLaBiO2
_symmetry_space_group_name_H-M   'P 1'
_cell_length_a   3.93834209
_cell_length_b   3.93834090
_cell_length_c   6.18029308
_cell_angle_alpha   90.00000000
_cell_angle_beta   90.00000000
_cell_angle_gamma   120.00000763
_symmetry_Int_Tables_number   1
_chemical_formula_structural   NaLaBiO2
_chemical_formula_sum   'Na1 La1 Bi1 O2'
_cell_volume   83.01688095
_cell_formula_units_Z   1
loop_
 _symmetry_equiv_pos_site_id
 _symmetry_equiv_pos_as_xyz
  1  'x, y, z'
loop_
 _atom_site_type_symbol
 _atom_site_label
 _atom_site_symmetry_multiplicity
 _atom_site_fract_x
 _atom_site_fract_y
 _atom_site_fract_z
 _atom_site_occupancy
  Na  Na0  1  0.33333331  0.66666666  0.24714700  1
  La  La1  1  0.66666664  0.33333333  0.75285299  1
  Bi  Bi2  1  0.33333331  0.66666666  0.64542799  1
  O  O3  1  0.66666664  0.33333333  0.35457200  1
  O  O4  1  0.00000000  0.00000000  0.00000000  1
