# generated using pymatgen
data_InSnS7
_symmetry_space_group_name_H-M   'P 1'
_cell_length_a   6.49894810
_cell_length_b   7.38707733
_cell_length_c   7.08576012
_cell_angle_alpha   118.65961456
_cell_angle_beta   90.00000000
_cell_angle_gamma   116.09662628
_symmetry_Int_Tables_number   1
_chemical_formula_structural   InSnS7
_chemical_formula_sum   'In2 Sn2 S14'
_cell_volume   258.28185675
_cell_formula_units_Z   2
loop_
 _symmetry_equiv_pos_site_id
 _symmetry_equiv_pos_as_xyz
  1  'x, y, z'
loop_
 _atom_site_type_symbol
 _atom_site_label
 _atom_site_symmetry_multiplicity
 _atom_site_fract_x
 _atom_site_fract_y
 _atom_site_fract_z
 _atom_site_occupancy
  In  In0  1  0.92044599  0.00818400  0.25409200  1
  In  In1  1  0.04655600  0.55338499  0.52669199  1
  Sn  Sn2  1  0.49316999  0.44661399  0.47330699  1
  Sn  Sn3  1  0.10025700  0.60908999  0.05454500  1
  S  S4  1  0.91226199  0.99181598  0.74590799  1
  S  S5  1  0.49116699  0.39090999  0.94545498  1
  S  S6  1  0.47591499  0.93771899  0.71885999  1
  S  S7  1  0.82715999  0.66479999  0.83929199  1
  S  S8  1  0.82715899  0.66479899  0.32550700  1
  S  S9  1  0.16236000  0.33520099  0.67449299  1
  S  S10  1  0.53819699  0.06228200  0.28114100  1
  S  S11  1  0.16235900  0.33519999  0.16070800  1
  S  S12  1  0.24551000  0.99999998  0.49999999  1
  S  S13  1  0.24551000  0.99999998  0.99999998  1
  S  S14  1  0.75001199  0.25293300  0.09136000  1
  S  S15  1  0.49707799  0.74706599  0.33842700  1
  S  S16  1  0.75001299  0.25293400  0.66157299  1
  S  S17  1  0.49707899  0.74706699  0.90863999  1
