# generated using pymatgen
data_K2Na2Cr3Cu3Se8
_symmetry_space_group_name_H-M   'P 1'
_cell_length_a   6.04324389
_cell_length_b   9.11929798
_cell_length_c   9.11929798
_cell_angle_alpha   71.59765625
_cell_angle_beta   70.64964294
_cell_angle_gamma   70.64964294
_symmetry_Int_Tables_number   1
_chemical_formula_structural   K2Na2Cr3Cu3Se8
_chemical_formula_sum   'K2 Na2 Cr3 Cu3 Se8'
_cell_volume   435.25846123
_cell_formula_units_Z   1
loop_
 _symmetry_equiv_pos_site_id
 _symmetry_equiv_pos_as_xyz
  1  'x, y, z'
loop_
 _atom_site_type_symbol
 _atom_site_label
 _atom_site_symmetry_multiplicity
 _atom_site_fract_x
 _atom_site_fract_y
 _atom_site_fract_z
 _atom_site_occupancy
  K  K0  1  0.26459797  0.62514600  0.37485398  1
  K  K1  1  0.73540200  0.37485400  0.62514596  1
  Na  Na2  1  0.23540100  0.12514700  0.87485397  1
  Na  Na3  1  0.76459897  0.87485300  0.12514597  1
  Cr  Cr4  1  0.24999999  0.25000000  0.24999999  1
  Cr  Cr5  1  0.74999998  0.75000000  0.74999996  1
  Cu  Cu6  1  0.75000000  0.47222100  0.02777897  1
  Cr  Cr7  1  0.75000003  0.02777900  0.47222096  1
  Cu  Cu8  1  0.24999997  0.52777900  0.97222097  1
  Cu  Cu9  1  0.24999994  0.97222100  0.52777898  1
  Se  Se10  1  0.40579596  0.73364700  0.99381797  1
  Se  Se11  1  0.86673896  0.99381800  0.73364695  1
  Se  Se12  1  0.09420397  0.50618200  0.76635298  1
  Se  Se13  1  0.63326097  0.76635300  0.50618197  1
  Se  Se14  1  0.59420400  0.26635300  0.00618198  1
  Se  Se15  1  0.13326100  0.00618200  0.26635299  1
  Se  Se16  1  0.90579600  0.49381800  0.23364696  1
  Se  Se17  1  0.36673900  0.23364700  0.49381798  1
