# generated using pymatgen
data_U6Sb3Mo2Pt9
_symmetry_space_group_name_H-M   'P 1'
_cell_length_a   8.33191776
_cell_length_b   8.33191776
_cell_length_c   8.33191776
_cell_angle_alpha   109.47122192
_cell_angle_beta   109.47122192
_cell_angle_gamma   109.47122192
_symmetry_Int_Tables_number   1
_chemical_formula_structural   U6Sb3Mo2Pt9
_chemical_formula_sum   'U6 Sb3 Mo2 Pt9'
_cell_volume   445.25931389
_cell_formula_units_Z   1
loop_
 _symmetry_equiv_pos_site_id
 _symmetry_equiv_pos_as_xyz
  1  'x, y, z'
loop_
 _atom_site_type_symbol
 _atom_site_label
 _atom_site_symmetry_multiplicity
 _atom_site_fract_x
 _atom_site_fract_y
 _atom_site_fract_z
 _atom_site_occupancy
  U  U0  1  0.75000005  0.62500003  0.87500006  1
  U  U1  1  0.25000006  0.87500004  0.62500006  1
  U  U2  1  0.87500002  0.12500001  0.75000003  1
  U  U3  1  0.62500003  0.37500002  0.25000004  1
  U  U4  1  0.12500002  0.25000001  0.37500002  1
  U  U5  1  0.37500005  0.75000004  0.12500005  1
  Mo  Mo6  1  0.75000002  0.12500001  0.37500003  1
  Mo  Mo7  1  0.25000003  0.37500002  0.12500003  1
  Sb  Sb8  1  0.37500005  0.62500003  0.75000005  1
  Sb  Sb9  1  0.12500006  0.87500004  0.25000005  1
  Pt  Pt10  1  0.62500003  0.25000001  0.87500004  1
  Pt  Pt11  1  0.87500006  0.75000004  0.62500007  1
  Sb  Sb12  1  0.66594507  1.00000005  1.00000008  1
  Pt  Pt13  1  0.00000003  0.50000002  0.16594503  1
  Pt  Pt14  1  0.50000005  0.66594503  0.50000005  1
  Pt  Pt15  1  0.16594507  1.00000005  1.00000007  1
  Pt  Pt16  1  0.83405507  0.83405504  0.33405507  1
  Pt  Pt17  1  0.00000003  0.50000002  0.66594503  1
  Pt  Pt18  1  0.33405503  0.33405502  0.83405503  1
  Pt  Pt19  1  0.50000002  0.16594501  0.50000003  1
