# generated using pymatgen
data_ErGa7Co5
_symmetry_space_group_name_H-M   'P 1'
_cell_length_a   5.11984396
_cell_length_b   6.72034359
_cell_length_c   6.72034359
_cell_angle_alpha   81.65686798
_cell_angle_beta   67.60923767
_cell_angle_gamma   67.60923004
_symmetry_Int_Tables_number   1
_chemical_formula_structural   ErGa7Co5
_chemical_formula_sum   'Er1 Ga7 Co5'
_cell_volume   197.67622714
_cell_formula_units_Z   1
loop_
 _symmetry_equiv_pos_site_id
 _symmetry_equiv_pos_as_xyz
  1  'x, y, z'
loop_
 _atom_site_type_symbol
 _atom_site_label
 _atom_site_symmetry_multiplicity
 _atom_site_fract_x
 _atom_site_fract_y
 _atom_site_fract_z
 _atom_site_occupancy
  Er  Er0  1  0.00000000  0.00000000  0.00000000  1
  Ga  Ga1  1  0.28195300  0.21804701  0.21804700  1
  Ga  Ga2  1  0.50000000  0.78195302  0.21804701  1
  Ga  Ga3  1  -0.00000000  0.65238302  0.34761700  1
  Ga  Ga4  1  0.65238300  0.34761701  0.34761700  1
  Ga  Ga5  1  -0.00000000  0.34761701  0.65238299  1
  Ga  Ga6  1  0.34761700  0.65238302  0.65238299  1
  Ga  Ga7  1  0.50000000  0.21804701  0.78195298  1
  Co  Co8  1  0.71804700  0.78195302  0.78195299  1
  Co  Co9  1  -0.00000000  0.50000001  0.00000001  1
  Co  Co10  1  0.50000000  0.50000001  0.00000001  1
  Co  Co11  1  0.50000000  1.00000002  0.50000001  1
  Co  Co12  1  1.00000001  0.00000000  0.49999998  1
