# generated using pymatgen
data_TiNi7
_symmetry_space_group_name_H-M   'P 1'
_cell_length_a   4.05967712
_cell_length_b   5.09447622
_cell_length_c   5.09447527
_cell_angle_alpha   120.00000000
_cell_angle_beta   90.00000000
_cell_angle_gamma   90.00000000
_symmetry_Int_Tables_number   1
_chemical_formula_structural   TiNi7
_chemical_formula_sum   'Ti1 Ni7'
_cell_volume   91.24753144
_cell_formula_units_Z   1
loop_
 _symmetry_equiv_pos_site_id
 _symmetry_equiv_pos_as_xyz
  1  'x, y, z'
loop_
 _atom_site_type_symbol
 _atom_site_label
 _atom_site_symmetry_multiplicity
 _atom_site_fract_x
 _atom_site_fract_y
 _atom_site_fract_z
 _atom_site_occupancy
  Ti  Ti0  1  0.74999998  0.83742493  0.16257595  1
  Ni  Ni1  1  0.74999998  0.32515097  0.16257598  1
  Ni  Ni2  1  0.74999998  0.83742493  0.67484996  1
  Ni  Ni3  1  0.24999999  0.16257499  0.83742402  1
  Ni  Ni4  1  0.24999999  0.67484895  0.83742398  1
  Ni  Ni5  1  0.24999999  0.16257499  0.32515000  1
  Ni  Ni6  1  0.24999999  0.66666661  0.33333330  1
  Ni  Ni7  1  0.74999998  0.33333331  0.66666667  1
