# generated using pymatgen
data_Eu3CoS4
_symmetry_space_group_name_H-M   'P 1'
_cell_length_a   3.60575724
_cell_length_b   3.60580993
_cell_length_c   13.50317955
_cell_angle_alpha   90.00067902
_cell_angle_beta   89.99935150
_cell_angle_gamma   59.99987411
_symmetry_Int_Tables_number   1
_chemical_formula_structural   Eu3CoS4
_chemical_formula_sum   'Eu3 Co1 S4'
_cell_volume   152.04265227
_cell_formula_units_Z   1
loop_
 _symmetry_equiv_pos_site_id
 _symmetry_equiv_pos_as_xyz
  1  'x, y, z'
loop_
 _atom_site_type_symbol
 _atom_site_label
 _atom_site_symmetry_multiplicity
 _atom_site_fract_x
 _atom_site_fract_y
 _atom_site_fract_z
 _atom_site_occupancy
  Eu  Eu0  1  0.33354400  0.33318301  0.25000001  1
  Eu  Eu1  1  0.66682800  0.66650535  0.75000003  1
  Eu  Eu2  1  0.99987002  0.00014200  0.99998303  1
  Co  Co3  1  0.99973202  0.00026800  0.50000901  1
  S  S4  1  0.33333334  0.33333334  0.58686202  1
  S  S5  1  0.33342900  0.33323768  0.91314303  1
  S  S6  1  0.66661300  0.66672035  0.41316102  1
  S  S7  1  0.66671100  0.66662235  0.08684301  1
