# generated using pymatgen
data_Nd4CoSb8
_symmetry_space_group_name_H-M   'P 1'
_cell_length_a   4.40294218
_cell_length_b   4.41201496
_cell_length_c   16.90872955
_cell_angle_alpha   90.00000000
_cell_angle_beta   90.00000000
_cell_angle_gamma   90.00000000
_symmetry_Int_Tables_number   1
_chemical_formula_structural   Nd4CoSb8
_chemical_formula_sum   'Nd4 Co1 Sb8'
_cell_volume   328.46638945
_cell_formula_units_Z   1
loop_
 _symmetry_equiv_pos_site_id
 _symmetry_equiv_pos_as_xyz
  1  'x, y, z'
loop_
 _atom_site_type_symbol
 _atom_site_label
 _atom_site_symmetry_multiplicity
 _atom_site_fract_x
 _atom_site_fract_y
 _atom_site_fract_z
 _atom_site_occupancy
  Nd  Nd0  1  0.00000000  0.75000001  0.90159097  1
  Nd  Nd1  1  0.49999998  0.75000001  0.39670199  1
  Nd  Nd2  1  0.49999998  0.25000000  0.60286498  1
  Nd  Nd3  1  0.00000000  0.25000000  0.10101900  1
  Co  Co4  1  0.00000000  0.75000001  0.68968298  1
  Sb  Sb5  1  0.00000000  0.75000001  0.54413098  1
  Sb  Sb6  1  0.49999998  0.75000001  0.06356300  1
  Sb  Sb7  1  0.49999998  0.25000000  0.94225897  1
  Sb  Sb8  1  0.00000000  0.25000000  0.42911599  1
  Sb  Sb9  1  0.49999998  0.75000001  0.76292998  1
  Sb  Sb10  1  0.00000000  0.75000001  0.25336199  1
  Sb  Sb11  1  0.00000000  0.25000000  0.76205698  1
  Sb  Sb12  1  0.49999998  0.25000000  0.24562299  1
