# generated using pymatgen
data_WO3
_symmetry_space_group_name_H-M   'P 1'
_cell_length_a   5.50475788
_cell_length_b   5.68910551
_cell_length_c   5.50667334
_cell_angle_alpha   118.83795929
_cell_angle_beta   90.00000000
_cell_angle_gamma   118.93376160
_symmetry_Int_Tables_number   1
_chemical_formula_structural   WO3
_chemical_formula_sum   'W2 O6'
_cell_volume   125.93733918
_cell_formula_units_Z   2
loop_
 _symmetry_equiv_pos_site_id
 _symmetry_equiv_pos_as_xyz
  1  'x, y, z'
loop_
 _atom_site_type_symbol
 _atom_site_label
 _atom_site_symmetry_multiplicity
 _atom_site_fract_x
 _atom_site_fract_y
 _atom_site_fract_z
 _atom_site_occupancy
  W  W0  1  0.50000000  0.50000000  0.50000001  1
  W  W1  1  -0.00000001  0.50000000  0.00000002  1
  O  O2  1  0.74317200  0.51408300  0.26247202  1
  O  O3  1  0.22908899  0.48591700  0.23752802  1
  O  O4  1  0.77091100  0.51408300  0.76247201  1
  O  O5  1  0.25682799  0.48591700  0.73752801  1
  O  O6  1  0.73114702  0.00000000  0.74999999  1
  O  O7  1  0.26885298  1.00000001  0.25000004  1
