# generated using pymatgen
data_CsTiO2
_symmetry_space_group_name_H-M   'P 1'
_cell_length_a   6.06459713
_cell_length_b   6.59054899
_cell_length_c   7.59404182
_cell_angle_alpha   109.89053345
_cell_angle_beta   90.00000000
_cell_angle_gamma   90.00000000
_symmetry_Int_Tables_number   1
_chemical_formula_structural   CsTiO2
_chemical_formula_sum   'Cs4 Ti4 O8'
_cell_volume   285.41937722
_cell_formula_units_Z   4
loop_
 _symmetry_equiv_pos_site_id
 _symmetry_equiv_pos_as_xyz
  1  'x, y, z'
loop_
 _atom_site_type_symbol
 _atom_site_label
 _atom_site_symmetry_multiplicity
 _atom_site_fract_x
 _atom_site_fract_y
 _atom_site_fract_z
 _atom_site_occupancy
  Cs  Cs0  1  0.74999998  0.73409699  0.05216196  1
  Cs  Cs1  1  0.24999999  0.26590300  0.94783796  1
  Cs  Cs2  1  0.24999999  0.18915800  0.42036198  1
  Cs  Cs3  1  0.74999998  0.81084199  0.57963795  1
  Ti  Ti4  1  0.24999999  0.64869999  0.36950796  1
  Ti  Ti5  1  0.74999998  0.35129999  0.63049197  1
  Ti  Ti6  1  0.74999998  0.29164200  0.21440098  1
  Ti  Ti7  1  0.24999999  0.70835799  0.78559894  1
  O  O8  1  0.49267199  0.53190099  0.73397695  1
  O  O9  1  0.99267198  0.46809899  0.26602297  1
  O  O10  1  0.50732799  0.46809899  0.26602297  1
  O  O11  1  0.00732800  0.53190099  0.73397695  1
  O  O12  1  0.24999999  0.88179199  0.63489794  1
  O  O13  1  0.74999998  0.11820800  0.36510198  1
  O  O14  1  0.24999999  0.87467599  0.03303196  1
  O  O15  1  0.74999998  0.12532400  0.96696797  1
