# generated using pymatgen
data_Ba4NbO9
_symmetry_space_group_name_H-M   'P 1'
_cell_length_a   6.00639153
_cell_length_b   6.00639153
_cell_length_c   7.96310091
_cell_angle_alpha   67.84342194
_cell_angle_beta   67.84342194
_cell_angle_gamma   60.00000381
_symmetry_Int_Tables_number   1
_chemical_formula_structural   Ba4NbO9
_chemical_formula_sum   'Ba4 Nb1 O9'
_cell_volume   223.96377166
_cell_formula_units_Z   1
loop_
 _symmetry_equiv_pos_site_id
 _symmetry_equiv_pos_as_xyz
  1  'x, y, z'
loop_
 _atom_site_type_symbol
 _atom_site_label
 _atom_site_symmetry_multiplicity
 _atom_site_fract_x
 _atom_site_fract_y
 _atom_site_fract_z
 _atom_site_occupancy
  Ba  Ba0  1  0.21449000  0.21449000  0.35653000  1
  Ba  Ba1  1  0.99915301  0.99915302  0.00254099  1
  Ba  Ba2  1  0.79302601  0.79302602  0.62092200  1
  Ba  Ba3  1  0.38944300  0.38944301  0.83167101  1
  Nb  Nb4  1  0.60542201  0.60542201  0.18373399  1
  O  O5  1  0.77171801  0.26562601  0.69703000  1
  O  O6  1  0.26562600  0.77171801  0.69703000  1
  O  O7  1  0.26562600  0.26562601  0.69703001  1
  O  O8  1  0.21790100  0.73448601  0.31312700  1
  O  O9  1  0.73448601  0.21790100  0.31312700  1
  O  O10  1  0.73448601  0.73448601  0.31312700  1
  O  O11  1  0.51050500  0.98761502  0.99137500  1
  O  O12  1  0.51050501  0.51050501  0.99137501  1
  O  O13  1  0.98761501  0.51050501  0.99137500  1
