# generated using pymatgen
data_TaAl(NF)2
_symmetry_space_group_name_H-M   'P 1'
_cell_length_a   3.95223093
_cell_length_b   3.95223093
_cell_length_c   6.55527306
_cell_angle_alpha   90.00000000
_cell_angle_beta   90.00000000
_cell_angle_gamma   90.00000000
_symmetry_Int_Tables_number   1
_chemical_formula_structural   TaAl(NF)2
_chemical_formula_sum   'Ta1 Al1 N2 F2'
_cell_volume   102.39421291
_cell_formula_units_Z   1
loop_
 _symmetry_equiv_pos_site_id
 _symmetry_equiv_pos_as_xyz
  1  'x, y, z'
loop_
 _atom_site_type_symbol
 _atom_site_label
 _atom_site_symmetry_multiplicity
 _atom_site_fract_x
 _atom_site_fract_y
 _atom_site_fract_z
 _atom_site_occupancy
  Ta  Ta0  1  0.00000000  0.00000000  0.00000000  1
  Al  Al1  1  0.50000001  0.50000001  0.50000000  1
  F  F2  1  0.50000001  0.50000001  0.79268999  1
  F  F3  1  0.50000001  0.50000001  0.20731000  1
  N  N4  1  0.50000001  0.00000000  0.50000000  1
  N  N5  1  0.00000000  0.50000001  0.50000000  1
