# generated using pymatgen
data_YbNiC2
_symmetry_space_group_name_H-M   'P 1'
_cell_length_a   3.68190694
_cell_length_b   3.73058009
_cell_length_c   3.73058009
_cell_angle_alpha   104.86970520
_cell_angle_beta   90.00000000
_cell_angle_gamma   90.00000000
_symmetry_Int_Tables_number   1
_chemical_formula_structural   YbNiC2
_chemical_formula_sum   'Yb1 Ni1 C2'
_cell_volume   49.52594262
_cell_formula_units_Z   1
loop_
 _symmetry_equiv_pos_site_id
 _symmetry_equiv_pos_as_xyz
  1  'x, y, z'
loop_
 _atom_site_type_symbol
 _atom_site_label
 _atom_site_symmetry_multiplicity
 _atom_site_fract_x
 _atom_site_fract_y
 _atom_site_fract_z
 _atom_site_occupancy
  Yb  Yb0  1  1.00000002  0.99497198  0.00502798  1
  Ni  Ni1  1  0.50000001  0.38693399  0.61306599  1
  C  C2  1  0.50000001  0.85629499  0.45320098  1
  C  C3  1  0.50000001  0.54679899  0.14370499  1
