# generated using pymatgen
data_AlGaCuTe4
_symmetry_space_group_name_H-M   'P 1'
_cell_length_a   6.07298613
_cell_length_b   6.07298613
_cell_length_c   7.38847399
_cell_angle_alpha   114.26622772
_cell_angle_beta   114.26622772
_cell_angle_gamma   90.00000000
_symmetry_Int_Tables_number   1
_chemical_formula_structural   AlGaCuTe4
_chemical_formula_sum   'Al1 Ga1 Cu1 Te4'
_cell_volume   221.74431906
_cell_formula_units_Z   1
loop_
 _symmetry_equiv_pos_site_id
 _symmetry_equiv_pos_as_xyz
  1  'x, y, z'
loop_
 _atom_site_type_symbol
 _atom_site_label
 _atom_site_symmetry_multiplicity
 _atom_site_fract_x
 _atom_site_fract_y
 _atom_site_fract_z
 _atom_site_occupancy
  Al  Al0  1  0.00000000  0.00000000  0.00000000  1
  Ga  Ga1  1  0.50000003  0.50000001  0.00000006  1
  Cu  Cu2  1  0.25000004  0.75000001  0.50000005  1
  Te  Te3  1  0.10252301  0.13357200  0.73321000  1
  Te  Te4  1  0.86642802  0.36931300  0.26679006  1
  Te  Te5  1  0.40036205  0.89747701  0.26679007  1
  Te  Te6  1  0.63068703  0.59963801  0.73321005  1
