# generated using pymatgen
data_HoAlFe
_symmetry_space_group_name_H-M   'P 1'
_cell_length_a   5.39503622
_cell_length_b   5.40665293
_cell_length_c   8.59008217
_cell_angle_alpha   90.00000000
_cell_angle_beta   90.00000000
_cell_angle_gamma   119.93273163
_symmetry_Int_Tables_number   1
_chemical_formula_structural   HoAlFe
_chemical_formula_sum   'Ho4 Al4 Fe4'
_cell_volume   217.14247801
_cell_formula_units_Z   4
loop_
 _symmetry_equiv_pos_site_id
 _symmetry_equiv_pos_as_xyz
  1  'x, y, z'
loop_
 _atom_site_type_symbol
 _atom_site_label
 _atom_site_symmetry_multiplicity
 _atom_site_fract_x
 _atom_site_fract_y
 _atom_site_fract_z
 _atom_site_occupancy
  Ho  Ho0  1  0.33245004  0.66484502  0.56474499  1
  Ho  Ho1  1  0.66309501  0.32615901  0.44847299  1
  Ho  Ho2  1  0.66309501  0.32615901  0.05152700  1
  Ho  Ho3  1  0.33245004  0.66484502  0.93525498  1
  Al  Al4  1  0.83651202  0.67302702  0.74999999  1
  Al  Al5  1  0.16228905  0.83687303  0.25000000  1
  Al  Al6  1  0.67460604  0.83682703  0.25000000  1
  Al  Al7  1  0.16399802  0.32793201  0.25000000  1
  Fe  Fe8  1  0.00742100  0.01505000  0.51258299  1
  Fe  Fe9  1  0.00742100  0.01505000  0.98741698  1
  Fe  Fe10  1  0.83390599  0.15664001  0.74999999  1
  Fe  Fe11  1  0.32275300  0.15659101  0.74999999  1
