# generated using pymatgen
data_Sm3Ga9Pt2
_symmetry_space_group_name_H-M   'P 1'
_cell_length_a   4.30992079
_cell_length_b   8.18792629
_cell_length_c   8.18792629
_cell_angle_alpha   70.90393066
_cell_angle_beta   74.74071503
_cell_angle_gamma   74.74071503
_symmetry_Int_Tables_number   1
_chemical_formula_structural   Sm3Ga9Pt2
_chemical_formula_sum   'Sm3 Ga9 Pt2'
_cell_volume   258.40229656
_cell_formula_units_Z   1
loop_
 _symmetry_equiv_pos_site_id
 _symmetry_equiv_pos_as_xyz
  1  'x, y, z'
loop_
 _atom_site_type_symbol
 _atom_site_label
 _atom_site_symmetry_multiplicity
 _atom_site_fract_x
 _atom_site_fract_y
 _atom_site_fract_z
 _atom_site_occupancy
  Sm  Sm0  1  0.49999998  0.50000003  0.50000004  1
  Sm  Sm1  1  0.19917793  0.80082204  0.80082208  1
  Sm  Sm2  1  0.80082203  0.19917801  0.19917800  1
  Ga  Ga3  1  0.36157199  0.35596102  0.92089506  1
  Ga  Ga4  1  0.63842798  0.64403903  0.07910502  1
  Ga  Ga5  1  0.36157193  0.92089505  0.35596106  1
  Ga  Ga6  1  0.63842803  0.07910500  0.64403902  1
  Ga  Ga7  1  0.15579196  0.47774003  0.21067503  1
  Ga  Ga8  1  0.84420800  0.52226003  0.78932505  1
  Ga  Ga9  1  0.15579199  0.21067501  0.47774003  1
  Ga  Ga10  1  0.84420798  0.78932504  0.52226004  1
  Ga  Ga11  1  0.50000003  0.00000000  -0.00000002  1
  Pt  Pt12  1  -0.00000008  0.81668104  0.18331905  1
  Pt  Pt13  1  -0.00000002  0.18331901  0.81668106  1
