# generated using pymatgen
data_TaFeSi
_symmetry_space_group_name_H-M   'P 1'
_cell_length_a   3.79894304
_cell_length_b   5.81180906
_cell_length_c   7.05700397
_cell_angle_alpha   90.00000000
_cell_angle_beta   90.00000000
_cell_angle_gamma   90.00000000
_symmetry_Int_Tables_number   1
_chemical_formula_structural   TaFeSi
_chemical_formula_sum   'Ta4 Fe4 Si4'
_cell_volume   155.80969670
_cell_formula_units_Z   4
loop_
 _symmetry_equiv_pos_site_id
 _symmetry_equiv_pos_as_xyz
  1  'x, y, z'
loop_
 _atom_site_type_symbol
 _atom_site_label
 _atom_site_symmetry_multiplicity
 _atom_site_fract_x
 _atom_site_fract_y
 _atom_site_fract_z
 _atom_site_occupancy
  Ta  Ta0  1  0.74999999  0.47150499  0.30491600  1
  Ta  Ta1  1  0.25000000  0.52849499  0.69508400  1
  Ta  Ta2  1  0.25000000  0.02849500  0.80491600  1
  Ta  Ta3  1  0.74999999  0.97150499  0.19508400  1
  Fe  Fe4  1  0.74999999  0.84048699  0.56168900  1
  Fe  Fe5  1  0.74999999  0.34048700  0.93831100  1
  Fe  Fe6  1  0.25000000  0.15951300  0.43831100  1
  Fe  Fe7  1  0.25000000  0.65951299  0.06168900  1
  Si  Si8  1  0.74999999  0.24197600  0.61687200  1
  Si  Si9  1  0.25000000  0.75802399  0.38312800  1
  Si  Si10  1  0.74999999  0.74197599  0.88312800  1
  Si  Si11  1  0.25000000  0.25802400  0.11687200  1
