# generated using pymatgen
data_Ca2CuRuO6
_symmetry_space_group_name_H-M   'P 1'
_cell_length_a   5.50165081
_cell_length_b   5.83780384
_cell_length_c   7.60849094
_cell_angle_alpha   90.00000000
_cell_angle_beta   90.13374329
_cell_angle_gamma   90.00000000
_symmetry_Int_Tables_number   1
_chemical_formula_structural   Ca2CuRuO6
_chemical_formula_sum   'Ca4 Cu2 Ru2 O12'
_cell_volume   244.36548518
_cell_formula_units_Z   2
loop_
 _symmetry_equiv_pos_site_id
 _symmetry_equiv_pos_as_xyz
  1  'x, y, z'
loop_
 _atom_site_type_symbol
 _atom_site_label
 _atom_site_symmetry_multiplicity
 _atom_site_fract_x
 _atom_site_fract_y
 _atom_site_fract_z
 _atom_site_occupancy
  Ca  Ca0  1  0.51456402  0.06828300  0.24898400  1
  Ca  Ca1  1  0.98543603  0.56828302  0.25101601  1
  Ca  Ca2  1  0.48543602  0.93171703  0.75101599  1
  Ca  Ca3  1  0.01456400  0.43171701  0.74898398  1
  Cu  Cu4  1  0.50000002  0.50000001  0.49999999  1
  Cu  Cu5  1  0.00000000  0.00000000  0.00000000  1
  Ru  Ru6  1  0.50000002  0.50000001  0.00000001  1
  Ru  Ru7  1  0.00000000  1.00000003  0.49999999  1
  O  O8  1  0.40321501  0.46835101  0.24833100  1
  O  O9  1  0.09678500  0.96835103  0.25166899  1
  O  O10  1  0.59678502  0.53164901  0.75166899  1
  O  O11  1  0.90321503  0.03164900  0.74833099  1
  O  O12  1  0.71138802  0.81933602  0.04830001  1
  O  O13  1  0.78861203  0.31933601  0.45170000  1
  O  O14  1  0.31542201  0.21293001  0.55092199  1
  O  O15  1  0.18457801  0.71293002  0.94907798  1
  O  O16  1  0.28861201  0.18066400  0.95169998  1
  O  O17  1  0.21138801  0.68066402  0.54829999  1
  O  O18  1  0.68457802  0.78707002  0.44907800  1
  O  O19  1  0.81542203  0.28707001  0.05092201  1
