# generated using pymatgen
data_Ce8Co4Ge7
_symmetry_space_group_name_H-M   'P 1'
_cell_length_a   4.41413212
_cell_length_b   7.74622202
_cell_length_c   13.04595375
_cell_angle_alpha   107.27043152
_cell_angle_beta   99.73992920
_cell_angle_gamma   90.00000000
_symmetry_Int_Tables_number   1
_chemical_formula_structural   Ce8Co4Ge7
_chemical_formula_sum   'Ce8 Co4 Ge7'
_cell_volume   419.22827449
_cell_formula_units_Z   1
loop_
 _symmetry_equiv_pos_site_id
 _symmetry_equiv_pos_as_xyz
  1  'x, y, z'
loop_
 _atom_site_type_symbol
 _atom_site_label
 _atom_site_symmetry_multiplicity
 _atom_site_fract_x
 _atom_site_fract_y
 _atom_site_fract_z
 _atom_site_occupancy
  Ce  Ce0  1  0.57247797  0.57247799  0.14495598  1
  Ce  Ce1  1  0.57531298  0.07531300  0.15062600  1
  Ce  Ce2  1  0.29974699  0.29974699  0.59949401  1
  Ce  Ce3  1  0.30260597  0.80260599  0.60521199  1
  Ce  Ce4  1  0.70535597  0.45386699  0.41071199  1
  Ce  Ce5  1  0.70535596  0.95684498  0.41071198  1
  Ce  Ce6  1  0.43132998  0.18140600  0.86266002  1
  Ce  Ce7  1  0.43132997  0.68125399  0.86266000  1
  Co  Co8  1  0.89460996  0.89460998  0.78921999  1
  Co  Co9  1  0.11562398  0.86244598  0.23124798  1
  Co  Co10  1  0.83219796  0.58542599  0.66439700  1
  Co  Co11  1  0.83219897  0.07897100  0.66439801  1
  Ge  Ge12  1  0.17209999  0.17210000  0.34420000  1
  Ge  Ge13  1  0.11562399  0.36880199  0.23124799  1
  Ge  Ge14  1  0.88765997  0.38765999  0.77532001  1
  Ge  Ge15  1  0.01979399  0.23626800  0.03958899  1
  Ge  Ge16  1  0.98393296  0.48393299  0.96786601  1
  Ge  Ge17  1  0.01979498  0.80332099  0.03958998  1
  Ge  Ge18  1  0.17462098  0.67462099  0.34924199  1
