# generated using pymatgen
data_Ti2(CoS)3
_symmetry_space_group_name_H-M   'P 1'
_cell_length_a   6.36501789
_cell_length_b   6.39788723
_cell_length_c   6.39788723
_cell_angle_alpha   63.37625122
_cell_angle_beta   63.54299164
_cell_angle_gamma   63.54299164
_symmetry_Int_Tables_number   1
_chemical_formula_structural   Ti2(CoS)3
_chemical_formula_sum   'Ti4 Co6 S6'
_cell_volume   198.43675448
_cell_formula_units_Z   2
loop_
 _symmetry_equiv_pos_site_id
 _symmetry_equiv_pos_as_xyz
  1  'x, y, z'
loop_
 _atom_site_type_symbol
 _atom_site_label
 _atom_site_symmetry_multiplicity
 _atom_site_fract_x
 _atom_site_fract_y
 _atom_site_fract_z
 _atom_site_occupancy
  Ti  Ti0  1  0.39731500  0.10535000  0.74854697  1
  Ti  Ti1  1  0.60268500  0.25145299  0.89464996  1
  Ti  Ti2  1  0.09942698  0.73715697  0.41532900  1
  Ti  Ti3  1  0.90057299  0.58467098  0.26284298  1
  Co  Co4  1  0.76297999  0.41097099  0.07512899  1
  Co  Co5  1  0.23701998  0.92487097  0.58902900  1
  Co  Co6  1  0.82605898  0.83032997  0.82893697  1
  Co  Co7  1  0.17394100  0.17106299  0.16966999  1
  Co  Co8  1  0.65799900  0.00441600  0.33830997  1
  Co  Co9  1  0.34200098  0.66168998  0.99558398  1
  S  S10  1  -0.00000000  0.02246300  0.97753697  1
  S  S11  1  0.70525799  0.63200898  0.66401798  1
  S  S12  1  0.29474199  0.33598199  0.36799099  1
  S  S13  1  0.49999998  0.80073597  0.19926400  1
  S  S14  1  0.80008100  0.19770199  0.49286397  1
  S  S15  1  0.19991899  0.50713598  0.80229798  1
