# generated using pymatgen
data_Zr3Ge5
_symmetry_space_group_name_H-M   'P 1'
_cell_length_a   5.71475077
_cell_length_b   5.71475077
_cell_length_c   9.10288620
_cell_angle_alpha   90.00000000
_cell_angle_beta   90.00000000
_cell_angle_gamma   102.47496796
_symmetry_Int_Tables_number   1
_chemical_formula_structural   Zr3Ge5
_chemical_formula_sum   'Zr6 Ge10'
_cell_volume   290.26671400
_cell_formula_units_Z   2
loop_
 _symmetry_equiv_pos_site_id
 _symmetry_equiv_pos_as_xyz
  1  'x, y, z'
loop_
 _atom_site_type_symbol
 _atom_site_label
 _atom_site_symmetry_multiplicity
 _atom_site_fract_x
 _atom_site_fract_y
 _atom_site_fract_z
 _atom_site_occupancy
  Zr  Zr0  1  0.20547196  0.79452798  -0.00000000  1
  Zr  Zr1  1  0.79452798  0.20547200  -0.00000000  1
  Zr  Zr2  1  0.79452798  0.20547200  0.49999999  1
  Zr  Zr3  1  0.20547196  0.79452798  0.49999999  1
  Zr  Zr4  1  0.63690896  0.63690899  0.74999998  1
  Zr  Zr5  1  0.36309098  0.36309099  0.24999999  1
  Ge  Ge6  1  0.49784399  0.07719500  0.74999998  1
  Ge  Ge7  1  0.50215595  0.92280498  0.24999999  1
  Ge  Ge8  1  0.07719498  0.49784399  0.74999998  1
  Ge  Ge9  1  0.92280497  0.50215599  0.24999999  1
  Ge  Ge10  1  0.01685300  0.01685300  0.74999998  1
  Ge  Ge11  1  0.98314694  0.98314698  0.24999999  1
  Ge  Ge12  1  0.31614298  0.31614299  0.94957298  1
  Ge  Ge13  1  0.68385696  0.68385699  0.05042700  1
  Ge  Ge14  1  0.68385696  0.68385699  0.44957299  1
  Ge  Ge15  1  0.31614298  0.31614299  0.55042699  1
