# generated using pymatgen
data_Ca2FeMoO6
_symmetry_space_group_name_H-M   'P 1'
_cell_length_a   5.53953314
_cell_length_b   5.54036188
_cell_length_c   7.72537279
_cell_angle_alpha   90.00000000
_cell_angle_beta   90.00000000
_cell_angle_gamma   90.00000000
_symmetry_Int_Tables_number   1
_chemical_formula_structural   Ca2FeMoO6
_chemical_formula_sum   'Ca4 Fe2 Mo2 O12'
_cell_volume   237.09955724
_cell_formula_units_Z   2
loop_
 _symmetry_equiv_pos_site_id
 _symmetry_equiv_pos_as_xyz
  1  'x, y, z'
loop_
 _atom_site_type_symbol
 _atom_site_label
 _atom_site_symmetry_multiplicity
 _atom_site_fract_x
 _atom_site_fract_y
 _atom_site_fract_z
 _atom_site_occupancy
  Ca  Ca0  1  0.50165099  0.26615401  0.50000001  1
  Ca  Ca1  1  0.00165100  0.73384602  -0.00000000  1
  Ca  Ca2  1  0.98600198  0.78663602  0.50000001  1
  Ca  Ca3  1  0.48600199  0.21336400  -0.00000000  1
  Fe  Fe4  1  0.99939198  0.25446801  0.75061802  1
  Fe  Fe5  1  0.49939199  0.74553202  0.25061801  1
  Mo  Mo6  1  0.99939198  0.25446801  0.24938201  1
  Mo  Mo7  1  0.49939199  0.74553202  0.74938202  1
  O  O8  1  0.05660100  0.22979600  0.50000001  1
  O  O9  1  0.41324099  0.74394002  0.50000001  1
  O  O10  1  0.91324098  0.25606001  0.00000000  1
  O  O11  1  0.55660099  0.77020402  0.00000000  1
  O  O12  1  0.23827199  0.98809202  0.78601002  1
  O  O13  1  0.28358799  0.46710701  0.20813301  1
  O  O14  1  0.78358798  0.53289301  0.29186701  1
  O  O15  1  0.73827198  0.01190800  0.71399002  1
  O  O16  1  0.78358798  0.53289301  0.70813302  1
  O  O17  1  0.73827198  0.01190800  0.28601001  1
  O  O18  1  0.23827199  0.98809202  0.21399001  1
  O  O19  1  0.28358799  0.46710701  0.79186702  1
