# generated using pymatgen
data_Sr2SmCu3O8
_symmetry_space_group_name_H-M   'P 1'
_cell_length_a   3.87656808
_cell_length_b   3.87656808
_cell_length_c   11.86502743
_cell_angle_alpha   90.00000000
_cell_angle_beta   90.00000000
_cell_angle_gamma   89.86031342
_symmetry_Int_Tables_number   1
_chemical_formula_structural   Sr2SmCu3O8
_chemical_formula_sum   'Sr2 Sm1 Cu3 O8'
_cell_volume   178.30449282
_cell_formula_units_Z   1
loop_
 _symmetry_equiv_pos_site_id
 _symmetry_equiv_pos_as_xyz
  1  'x, y, z'
loop_
 _atom_site_type_symbol
 _atom_site_label
 _atom_site_symmetry_multiplicity
 _atom_site_fract_x
 _atom_site_fract_y
 _atom_site_fract_z
 _atom_site_occupancy
  Sr  Sr0  1  0.49328201  0.50671799  0.69473997  1
  Sr  Sr1  1  0.49328201  0.50671799  0.30525999  1
  Sm  Sm2  1  0.49931201  0.50068799  0.99999996  1
  Cu  Cu3  1  0.99879398  0.00120600  0.85902897  1
  Cu  Cu4  1  0.99879398  0.00120600  0.14097099  1
  Cu  Cu5  1  0.01048304  0.98951698  0.49999998  1
  O  O6  1  0.49889299  0.00161000  0.87433497  1
  O  O7  1  0.99839000  0.50110699  0.87433497  1
  O  O8  1  0.49889299  0.00161000  0.12566500  1
  O  O9  1  0.99839000  0.50110699  0.12566500  1
  O  O10  1  0.00396104  0.99603898  0.67110298  1
  O  O11  1  0.00396104  0.99603898  0.32889699  1
  O  O12  1  0.51468503  0.95349199  0.49999998  1
  O  O13  1  0.04650802  0.48531499  0.49999998  1
