# generated using pymatgen
data_LiAg3As2(S6F)2
_symmetry_space_group_name_H-M   'P 1'
_cell_length_a   5.52176189
_cell_length_b   5.90961218
_cell_length_c   7.71697521
_cell_angle_alpha   90.00000000
_cell_angle_beta   90.00000000
_cell_angle_gamma   90.00000000
_symmetry_Int_Tables_number   1
_chemical_formula_structural   LiAg3As2(S6F)2
_chemical_formula_sum   'Li1 Ag3 As2 S12 F2'
_cell_volume   251.81625545
_cell_formula_units_Z   1
loop_
 _symmetry_equiv_pos_site_id
 _symmetry_equiv_pos_as_xyz
  1  'x, y, z'
loop_
 _atom_site_type_symbol
 _atom_site_label
 _atom_site_symmetry_multiplicity
 _atom_site_fract_x
 _atom_site_fract_y
 _atom_site_fract_z
 _atom_site_occupancy
  Li  Li0  1  0.01473800  0.93168797  0.74999998  1
  Ag  Ag1  1  0.51473801  0.56831198  0.24999999  1
  Ag  Ag2  1  0.48526201  0.43168799  0.74999998  1
  Ag  Ag3  1  0.98526202  0.06831200  0.24999999  1
  As  As4  1  0.50000001  0.00000000  0.49999999  1
  As  As5  1  0.00000000  0.49999998  0.49999999  1
  S  S6  1  0.00000000  0.49999998  0.00000000  1
  S  S7  1  0.50000001  0.00000000  -0.00000000  1
  S  S8  1  0.71549101  0.31337099  0.45329099  1
  S  S9  1  0.21549100  0.18662899  0.54670898  1
  S  S10  1  0.78450902  0.81337098  0.04670900  1
  S  S11  1  0.28450901  0.68662898  0.95329097  1
  S  S12  1  0.28450901  0.68662898  0.54670898  1
  S  S13  1  0.78450902  0.81337098  0.45329099  1
  S  S14  1  0.21549100  0.18662899  0.95329097  1
  S  S15  1  0.71549101  0.31337099  0.04670900  1
  F  F16  1  0.09244200  0.47566799  0.24999999  1
  S  S17  1  0.59244201  0.02433200  0.74999998  1
  F  F18  1  0.40755801  0.97566797  0.24999999  1
  S  S19  1  0.90755802  0.52433198  0.74999998  1
