# generated using pymatgen
data_ZrSiRu
_symmetry_space_group_name_H-M   'P 1'
_cell_length_a   6.66321802
_cell_length_b   7.60427809
_cell_length_c   7.40048599
_cell_angle_alpha   119.11736298
_cell_angle_beta   90.00000000
_cell_angle_gamma   115.98418427
_symmetry_Int_Tables_number   1
_chemical_formula_structural   ZrSiRu
_chemical_formula_sum   'Zr6 Si6 Ru6'
_cell_volume   283.41471604
_cell_formula_units_Z   6
loop_
 _symmetry_equiv_pos_site_id
 _symmetry_equiv_pos_as_xyz
  1  'x, y, z'
loop_
 _atom_site_type_symbol
 _atom_site_label
 _atom_site_symmetry_multiplicity
 _atom_site_fract_x
 _atom_site_fract_y
 _atom_site_fract_z
 _atom_site_occupancy
  Zr  Zr0  1  0.49391403  0.39842202  0.94921100  1
  Zr  Zr1  1  0.09549204  0.60157702  0.05078800  1
  Zr  Zr2  1  0.05134504  0.55847902  0.52924000  1
  Zr  Zr3  1  0.49286703  0.44152202  0.47076100  1
  Zr  Zr4  1  0.91407307  0.99433104  0.74716500  1
  Zr  Zr5  1  0.91974100  0.00566800  0.25283400  1
  Si  Si6  1  0.16285802  0.33429601  0.67310000  1
  Si  Si7  1  0.82856105  0.66570303  0.32689900  1
  Si  Si8  1  0.16285802  0.33429601  0.16119500  1
  Si  Si9  1  0.82856105  0.66570303  0.83880400  1
  Si  Si10  1  0.47894307  0.94745904  0.72373000  1
  Si  Si11  1  0.53148500  0.05254200  0.27627100  1
  Ru  Ru12  1  0.49678005  0.75095203  0.90373600  1
  Ru  Ru13  1  0.74582802  0.24904801  0.09626400  1
  Ru  Ru14  1  0.49678005  0.75095203  0.34721600  1
  Ru  Ru15  1  0.74582802  0.24904801  0.65278400  1
  Ru  Ru16  1  0.24904200  0.00000000  0.50000000  1
  Ru  Ru17  1  0.24904207  1.00000004  1.00000000  1
