# generated using pymatgen
data_Li7TiCr3NiO8
_symmetry_space_group_name_H-M   'P 1'
_cell_length_a   5.51593781
_cell_length_b   5.86424398
_cell_length_c   6.32507038
_cell_angle_alpha   89.99974060
_cell_angle_beta   78.28318787
_cell_angle_gamma   89.99961090
_symmetry_Int_Tables_number   1
_chemical_formula_structural   Li7TiCr3NiO8
_chemical_formula_sum   'Li7 Ti1 Cr3 Ni1 O8'
_cell_volume   200.33270998
_cell_formula_units_Z   1
loop_
 _symmetry_equiv_pos_site_id
 _symmetry_equiv_pos_as_xyz
  1  'x, y, z'
loop_
 _atom_site_type_symbol
 _atom_site_label
 _atom_site_symmetry_multiplicity
 _atom_site_fract_x
 _atom_site_fract_y
 _atom_site_fract_z
 _atom_site_occupancy
  Ti  Ti0  1  0.36855602  0.50009998  0.67244404  1
  Li  Li1  1  0.36856101  0.24999299  0.17244203  1
  Li  Li2  1  0.36855800  0.00009200  0.67244003  1
  Li  Li3  1  0.36855703  0.74998297  0.17244404  1
  Li  Li4  1  0.63143702  0.50009898  0.32755705  1
  Li  Li5  1  0.63143601  0.24998899  0.82755805  1
  Li  Li6  1  0.63143500  0.00009000  0.32755904  1
  Li  Li7  1  0.63143803  0.74998297  0.82755807  1
  Cr  Cr8  1  0.99999903  0.75229897  0.50000008  1
  Cr  Cr9  1  0.00000302  0.49762398  0.00000301  1
  Cr  Cr10  1  0.00000801  0.25226699  0.49999202  1
  Ni  Ni11  1  0.00000803  0.99765796  0.00000403  1
  O  O12  1  0.74021702  0.50108998  0.61229006  1
  O  O13  1  0.74020701  0.24886199  0.11228904  1
  O  O14  1  0.74020500  0.00109400  0.61228805  1
  O  O15  1  0.74021703  0.74886697  0.11228806  1
  O  O16  1  0.25978302  0.50108998  0.38771103  1
  O  O17  1  0.25979901  0.24886199  0.88771003  1
  O  O18  1  0.25979100  0.00109400  0.38771302  1
  O  O19  1  0.25978103  0.74886597  0.88771305  1
