# generated using pymatgen
data_Ag2BiSBr
_symmetry_space_group_name_H-M   'P 1'
_cell_length_a   4.89205408
_cell_length_b   4.92517757
_cell_length_c   5.12078381
_cell_angle_alpha   89.94358063
_cell_angle_beta   89.40346527
_cell_angle_gamma   88.71919250
_symmetry_Int_Tables_number   1
_chemical_formula_structural   Ag2BiSBr
_chemical_formula_sum   'Ag2 Bi1 S1 Br1'
_cell_volume   123.34382180
_cell_formula_units_Z   1
loop_
 _symmetry_equiv_pos_site_id
 _symmetry_equiv_pos_as_xyz
  1  'x, y, z'
loop_
 _atom_site_type_symbol
 _atom_site_label
 _atom_site_symmetry_multiplicity
 _atom_site_fract_x
 _atom_site_fract_y
 _atom_site_fract_z
 _atom_site_occupancy
  Bi  Bi0  1  0.97682003  0.92425699  0.06969404  1
  Ag  Ag1  1  0.96689800  0.42700600  0.72315604  1
  Ag  Ag2  1  0.53967103  0.80264100  0.49376105  1
  S  S3  1  0.03416904  0.92576199  0.56713307  1
  Br  Br4  1  0.48244301  0.38633400  0.07825602  1
