# generated using pymatgen
data_NaS
_symmetry_space_group_name_H-M   'P 1'
_cell_length_a   4.12256384
_cell_length_b   4.12256384
_cell_length_c   13.82813644
_cell_angle_alpha   81.42729187
_cell_angle_beta   81.42729187
_cell_angle_gamma   60.00000000
_symmetry_Int_Tables_number   1
_chemical_formula_structural   NaS
_chemical_formula_sum   'Na4 S4'
_cell_volume   200.49264243
_cell_formula_units_Z   4
loop_
 _symmetry_equiv_pos_site_id
 _symmetry_equiv_pos_as_xyz
  1  'x, y, z'
loop_
 _atom_site_type_symbol
 _atom_site_label
 _atom_site_symmetry_multiplicity
 _atom_site_fract_x
 _atom_site_fract_y
 _atom_site_fract_z
 _atom_site_occupancy
  Na  Na0  1  0.50655898  0.50655901  0.48032301  1
  Na  Na1  1  0.24174099  0.24174101  0.27477700  1
  Na  Na2  1  0.75671498  0.75671502  0.72985502  1
  Na  Na3  1  0.99610197  0.99610203  0.01169404  1
  S  S4  1  0.87467197  0.87467203  0.37598403  1
  S  S5  1  0.62066898  0.62066902  0.13799302  1
  S  S6  1  0.37451699  0.37451701  0.87644900  1
  S  S7  1  0.12902600  0.12902600  0.61292199  1
