# generated using pymatgen
data_BaY2Sb3
_symmetry_space_group_name_H-M   'P 1'
_cell_length_a   6.88038778
_cell_length_b   6.88038778
_cell_length_c   9.26311684
_cell_angle_alpha   90.00000000
_cell_angle_beta   90.00000000
_cell_angle_gamma   90.00000000
_symmetry_Int_Tables_number   1
_chemical_formula_structural   BaY2Sb3
_chemical_formula_sum   'Ba2 Y4 Sb6'
_cell_volume   438.51350600
_cell_formula_units_Z   2
loop_
 _symmetry_equiv_pos_site_id
 _symmetry_equiv_pos_as_xyz
  1  'x, y, z'
loop_
 _atom_site_type_symbol
 _atom_site_label
 _atom_site_symmetry_multiplicity
 _atom_site_fract_x
 _atom_site_fract_y
 _atom_site_fract_z
 _atom_site_occupancy
  Ba  Ba0  1  0.50000002  0.50000002  0.00000000  1
  Ba  Ba1  1  0.00000000  0.00000000  0.00000000  1
  Y  Y2  1  0.50000002  0.50000002  0.50000001  1
  Y  Y3  1  0.00000000  0.00000000  0.50000001  1
  Y  Y4  1  0.35420701  0.85420703  0.29760301  1
  Sb  Sb5  1  0.14579300  0.35420701  0.29760301  1
  Y  Y6  1  0.85420703  0.64579302  0.29760301  1
  Sb  Sb7  1  0.35420701  0.14579300  0.70239701  1
  Sb  Sb8  1  0.64579302  0.85420703  0.70239701  1
  Sb  Sb9  1  0.64579302  0.14579300  0.29760301  1
  Sb  Sb10  1  0.85420703  0.35420701  0.70239701  1
  Sb  Sb11  1  0.14579300  0.64579302  0.70239701  1
