# generated using pymatgen
data_Cs2HgSe2
_symmetry_space_group_name_H-M   'P 1'
_cell_length_a   7.00604200
_cell_length_b   7.49967003
_cell_length_c   8.80378628
_cell_angle_alpha   115.20981598
_cell_angle_beta   113.44692230
_cell_angle_gamma   90.00000000
_symmetry_Int_Tables_number   1
_chemical_formula_structural   Cs2HgSe2
_chemical_formula_sum   'Cs4 Hg2 Se4'
_cell_volume   375.87252986
_cell_formula_units_Z   2
loop_
 _symmetry_equiv_pos_site_id
 _symmetry_equiv_pos_as_xyz
  1  'x, y, z'
loop_
 _atom_site_type_symbol
 _atom_site_label
 _atom_site_symmetry_multiplicity
 _atom_site_fract_x
 _atom_site_fract_y
 _atom_site_fract_z
 _atom_site_occupancy
  Cs  Cs0  1  0.85735397  0.53467198  0.71470797  1
  Cs  Cs1  1  0.14264598  0.46532798  0.28529197  1
  Cs  Cs2  1  0.64264597  0.81996397  0.28529195  1
  Cs  Cs3  1  0.35735399  0.18003599  0.71470799  1
  Hg  Hg4  1  0.24999996  0.99999997  -0.00000006  1
  Hg  Hg5  1  0.74999996  0.99999997  -0.00000007  1
  Se  Se6  1  0.10757497  0.91017697  0.21514895  1
  Se  Se7  1  0.89242499  0.08982300  0.78485099  1
  Se  Se8  1  0.39242597  0.69502798  0.78485196  1
  Se  Se9  1  0.60757398  0.30497199  0.21514798  1
