# generated using pymatgen
data_Li2Fe2OF7
_symmetry_space_group_name_H-M   'P 1'
_cell_length_a   4.99016142
_cell_length_b   6.29476213
_cell_length_c   6.36388922
_cell_angle_alpha   119.64131927
_cell_angle_beta   109.98859406
_cell_angle_gamma   90.00000000
_symmetry_Int_Tables_number   1
_chemical_formula_structural   Li2Fe2OF7
_chemical_formula_sum   'Li2 Fe2 O1 F7'
_cell_volume   159.74034579
_cell_formula_units_Z   1
loop_
 _symmetry_equiv_pos_site_id
 _symmetry_equiv_pos_as_xyz
  1  'x, y, z'
loop_
 _atom_site_type_symbol
 _atom_site_label
 _atom_site_symmetry_multiplicity
 _atom_site_fract_x
 _atom_site_fract_y
 _atom_site_fract_z
 _atom_site_occupancy
  Li  Li0  1  0.74999995  0.84259297  -0.00000007  1
  Li  Li1  1  0.24999999  0.15740699  -0.00000002  1
  Fe  Fe2  1  -0.00000003  0.49999998  0.49999998  1
  Fe  Fe3  1  0.50000000  0.00000000  0.49999997  1
  F  F4  1  0.81845094  0.99157996  0.77972292  1
  O  O5  1  0.82279497  0.52012398  0.74113594  1
  F  F6  1  0.31845096  0.78814297  0.77972295  1
  F  F7  1  0.32279499  0.22101199  0.74113597  1
  F  F8  1  0.17720497  0.47987598  0.25886397  1
  F  F9  1  0.18154900  0.00842000  0.22027699  1
  F  F10  1  0.67720495  0.77898797  0.25886394  1
  F  F11  1  0.68154898  0.21185699  0.22027696  1
