# generated using pymatgen
data_Th
_symmetry_space_group_name_H-M   'P 1'
_cell_length_a   3.67527676
_cell_length_b   3.67527676
_cell_length_c   18.17400360
_cell_angle_alpha   84.19669342
_cell_angle_beta   84.19669342
_cell_angle_gamma   59.99998474
_symmetry_Int_Tables_number   1
_chemical_formula_structural   Th
_chemical_formula_sum   Th6
_cell_volume   211.14498137
_cell_formula_units_Z   6
loop_
 _symmetry_equiv_pos_site_id
 _symmetry_equiv_pos_as_xyz
  1  'x, y, z'
loop_
 _atom_site_type_symbol
 _atom_site_label
 _atom_site_symmetry_multiplicity
 _atom_site_fract_x
 _atom_site_fract_y
 _atom_site_fract_z
 _atom_site_occupancy
  Th  Th0  1  0.38786801  0.38786801  0.83639603  1
  Th  Th1  1  0.88888301  0.88888302  0.33335101  1
  Th  Th2  1  0.11212400  0.11212400  0.66362802  1
  Th  Th3  1  0.61229101  0.61229101  0.16312700  1
  Th  Th4  1  0.99848201  0.99848202  0.00455399  1
  Th  Th5  1  0.50035201  0.50035201  0.49894401  1
