# generated using pymatgen
data_Ce5Ge2Pb
_symmetry_space_group_name_H-M   'P 1'
_cell_length_a   6.23000622
_cell_length_b   8.77726269
_cell_length_c   8.77726269
_cell_angle_alpha   119.66748810
_cell_angle_beta   90.00000000
_cell_angle_gamma   90.00000000
_symmetry_Int_Tables_number   1
_chemical_formula_structural   Ce5Ge2Pb
_chemical_formula_sum   'Ce10 Ge4 Pb2'
_cell_volume   417.04481511
_cell_formula_units_Z   2
loop_
 _symmetry_equiv_pos_site_id
 _symmetry_equiv_pos_as_xyz
  1  'x, y, z'
loop_
 _atom_site_type_symbol
 _atom_site_label
 _atom_site_symmetry_multiplicity
 _atom_site_fract_x
 _atom_site_fract_y
 _atom_site_fract_z
 _atom_site_occupancy
  Ce  Ce0  1  0.78146797  0.33695902  0.66540403  1
  Ce  Ce1  1  0.78146797  0.66540403  0.33695904  1
  Ce  Ce2  1  0.21853199  0.66540403  0.33695904  1
  Ce  Ce3  1  0.21853199  0.33695902  0.66540403  1
  Ce  Ce4  1  0.49999998  0.99282705  0.25946906  1
  Ce  Ce5  1  0.49999998  0.25946901  0.99282704  1
  Ce  Ce6  1  0.49999998  0.73759604  0.73759606  1
  Ce  Ce7  1  -0.00000000  0.00415200  0.74665602  1
  Ce  Ce8  1  -0.00000000  0.74665604  0.00415204  1
  Ce  Ce9  1  0.99999997  0.25444601  0.25444602  1
  Ge  Ge10  1  0.49999998  0.38184002  0.38184003  1
  Ge  Ge11  1  -0.00000000  0.00064700  0.38797601  1
  Ge  Ge12  1  -0.00000000  0.38797602  0.00064702  1
  Ge  Ge13  1  0.99999997  0.62173403  0.62173405  1
  Pb  Pb14  1  0.49999998  0.99773205  0.61145807  1
  Pb  Pb15  1  0.49999998  0.61145803  0.99773205  1
