# generated using pymatgen
data_Li2Hg
_symmetry_space_group_name_H-M   'P 1'
_cell_length_a   4.84906578
_cell_length_b   5.09188223
_cell_length_c   5.09188175
_cell_angle_alpha   120.00000000
_cell_angle_beta   90.00000000
_cell_angle_gamma   90.00000000
_symmetry_Int_Tables_number   1
_chemical_formula_structural   Li2Hg
_chemical_formula_sum   'Li4 Hg2'
_cell_volume   108.87931179
_cell_formula_units_Z   2
loop_
 _symmetry_equiv_pos_site_id
 _symmetry_equiv_pos_as_xyz
  1  'x, y, z'
loop_
 _atom_site_type_symbol
 _atom_site_label
 _atom_site_symmetry_multiplicity
 _atom_site_fract_x
 _atom_site_fract_y
 _atom_site_fract_z
 _atom_site_occupancy
  Li  Li0  1  0.50000002  0.00000000  -0.00000000  1
  Li  Li1  1  0.50000002  0.33333332  0.66666667  1
  Li  Li2  1  -0.00000000  0.66689996  0.66690000  1
  Li  Li3  1  -0.00000000  0.33309998  -0.00000001  1
  Hg  Hg4  1  0.00000000  0.00000000  0.33310001  1
  Hg  Hg5  1  0.50000002  0.66666663  0.33333333  1
