# generated using pymatgen
data_LiFeO2
_symmetry_space_group_name_H-M   'P 1'
_cell_length_a   5.91265249
_cell_length_b   5.91265249
_cell_length_c   6.03633261
_cell_angle_alpha   60.67550278
_cell_angle_beta   60.67550278
_cell_angle_gamma   59.99999619
_symmetry_Int_Tables_number   1
_chemical_formula_structural   LiFeO2
_chemical_formula_sum   'Li4 Fe4 O8'
_cell_volume   150.72401462
_cell_formula_units_Z   4
loop_
 _symmetry_equiv_pos_site_id
 _symmetry_equiv_pos_as_xyz
  1  'x, y, z'
loop_
 _atom_site_type_symbol
 _atom_site_label
 _atom_site_symmetry_multiplicity
 _atom_site_fract_x
 _atom_site_fract_y
 _atom_site_fract_z
 _atom_site_occupancy
  Li  Li0  1  0.49999997  0.49999998  0.00000003  1
  Li  Li1  1  0.49999998  0.00000000  0.00000001  1
  Li  Li2  1  -0.00000001  0.49999998  0.00000001  1
  Li  Li3  1  0.00000000  0.00000000  0.00000000  1
  Fe  Fe4  1  -0.00000001  0.49999998  0.50000003  1
  Fe  Fe5  1  0.00000000  0.00000000  0.50000001  1
  Fe  Fe6  1  0.49999998  0.00000000  0.50000002  1
  Fe  Fe7  1  0.49999997  0.49999998  0.50000004  1
  O  O8  1  0.76681096  0.24948299  0.73422304  1
  O  O9  1  0.75051696  0.75051698  0.26577705  1
  O  O10  1  0.24483099  0.24483099  0.26550702  1
  O  O11  1  0.24948297  0.76681097  0.73422305  1
  O  O12  1  0.75051697  0.23318899  0.26577703  1
  O  O13  1  0.24948299  0.24948299  0.73422303  1
  O  O14  1  0.23318898  0.75051698  0.26577703  1
  O  O15  1  0.75516895  0.75516898  0.73449306  1
