# generated using pymatgen
data_Dy2Sb
_symmetry_space_group_name_H-M   'P 1'
_cell_length_a   4.20736504
_cell_length_b   8.08909988
_cell_length_c   8.08909988
_cell_angle_alpha   120.00000000
_cell_angle_beta   90.00000000
_cell_angle_gamma   90.00000000
_symmetry_Int_Tables_number   1
_chemical_formula_structural   Dy2Sb
_chemical_formula_sum   'Dy6 Sb3'
_cell_volume   238.41919730
_cell_formula_units_Z   3
loop_
 _symmetry_equiv_pos_site_id
 _symmetry_equiv_pos_as_xyz
  1  'x, y, z'
loop_
 _atom_site_type_symbol
 _atom_site_label
 _atom_site_symmetry_multiplicity
 _atom_site_fract_x
 _atom_site_fract_y
 _atom_site_fract_z
 _atom_site_occupancy
  Dy  Dy0  1  0.50000000  0.76445901  0.76445900  1
  Dy  Dy1  1  0.50000000  1.00000001  0.23554099  1
  Dy  Dy2  1  0.50000000  0.23554100  -0.00000000  1
  Dy  Dy3  1  0.99999999  0.39833500  0.39833500  1
  Dy  Dy4  1  0.00000000  0.00000000  0.60166500  1
  Dy  Dy5  1  -0.00000000  0.60166501  -0.00000000  1
  Sb  Sb6  1  0.00000000  0.00000000  0.00000000  1
  Sb  Sb7  1  0.50000000  0.66666667  0.33333333  1
  Sb  Sb8  1  0.50000000  0.33333334  0.66666667  1
