# generated using pymatgen
data_HfCrNi
_symmetry_space_group_name_H-M   'P 1'
_cell_length_a   5.11728477
_cell_length_b   5.11728477
_cell_length_c   8.14449787
_cell_angle_alpha   90.00000000
_cell_angle_beta   90.00000000
_cell_angle_gamma   118.97292328
_symmetry_Int_Tables_number   1
_chemical_formula_structural   HfCrNi
_chemical_formula_sum   'Hf4 Cr4 Ni4'
_cell_volume   186.58487962
_cell_formula_units_Z   4
loop_
 _symmetry_equiv_pos_site_id
 _symmetry_equiv_pos_as_xyz
  1  'x, y, z'
loop_
 _atom_site_type_symbol
 _atom_site_label
 _atom_site_symmetry_multiplicity
 _atom_site_fract_x
 _atom_site_fract_y
 _atom_site_fract_z
 _atom_site_occupancy
  Hf  Hf0  1  0.33337796  0.66666665  0.70497901  1
  Hf  Hf1  1  0.67074898  0.32925099  0.82662901  1
  Hf  Hf2  1  0.67074898  0.32925099  0.17337100  1
  Hf  Hf3  1  0.33337796  0.66666665  0.29502100  1
  Cr  Cr4  1  0.99379099  0.00620900  0.76946401  1
  Cr  Cr5  1  0.99379099  0.00620900  0.23053600  1
  Cr  Cr6  1  0.83399596  0.65674998  0.50000001  1
  Cr  Cr7  1  0.34324999  0.16600400  0.50000001  1
  Ni  Ni8  1  0.83429899  0.16570100  0.50000001  1
  Ni  Ni9  1  0.17664098  0.35812999  -0.00000000  1
  Ni  Ni10  1  0.64186996  0.82335898  -0.00000000  1
  Ni  Ni11  1  0.17397896  0.82602098  1.00000002  1
