# generated using pymatgen
data_Mn4Ni9C7
_symmetry_space_group_name_H-M   'P 1'
_cell_length_a   3.03027606
_cell_length_b   5.75148487
_cell_length_c   11.50432110
_cell_angle_alpha   89.99192047
_cell_angle_beta   90.00000000
_cell_angle_gamma   90.00000000
_symmetry_Int_Tables_number   1
_chemical_formula_structural   Mn4Ni9C7
_chemical_formula_sum   'Mn4 Ni9 C7'
_cell_volume   200.50405816
_cell_formula_units_Z   1
loop_
 _symmetry_equiv_pos_site_id
 _symmetry_equiv_pos_as_xyz
  1  'x, y, z'
loop_
 _atom_site_type_symbol
 _atom_site_label
 _atom_site_symmetry_multiplicity
 _atom_site_fract_x
 _atom_site_fract_y
 _atom_site_fract_z
 _atom_site_occupancy
  Mn  Mn0  1  0.49999999  0.82712902  0.09079103  1
  Mn  Mn1  1  0.49999999  0.82215402  0.58838403  1
  Mn  Mn2  1  0.49999999  0.17287100  0.90920901  1
  Mn  Mn3  1  0.49999999  0.17784600  0.41161601  1
  Ni  Ni4  1  0.49999999  0.68010702  0.83626102  1
  Ni  Ni5  1  0.49999999  0.67818602  0.33902002  1
  Ni  Ni6  1  0.49999999  0.31989301  0.16373901  1
  Ni  Ni7  1  0.49999999  0.32181401  0.66098001  1
  Ni  Ni8  1  -0.00000000  0.50000001  0.50000002  1
  Ni  Ni9  1  -0.00000000  0.00025800  0.74880400  1
  Ni  Ni10  1  -0.00000000  0.99974202  0.25119603  1
  Ni  Ni11  1  -0.00000000  0.50000001  0.00000002  1
  Ni  Ni12  1  -0.00000000  0.38834901  0.80452601  1
  C  C13  1  -0.00000000  0.38844101  0.30671901  1
  C  C14  1  -0.00000000  0.61165101  0.19547402  1
  C  C15  1  -0.00000000  0.61155901  0.69328102  1
  C  C16  1  -0.00000000  0.11106400  0.05610600  1
  C  C17  1  -0.00000000  0.11097700  0.55538900  1
  C  C18  1  -0.00000000  0.88893602  0.94389403  1
  C  C19  1  -0.00000000  0.88902302  0.44461103  1
