# generated using pymatgen
data_SrCa3(GeO3)4
_symmetry_space_group_name_H-M   'P 1'
_cell_length_a   6.28517866
_cell_length_b   7.45025063
_cell_length_c   7.45025063
_cell_angle_alpha   83.94091034
_cell_angle_beta   74.40222931
_cell_angle_gamma   74.40222931
_symmetry_Int_Tables_number   1
_chemical_formula_structural   SrCa3(GeO3)4
_chemical_formula_sum   'Sr1 Ca3 Ge4 O12'
_cell_volume   323.43631962
_cell_formula_units_Z   1
loop_
 _symmetry_equiv_pos_site_id
 _symmetry_equiv_pos_as_xyz
  1  'x, y, z'
loop_
 _atom_site_type_symbol
 _atom_site_label
 _atom_site_symmetry_multiplicity
 _atom_site_fract_x
 _atom_site_fract_y
 _atom_site_fract_z
 _atom_site_occupancy
  Sr  Sr0  1  0.25000004  0.91196998  0.08802999  1
  Ca  Ca1  1  0.25000001  0.29463999  0.70535999  1
  Ca  Ca2  1  0.75000000  0.08803000  0.91197001  1
  Ca  Ca3  1  0.75000003  0.70535998  0.29464001  1
  Ge  Ge4  1  0.72671001  0.20324999  0.37793001  1
  Ge  Ge5  1  0.77329003  0.62206998  0.79675000  1
  Ge  Ge6  1  0.27329004  0.79674998  0.62206999  1
  Ge  Ge7  1  0.22671002  0.37792999  0.20325000  1
  O  O8  1  0.06305003  0.64486998  0.65750998  1
  O  O9  1  0.66243003  0.77362998  0.98902999  1
  O  O10  1  0.83757000  0.01097000  0.22637002  1
  O  O11  1  0.16243004  0.98902997  0.77362998  1
  O  O12  1  0.93695002  0.35512999  0.34249002  1
  O  O13  1  0.17065003  0.61133998  0.12200000  1
  O  O14  1  0.82935002  0.38865999  0.87800001  1
  O  O15  1  0.33757001  0.22636999  0.01097001  1
  O  O16  1  0.67065001  0.12200000  0.61134001  1
  O  O17  1  0.43695002  0.34248999  0.35513000  1
  O  O18  1  0.32935004  0.87799998  0.38865999  1
  O  O19  1  0.56305003  0.65750998  0.64487000  1
