# generated using pymatgen
data_NaUO3
_symmetry_space_group_name_H-M   'P 1'
_cell_length_a   5.99150801
_cell_length_b   6.07880878
_cell_length_c   5.99150801
_cell_angle_alpha   119.52605438
_cell_angle_beta   90.00000000
_cell_angle_gamma   119.52605438
_symmetry_Int_Tables_number   1
_chemical_formula_structural   NaUO3
_chemical_formula_sum   'Na2 U2 O6'
_cell_volume   156.48813801
_cell_formula_units_Z   2
loop_
 _symmetry_equiv_pos_site_id
 _symmetry_equiv_pos_as_xyz
  1  'x, y, z'
loop_
 _atom_site_type_symbol
 _atom_site_label
 _atom_site_symmetry_multiplicity
 _atom_site_fract_x
 _atom_site_fract_y
 _atom_site_fract_z
 _atom_site_occupancy
  Na  Na0  1  0.00000000  0.00000000  0.00000000  1
  Na  Na1  1  0.50000000  0.00000000  0.50000000  1
  U  U2  1  0.25000005  0.50000006  0.75000005  1
  U  U3  1  0.75000005  0.50000006  0.25000005  1
  O  O4  1  0.54214604  0.46562105  0.54214604  1
  O  O5  1  0.92347504  0.46562105  0.92347504  1
  O  O6  1  0.45785405  0.53437906  0.07652505  1
  O  O7  1  0.07652505  0.53437906  0.45785405  1
  O  O8  1  0.50000000  0.00000000  0.00000000  1
  O  O9  1  1.00000010  1.00000012  0.50000010  1
