# generated using pymatgen
data_ZrReCN
_symmetry_space_group_name_H-M   'P 1'
_cell_length_a   3.03736162
_cell_length_b   3.03736162
_cell_length_c   5.76507759
_cell_angle_alpha   74.72647095
_cell_angle_beta   74.72647095
_cell_angle_gamma   60.00000763
_symmetry_Int_Tables_number   1
_chemical_formula_structural   ZrReCN
_chemical_formula_sum   'Zr1 Re1 C1 N1'
_cell_volume   43.87792490
_cell_formula_units_Z   1
loop_
 _symmetry_equiv_pos_site_id
 _symmetry_equiv_pos_as_xyz
  1  'x, y, z'
loop_
 _atom_site_type_symbol
 _atom_site_label
 _atom_site_symmetry_multiplicity
 _atom_site_fract_x
 _atom_site_fract_y
 _atom_site_fract_z
 _atom_site_occupancy
  Zr  Zr0  1  0.00000000  0.00000000  0.00000000  1
  Re  Re1  1  0.49999997  0.50000000  0.50000001  1
  C  C2  1  0.76481396  0.76481400  0.70555801  1
  N  N3  1  0.23518599  0.23518600  0.29444201  1
