# generated using pymatgen
data_YbB2Rh2C
_symmetry_space_group_name_H-M   'P 1'
_cell_length_a   3.90447402
_cell_length_b   3.90447402
_cell_length_c   5.86971855
_cell_angle_alpha   109.42633820
_cell_angle_beta   109.42633820
_cell_angle_gamma   90.00000000
_symmetry_Int_Tables_number   1
_chemical_formula_structural   YbB2Rh2C
_chemical_formula_sum   'Yb1 B2 Rh2 C1'
_cell_volume   78.96681161
_cell_formula_units_Z   1
loop_
 _symmetry_equiv_pos_site_id
 _symmetry_equiv_pos_as_xyz
  1  'x, y, z'
loop_
 _atom_site_type_symbol
 _atom_site_label
 _atom_site_symmetry_multiplicity
 _atom_site_fract_x
 _atom_site_fract_y
 _atom_site_fract_z
 _atom_site_occupancy
  Yb  Yb0  1  0.00000000  0.00000000  0.00000000  1
  B  B1  1  0.35502901  0.35502900  0.71005800  1
  B  B2  1  0.64497102  0.64497100  0.28994203  1
  Rh  Rh3  1  0.25000002  0.75000001  0.50000002  1
  Rh  Rh4  1  0.75000001  0.25000000  0.50000001  1
  C  C5  1  0.50000001  0.50000000  0.00000002  1
