# generated using pymatgen
data_CeMg2InGe
_symmetry_space_group_name_H-M   'P 1'
_cell_length_a   4.52589178
_cell_length_b   4.52589226
_cell_length_c   7.49663496
_cell_angle_alpha   90.00000000
_cell_angle_beta   90.00000000
_cell_angle_gamma   120.00000000
_symmetry_Int_Tables_number   1
_chemical_formula_structural   CeMg2InGe
_chemical_formula_sum   'Ce1 Mg2 In1 Ge1'
_cell_volume   132.98583114
_cell_formula_units_Z   1
loop_
 _symmetry_equiv_pos_site_id
 _symmetry_equiv_pos_as_xyz
  1  'x, y, z'
loop_
 _atom_site_type_symbol
 _atom_site_label
 _atom_site_symmetry_multiplicity
 _atom_site_fract_x
 _atom_site_fract_y
 _atom_site_fract_z
 _atom_site_occupancy
  Ce  Ce0  1  0.00000000  0.00000000  0.00000000  1
  Mg  Mg1  1  0.66666672  0.33333336  0.36751100  1
  Mg  Mg2  1  0.33333340  0.66666672  0.63248900  1
  In  In3  1  0.33333340  0.66666672  0.24958200  1
  Ge  Ge4  1  0.66666672  0.33333336  0.75041800  1
