# generated using pymatgen
data_Bi(Sb4Pt)3
_symmetry_space_group_name_H-M   'P 1'
_cell_length_a   5.71206379
_cell_length_b   5.71206331
_cell_length_c   9.35975266
_cell_angle_alpha   90.00000000
_cell_angle_beta   90.00000000
_cell_angle_gamma   120.00000000
_symmetry_Int_Tables_number   1
_chemical_formula_structural   Bi(Sb4Pt)3
_chemical_formula_sum   'Bi1 Sb12 Pt3'
_cell_volume   264.47283157
_cell_formula_units_Z   1
loop_
 _symmetry_equiv_pos_site_id
 _symmetry_equiv_pos_as_xyz
  1  'x, y, z'
loop_
 _atom_site_type_symbol
 _atom_site_label
 _atom_site_symmetry_multiplicity
 _atom_site_fract_x
 _atom_site_fract_y
 _atom_site_fract_z
 _atom_site_occupancy
  Bi  Bi0  1  0.00000000  0.00000000  0.50000002  1
  Sb  Sb1  1  0.00000000  0.00000000  0.00000000  1
  Sb  Sb2  1  0.66666667  0.33333334  0.75000003  1
  Sb  Sb3  1  0.33333331  0.66666668  0.25000001  1
  Sb  Sb4  1  0.50000002  0.00000000  0.50000002  1
  Sb  Sb5  1  0.49999999  0.50000001  0.50000002  1
  Sb  Sb6  1  -0.00000003  0.50000001  0.50000002  1
  Pt  Pt7  1  0.50000002  0.00000000  0.00000000  1
  Pt  Pt8  1  0.49999999  0.50000001  1.00000004  1
  Pt  Pt9  1  -0.00000003  0.50000001  -0.00000000  1
  Sb  Sb10  1  0.16966999  0.33934000  0.75000003  1
  Sb  Sb11  1  0.16966996  0.83032901  0.75000003  1
  Sb  Sb12  1  0.66065898  0.83032901  0.75000003  1
  Sb  Sb13  1  0.83033000  0.66066001  0.25000001  1
  Sb  Sb14  1  0.83033002  0.16967100  0.25000001  1
  Sb  Sb15  1  0.33934100  0.16967100  0.25000001  1
