# generated using pymatgen
data_EuFeO3
_symmetry_space_group_name_H-M   'P 1'
_cell_length_a   3.53527093
_cell_length_b   4.29575682
_cell_length_c   8.84143257
_cell_angle_alpha   90.00000000
_cell_angle_beta   90.00000000
_cell_angle_gamma   90.00000000
_symmetry_Int_Tables_number   1
_chemical_formula_structural   EuFeO3
_chemical_formula_sum   'Eu2 Fe2 O6'
_cell_volume   134.27186746
_cell_formula_units_Z   2
loop_
 _symmetry_equiv_pos_site_id
 _symmetry_equiv_pos_as_xyz
  1  'x, y, z'
loop_
 _atom_site_type_symbol
 _atom_site_label
 _atom_site_symmetry_multiplicity
 _atom_site_fract_x
 _atom_site_fract_y
 _atom_site_fract_z
 _atom_site_occupancy
  Eu  Eu0  1  0.50000001  0.50000002  0.81560704  1
  Eu  Eu1  1  0.50000001  0.00000000  0.19103801  1
  Fe  Fe2  1  0.00000000  0.00000000  0.61205103  1
  Fe  Fe3  1  0.00000000  0.50000002  0.40453402  1
  O  O4  1  0.00000000  0.00000000  0.39092302  1
  O  O5  1  0.50000001  0.50000002  0.31468102  1
  O  O6  1  0.00000000  0.64312703  0.02431800  1
  O  O7  1  0.00000000  0.50000002  0.62417403  1
  O  O8  1  0.50000001  0.00000000  0.70308703  1
  O  O9  1  0.00000000  0.35687302  0.02431800  1
