# generated using pymatgen
data_HoGeAu
_symmetry_space_group_name_H-M   'P 1'
_cell_length_a   4.52306986
_cell_length_b   4.52306938
_cell_length_c   7.30075693
_cell_angle_alpha   90.00000000
_cell_angle_beta   90.00000000
_cell_angle_gamma   120.00000000
_symmetry_Int_Tables_number   1
_chemical_formula_structural   HoGeAu
_chemical_formula_sum   'Ho2 Ge2 Au2'
_cell_volume   129.34959291
_cell_formula_units_Z   2
loop_
 _symmetry_equiv_pos_site_id
 _symmetry_equiv_pos_as_xyz
  1  'x, y, z'
loop_
 _atom_site_type_symbol
 _atom_site_label
 _atom_site_symmetry_multiplicity
 _atom_site_fract_x
 _atom_site_fract_y
 _atom_site_fract_z
 _atom_site_occupancy
  Ho  Ho0  1  0.00000000  0.00000000  0.50000000  1
  Ho  Ho1  1  0.00000000  0.00000000  0.00000000  1
  Ge  Ge2  1  0.66666667  0.33333333  0.75000001  1
  Ge  Ge3  1  0.33333330  0.66666667  0.25000000  1
  Au  Au4  1  0.66666667  0.33333333  0.25000000  1
  Au  Au5  1  0.33333330  0.66666667  0.75000001  1
