# generated using pymatgen
data_BaGeS3
_symmetry_space_group_name_H-M   'P 1'
_cell_length_a   6.83732557
_cell_length_b   8.79610825
_cell_length_c   8.81395435
_cell_angle_alpha   79.63771820
_cell_angle_beta   67.17801666
_cell_angle_gamma   67.12908936
_symmetry_Int_Tables_number   1
_chemical_formula_structural   BaGeS3
_chemical_formula_sum   'Ba4 Ge4 S12'
_cell_volume   449.91305317
_cell_formula_units_Z   4
loop_
 _symmetry_equiv_pos_site_id
 _symmetry_equiv_pos_as_xyz
  1  'x, y, z'
loop_
 _atom_site_type_symbol
 _atom_site_label
 _atom_site_symmetry_multiplicity
 _atom_site_fract_x
 _atom_site_fract_y
 _atom_site_fract_z
 _atom_site_occupancy
  Ba  Ba0  1  0.33603104  0.53958302  0.78835398  1
  Ba  Ba1  1  0.66303207  0.95887703  0.71505997  1
  Ba  Ba2  1  0.33308301  0.03766400  0.29616900  1
  Ba  Ba3  1  0.65722904  0.46729102  0.21824999  1
  Ge  Ge4  1  0.97359307  0.78461903  0.26819598  1
  Ge  Ge5  1  0.02232103  0.48281202  0.47254698  1
  Ge  Ge6  1  0.97323504  0.27509401  0.77843700  1
  Ge  Ge7  1  0.01893306  0.98377903  0.97835496  1
  S  S8  1  0.82803702  0.05554900  0.28837701  1
  S  S9  1  0.16697203  0.46159102  0.20446398  1
  S  S10  1  0.82601605  0.54605002  0.80191799  1
  S  S11  1  0.16595906  0.96131603  0.70676596  1
  S  S12  1  0.31869305  0.79072303  0.05251597  1
  S  S13  1  0.83806707  0.79072303  0.05251597  1
  S  S14  1  0.67741406  0.70486002  0.46439398  1
  S  S15  1  0.15333204  0.70486002  0.46439397  1
  S  S16  1  0.31676202  0.29126701  0.55227999  1
  S  S17  1  0.83969104  0.29126701  0.55228000  1
  S  S18  1  0.67380103  0.20148701  0.96251300  1
  S  S19  1  0.16219902  0.20148701  0.96251300  1
