# generated using pymatgen
data_Zr2RuS6
_symmetry_space_group_name_H-M   'P 1'
_cell_length_a   7.58253670
_cell_length_b   7.58253670
_cell_length_c   7.96726751
_cell_angle_alpha   100.39141846
_cell_angle_beta   113.59951019
_cell_angle_gamma   112.94343567
_symmetry_Int_Tables_number   1
_chemical_formula_structural   Zr2RuS6
_chemical_formula_sum   'Zr4 Ru2 S12'
_cell_volume   354.50931942
_cell_formula_units_Z   2
loop_
 _symmetry_equiv_pos_site_id
 _symmetry_equiv_pos_as_xyz
  1  'x, y, z'
loop_
 _atom_site_type_symbol
 _atom_site_label
 _atom_site_symmetry_multiplicity
 _atom_site_fract_x
 _atom_site_fract_y
 _atom_site_fract_z
 _atom_site_occupancy
  Zr  Zr0  1  0.10518902  0.35518900  0.75000002  1
  Zr  Zr1  1  0.89481101  0.64481101  0.25000004  1
  Zr  Zr2  1  0.51487204  0.84400401  0.30682506  1
  Zr  Zr3  1  0.03717901  0.20804700  0.19317501  1
  Ru  Ru4  1  0.48512799  0.15599600  0.69317501  1
  Ru  Ru5  1  0.96282102  0.79195301  0.80682505  1
  S  S6  1  0.35053204  0.75929701  0.42389405  1
  S  S7  1  0.83540303  0.92663801  0.07610606  1
  S  S8  1  0.64946799  0.24070300  0.57610601  1
  S  S9  1  0.16459700  0.07336200  0.92389400  1
  S  S10  1  0.45150402  0.59374100  0.14925304  1
  S  S11  1  0.94448799  0.30225100  0.35074702  1
  S  S12  1  0.09304104  0.71634501  0.00829705  1
  S  S13  1  0.20804800  0.08474400  0.49170300  1
  S  S14  1  0.90695899  0.28365500  0.99170301  1
  S  S15  1  0.79195203  0.91525601  0.50829706  1
  S  S16  1  0.05551204  0.69774901  0.64925305  1
  S  S17  1  0.54849601  0.40625900  0.85074702  1
