# generated using pymatgen
data_Sr4Re4(NO3)3
_symmetry_space_group_name_H-M   'P 1'
_cell_length_a   5.56376696
_cell_length_b   5.57518387
_cell_length_c   8.06911850
_cell_angle_alpha   89.91099548
_cell_angle_beta   90.00000000
_cell_angle_gamma   90.00000000
_symmetry_Int_Tables_number   1
_chemical_formula_structural   Sr4Re4(NO3)3
_chemical_formula_sum   'Sr4 Re4 N3 O9'
_cell_volume   250.29587665
_cell_formula_units_Z   1
loop_
 _symmetry_equiv_pos_site_id
 _symmetry_equiv_pos_as_xyz
  1  'x, y, z'
loop_
 _atom_site_type_symbol
 _atom_site_label
 _atom_site_symmetry_multiplicity
 _atom_site_fract_x
 _atom_site_fract_y
 _atom_site_fract_z
 _atom_site_occupancy
  Sr  Sr0  1  0.00648000  0.74851702  0.24202602  1
  Sr  Sr1  1  0.00443200  0.75538202  0.75767304  1
  Sr  Sr2  1  0.50648000  0.25148301  0.75797403  1
  Sr  Sr3  1  0.50443200  0.24461801  0.24232701  1
  Re  Re4  1  0.00734600  0.26457701  0.00254301  1
  Re  Re5  1  0.00367000  0.24738701  0.48502502  1
  Re  Re6  1  0.50734600  0.73542302  0.99745705  1
  Re  Re7  1  0.50367000  0.75261302  0.51497503  1
  N  N8  1  0.79629401  0.55114001  0.99995104  1
  N  N9  1  0.00074800  0.24156601  0.25328501  1
  N  N10  1  0.29629400  0.44886001  0.00004901  1
  O  O11  1  0.50074800  0.75843402  0.74671504  1
  O  O12  1  0.69650001  0.44531201  0.49905002  1
  O  O13  1  0.67944001  0.06014000  0.99982803  1
  O  O14  1  0.80920401  0.94128002  0.49845504  1
  O  O15  1  0.99594401  0.23103201  0.74922403  1
  O  O16  1  0.19650000  0.55468801  0.50095003  1
  O  O17  1  0.17944000  0.93986002  0.00017202  1
  O  O18  1  0.30920400  0.05872000  0.50154502  1
  O  O19  1  0.49594400  0.76896802  0.25077602  1
