# generated using pymatgen
data_Zr9Pd11
_symmetry_space_group_name_H-M   'P 1'
_cell_length_a   4.20775700
_cell_length_b   4.20775700
_cell_length_c   21.10191536
_cell_angle_alpha   90.00000000
_cell_angle_beta   90.00000000
_cell_angle_gamma   90.00000000
_symmetry_Int_Tables_number   1
_chemical_formula_structural   Zr9Pd11
_chemical_formula_sum   'Zr9 Pd11'
_cell_volume   373.61403147
_cell_formula_units_Z   1
loop_
 _symmetry_equiv_pos_site_id
 _symmetry_equiv_pos_as_xyz
  1  'x, y, z'
loop_
 _atom_site_type_symbol
 _atom_site_label
 _atom_site_symmetry_multiplicity
 _atom_site_fract_x
 _atom_site_fract_y
 _atom_site_fract_z
 _atom_site_occupancy
  Zr  Zr0  1  0.00000000  0.00000000  0.19781301  1
  Zr  Zr1  1  0.00000000  0.00000000  0.39962201  1
  Zr  Zr2  1  0.00000000  0.00000000  0.60037802  1
  Zr  Zr3  1  0.00000000  0.00000000  0.80218702  1
  Zr  Zr4  1  0.00000000  0.00000000  0.00000000  1
  Zr  Zr5  1  0.50000000  0.50000000  0.00000000  1
  Pd  Pd6  1  0.50000000  0.50000000  0.19837701  1
  Zr  Zr7  1  0.50000000  0.50000000  0.39949001  1
  Zr  Zr8  1  0.50000000  0.50000000  0.60051002  1
  Zr  Zr9  1  0.50000000  0.50000000  0.80162302  1
  Pd  Pd10  1  0.50000000  0.00000000  0.09656200  1
  Pd  Pd11  1  0.50000000  0.00000000  0.29915701  1
  Pd  Pd12  1  0.50000000  0.00000000  0.50000002  1
  Pd  Pd13  1  0.50000000  0.00000000  0.70084302  1
  Pd  Pd14  1  0.50000000  0.00000000  0.90343803  1
  Pd  Pd15  1  0.00000000  0.50000000  0.09656200  1
  Pd  Pd16  1  0.00000000  0.50000000  0.29915701  1
  Pd  Pd17  1  0.00000000  0.50000000  0.50000002  1
  Pd  Pd18  1  0.00000000  0.50000000  0.70084302  1
  Pd  Pd19  1  0.00000000  0.50000000  0.90343803  1
