# generated using pymatgen
data_Ba4CuSb(SO2)4
_symmetry_space_group_name_H-M   'P 1'
_cell_length_a   6.26642799
_cell_length_b   6.26642704
_cell_length_c   11.40059471
_cell_angle_alpha   90.00000000
_cell_angle_beta   90.00000000
_cell_angle_gamma   120.00000763
_symmetry_Int_Tables_number   1
_chemical_formula_structural   Ba4CuSb(SO2)4
_chemical_formula_sum   'Ba4 Cu1 Sb1 S4 O8'
_cell_volume   387.70209375
_cell_formula_units_Z   1
loop_
 _symmetry_equiv_pos_site_id
 _symmetry_equiv_pos_as_xyz
  1  'x, y, z'
loop_
 _atom_site_type_symbol
 _atom_site_label
 _atom_site_symmetry_multiplicity
 _atom_site_fract_x
 _atom_site_fract_y
 _atom_site_fract_z
 _atom_site_occupancy
  Ba  Ba0  1  0.33333338  0.66666672  0.29392801  1
  Ba  Ba1  1  0.62341205  0.62341205  0.20309701  1
  Ba  Ba2  1  0.37658808  1.00000007  0.79690302  1
  Ba  Ba3  1  0.00000003  0.37658803  0.79690302  1
  Cu  Cu4  1  0.00000003  0.37658803  0.20309701  1
  Sb  Sb5  1  0.37658808  1.00000007  0.20309701  1
  S  S6  1  0.62341205  0.62341205  0.79690302  1
  S  S7  1  0.66666669  0.33333336  0.70607202  1
  S  S8  1  0.66666669  0.33333336  0.29392801  1
  S  S9  1  0.33333338  0.66666672  0.70607202  1
  O  O10  1  0.66666669  0.33333336  0.50000001  1
  O  O11  1  0.00000000  0.00000000  0.76921902  1
  O  O12  1  0.33333338  0.66666672  0.50000001  1
  O  O13  1  0.00000000  0.00000000  0.23078101  1
  O  O14  1  0.00000003  0.45448803  1.00000003  1
  O  O15  1  0.45448800  0.00000000  0.00000000  1
  O  O16  1  0.54551204  0.54551204  -0.00000000  1
  O  O17  1  0.00000000  0.00000000  0.50000001  1
