# generated using pymatgen
data_Ce5Ru2
_symmetry_space_group_name_H-M   'P 1'
_cell_length_a   6.76026392
_cell_length_b   7.37621737
_cell_length_c   9.07190228
_cell_angle_alpha   96.43036652
_cell_angle_beta   111.87565613
_cell_angle_gamma   90.00000000
_symmetry_Int_Tables_number   1
_chemical_formula_structural   Ce5Ru2
_chemical_formula_sum   'Ce10 Ru4'
_cell_volume   416.73039557
_cell_formula_units_Z   2
loop_
 _symmetry_equiv_pos_site_id
 _symmetry_equiv_pos_as_xyz
  1  'x, y, z'
loop_
 _atom_site_type_symbol
 _atom_site_label
 _atom_site_symmetry_multiplicity
 _atom_site_fract_x
 _atom_site_fract_y
 _atom_site_fract_z
 _atom_site_occupancy
  Ce  Ce0  1  0.20289303  0.91983200  0.18484005  1
  Ce  Ce1  1  0.01805301  0.58016800  0.81516005  1
  Ce  Ce2  1  0.79710702  0.08016800  0.81516004  1
  Ce  Ce3  1  0.98194703  0.41983200  0.18484004  1
  Ce  Ce4  1  0.78480704  0.81584500  0.43522706  1
  Ce  Ce5  1  0.34958002  0.68415500  0.56477305  1
  Ce  Ce6  1  0.21519301  0.18415500  0.56477302  1
  Ce  Ce7  1  0.65042002  0.31584500  0.43522703  1
  Ce  Ce8  1  0.56784203  0.75000000  0.00000004  1
  Ce  Ce9  1  0.43215801  0.25000000  0.00000002  1
  Ru  Ru10  1  0.40155802  0.57393300  0.22248504  1
  Ru  Ru11  1  0.17907303  0.92606700  0.77751506  1
  Ru  Ru12  1  0.59844202  0.42606700  0.77751505  1
  Ru  Ru13  1  0.82092702  0.07393300  0.22248502  1
