# generated using pymatgen
data_SrLiVFe3O7
_symmetry_space_group_name_H-M   'P 1'
_cell_length_a   6.39527702
_cell_length_b   6.39527702
_cell_length_c   6.39527702
_cell_angle_alpha   91.60964203
_cell_angle_beta   119.07506561
_cell_angle_gamma   119.07506561
_symmetry_Int_Tables_number   1
_chemical_formula_structural   SrLiVFe3O7
_chemical_formula_sum   'Sr1 Li1 V1 Fe3 O7'
_cell_volume   187.45939500
_cell_formula_units_Z   1
loop_
 _symmetry_equiv_pos_site_id
 _symmetry_equiv_pos_as_xyz
  1  'x, y, z'
loop_
 _atom_site_type_symbol
 _atom_site_label
 _atom_site_symmetry_multiplicity
 _atom_site_fract_x
 _atom_site_fract_y
 _atom_site_fract_z
 _atom_site_occupancy
  Sr  Sr0  1  0.50000000  0.25000000  0.74999999  1
  Li  Li1  1  0.00000000  0.00000000  0.00000000  1
  Fe  Fe2  1  0.73575199  0.14182800  0.35823500  1
  Fe  Fe3  1  0.26424801  0.62248299  0.40607599  1
  Fe  Fe4  1  0.78359300  0.64176499  0.37751700  1
  V  V5  1  0.21640701  0.59392399  0.85817198  1
  O  O6  1  0.07644402  0.81609798  0.29941299  1
  O  O7  1  0.92355599  0.22296800  0.73965299  1
  O  O8  1  0.51668501  0.70058799  0.77703099  1
  O  O9  1  0.48331500  0.26034600  0.18390300  1
  O  O10  1  0.00000002  0.74840499  0.74840498  1
  O  O11  1  0.00000001  0.25159500  0.25159499  1
  O  O12  1  0.50000001  0.74999999  0.25000000  1
