# generated using pymatgen
data_Li2Mn4O7
_symmetry_space_group_name_H-M   'P 1'
_cell_length_a   5.44892406
_cell_length_b   5.77589369
_cell_length_c   6.04605389
_cell_angle_alpha   62.05737686
_cell_angle_beta   68.02274323
_cell_angle_gamma   68.04274750
_symmetry_Int_Tables_number   1
_chemical_formula_structural   Li2Mn4O7
_chemical_formula_sum   'Li2 Mn4 O7'
_cell_volume   151.23692580
_cell_formula_units_Z   1
loop_
 _symmetry_equiv_pos_site_id
 _symmetry_equiv_pos_as_xyz
  1  'x, y, z'
loop_
 _atom_site_type_symbol
 _atom_site_label
 _atom_site_symmetry_multiplicity
 _atom_site_fract_x
 _atom_site_fract_y
 _atom_site_fract_z
 _atom_site_occupancy
  Li  Li0  1  0.94132009  0.93555696  0.04009295  1
  Li  Li1  1  0.11317702  0.18721599  0.48492701  1
  Mn  Mn2  1  0.90667408  0.82049196  0.53642697  1
  Mn  Mn3  1  0.52892505  0.51066798  0.23952298  1
  Mn  Mn4  1  0.47369705  0.49590698  0.75423400  1
  Mn  Mn5  1  0.33446103  0.34230398  0.60624900  1
  O  O6  1  0.34439803  0.33805898  0.15703999  1
  O  O7  1  0.79320203  0.21505199  0.76304698  1
  O  O8  1  0.82530803  0.19559999  0.28357696  1
  O  O9  1  0.16739607  0.80028196  0.72078602  1
  O  O10  1  0.21229507  0.80180496  0.22810500  1
  O  O11  1  0.65403207  0.66855797  0.85394099  1
  O  O12  1  0.70529207  0.68832197  0.33205097  1
