# generated using pymatgen
data_Na2Tc(CN)6
_symmetry_space_group_name_H-M   'P 1'
_cell_length_a   6.45403194
_cell_length_b   6.45403147
_cell_length_c   6.63649988
_cell_angle_alpha   90.00000000
_cell_angle_beta   90.00000000
_cell_angle_gamma   120.00000000
_symmetry_Int_Tables_number   1
_chemical_formula_structural   Na2Tc(CN)6
_chemical_formula_sum   'Na2 Tc1 C6 N6'
_cell_volume   239.40428083
_cell_formula_units_Z   1
loop_
 _symmetry_equiv_pos_site_id
 _symmetry_equiv_pos_as_xyz
  1  'x, y, z'
loop_
 _atom_site_type_symbol
 _atom_site_label
 _atom_site_symmetry_multiplicity
 _atom_site_fract_x
 _atom_site_fract_y
 _atom_site_fract_z
 _atom_site_occupancy
  Na  Na0  1  0.66666665  0.33333332  0.50000001  1
  Na  Na1  1  0.33333330  0.66666664  0.50000001  1
  Tc  Tc2  1  0.00000000  0.00000000  0.00000000  1
  C  C3  1  -0.00000005  0.75205297  0.18414800  1
  C  C4  1  0.75205301  0.00000000  0.18414800  1
  C  C5  1  0.24794699  0.24794699  0.18414800  1
  C  C6  1  0.75205296  0.75205297  0.81585201  1
  C  C7  1  0.24794700  0.00000000  0.81585201  1
  C  C8  1  -0.00000001  0.24794699  0.81585201  1
  N  N9  1  0.38487900  0.00000000  0.69673501  1
  N  N10  1  -0.00000002  0.38487899  0.69673501  1
  N  N11  1  0.38487898  0.38487899  0.30326501  1
  N  N12  1  0.61512097  0.61512098  0.69673501  1
  N  N13  1  -0.00000004  0.61512098  0.30326501  1
  N  N14  1  0.61512095  0.99999996  0.30326501  1
