# generated using pymatgen
data_TiCo2
_symmetry_space_group_name_H-M   'P 1'
_cell_length_a   4.73255920
_cell_length_b   4.73747730
_cell_length_c   6.57127714
_cell_angle_alpha   90.18921661
_cell_angle_beta   90.38062286
_cell_angle_gamma   60.03170776
_symmetry_Int_Tables_number   1
_chemical_formula_structural   TiCo2
_chemical_formula_sum   'Ti3 Co6'
_cell_volume   127.62998038
_cell_formula_units_Z   3
loop_
 _symmetry_equiv_pos_site_id
 _symmetry_equiv_pos_as_xyz
  1  'x, y, z'
loop_
 _atom_site_type_symbol
 _atom_site_label
 _atom_site_symmetry_multiplicity
 _atom_site_fract_x
 _atom_site_fract_y
 _atom_site_fract_z
 _atom_site_occupancy
  Ti  Ti0  1  0.33069702  0.83221503  0.67020196  1
  Ti  Ti1  1  0.83708104  0.83223203  0.99645895  1
  Ti  Ti2  1  0.84037704  0.31911801  0.33333331  1
  Co  Co3  1  0.67569103  0.16558301  0.66516898  1
  Co  Co4  1  0.15868001  0.16574101  0.00149499  1
  Co  Co5  1  0.15963301  0.68075703  0.33333330  1
  Co  Co6  1  0.00261500  0.49414902  0.65764097  1
  Co  Co7  1  0.50315903  0.49415302  0.00900097  1
  Co  Co8  1  0.49646702  0.00705300  0.33333333  1
