# generated using pymatgen
data_BaYO3
_symmetry_space_group_name_H-M   'P 1'
_cell_length_a   3.86833596
_cell_length_b   3.86833596
_cell_length_c   7.29775000
_cell_angle_alpha   105.36910248
_cell_angle_beta   105.36910248
_cell_angle_gamma   90.00000000
_symmetry_Int_Tables_number   1
_chemical_formula_structural   BaYO3
_chemical_formula_sum   'Ba1 Y1 O3'
_cell_volume   101.24258735
_cell_formula_units_Z   1
loop_
 _symmetry_equiv_pos_site_id
 _symmetry_equiv_pos_as_xyz
  1  'x, y, z'
loop_
 _atom_site_type_symbol
 _atom_site_label
 _atom_site_symmetry_multiplicity
 _atom_site_fract_x
 _atom_site_fract_y
 _atom_site_fract_z
 _atom_site_occupancy
  Ba  Ba0  1  0.66904599  0.66904600  0.33809197  1
  Y  Y1  1  0.33095399  0.33095400  0.66190798  1
  O  O2  1  0.00000000  0.00000000  0.00000000  1
  O  O3  1  0.75000000  0.25000000  0.49999998  1
  O  O4  1  0.24999998  0.75000000  0.49999998  1
