# generated using pymatgen
data_Zr2S3
_symmetry_space_group_name_H-M   'P 1'
_cell_length_a   5.77401590
_cell_length_b   5.77401590
_cell_length_c   14.32659626
_cell_angle_alpha   101.62550354
_cell_angle_beta   101.62550354
_cell_angle_gamma   90.00000000
_symmetry_Int_Tables_number   1
_chemical_formula_structural   Zr2S3
_chemical_formula_sum   'Zr8 S12'
_cell_volume   457.83158399
_cell_formula_units_Z   4
loop_
 _symmetry_equiv_pos_site_id
 _symmetry_equiv_pos_as_xyz
  1  'x, y, z'
loop_
 _atom_site_type_symbol
 _atom_site_label
 _atom_site_symmetry_multiplicity
 _atom_site_fract_x
 _atom_site_fract_y
 _atom_site_fract_z
 _atom_site_occupancy
  Zr  Zr0  1  0.28750001  0.28750001  0.09663801  1
  Zr  Zr1  1  0.80913804  0.80913802  0.09663803  1
  Zr  Zr2  1  0.19086202  0.71250002  0.90336200  1
  Zr  Zr3  1  0.71250002  0.19086201  0.90336200  1
  Zr  Zr4  1  0.43800903  0.93762203  0.37563102  1
  Zr  Zr5  1  0.93762303  0.43801001  0.37563302  1
  Zr  Zr6  1  0.06237700  0.06237700  0.62436799  1
  Zr  Zr7  1  0.56199103  0.56199102  0.62436801  1
  S  S8  1  0.44046002  0.44046001  0.38170601  1
  S  S9  1  0.94124604  0.94124603  0.38170603  1
  S  S10  1  0.05875401  0.55954002  0.61829400  1
  S  S11  1  0.55954002  0.05875400  0.61829400  1
  S  S12  1  0.34494603  0.84241402  0.18736002  1
  S  S13  1  0.84241403  0.34494601  0.18736002  1
  S  S14  1  0.15758601  0.15758600  0.81263999  1
  S  S15  1  0.65505403  0.65505402  0.81264001  1
  S  S16  1  0.00000000  0.00000000  0.00000000  1
  S  S17  1  0.00000001  0.50000001  0.00000001  1
  S  S18  1  0.50000001  0.00000000  0.00000001  1
  S  S19  1  0.50000002  0.50000001  1.00000000  1
