# generated using pymatgen
data_SrNiGePt2
_symmetry_space_group_name_H-M   'P 1'
_cell_length_a   4.29902411
_cell_length_b   4.29902411
_cell_length_c   10.42618465
_cell_angle_alpha   90.00000000
_cell_angle_beta   90.00000000
_cell_angle_gamma   90.00000000
_symmetry_Int_Tables_number   1
_chemical_formula_structural   SrNiGePt2
_chemical_formula_sum   'Sr2 Ni2 Ge2 Pt4'
_cell_volume   192.69266038
_cell_formula_units_Z   2
loop_
 _symmetry_equiv_pos_site_id
 _symmetry_equiv_pos_as_xyz
  1  'x, y, z'
loop_
 _atom_site_type_symbol
 _atom_site_label
 _atom_site_symmetry_multiplicity
 _atom_site_fract_x
 _atom_site_fract_y
 _atom_site_fract_z
 _atom_site_occupancy
  Sr  Sr0  1  0.00000000  0.00000000  0.99783903  1
  Sr  Sr1  1  0.49999999  0.49999999  0.48489802  1
  Ge  Ge2  1  0.00000000  0.49999999  0.23230501  1
  Ni  Ni3  1  0.49999999  0.00000000  0.75557503  1
  Ge  Ge4  1  0.49999999  0.00000000  0.23230501  1
  Ni  Ni5  1  0.00000000  0.49999999  0.75557503  1
  Pt  Pt6  1  0.00000000  0.00000000  0.61806602  1
  Pt  Pt7  1  0.00000000  0.00000000  0.38019501  1
  Pt  Pt8  1  0.49999999  0.49999999  0.91042503  1
  Pt  Pt9  1  0.49999999  0.49999999  0.13281900  1
