# generated using pymatgen
data_TiMoN4
_symmetry_space_group_name_H-M   'P 1'
_cell_length_a   4.81172800
_cell_length_b   5.32682419
_cell_length_c   5.34706879
_cell_angle_alpha   60.12516785
_cell_angle_beta   90.00000000
_cell_angle_gamma   90.00000000
_symmetry_Int_Tables_number   1
_chemical_formula_structural   TiMoN4
_chemical_formula_sum   'Ti2 Mo2 N8'
_cell_volume   118.83988397
_cell_formula_units_Z   2
loop_
 _symmetry_equiv_pos_site_id
 _symmetry_equiv_pos_as_xyz
  1  'x, y, z'
loop_
 _atom_site_type_symbol
 _atom_site_label
 _atom_site_symmetry_multiplicity
 _atom_site_fract_x
 _atom_site_fract_y
 _atom_site_fract_z
 _atom_site_occupancy
  Ti  Ti0  1  0.00077400  0.34053298  0.00000001  1
  Ti  Ti1  1  0.50077400  0.65946697  0.00000001  1
  Mo  Mo2  1  0.01305700  0.00252100  0.66853602  1
  Mo  Mo3  1  0.51305700  0.99747895  0.33146403  1
  N  N4  1  0.51305700  0.32894298  0.66853603  1
  N  N5  1  0.01305700  0.67105697  0.33146402  1
  N  N6  1  0.37457400  0.05905100  0.60322002  1
  N  N7  1  0.87457400  0.94094896  0.39678003  1
  N  N8  1  0.93424200  0.72567897  1.00000004  1
  N  N9  1  0.43424200  0.27432099  0.00000001  1
  N  N10  1  0.37457400  0.66227097  0.39678003  1
  N  N11  1  0.87457400  0.33772898  0.60322002  1
