# generated using pymatgen
data_Ti2N
_symmetry_space_group_name_H-M   'P 1'
_cell_length_a   2.84936595
_cell_length_b   2.84936666
_cell_length_c   9.74436188
_cell_angle_alpha   90.00000000
_cell_angle_beta   90.00000000
_cell_angle_gamma   119.99999237
_symmetry_Int_Tables_number   1
_chemical_formula_structural   Ti2N
_chemical_formula_sum   'Ti4 N2'
_cell_volume   68.51420746
_cell_formula_units_Z   2
loop_
 _symmetry_equiv_pos_site_id
 _symmetry_equiv_pos_as_xyz
  1  'x, y, z'
loop_
 _atom_site_type_symbol
 _atom_site_label
 _atom_site_symmetry_multiplicity
 _atom_site_fract_x
 _atom_site_fract_y
 _atom_site_fract_z
 _atom_site_occupancy
  Ti  Ti0  1  0.66666667  0.33333332  0.60797101  1
  Ti  Ti1  1  0.33333333  0.66666664  0.39202900  1
  Ti  Ti2  1  0.33333333  0.66666664  0.10797100  1
  Ti  Ti3  1  0.66666667  0.33333332  0.89202901  1
  N  N4  1  0.66666667  0.33333332  0.25000000  1
  N  N5  1  0.33333333  0.66666664  0.75000001  1
