# generated using pymatgen
data_Rb3AgP3
_symmetry_space_group_name_H-M   'P 1'
_cell_length_a   5.02085781
_cell_length_b   6.24523783
_cell_length_c   15.05198956
_cell_angle_alpha   90.00000000
_cell_angle_beta   90.00000000
_cell_angle_gamma   113.70169830
_symmetry_Int_Tables_number   1
_chemical_formula_structural   Rb3AgP3
_chemical_formula_sum   'Rb6 Ag2 P6'
_cell_volume   432.16603740
_cell_formula_units_Z   2
loop_
 _symmetry_equiv_pos_site_id
 _symmetry_equiv_pos_as_xyz
  1  'x, y, z'
loop_
 _atom_site_type_symbol
 _atom_site_label
 _atom_site_symmetry_multiplicity
 _atom_site_fract_x
 _atom_site_fract_y
 _atom_site_fract_z
 _atom_site_occupancy
  Rb  Rb0  1  0.80489401  0.60978797  0.88861603  1
  Rb  Rb1  1  0.19510600  0.39021198  0.11138400  1
  Rb  Rb2  1  0.80489401  0.60978797  0.61138402  1
  Rb  Rb3  1  0.19510600  0.39021198  0.38861601  1
  Rb  Rb4  1  0.51804302  0.03608600  0.75000002  1
  Rb  Rb5  1  0.48195699  0.96391396  0.25000001  1
  Ag  Ag6  1  0.50000002  0.00000000  1.00000003  1
  Ag  Ag7  1  0.50000002  0.00000000  0.50000001  1
  P  P8  1  0.88639501  0.77278997  0.37494201  1
  P  P9  1  0.11360500  0.22720999  0.62505802  1
  P  P10  1  0.11360500  0.22720999  0.87494203  1
  P  P11  1  0.88639501  0.77278997  0.12505800  1
  P  P12  1  0.21219700  0.42439398  0.75000002  1
  P  P13  1  0.78780301  0.57560597  0.25000001  1
