# generated using pymatgen
data_Zr5Si3C
_symmetry_space_group_name_H-M   'P 1'
_cell_length_a   5.66636276
_cell_length_b   8.08968830
_cell_length_c   8.08968830
_cell_angle_alpha   120.00000000
_cell_angle_beta   90.00000000
_cell_angle_gamma   90.00000000
_symmetry_Int_Tables_number   1
_chemical_formula_structural   Zr5Si3C
_chemical_formula_sum   'Zr10 Si6 C2'
_cell_volume   321.14309108
_cell_formula_units_Z   2
loop_
 _symmetry_equiv_pos_site_id
 _symmetry_equiv_pos_as_xyz
  1  'x, y, z'
loop_
 _atom_site_type_symbol
 _atom_site_label
 _atom_site_symmetry_multiplicity
 _atom_site_fract_x
 _atom_site_fract_y
 _atom_site_fract_z
 _atom_site_occupancy
  Zr  Zr0  1  -0.00000000  0.33333333  0.66666671  1
  Zr  Zr1  1  -0.00000000  0.66666666  0.33333338  1
  Zr  Zr2  1  0.75000003  0.77586199  0.77586207  1
  Zr  Zr3  1  0.75000003  0.00000000  0.22413801  1
  Zr  Zr4  1  0.75000003  0.22413800  0.00000001  1
  Zr  Zr5  1  0.50000002  0.33333333  0.66666671  1
  Zr  Zr6  1  0.50000002  0.66666666  0.33333338  1
  Zr  Zr7  1  0.25000001  0.22413800  0.22413802  1
  Zr  Zr8  1  0.25000001  0.00000000  0.77586203  1
  Zr  Zr9  1  0.25000001  0.77586199  0.00000004  1
  Si  Si10  1  0.75000003  0.40336599  0.40336603  1
  Si  Si11  1  0.75000003  0.00000000  0.59663402  1
  Si  Si12  1  0.75000003  0.59663399  0.00000003  1
  Si  Si13  1  0.25000001  0.59663399  0.59663405  1
  Si  Si14  1  0.25000001  0.99999999  0.40336606  1
  Si  Si15  1  0.25000001  0.40336599  0.00000002  1
  C  C16  1  0.00000000  0.00000000  0.00000000  1
  C  C17  1  0.50000002  0.00000000  -0.00000000  1
