# generated using pymatgen
data_Cs4Hg3As3Se8
_symmetry_space_group_name_H-M   'P 1'
_cell_length_a   6.46149778
_cell_length_b   9.99407578
_cell_length_c   9.99407578
_cell_angle_alpha   73.31980896
_cell_angle_beta   71.13941956
_cell_angle_gamma   71.13941956
_symmetry_Int_Tables_number   1
_chemical_formula_structural   Cs4Hg3As3Se8
_chemical_formula_sum   'Cs4 Hg3 As3 Se8'
_cell_volume   565.80804143
_cell_formula_units_Z   1
loop_
 _symmetry_equiv_pos_site_id
 _symmetry_equiv_pos_as_xyz
  1  'x, y, z'
loop_
 _atom_site_type_symbol
 _atom_site_label
 _atom_site_symmetry_multiplicity
 _atom_site_fract_x
 _atom_site_fract_y
 _atom_site_fract_z
 _atom_site_occupancy
  Cs  Cs0  1  0.74217398  0.62169102  0.37830904  1
  Cs  Cs1  1  0.25782598  0.37830901  0.62169105  1
  Cs  Cs2  1  0.75782603  0.12169100  0.87830902  1
  Cs  Cs3  1  0.24217394  0.87830902  0.12169107  1
  Hg  Hg4  1  0.74999997  0.75000002  0.75000007  1
  Hg  Hg5  1  0.24999999  0.25000001  0.25000002  1
  As  As6  1  0.24999994  0.90678403  0.59321609  1
  Hg  Hg7  1  0.24999996  0.59321602  0.90678407  1
  As  As8  1  0.75000003  0.09321600  0.40678400  1
  As  As9  1  0.75000000  0.40678401  0.09321602  1
  Se  Se10  1  0.07905694  0.77610902  0.51259208  1
  Se  Se11  1  0.63224299  0.51259201  0.77610905  1
  Se  Se12  1  0.42094294  0.98740803  0.72389109  1
  Se  Se13  1  0.86775698  0.72389102  0.98740807  1
  Se  Se14  1  0.92094302  0.22389101  0.48740801  1
  Se  Se15  1  0.36775698  0.48740801  0.22389104  1
  Se  Se16  1  0.57905703  0.01259200  0.27610900  1
  Se  Se17  1  0.13224298  0.27610901  0.01259202  1
