# generated using pymatgen
data_Sr5Sn3
_symmetry_space_group_name_H-M   'P 1'
_cell_length_a   9.02190781
_cell_length_b   9.20134735
_cell_length_c   9.02190781
_cell_angle_alpha   119.35697174
_cell_angle_beta   90.00000000
_cell_angle_gamma   119.35697174
_symmetry_Int_Tables_number   1
_chemical_formula_structural   Sr5Sn3
_chemical_formula_sum   'Sr10 Sn6'
_cell_volume   539.71193407
_cell_formula_units_Z   2
loop_
 _symmetry_equiv_pos_site_id
 _symmetry_equiv_pos_as_xyz
  1  'x, y, z'
loop_
 _atom_site_type_symbol
 _atom_site_label
 _atom_site_symmetry_multiplicity
 _atom_site_fract_x
 _atom_site_fract_y
 _atom_site_fract_z
 _atom_site_occupancy
  Sr  Sr0  1  0.19642206  0.68796004  0.69732407  1
  Sr  Sr1  1  0.49153807  0.68796004  0.99063608  1
  Sr  Sr2  1  0.69732407  0.68796004  0.49153807  1
  Sr  Sr3  1  0.99063608  0.68796004  0.19642206  1
  Sr  Sr4  1  0.80357804  0.31204002  0.30267603  1
  Sr  Sr5  1  0.50846204  0.31204002  0.00936403  1
  Sr  Sr6  1  0.30267603  0.31204002  0.50846204  1
  Sr  Sr7  1  0.00936403  0.31204002  0.80357804  1
  Sr  Sr8  1  0.50000001  0.00000000  0.50000001  1
  Sr  Sr9  1  0.00000000  0.00000000  0.00000000  1
  Sn  Sn10  1  0.14948200  0.00000000  0.67103201  1
  Sn  Sn11  1  0.85051802  0.00000000  0.32896801  1
  Sn  Sn12  1  0.67103201  0.00000000  0.85051802  1
  Sn  Sn13  1  0.32896801  0.00000000  0.14948200  1
  Sn  Sn14  1  0.23969505  0.47939002  0.23969505  1
  Sn  Sn15  1  0.76030506  0.52061003  0.76030506  1
