# generated using pymatgen
data_Cs3NO8
_symmetry_space_group_name_H-M   'P 1'
_cell_length_a   5.78213978
_cell_length_b   5.78213882
_cell_length_c   7.65195417
_cell_angle_alpha   90.00000000
_cell_angle_beta   90.00000000
_cell_angle_gamma   120.00000763
_symmetry_Int_Tables_number   1
_chemical_formula_structural   Cs3NO8
_chemical_formula_sum   'Cs3 N1 O8'
_cell_volume   221.55423677
_cell_formula_units_Z   1
loop_
 _symmetry_equiv_pos_site_id
 _symmetry_equiv_pos_as_xyz
  1  'x, y, z'
loop_
 _atom_site_type_symbol
 _atom_site_label
 _atom_site_symmetry_multiplicity
 _atom_site_fract_x
 _atom_site_fract_y
 _atom_site_fract_z
 _atom_site_occupancy
  Cs  Cs0  1  0.00000003  0.70136804  0.33333333  1
  Cs  Cs1  1  0.70136803  0.00000000  0.00000000  1
  Cs  Cs2  1  0.29863202  0.29863202  0.66666665  1
  N  N3  1  0.00000003  0.68510004  0.83333298  1
  O  O4  1  0.68510003  0.00000000  0.49999999  1
  O  O5  1  0.31490002  0.31490002  0.16666700  1
  O  O6  1  0.88051305  0.50700803  0.71699798  1
  O  O7  1  0.49299203  0.37350502  0.05033200  1
  O  O8  1  0.62649503  0.11948701  0.38366499  1
  O  O9  1  0.50700806  0.88051305  0.61633499  1
  O  O10  1  0.37350503  0.49299203  0.28300199  1
  O  O11  1  0.11948703  0.62649503  0.94966798  1
