# generated using pymatgen
data_Er2Ge3Pd
_symmetry_space_group_name_H-M   'P 1'
_cell_length_a   4.44275379
_cell_length_b   6.95804977
_cell_length_c   7.59485006
_cell_angle_alpha   90.00000000
_cell_angle_beta   90.00000000
_cell_angle_gamma   90.00000000
_symmetry_Int_Tables_number   1
_chemical_formula_structural   Er2Ge3Pd
_chemical_formula_sum   'Er4 Ge6 Pd2'
_cell_volume   234.77885585
_cell_formula_units_Z   2
loop_
 _symmetry_equiv_pos_site_id
 _symmetry_equiv_pos_as_xyz
  1  'x, y, z'
loop_
 _atom_site_type_symbol
 _atom_site_label
 _atom_site_symmetry_multiplicity
 _atom_site_fract_x
 _atom_site_fract_y
 _atom_site_fract_z
 _atom_site_occupancy
  Er  Er0  1  0.25000001  0.51221502  0.20170300  1
  Er  Er1  1  0.25000001  0.01221500  0.29829700  1
  Er  Er2  1  0.75000004  0.98778503  0.70170299  1
  Er  Er3  1  0.75000004  0.48778502  0.79829699  1
  Ge  Ge4  1  0.75000004  0.20446801  0.08202700  1
  Ge  Ge5  1  0.75000004  0.70446802  0.41797300  1
  Ge  Ge6  1  0.25000001  0.29553201  0.58202700  1
  Ge  Ge7  1  0.25000001  0.79553203  0.91797299  1
  Pd  Pd8  1  0.75000004  0.80902803  0.08857200  1
  Ge  Ge9  1  0.75000004  0.30902801  0.41142800  1
  Pd  Pd10  1  0.25000001  0.69097202  0.58857200  1
  Ge  Ge11  1  0.25000001  0.19097201  0.91142799  1
