# generated using pymatgen
data_Zr5CuPb3
_symmetry_space_group_name_H-M   'P 1'
_cell_length_a   5.92534685
_cell_length_b   8.70586205
_cell_length_c   8.70586205
_cell_angle_alpha   120.00000000
_cell_angle_beta   90.00000000
_cell_angle_gamma   90.00000000
_symmetry_Int_Tables_number   1
_chemical_formula_structural   Zr5CuPb3
_chemical_formula_sum   'Zr10 Cu2 Pb6'
_cell_volume   388.92689040
_cell_formula_units_Z   2
loop_
 _symmetry_equiv_pos_site_id
 _symmetry_equiv_pos_as_xyz
  1  'x, y, z'
loop_
 _atom_site_type_symbol
 _atom_site_label
 _atom_site_symmetry_multiplicity
 _atom_site_fract_x
 _atom_site_fract_y
 _atom_site_fract_z
 _atom_site_occupancy
  Zr  Zr0  1  1.00000003  0.33333334  0.66666669  1
  Zr  Zr1  1  1.00000003  0.66666667  0.33333336  1
  Zr  Zr2  1  0.50000001  0.66666667  0.33333336  1
  Zr  Zr3  1  0.50000001  0.33333334  0.66666669  1
  Zr  Zr4  1  0.25000001  0.25713700  1.00000004  1
  Zr  Zr5  1  0.25000001  0.74286300  0.74286304  1
  Zr  Zr6  1  0.25000001  1.00000001  0.25713703  1
  Zr  Zr7  1  0.75000002  0.74286300  1.00000005  1
  Zr  Zr8  1  0.75000002  0.25713700  0.25713701  1
  Zr  Zr9  1  0.75000002  1.00000001  0.74286304  1
  Cu  Cu10  1  0.00000000  0.00000000  0.00000000  1
  Cu  Cu11  1  0.50000001  0.00000000  -0.00000000  1
  Pb  Pb12  1  0.25000001  0.60610600  1.00000004  1
  Pb  Pb13  1  0.25000001  0.39389400  0.39389402  1
  Pb  Pb14  1  0.25000001  1.00000001  0.60610604  1
  Pb  Pb15  1  0.75000002  0.39389400  1.00000004  1
  Pb  Pb16  1  0.75000002  0.60610600  0.60610603  1
  Pb  Pb17  1  0.75000002  0.00000000  0.39389401  1
