# generated using pymatgen
data_CeCl3
_symmetry_space_group_name_H-M   'P 1'
_cell_length_a   4.30862904
_cell_length_b   7.44246578
_cell_length_c   7.44246626
_cell_angle_alpha   120.00000000
_cell_angle_beta   90.00000000
_cell_angle_gamma   90.00000000
_symmetry_Int_Tables_number   1
_chemical_formula_structural   CeCl3
_chemical_formula_sum   'Ce2 Cl6'
_cell_volume   206.68238125
_cell_formula_units_Z   2
loop_
 _symmetry_equiv_pos_site_id
 _symmetry_equiv_pos_as_xyz
  1  'x, y, z'
loop_
 _atom_site_type_symbol
 _atom_site_label
 _atom_site_symmetry_multiplicity
 _atom_site_fract_x
 _atom_site_fract_y
 _atom_site_fract_z
 _atom_site_occupancy
  Ce  Ce0  1  0.25000000  0.33333335  0.66666668  1
  Ce  Ce1  1  0.74999999  0.66666670  0.33333336  1
  Cl  Cl2  1  0.25000000  0.39127302  0.08571201  1
  Cl  Cl3  1  0.74999999  0.08571200  0.69443901  1
  Cl  Cl4  1  0.74999999  0.60872703  0.91428803  1
  Cl  Cl5  1  0.25000000  0.91428804  0.30556103  1
  Cl  Cl6  1  0.25000000  0.69443903  0.60872703  1
  Cl  Cl7  1  0.74999999  0.30556101  0.39127301  1
