# generated using pymatgen
data_BaCaO3
_symmetry_space_group_name_H-M   'P 1'
_cell_length_a   3.90796804
_cell_length_b   3.90796804
_cell_length_c   7.35010767
_cell_angle_alpha   105.41712189
_cell_angle_beta   105.41712189
_cell_angle_gamma   90.00000000
_symmetry_Int_Tables_number   1
_chemical_formula_structural   BaCaO3
_chemical_formula_sum   'Ba1 Ca1 O3'
_cell_volume   104.01709836
_cell_formula_units_Z   1
loop_
 _symmetry_equiv_pos_site_id
 _symmetry_equiv_pos_as_xyz
  1  'x, y, z'
loop_
 _atom_site_type_symbol
 _atom_site_label
 _atom_site_symmetry_multiplicity
 _atom_site_fract_x
 _atom_site_fract_y
 _atom_site_fract_z
 _atom_site_occupancy
  Ba  Ba0  1  0.66882596  0.66882598  0.33765196  1
  Ca  Ca1  1  0.33117398  0.33117399  0.66234799  1
  O  O2  1  0.00000000  0.00000000  0.00000000  1
  O  O3  1  0.74999997  0.24999999  0.49999997  1
  O  O4  1  0.24999997  0.74999998  0.49999997  1
