# generated using pymatgen
data_Li4CuS7
_symmetry_space_group_name_H-M   'P 1'
_cell_length_a   5.81978750
_cell_length_b   5.84723043
_cell_length_c   5.84723043
_cell_angle_alpha   60.31180191
_cell_angle_beta   79.90169525
_cell_angle_gamma   100.09830475
_symmetry_Int_Tables_number   1
_chemical_formula_structural   Li4CuS7
_chemical_formula_sum   'Li4 Cu1 S7'
_cell_volume   161.98886632
_cell_formula_units_Z   1
loop_
 _symmetry_equiv_pos_site_id
 _symmetry_equiv_pos_as_xyz
  1  'x, y, z'
loop_
 _atom_site_type_symbol
 _atom_site_label
 _atom_site_symmetry_multiplicity
 _atom_site_fract_x
 _atom_site_fract_y
 _atom_site_fract_z
 _atom_site_occupancy
  Li  Li0  1  0.00000002  0.33311700  0.33311697  1
  Li  Li1  1  0.00000005  0.66688300  0.66688293  1
  Li  Li2  1  0.50000005  0.50000000  0.49999993  1
  Li  Li3  1  0.50000002  0.17032000  0.17031997  1
  Cu  Cu4  1  0.50000007  0.82968000  0.82967990  1
  S  S5  1  0.00000000  0.00000000  0.00000000  1
  S  S6  1  0.22242003  0.36041800  0.92634393  1
  S  S7  1  0.22242001  0.07365600  0.63958196  1
  S  S8  1  0.77758006  0.63958200  0.07365593  1
  S  S9  1  0.77758008  0.92634400  0.36041790  1
  S  S10  1  0.79034303  0.20995500  0.79004493  1
  S  S11  1  0.20965706  0.79004500  0.20995494  1
