# generated using pymatgen
data_BaNaRhO2
_symmetry_space_group_name_H-M   'P 1'
_cell_length_a   5.61989594
_cell_length_b   6.05322504
_cell_length_c   6.05322504
_cell_angle_alpha   71.95443726
_cell_angle_beta   69.54644775
_cell_angle_gamma   110.45355225
_symmetry_Int_Tables_number   1
_chemical_formula_structural   BaNaRhO2
_chemical_formula_sum   'Ba2 Na2 Rh2 O4'
_cell_volume   157.38630708
_cell_formula_units_Z   2
loop_
 _symmetry_equiv_pos_site_id
 _symmetry_equiv_pos_as_xyz
  1  'x, y, z'
loop_
 _atom_site_type_symbol
 _atom_site_label
 _atom_site_symmetry_multiplicity
 _atom_site_fract_x
 _atom_site_fract_y
 _atom_site_fract_z
 _atom_site_occupancy
  Ba  Ba0  1  0.74999996  0.12380799  0.12380803  1
  Ba  Ba1  1  0.24999992  0.87619196  0.87619197  1
  Na  Na2  1  0.24999997  0.22943899  0.22943900  1
  Na  Na3  1  0.74999991  0.77056096  0.77056100  1
  Rh  Rh4  1  0.74999994  0.48968398  0.48968401  1
  Rh  Rh5  1  0.24999995  0.51031598  0.51031599  1
  O  O6  1  0.86723995  0.21204499  0.57356302  1
  O  O7  1  0.63275993  0.57356297  0.21204501  1
  O  O8  1  0.36723995  0.42643698  0.78795499  1
  O  O9  1  0.13275993  0.78795496  0.42643698  1
