# generated using pymatgen
data_NaYS2
_symmetry_space_group_name_H-M   'P 1'
_cell_length_a   3.92537379
_cell_length_b   3.92537379
_cell_length_c   6.95631170
_cell_angle_alpha   73.61175537
_cell_angle_beta   73.61175537
_cell_angle_gamma   60.00000381
_symmetry_Int_Tables_number   1
_chemical_formula_structural   NaYS2
_chemical_formula_sum   'Na1 Y1 S2'
_cell_volume   87.76195287
_cell_formula_units_Z   1
loop_
 _symmetry_equiv_pos_site_id
 _symmetry_equiv_pos_as_xyz
  1  'x, y, z'
loop_
 _atom_site_type_symbol
 _atom_site_label
 _atom_site_symmetry_multiplicity
 _atom_site_fract_x
 _atom_site_fract_y
 _atom_site_fract_z
 _atom_site_occupancy
  Na  Na0  1  0.49999996  0.49999999  0.50000006  1
  Y  Y1  1  0.00000000  0.00000000  0.00000000  1
  S  S2  1  0.74533594  0.74533599  0.76399209  1
  S  S3  1  0.25466398  0.25466400  0.23600803  1
