# generated using pymatgen
data_Li2FeF4
_symmetry_space_group_name_H-M   'P 1'
_cell_length_a   5.92959166
_cell_length_b   5.92958927
_cell_length_c   6.51219130
_cell_angle_alpha   117.01706696
_cell_angle_beta   117.01461792
_cell_angle_gamma   90.12982941
_symmetry_Int_Tables_number   1
_chemical_formula_structural   Li2FeF4
_chemical_formula_sum   'Li4 Fe2 F8'
_cell_volume   175.33661867
_cell_formula_units_Z   2
loop_
 _symmetry_equiv_pos_site_id
 _symmetry_equiv_pos_as_xyz
  1  'x, y, z'
loop_
 _atom_site_type_symbol
 _atom_site_label
 _atom_site_symmetry_multiplicity
 _atom_site_fract_x
 _atom_site_fract_y
 _atom_site_fract_z
 _atom_site_occupancy
  Li  Li0  1  0.00000003  0.50000101  0.00000201  1
  Li  Li1  1  0.00000006  0.99999903  0.49999804  1
  Li  Li2  1  0.50000298  0.00000000  0.50000300  1
  Li  Li3  1  0.99999596  0.00000000  0.99999701  1
  Fe  Fe4  1  0.37499903  0.62499902  0.75000003  1
  Fe  Fe5  1  0.62500100  0.37500101  0.25000001  1
  F  F6  1  0.76663999  0.23379101  0.96723802  1
  F  F7  1  0.23377904  0.76663302  0.46723503  1
  F  F8  1  0.20060201  0.23345601  0.96723503  1
  F  F9  1  0.23336004  0.76620902  0.03276202  1
  F  F10  1  0.76622199  0.23336601  0.53276401  1
  F  F11  1  0.76655302  0.79940202  0.53276202  1
  F  F12  1  0.23344700  0.20059701  0.46723701  1
  F  F13  1  0.79939802  0.76654202  0.03276401  1
