# generated using pymatgen
data_Ca2FeNiO6
_symmetry_space_group_name_H-M   'P 1'
_cell_length_a   5.38744593
_cell_length_b   5.44207001
_cell_length_c   7.68983412
_cell_angle_alpha   90.00000000
_cell_angle_beta   90.00000000
_cell_angle_gamma   89.73518372
_symmetry_Int_Tables_number   1
_chemical_formula_structural   Ca2FeNiO6
_chemical_formula_sum   'Ca4 Fe2 Ni2 O12'
_cell_volume   225.45474561
_cell_formula_units_Z   2
loop_
 _symmetry_equiv_pos_site_id
 _symmetry_equiv_pos_as_xyz
  1  'x, y, z'
loop_
 _atom_site_type_symbol
 _atom_site_label
 _atom_site_symmetry_multiplicity
 _atom_site_fract_x
 _atom_site_fract_y
 _atom_site_fract_z
 _atom_site_occupancy
  Ca  Ca0  1  0.00669200  0.04282500  0.49999999  1
  Ca  Ca1  1  0.50647003  0.45864101  -0.00000000  1
  Ca  Ca2  1  0.99328907  0.96209202  -0.00000000  1
  Ca  Ca3  1  0.49039104  0.54246201  0.49999999  1
  Fe  Fe4  1  0.99858204  0.49988801  0.24646700  1
  Fe  Fe5  1  0.50080501  0.00144500  0.75335499  1
  Ni  Ni6  1  0.99858204  0.49988801  0.75353299  1
  Ni  Ni7  1  0.50080501  0.00144500  0.24664500  1
  O  O8  1  0.21284305  0.78670102  0.29497300  1
  O  O9  1  0.29163302  0.29036301  0.71286599  1
  O  O10  1  0.79453202  0.20663000  0.78871999  1
  O  O11  1  0.70163805  0.70325402  0.21435300  1
  O  O12  1  0.79453202  0.20663000  0.21128000  1
  O  O13  1  0.70163805  0.70325402  0.78564699  1
  O  O14  1  0.21284305  0.78670102  0.70502699  1
  O  O15  1  0.29163302  0.29036301  0.28713400  1
  O  O16  1  0.57422506  0.98880202  0.49999999  1
  O  O17  1  0.93099604  0.48409901  0.49999999  1
  O  O18  1  0.42354501  0.01932800  -0.00000000  1
  O  O19  1  0.07433003  0.52519001  -0.00000000  1
