# generated using pymatgen
data_BaSiO5
_symmetry_space_group_name_H-M   'P 1'
_cell_length_a   4.13544416
_cell_length_b   4.13544416
_cell_length_c   8.27449989
_cell_angle_alpha   90.00000000
_cell_angle_beta   90.00000000
_cell_angle_gamma   90.00000000
_symmetry_Int_Tables_number   1
_chemical_formula_structural   BaSiO5
_chemical_formula_sum   'Ba2 Si2 O10'
_cell_volume   141.50965678
_cell_formula_units_Z   2
loop_
 _symmetry_equiv_pos_site_id
 _symmetry_equiv_pos_as_xyz
  1  'x, y, z'
loop_
 _atom_site_type_symbol
 _atom_site_label
 _atom_site_symmetry_multiplicity
 _atom_site_fract_x
 _atom_site_fract_y
 _atom_site_fract_z
 _atom_site_occupancy
  Ba  Ba0  1  0.00000000  0.00000000  0.50000001  1
  Ba  Ba1  1  0.00000000  0.00000000  0.00000000  1
  Si  Si2  1  0.19928399  0.49999998  0.24893800  1
  Si  Si3  1  0.19928399  0.49999998  0.75106201  1
  O  O4  1  0.49999998  0.49999998  0.39930901  1
  O  O5  1  0.49999998  0.49999998  0.90066201  1
  O  O6  1  0.49999998  0.19928399  0.24893800  1
  O  O7  1  0.49999998  0.19928399  0.75106201  1
  O  O8  1  0.49999998  0.49999998  0.09933800  1
  O  O9  1  0.49999998  0.49999998  0.60069101  1
  O  O10  1  0.49999998  0.80071597  0.24893800  1
  O  O11  1  0.49999998  0.80071597  0.75106201  1
  O  O12  1  0.80071597  0.49999998  0.24893800  1
  O  O13  1  0.80071597  0.49999998  0.75106201  1
