# generated using pymatgen
data_SrTbO3
_symmetry_space_group_name_H-M   'P 1'
_cell_length_a   5.99172020
_cell_length_b   6.14982271
_cell_length_c   5.99172020
_cell_angle_alpha   119.15315247
_cell_angle_beta   90.00000000
_cell_angle_gamma   119.15315247
_symmetry_Int_Tables_number   1
_chemical_formula_structural   SrTbO3
_chemical_formula_sum   'Sr2 Tb2 O6'
_cell_volume   160.03007035
_cell_formula_units_Z   2
loop_
 _symmetry_equiv_pos_site_id
 _symmetry_equiv_pos_as_xyz
  1  'x, y, z'
loop_
 _atom_site_type_symbol
 _atom_site_label
 _atom_site_symmetry_multiplicity
 _atom_site_fract_x
 _atom_site_fract_y
 _atom_site_fract_z
 _atom_site_occupancy
  Sr  Sr0  1  0.25000000  0.50000002  0.74999999  1
  Sr  Sr1  1  0.74999999  0.50000002  0.25000000  1
  Tb  Tb2  1  0.49999998  0.00000000  0.49999998  1
  Tb  Tb3  1  0.00000000  0.00000000  0.00000000  1
  O  O4  1  0.76529597  0.00000100  0.23470499  1
  O  O5  1  0.23470402  0.99999903  0.76529500  1
  O  O6  1  0.76529597  0.00000000  0.76529597  1
  O  O7  1  0.23470399  0.00000000  0.23470399  1
  O  O8  1  0.75312099  0.50624202  0.75312099  1
  O  O9  1  0.24687900  0.49375802  0.24687900  1
