# generated using pymatgen
data_SrMoO3
_symmetry_space_group_name_H-M   'P 1'
_cell_length_a   4.59801722
_cell_length_b   5.61486721
_cell_length_c   6.75887156
_cell_angle_alpha   90.00000000
_cell_angle_beta   106.85881042
_cell_angle_gamma   90.00000000
_symmetry_Int_Tables_number   1
_chemical_formula_structural   SrMoO3
_chemical_formula_sum   'Sr2 Mo2 O6'
_cell_volume   166.99610548
_cell_formula_units_Z   2
loop_
 _symmetry_equiv_pos_site_id
 _symmetry_equiv_pos_as_xyz
  1  'x, y, z'
loop_
 _atom_site_type_symbol
 _atom_site_label
 _atom_site_symmetry_multiplicity
 _atom_site_fract_x
 _atom_site_fract_y
 _atom_site_fract_z
 _atom_site_occupancy
  Sr  Sr0  1  0.63416898  0.24999999  0.30497701  1
  Sr  Sr1  1  0.36583099  0.74999997  0.69502301  1
  Mo  Mo2  1  0.08659900  0.74999997  0.16386900  1
  Mo  Mo3  1  0.91340097  0.24999999  0.83613102  1
  O  O4  1  0.79969197  0.01368700  0.66319902  1
  O  O5  1  0.20030799  0.51368698  0.33680100  1
  O  O6  1  0.20030799  0.98631296  0.33680100  1
  O  O7  1  0.79969197  0.48631298  0.66319902  1
  O  O8  1  0.29973499  0.24999999  0.88049201  1
  O  O9  1  0.70026497  0.74999997  0.11950802  1
