# generated using pymatgen
data_Lu3(In2Ni)2
_symmetry_space_group_name_H-M   'P 1'
_cell_length_a   3.53426409
_cell_length_b   7.92322779
_cell_length_c   7.92322826
_cell_angle_alpha   120.00000000
_cell_angle_beta   90.00000000
_cell_angle_gamma   90.00000000
_symmetry_Int_Tables_number   1
_chemical_formula_structural   Lu3(In2Ni)2
_chemical_formula_sum   'Lu3 In4 Ni2'
_cell_volume   192.14714642
_cell_formula_units_Z   1
loop_
 _symmetry_equiv_pos_site_id
 _symmetry_equiv_pos_as_xyz
  1  'x, y, z'
loop_
 _atom_site_type_symbol
 _atom_site_label
 _atom_site_symmetry_multiplicity
 _atom_site_fract_x
 _atom_site_fract_y
 _atom_site_fract_z
 _atom_site_occupancy
  Lu  Lu0  1  0.49999999  0.70943903  0.95779501  1
  Lu  Lu1  1  0.49999999  0.24835601  0.29056000  1
  Lu  Lu2  1  0.49999999  0.04220400  0.75164300  1
  In  In3  1  -0.00000000  0.92543603  0.33677502  1
  In  In4  1  -0.00000000  0.41133902  0.07456401  1
  In  In5  1  0.99999998  0.66322502  0.58866101  1
  In  In6  1  -0.00000000  0.33333335  0.66666667  1
  Ni  Ni7  1  0.49999999  0.66666669  0.33333335  1
  Ni  Ni8  1  0.00000000  0.00000000  0.00000000  1
