# generated using pymatgen
data_Al4Zn2SiSe7
_symmetry_space_group_name_H-M   'P 1'
_cell_length_a   7.63784075
_cell_length_b   7.63784075
_cell_length_c   7.63784075
_cell_angle_alpha   60.00000000
_cell_angle_beta   60.00000000
_cell_angle_gamma   60.00000000
_symmetry_Int_Tables_number   1
_chemical_formula_structural   Al4Zn2SiSe7
_chemical_formula_sum   'Al4 Zn2 Si1 Se7'
_cell_volume   315.06256102
_cell_formula_units_Z   1
loop_
 _symmetry_equiv_pos_site_id
 _symmetry_equiv_pos_as_xyz
  1  'x, y, z'
loop_
 _atom_site_type_symbol
 _atom_site_label
 _atom_site_symmetry_multiplicity
 _atom_site_fract_x
 _atom_site_fract_y
 _atom_site_fract_z
 _atom_site_occupancy
  Zn  Zn0  1  0.50000000  0.50000000  0.50000000  1
  Al  Al1  1  0.25000000  0.25000000  0.25000000  1
  Al  Al2  1  0.37500000  0.87500000  0.87500000  1
  Al  Al3  1  0.87500000  0.87500000  0.37500000  1
  Al  Al4  1  0.87500000  0.37500000  0.87500000  1
  Zn  Zn5  1  0.87500000  0.87500000  0.87500000  1
  Si  Si6  1  0.12006600  0.12006700  0.12006700  1
  Se  Se7  1  0.62993400  0.11020000  0.62993300  1
  Se  Se8  1  0.11020100  0.62993300  0.62993300  1
  Se  Se9  1  0.62993400  0.62993300  0.11020000  1
  Se  Se10  1  0.63979900  0.12006700  0.12006700  1
  Se  Se11  1  0.12006600  0.12006700  0.63980000  1
  Se  Se12  1  0.62993400  0.62993300  0.62993300  1
  Se  Se13  1  0.12006600  0.63980000  0.12006700  1
