# generated using pymatgen
data_ErFe11Mo
_symmetry_space_group_name_H-M   'P 1'
_cell_length_a   4.68799400
_cell_length_b   6.45738173
_cell_length_c   6.45738220
_cell_angle_alpha   82.88385773
_cell_angle_beta   68.71575165
_cell_angle_gamma   68.71576691
_symmetry_Int_Tables_number   1
_chemical_formula_structural   ErFe11Mo
_chemical_formula_sum   'Er1 Fe11 Mo1'
_cell_volume   169.71460348
_cell_formula_units_Z   1
loop_
 _symmetry_equiv_pos_site_id
 _symmetry_equiv_pos_as_xyz
  1  'x, y, z'
loop_
 _atom_site_type_symbol
 _atom_site_label
 _atom_site_symmetry_multiplicity
 _atom_site_fract_x
 _atom_site_fract_y
 _atom_site_fract_z
 _atom_site_occupancy
  Er  Er0  1  0.99999998  0.99488101  0.00511895  1
  Fe  Fe1  1  0.49999999  0.77149801  0.22850197  1
  Fe  Fe2  1  0.50000000  0.22891500  0.77108501  1
  Fe  Fe3  1  0.72442399  0.77712301  0.77402899  1
  Fe  Fe4  1  0.27557600  0.22597100  0.22287700  1
  Fe  Fe5  1  0.00044198  0.99903401  0.49996297  1
  Fe  Fe6  1  0.50056198  0.99903401  0.49996297  1
  Fe  Fe7  1  0.49943899  0.50003700  0.00096597  1
  Fe  Fe8  1  0.99955899  0.50003700  0.00096597  1
  Fe  Fe9  1  0.99999999  0.63971200  0.36028798  1
  Fe  Fe10  1  0.64067699  0.36018300  0.35846399  1
  Fe  Fe11  1  0.35932399  0.64153600  0.63981699  1
  Mo  Mo12  1  1.00000000  0.36204000  0.63796000  1
