# generated using pymatgen
data_Li2Gd3BC9
_symmetry_space_group_name_H-M   'P 1'
_cell_length_a   3.73153400
_cell_length_b   6.23027515
_cell_length_c   9.95741272
_cell_angle_alpha   108.23083496
_cell_angle_beta   100.79960632
_cell_angle_gamma   90.00000000
_symmetry_Int_Tables_number   1
_chemical_formula_structural   Li2Gd3BC9
_chemical_formula_sum   'Li2 Gd3 B1 C9'
_cell_volume   215.55356767
_cell_formula_units_Z   1
loop_
 _symmetry_equiv_pos_site_id
 _symmetry_equiv_pos_as_xyz
  1  'x, y, z'
loop_
 _atom_site_type_symbol
 _atom_site_label
 _atom_site_symmetry_multiplicity
 _atom_site_fract_x
 _atom_site_fract_y
 _atom_site_fract_z
 _atom_site_occupancy
  Li  Li0  1  0.40359900  0.40359899  0.80719801  1
  Li  Li1  1  0.80499899  0.80499898  0.60999800  1
  Gd  Gd2  1  0.19500100  0.19500100  0.39000200  1
  Gd  Gd3  1  0.59640099  0.59640098  0.19280200  1
  Gd  Gd4  1  0.00000000  0.00000000  0.00000000  1
  B  B5  1  0.59416599  0.98652297  0.18833200  1
  C  C6  1  0.79936700  0.19510700  0.59873500  1
  C  C7  1  -0.00000000  0.39111699  -0.00000000  1
  C  C8  1  0.20063300  0.59637298  0.40126600  1
  C  C9  1  0.40583399  0.79819098  0.81166801  1
  C  C10  1  0.20063299  0.80489398  0.40126600  1
  C  C11  1  0.40583400  0.01347700  0.81166801  1
  C  C12  1  0.59416600  0.20180899  0.18833200  1
  C  C13  1  0.79936700  0.40362799  0.59873500  1
  C  C14  1  -0.00000000  0.60888298  1.00000001  1
