# generated using pymatgen
data_La2In2GeSb3
_symmetry_space_group_name_H-M   'P 1'
_cell_length_a   4.05544710
_cell_length_b   4.53185320
_cell_length_c   11.41028690
_cell_angle_alpha   90.00000000
_cell_angle_beta   90.00000000
_cell_angle_gamma   90.00000000
_symmetry_Int_Tables_number   1
_chemical_formula_structural   La2In2GeSb3
_chemical_formula_sum   'La2 In2 Ge1 Sb3'
_cell_volume   209.70613631
_cell_formula_units_Z   1
loop_
 _symmetry_equiv_pos_site_id
 _symmetry_equiv_pos_as_xyz
  1  'x, y, z'
loop_
 _atom_site_type_symbol
 _atom_site_label
 _atom_site_symmetry_multiplicity
 _atom_site_fract_x
 _atom_site_fract_y
 _atom_site_fract_z
 _atom_site_occupancy
  La  La0  1  0.00000000  0.00000000  0.36181000  1
  La  La1  1  0.00000000  0.49999998  0.85634701  1
  In  In2  1  0.49999999  0.49999998  0.14351900  1
  In  In3  1  0.49999999  0.00000000  0.63936801  1
  Sb  Sb4  1  0.00000000  0.00000000  0.06752800  1
  Sb  Sb5  1  0.00000000  0.49999998  0.56784800  1
  Ge  Ge6  1  0.49999999  0.49999998  0.43374600  1
  Sb  Sb7  1  0.49999999  0.00000000  0.92983301  1
