# generated using pymatgen
data_Zr8Ru7
_symmetry_space_group_name_H-M   'P 1'
_cell_length_a   6.40508223
_cell_length_b   6.40508223
_cell_length_c   6.40508223
_cell_angle_alpha   90.00000000
_cell_angle_beta   90.00000000
_cell_angle_gamma   90.00000000
_symmetry_Int_Tables_number   1
_chemical_formula_structural   Zr8Ru7
_chemical_formula_sum   'Zr8 Ru7'
_cell_volume   262.76899995
_cell_formula_units_Z   1
loop_
 _symmetry_equiv_pos_site_id
 _symmetry_equiv_pos_as_xyz
  1  'x, y, z'
loop_
 _atom_site_type_symbol
 _atom_site_label
 _atom_site_symmetry_multiplicity
 _atom_site_fract_x
 _atom_site_fract_y
 _atom_site_fract_z
 _atom_site_occupancy
  Zr  Zr0  1  0.49999998  0.49999998  0.00000000  1
  Zr  Zr1  1  0.49999998  0.00000000  0.49999998  1
  Zr  Zr2  1  -0.00000000  0.49999998  0.49999998  1
  Zr  Zr3  1  0.49999998  0.49999998  0.49999998  1
  Zr  Zr4  1  0.21140099  0.21140099  0.78859897  1
  Zr  Zr5  1  0.21140099  0.78859897  0.21140099  1
  Ru  Ru6  1  0.78859897  0.21140099  0.21140099  1
  Zr  Zr7  1  0.78859897  0.78859897  0.78859897  1
  Zr  Zr8  1  0.78859897  0.78859897  0.21140099  1
  Ru  Ru9  1  0.78859897  0.21140099  0.78859897  1
  Ru  Ru10  1  0.21140099  0.78859897  0.78859897  1
  Ru  Ru11  1  0.21140099  0.21140099  0.21140099  1
  Ru  Ru12  1  0.00000000  0.00000000  0.49999998  1
  Ru  Ru13  1  -0.00000000  0.49999998  -0.00000000  1
  Ru  Ru14  1  0.49999998  0.00000000  0.00000000  1
