# generated using pymatgen
data_Ce(GePd)2
_symmetry_space_group_name_H-M   'P 1'
_cell_length_a   4.20066786
_cell_length_b   4.20066786
_cell_length_c   6.08557129
_cell_angle_alpha   110.18994141
_cell_angle_beta   110.18994141
_cell_angle_gamma   90.00000000
_symmetry_Int_Tables_number   1
_chemical_formula_structural   Ce(GePd)2
_chemical_formula_sum   'Ce1 Ge2 Pd2'
_cell_volume   93.72356155
_cell_formula_units_Z   1
loop_
 _symmetry_equiv_pos_site_id
 _symmetry_equiv_pos_as_xyz
  1  'x, y, z'
loop_
 _atom_site_type_symbol
 _atom_site_label
 _atom_site_symmetry_multiplicity
 _atom_site_fract_x
 _atom_site_fract_y
 _atom_site_fract_z
 _atom_site_occupancy
  Ce  Ce0  1  0.00000000  0.00000000  0.00000000  1
  Ge  Ge1  1  0.38811103  0.38811002  0.77622104  1
  Ge  Ge2  1  0.61188904  0.61189003  0.22377904  1
  Pd  Pd3  1  0.75000004  0.25000001  0.50000003  1
  Pd  Pd4  1  0.25000003  0.75000004  0.50000004  1
