# generated using pymatgen
data_ZrBi(SbAu)3
_symmetry_space_group_name_H-M   'P 1'
_cell_length_a   5.44911718
_cell_length_b   5.44911718
_cell_length_c   5.44911718
_cell_angle_alpha   96.97453308
_cell_angle_beta   96.97453308
_cell_angle_gamma   96.97454071
_symmetry_Int_Tables_number   1
_chemical_formula_structural   ZrBi(SbAu)3
_chemical_formula_sum   'Zr1 Bi1 Sb3 Au3'
_cell_volume   157.88433494
_cell_formula_units_Z   1
loop_
 _symmetry_equiv_pos_site_id
 _symmetry_equiv_pos_as_xyz
  1  'x, y, z'
loop_
 _atom_site_type_symbol
 _atom_site_label
 _atom_site_symmetry_multiplicity
 _atom_site_fract_x
 _atom_site_fract_y
 _atom_site_fract_z
 _atom_site_occupancy
  Zr  Zr0  1  0.50000003  0.50000000  0.50000003  1
  Bi  Bi1  1  0.00000000  0.00000000  0.00000000  1
  Sb  Sb2  1  0.75535204  0.75535199  0.08216902  1
  Sb  Sb3  1  0.75535199  0.08216900  0.75535204  1
  Au  Au4  1  0.24464806  0.91783099  0.24464802  1
  Sb  Sb5  1  0.24464801  0.24464800  0.91783104  1
  Au  Au6  1  0.91783100  0.24464800  0.24464802  1
  Au  Au7  1  0.08216905  0.75535199  0.75535204  1
