# generated using pymatgen
data_Ba
_symmetry_space_group_name_H-M   'P 1'
_cell_length_a   7.82145882
_cell_length_b   9.95217800
_cell_length_c   9.95217800
_cell_angle_alpha   60.00000000
_cell_angle_beta   90.00000000
_cell_angle_gamma   90.00000000
_symmetry_Int_Tables_number   1
_chemical_formula_structural   Ba
_chemical_formula_sum   Ba8
_cell_volume   670.89516917
_cell_formula_units_Z   8
loop_
 _symmetry_equiv_pos_site_id
 _symmetry_equiv_pos_as_xyz
  1  'x, y, z'
loop_
 _atom_site_type_symbol
 _atom_site_label
 _atom_site_symmetry_multiplicity
 _atom_site_fract_x
 _atom_site_fract_y
 _atom_site_fract_z
 _atom_site_occupancy
  Ba  Ba0  1  0.25000001  0.33333333  0.33333333  1
  Ba  Ba1  1  0.75000002  0.66666667  0.66666667  1
  Ba  Ba2  1  0.75000002  0.67724100  0.16138000  1
  Ba  Ba3  1  0.75000002  0.16137900  0.16138000  1
  Ba  Ba4  1  0.75000002  0.16137900  0.67724200  1
  Ba  Ba5  1  0.25000001  0.32275900  0.83862000  1
  Ba  Ba6  1  0.25000001  0.83862100  0.83862000  1
  Ba  Ba7  1  0.25000001  0.83862100  0.32275800  1
