# generated using pymatgen
data_Fe
_symmetry_space_group_name_H-M   'P 1'
_cell_length_a   5.07411385
_cell_length_b   5.07411337
_cell_length_c   7.77671003
_cell_angle_alpha   90.00000000
_cell_angle_beta   90.00000000
_cell_angle_gamma   120.00000000
_symmetry_Int_Tables_number   1
_chemical_formula_structural   Fe
_chemical_formula_sum   Fe13
_cell_volume   173.39912873
_cell_formula_units_Z   13
loop_
 _symmetry_equiv_pos_site_id
 _symmetry_equiv_pos_as_xyz
  1  'x, y, z'
loop_
 _atom_site_type_symbol
 _atom_site_label
 _atom_site_symmetry_multiplicity
 _atom_site_fract_x
 _atom_site_fract_y
 _atom_site_fract_z
 _atom_site_occupancy
  Fe  Fe0  1  0.00000000  0.00000000  0.00000000  1
  Fe  Fe1  1  1.00000000  0.49999999  0.25002000  1
  Fe  Fe2  1  0.49999998  0.49999999  0.74998000  1
  Fe  Fe3  1  0.50000002  0.00000000  0.74998000  1
  Fe  Fe4  1  1.00000000  0.49999999  0.74998000  1
  Fe  Fe5  1  0.49999998  0.49999999  0.25002000  1
  Fe  Fe6  1  0.50000002  0.00000000  0.25002000  1
  Fe  Fe7  1  0.33333330  0.66666665  0.50000000  1
  Fe  Fe8  1  0.00000000  0.00000000  0.65989300  1
  Fe  Fe9  1  0.00000000  0.00000000  0.34010700  1
  Fe  Fe10  1  0.66666666  0.33333333  -0.00000000  1
  Fe  Fe11  1  0.33333330  0.66666665  1.00000000  1
  Fe  Fe12  1  0.66666666  0.33333333  0.50000000  1
