# generated using pymatgen
data_ErNiN2
_symmetry_space_group_name_H-M   'P 1'
_cell_length_a   3.24632001
_cell_length_b   5.66094780
_cell_length_c   9.03725243
_cell_angle_alpha   90.00000000
_cell_angle_beta   90.00000000
_cell_angle_gamma   90.00000000
_symmetry_Int_Tables_number   1
_chemical_formula_structural   ErNiN2
_chemical_formula_sum   'Er4 Ni4 N8'
_cell_volume   166.07983010
_cell_formula_units_Z   4
loop_
 _symmetry_equiv_pos_site_id
 _symmetry_equiv_pos_as_xyz
  1  'x, y, z'
loop_
 _atom_site_type_symbol
 _atom_site_label
 _atom_site_symmetry_multiplicity
 _atom_site_fract_x
 _atom_site_fract_y
 _atom_site_fract_z
 _atom_site_occupancy
  Er  Er0  1  -0.00000000  0.25212601  0.75093996  1
  Er  Er1  1  -0.00000000  0.25212601  0.24905999  1
  Er  Er2  1  0.50000000  0.74787403  0.74905996  1
  Er  Er3  1  0.50000000  0.74787403  0.25093999  1
  Ni  Ni4  1  -0.00000000  0.92188803  0.49999998  1
  Ni  Ni5  1  0.50000000  0.07811200  0.00000000  1
  Ni  Ni6  1  0.00000000  0.59156002  0.00000000  1
  Ni  Ni7  1  0.50000000  0.40844001  0.49999998  1
  N  N8  1  0.00000000  0.58507902  0.41666898  1
  N  N9  1  0.00000000  0.58507902  0.58333097  1
  N  N10  1  0.50000000  0.41492101  0.08333100  1
  N  N11  1  0.50000000  0.41492101  0.91666896  1
  N  N12  1  -0.00000000  0.91805303  0.91447296  1
  N  N13  1  -0.00000000  0.91805303  0.08552700  1
  N  N14  1  0.50000000  0.08194700  0.58552697  1
  N  N15  1  0.50000000  0.08194700  0.41447298  1
