# generated using pymatgen
data_Zr3Co3Ge5
_symmetry_space_group_name_H-M   'P 1'
_cell_length_a   3.96185589
_cell_length_b   6.42525578
_cell_length_c   7.56879520
_cell_angle_alpha   115.11629486
_cell_angle_beta   105.17232513
_cell_angle_gamma   90.00000000
_symmetry_Int_Tables_number   1
_chemical_formula_structural   Zr3Co3Ge5
_chemical_formula_sum   'Zr3 Co3 Ge5'
_cell_volume   167.00648675
_cell_formula_units_Z   1
loop_
 _symmetry_equiv_pos_site_id
 _symmetry_equiv_pos_as_xyz
  1  'x, y, z'
loop_
 _atom_site_type_symbol
 _atom_site_label
 _atom_site_symmetry_multiplicity
 _atom_site_fract_x
 _atom_site_fract_y
 _atom_site_fract_z
 _atom_site_occupancy
  Zr  Zr0  1  0.12661198  0.62661200  0.25322396  1
  Zr  Zr1  1  0.87338801  0.37338800  0.74677596  1
  Zr  Zr2  1  0.00000000  0.00000000  0.00000000  1
  Co  Co3  1  0.67015401  0.36345500  0.34030797  1
  Co  Co4  1  0.32984599  0.63654501  0.65969195  1
  Co  Co5  1  0.67015299  0.97685201  0.34030694  1
  Ge  Ge6  1  0.32984701  0.02314800  0.65969298  1
  Ge  Ge7  1  0.78324600  0.78324601  0.56649194  1
  Ge  Ge8  1  0.21675400  0.21675400  0.43350798  1
  Ge  Ge9  1  0.50000000  0.31387300  -0.00000002  1
  Ge  Ge10  1  0.49999999  0.68612701  0.99999994  1
