# generated using pymatgen
data_Mg2Fe5O7
_symmetry_space_group_name_H-M   'P 1'
_cell_length_a   5.78916836
_cell_length_b   6.17570496
_cell_length_c   6.51858521
_cell_angle_alpha   114.88916779
_cell_angle_beta   95.76741028
_cell_angle_gamma   111.71153259
_symmetry_Int_Tables_number   1
_chemical_formula_structural   Mg2Fe5O7
_chemical_formula_sum   'Mg2 Fe5 O7'
_cell_volume   187.11658118
_cell_formula_units_Z   1
loop_
 _symmetry_equiv_pos_site_id
 _symmetry_equiv_pos_as_xyz
  1  'x, y, z'
loop_
 _atom_site_type_symbol
 _atom_site_label
 _atom_site_symmetry_multiplicity
 _atom_site_fract_x
 _atom_site_fract_y
 _atom_site_fract_z
 _atom_site_occupancy
  Mg  Mg0  1  0.85914898  0.23997100  0.64936399  1
  Mg  Mg1  1  0.14085097  0.76002899  0.35063597  1
  Fe  Fe2  1  0.00000000  0.00000000  0.00000000  1
  Fe  Fe3  1  0.49999997  0.49999999  -0.00000001  1
  Fe  Fe4  1  0.49999997  0.49999999  0.49999998  1
  Fe  Fe5  1  0.49999999  0.00000000  0.00000000  1
  Fe  Fe6  1  0.64435397  0.39617000  0.22831899  1
  O  O7  1  0.35564597  0.60382999  0.77168097  1
  O  O8  1  0.83824395  0.86014999  0.64564097  1
  O  O9  1  0.16175599  0.13985000  0.35435899  1
  O  O10  1  0.51901896  0.87362399  0.24667597  1
  O  O11  1  0.48098099  0.12637600  0.75332399  1
  O  O12  1  0.87672296  0.64548799  0.98890997  1
  O  O13  1  0.12327698  0.35451200  0.01108999  1
