# generated using pymatgen
data_SrLiFe4O7
_symmetry_space_group_name_H-M   'P 1'
_cell_length_a   6.39561987
_cell_length_b   6.39561987
_cell_length_c   6.39561987
_cell_angle_alpha   90.34815979
_cell_angle_beta   119.79919434
_cell_angle_gamma   119.79919434
_symmetry_Int_Tables_number   1
_chemical_formula_structural   SrLiFe4O7
_chemical_formula_sum   'Sr1 Li1 Fe4 O7'
_cell_volume   185.54122031
_cell_formula_units_Z   1
loop_
 _symmetry_equiv_pos_site_id
 _symmetry_equiv_pos_as_xyz
  1  'x, y, z'
loop_
 _atom_site_type_symbol
 _atom_site_label
 _atom_site_symmetry_multiplicity
 _atom_site_fract_x
 _atom_site_fract_y
 _atom_site_fract_z
 _atom_site_occupancy
  Sr  Sr0  1  0.50000001  0.25000000  0.75000001  1
  Li  Li1  1  0.00000000  0.00000000  0.00000000  1
  Fe  Fe2  1  0.73520803  0.59438101  0.37941401  1
  Fe  Fe3  1  0.26479202  0.64420601  0.85917399  1
  Fe  Fe4  1  0.78503301  0.14082700  0.40561902  1
  Fe  Fe5  1  0.21496702  0.62058501  0.35579399  1
  O  O6  1  0.07814601  0.26133600  0.77583199  1
  O  O7  1  0.92185403  0.69768601  0.18319002  1
  O  O8  1  0.51449603  0.81681001  0.73866400  1
  O  O9  1  0.48550401  0.22416800  0.30231401  1
  O  O10  1  1.00000002  0.24588000  0.24588003  1
  O  O11  1  0.00000002  0.75412001  0.75411998  1
  O  O12  1  0.50000003  0.75000001  0.25000000  1
