# generated using pymatgen
data_Ca2Ti2O5
_symmetry_space_group_name_H-M   'P 1'
_cell_length_a   5.47937822
_cell_length_b   5.81283188
_cell_length_c   8.84891129
_cell_angle_alpha   109.17465973
_cell_angle_beta   108.03557587
_cell_angle_gamma   90.00000000
_symmetry_Int_Tables_number   1
_chemical_formula_structural   Ca2Ti2O5
_chemical_formula_sum   'Ca4 Ti4 O10'
_cell_volume   251.49975296
_cell_formula_units_Z   2
loop_
 _symmetry_equiv_pos_site_id
 _symmetry_equiv_pos_as_xyz
  1  'x, y, z'
loop_
 _atom_site_type_symbol
 _atom_site_label
 _atom_site_symmetry_multiplicity
 _atom_site_fract_x
 _atom_site_fract_y
 _atom_site_fract_z
 _atom_site_occupancy
  Ca  Ca0  1  0.60969097  0.13298500  0.22070200  1
  Ca  Ca1  1  0.38898997  0.86701500  0.77929799  1
  Ca  Ca2  1  0.10969199  0.58771700  0.22070299  1
  Ca  Ca3  1  0.88898896  0.41228300  0.77929701  1
  Ti  Ti4  1  0.98978996  0.00000000  1.00000003  1
  Ti  Ti5  1  0.48978997  0.50000000  1.00000001  1
  Ti  Ti6  1  0.28514899  0.18816400  0.50000001  1
  Ti  Ti7  1  0.78514896  0.81183600  0.49999999  1
  O  O8  1  0.72724297  0.23760200  0.96512502  1
  O  O9  1  0.76211796  0.76239800  0.03487498  1
  O  O10  1  0.22724299  0.22752300  0.96512502  1
  O  O11  1  0.26211798  0.77247700  0.03487498  1
  O  O12  1  0.09928999  0.22440100  0.28292000  1
  O  O13  1  0.81636996  0.77559900  0.71707999  1
  O  O14  1  0.59928997  0.55851900  0.28291999  1
  O  O15  1  0.31636998  0.44148100  0.71708000  1
  O  O16  1  0.65735997  0.13759700  0.50000001  1
  O  O17  1  0.15735898  0.86240300  0.49999898  1
