# generated using pymatgen
data_Zr2(FeSi5)3
_symmetry_space_group_name_H-M   'P 1'
_cell_length_a   6.43247986
_cell_length_b   6.45338678
_cell_length_c   6.45338678
_cell_angle_alpha   83.46690369
_cell_angle_beta   83.07215118
_cell_angle_gamma   83.07215118
_symmetry_Int_Tables_number   1
_chemical_formula_structural   Zr2(FeSi5)3
_chemical_formula_sum   'Zr2 Fe3 Si15'
_cell_volume   262.64910965
_cell_formula_units_Z   1
loop_
 _symmetry_equiv_pos_site_id
 _symmetry_equiv_pos_as_xyz
  1  'x, y, z'
loop_
 _atom_site_type_symbol
 _atom_site_label
 _atom_site_symmetry_multiplicity
 _atom_site_fract_x
 _atom_site_fract_y
 _atom_site_fract_z
 _atom_site_occupancy
  Zr  Zr0  1  0.35059899  0.33956799  0.33956799  1
  Zr  Zr1  1  0.64940097  0.66043198  0.66043199  1
  Fe  Fe2  1  0.15055699  0.65644698  0.65644700  1
  Si  Si3  1  0.65687898  0.14992599  0.65847997  1
  Si  Si4  1  0.65687897  0.65847998  0.14992601  1
  Fe  Fe5  1  0.84944297  0.34355299  0.34355299  1
  Si  Si6  1  0.34312098  0.85007397  0.34152001  1
  Si  Si7  1  0.34312099  0.34151999  0.85007398  1
  Si  Si8  1  0.09753500  0.09660800  0.09660800  1
  Si  Si9  1  0.90246496  0.90339197  0.90339199  1
  Si  Si10  1  0.49999999  0.00000000  -0.00000001  1
  Si  Si11  1  0.99999997  0.49999998  0.99999997  1
  Si  Si12  1  0.00000000  0.00000000  0.49999998  1
  Si  Si13  1  -0.00000000  0.28594199  0.71405799  1
  Si  Si14  1  0.70933597  0.99998697  0.29102701  1
  Si  Si15  1  0.29066398  0.70897298  0.00001302  1
  Si  Si16  1  0.29066399  0.00001300  0.70897297  1
  Fe  Fe17  1  0.70933598  0.29102699  0.99998697  1
  Si  Si18  1  -0.00000001  0.71405798  0.28594201  1
  Si  Si19  1  0.99999997  0.49999998  0.49999998  1
