# generated using pymatgen
data_NaLi2Al(SiO3)4
_symmetry_space_group_name_H-M   'P 1'
_cell_length_a   5.36400843
_cell_length_b   5.36457491
_cell_length_c   10.36830807
_cell_angle_alpha   99.92957306
_cell_angle_beta   94.72709656
_cell_angle_gamma   60.03534317
_symmetry_Int_Tables_number   1
_chemical_formula_structural   NaLi2Al(SiO3)4
_chemical_formula_sum   'Na1 Li2 Al1 Si4 O12'
_cell_volume   254.60033997
_cell_formula_units_Z   1
loop_
 _symmetry_equiv_pos_site_id
 _symmetry_equiv_pos_as_xyz
  1  'x, y, z'
loop_
 _atom_site_type_symbol
 _atom_site_label
 _atom_site_symmetry_multiplicity
 _atom_site_fract_x
 _atom_site_fract_y
 _atom_site_fract_z
 _atom_site_occupancy
  Na  Na0  1  0.99913096  0.48956801  0.96800203  1
  Li  Li1  1  0.34108098  0.33185601  0.50558201  1
  Li  Li2  1  0.66280396  0.67356602  0.50483501  1
  Al  Al3  1  0.99945594  0.99585802  0.50486500  1
  Si  Si4  1  0.66649398  0.09122900  0.77339503  1
  Si  Si5  1  0.33355797  0.75917902  0.77751702  1
  Si  Si6  1  0.33112597  0.91064902  0.23035699  1
  Si  Si7  1  0.66488997  0.24663501  0.23041800  1
  O  O8  1  0.01138497  0.99862702  0.83367901  1
  O  O9  1  0.99856197  0.04643100  0.17204501  1
  O  O10  1  0.66694598  0.03269100  0.60056202  1
  O  O11  1  0.33435397  0.70375202  0.61288401  1
  O  O12  1  0.33075697  0.95950502  0.38938700  1
  O  O13  1  0.66543797  0.30221201  0.38942401  1
  O  O14  1  0.55223496  0.87971502  0.83415402  1
  O  O15  1  0.43395198  0.45770601  0.83379403  1
  O  O16  1  0.48618598  0.07208100  0.17437601  1
  O  O17  1  0.51159097  0.55822801  0.17063200  1
  O  O18  1  0.99916196  0.36382901  0.59311002  1
  O  O19  1  0.01089298  0.62668401  0.40098200  1
