# generated using pymatgen
data_Zr2Fe2Ru2C
_symmetry_space_group_name_H-M   'P 1'
_cell_length_a   3.92258811
_cell_length_b   5.62642193
_cell_length_c   5.64112997
_cell_angle_alpha   73.25790405
_cell_angle_beta   69.65467072
_cell_angle_gamma   69.59912109
_symmetry_Int_Tables_number   1
_chemical_formula_structural   Zr2Fe2Ru2C
_chemical_formula_sum   'Zr2 Fe2 Ru2 C1'
_cell_volume   107.42100355
_cell_formula_units_Z   1
loop_
 _symmetry_equiv_pos_site_id
 _symmetry_equiv_pos_as_xyz
  1  'x, y, z'
loop_
 _atom_site_type_symbol
 _atom_site_label
 _atom_site_symmetry_multiplicity
 _atom_site_fract_x
 _atom_site_fract_y
 _atom_site_fract_z
 _atom_site_occupancy
  Zr  Zr0  1  0.94094597  0.32448501  0.79362293  1
  Zr  Zr1  1  0.05905396  0.67551502  0.20637695  1
  Fe  Fe2  1  0.70108298  0.19329101  0.40454296  1
  Fe  Fe3  1  0.29891695  0.80670903  0.59545692  1
  Ru  Ru4  1  0.33785699  0.10738200  0.21690398  1
  Ru  Ru5  1  0.66214294  0.89261803  0.78309590  1
  C  C6  1  0.49999996  0.50000002  0.49999994  1
