# generated using pymatgen
data_Fe
_symmetry_space_group_name_H-M   'P 1'
_cell_length_a   4.06015396
_cell_length_b   5.05937624
_cell_length_c   5.05937576
_cell_angle_alpha   120.00000000
_cell_angle_beta   90.00000000
_cell_angle_gamma   90.00000000
_symmetry_Int_Tables_number   1
_chemical_formula_structural   Fe
_chemical_formula_sum   Fe8
_cell_volume   90.00508509
_cell_formula_units_Z   8
loop_
 _symmetry_equiv_pos_site_id
 _symmetry_equiv_pos_as_xyz
  1  'x, y, z'
loop_
 _atom_site_type_symbol
 _atom_site_label
 _atom_site_symmetry_multiplicity
 _atom_site_fract_x
 _atom_site_fract_y
 _atom_site_fract_z
 _atom_site_occupancy
  Fe  Fe0  1  0.25000000  0.66666663  0.33333333  1
  Fe  Fe1  1  0.75000001  0.33333332  0.66666668  1
  Fe  Fe2  1  0.75000001  0.83487195  0.16512799  1
  Fe  Fe3  1  0.75000001  0.33025598  0.16512800  1
  Fe  Fe4  1  0.75000001  0.83487195  0.66974400  1
  Fe  Fe5  1  0.25000000  0.16512799  0.83487202  1
  Fe  Fe6  1  0.25000000  0.66974396  0.83487201  1
  Fe  Fe7  1  0.25000000  0.16512799  0.33025600  1
