# generated using pymatgen
data_La5Sb4
_symmetry_space_group_name_H-M   'P 1'
_cell_length_a   7.14751911
_cell_length_b   9.68669987
_cell_length_c   9.68669987
_cell_angle_alpha   120.00000000
_cell_angle_beta   90.00000000
_cell_angle_gamma   90.00000000
_symmetry_Int_Tables_number   1
_chemical_formula_structural   La5Sb4
_chemical_formula_sum   'La10 Sb8'
_cell_volume   580.81476018
_cell_formula_units_Z   2
loop_
 _symmetry_equiv_pos_site_id
 _symmetry_equiv_pos_as_xyz
  1  'x, y, z'
loop_
 _atom_site_type_symbol
 _atom_site_label
 _atom_site_symmetry_multiplicity
 _atom_site_fract_x
 _atom_site_fract_y
 _atom_site_fract_z
 _atom_site_occupancy
  La  La0  1  0.25000000  0.23990700  0.99999998  1
  La  La1  1  0.25000000  0.76009300  0.76009298  1
  La  La2  1  0.25000000  0.00000000  0.23990700  1
  La  La3  1  0.74999999  0.76009300  0.99999998  1
  La  La4  1  0.74999999  0.23990700  0.23990699  1
  La  La5  1  0.74999999  0.00000000  0.76009299  1
  La  La6  1  -0.00000000  0.33333334  0.66666665  1
  La  La7  1  0.99999998  0.66666667  0.33333332  1
  La  La8  1  0.49999999  0.66666667  0.33333332  1
  La  La9  1  0.49999999  0.33333334  0.66666665  1
  Sb  Sb10  1  0.25000000  0.60121500  -0.00000001  1
  Sb  Sb11  1  0.25000000  0.39878500  0.39878499  1
  Sb  Sb12  1  0.25000000  0.00000000  0.60121499  1
  Sb  Sb13  1  0.74999999  0.39878500  -0.00000001  1
  Sb  Sb14  1  0.74999999  0.60121500  0.60121498  1
  Sb  Sb15  1  0.74999999  0.00000000  0.39878500  1
  Sb  Sb16  1  0.00000000  0.00000000  0.00000000  1
  Sb  Sb17  1  0.49999999  0.00000000  -0.00000000  1
