# generated using pymatgen
data_Ce2InNi2
_symmetry_space_group_name_H-M   'P 1'
_cell_length_a   3.64553595
_cell_length_b   7.63944721
_cell_length_c   7.63944721
_cell_angle_alpha   90.00000000
_cell_angle_beta   90.00000000
_cell_angle_gamma   90.00000000
_symmetry_Int_Tables_number   1
_chemical_formula_structural   Ce2InNi2
_chemical_formula_sum   'Ce4 In2 Ni4'
_cell_volume   212.75768369
_cell_formula_units_Z   2
loop_
 _symmetry_equiv_pos_site_id
 _symmetry_equiv_pos_as_xyz
  1  'x, y, z'
loop_
 _atom_site_type_symbol
 _atom_site_label
 _atom_site_symmetry_multiplicity
 _atom_site_fract_x
 _atom_site_fract_y
 _atom_site_fract_z
 _atom_site_occupancy
  Ce  Ce0  1  0.50000001  0.67424998  0.17425000  1
  Ce  Ce1  1  0.50000001  0.32574999  0.82574998  1
  Ce  Ce2  1  0.50000001  0.17425000  0.32574999  1
  Ce  Ce3  1  0.50000001  0.82574998  0.67424998  1
  In  In4  1  0.00000000  0.49999999  0.49999999  1
  In  In5  1  0.00000000  0.00000000  0.00000000  1
  Ni  Ni6  1  1.00000001  0.11875700  0.61875698  1
  Ni  Ni7  1  0.00000000  0.88124298  0.38124299  1
  Ni  Ni8  1  0.00000000  0.61875698  0.88124298  1
  Ni  Ni9  1  0.00000000  0.38124299  0.11875700  1
