# generated using pymatgen
data_SrFeO3
_symmetry_space_group_name_H-M   'P 1'
_cell_length_a   5.39873505
_cell_length_b   5.39873505
_cell_length_c   5.39873505
_cell_angle_alpha   89.76457214
_cell_angle_beta   60.05332947
_cell_angle_gamma   119.78173065
_symmetry_Int_Tables_number   1
_chemical_formula_structural   SrFeO3
_chemical_formula_sum   'Sr2 Fe2 O6'
_cell_volume   111.49271530
_cell_formula_units_Z   2
loop_
 _symmetry_equiv_pos_site_id
 _symmetry_equiv_pos_as_xyz
  1  'x, y, z'
loop_
 _atom_site_type_symbol
 _atom_site_label
 _atom_site_symmetry_multiplicity
 _atom_site_fract_x
 _atom_site_fract_y
 _atom_site_fract_z
 _atom_site_occupancy
  Sr  Sr0  1  0.00097997  0.25097998  0.74999999  1
  Sr  Sr1  1  0.99901987  0.74901994  0.25000006  1
  Fe  Fe2  1  0.49999992  0.49999996  0.00000004  1
  Fe  Fe3  1  0.49999998  0.00000000  0.50000000  1
  O  O4  1  0.49999990  0.72942294  0.27057705  1
  O  O5  1  -0.00000009  0.72942294  0.77057702  1
  O  O6  1  0.49999995  0.27057698  0.72942301  1
  O  O7  1  -0.00000003  0.27057698  0.22942301  1
  O  O8  1  0.54013389  0.79013393  0.75000004  1
  O  O9  1  0.45986596  0.20986598  0.25000002  1
