# generated using pymatgen
data_Al3Cu3Si2O11
_symmetry_space_group_name_H-M   'P 1'
_cell_length_a   6.66629124
_cell_length_b   6.66629124
_cell_length_c   6.66629124
_cell_angle_alpha   109.47122192
_cell_angle_beta   109.47122192
_cell_angle_gamma   109.47122192
_symmetry_Int_Tables_number   1
_chemical_formula_structural   Al3Cu3Si2O11
_chemical_formula_sum   'Al3 Cu3 Si2 O11'
_cell_volume   228.05045239
_cell_formula_units_Z   1
loop_
 _symmetry_equiv_pos_site_id
 _symmetry_equiv_pos_as_xyz
  1  'x, y, z'
loop_
 _atom_site_type_symbol
 _atom_site_label
 _atom_site_symmetry_multiplicity
 _atom_site_fract_x
 _atom_site_fract_y
 _atom_site_fract_z
 _atom_site_occupancy
  Al  Al0  1  0.00000003  0.50000001  0.50000002  1
  Al  Al1  1  0.50000003  0.50000001  1.00000003  1
  Al  Al2  1  0.50000006  1.00000003  0.50000006  1
  Cu  Cu3  1  0.50000003  0.50000001  0.50000003  1
  Si  Si4  1  0.00000003  0.50000001  1.00000002  1
  Cu  Cu5  1  0.50000006  1.00000003  1.00000006  1
  Cu  Cu6  1  0.00000000  0.00000000  0.49999999  1
  Si  Si7  1  0.84880904  0.67647602  0.17233306  1
  O  O8  1  0.15119102  0.32352401  0.82766701  1
  O  O9  1  0.49585802  0.32352501  0.17233403  1
  O  O10  1  0.82766703  0.50414301  0.67647604  1
  O  O11  1  0.67647605  0.82766702  0.50414306  1
  O  O12  1  0.67647601  0.17233401  0.84880902  1
  O  O13  1  0.82766701  0.15119100  0.32352502  1
  O  O14  1  0.32352401  0.17233301  0.49585701  1
  O  O15  1  0.50414204  0.67647502  0.82766604  1
  O  O16  1  0.17233303  0.49585701  0.32352403  1
  O  O17  1  0.32352405  0.82766602  0.15119105  1
  O  O18  1  0.17233305  0.84880903  0.67647504  1
