# generated using pymatgen
data_Ho2Ni3
_symmetry_space_group_name_H-M   'P 1'
_cell_length_a   4.35922813
_cell_length_b   5.44896746
_cell_length_c   5.44896746
_cell_angle_alpha   64.43943024
_cell_angle_beta   66.42150879
_cell_angle_gamma   66.42150879
_symmetry_Int_Tables_number   1
_chemical_formula_structural   Ho2Ni3
_chemical_formula_sum   'Ho2 Ni3'
_cell_volume   102.88758128
_cell_formula_units_Z   1
loop_
 _symmetry_equiv_pos_site_id
 _symmetry_equiv_pos_as_xyz
  1  'x, y, z'
loop_
 _atom_site_type_symbol
 _atom_site_label
 _atom_site_symmetry_multiplicity
 _atom_site_fract_x
 _atom_site_fract_y
 _atom_site_fract_z
 _atom_site_occupancy
  Ho  Ho0  1  0.20185398  0.29814602  0.29814600  1
  Ho  Ho1  1  0.79814595  0.70185404  0.70185399  1
  Ni  Ni2  1  0.49999998  0.28836302  0.71163700  1
  Ni  Ni3  1  0.49999995  0.71163704  0.28836299  1
  Ni  Ni4  1  0.00000000  0.00000000  0.00000000  1
