# generated using pymatgen
data_LiTaO3
_symmetry_space_group_name_H-M   'P 1'
_cell_length_a   5.28419685
_cell_length_b   5.82443714
_cell_length_c   7.67218590
_cell_angle_alpha   90.00000000
_cell_angle_beta   90.00000000
_cell_angle_gamma   90.00000000
_symmetry_Int_Tables_number   1
_chemical_formula_structural   LiTaO3
_chemical_formula_sum   'Li4 Ta4 O12'
_cell_volume   236.13048985
_cell_formula_units_Z   4
loop_
 _symmetry_equiv_pos_site_id
 _symmetry_equiv_pos_as_xyz
  1  'x, y, z'
loop_
 _atom_site_type_symbol
 _atom_site_label
 _atom_site_symmetry_multiplicity
 _atom_site_fract_x
 _atom_site_fract_y
 _atom_site_fract_z
 _atom_site_occupancy
  Li  Li0  1  0.03185400  0.41461599  0.25000000  1
  Li  Li1  1  0.96814603  0.58538399  0.75000001  1
  Li  Li2  1  0.53185401  0.08538400  0.75000001  1
  Li  Li3  1  0.46814601  0.91461598  0.25000000  1
  Ta  Ta4  1  0.00000000  0.00000000  0.00000000  1
  Ta  Ta5  1  0.50000001  0.49999999  0.00000000  1
  Ta  Ta6  1  0.00000000  0.00000000  0.50000001  1
  Ta  Ta7  1  0.50000001  0.49999999  0.50000001  1
  O  O8  1  0.32247001  0.19052300  0.06375200  1
  O  O9  1  0.67753002  0.80947698  0.93624801  1
  O  O10  1  0.82247002  0.30947699  0.93624801  1
  O  O11  1  0.67753002  0.80947698  0.56375201  1
  O  O12  1  0.17753000  0.69052298  0.06375200  1
  O  O13  1  0.32247001  0.19052300  0.43624801  1
  O  O14  1  0.17753000  0.69052298  0.43624801  1
  O  O15  1  0.82247002  0.30947699  0.56375201  1
  O  O16  1  0.63728002  0.55306699  0.25000000  1
  O  O17  1  0.36272001  0.44693299  0.75000001  1
  O  O18  1  0.13728000  0.94693298  0.75000001  1
  O  O19  1  0.86272002  0.05306700  0.25000000  1
