# generated using pymatgen
data_MnO2
_symmetry_space_group_name_H-M   'P 1'
_cell_length_a   5.11568832
_cell_length_b   5.11565924
_cell_length_c   6.27354717
_cell_angle_alpha   89.99841309
_cell_angle_beta   89.99864197
_cell_angle_gamma   67.58696747
_symmetry_Int_Tables_number   1
_chemical_formula_structural   MnO2
_chemical_formula_sum   'Mn4 O8'
_cell_volume   151.77724408
_cell_formula_units_Z   4
loop_
 _symmetry_equiv_pos_site_id
 _symmetry_equiv_pos_as_xyz
  1  'x, y, z'
loop_
 _atom_site_type_symbol
 _atom_site_label
 _atom_site_symmetry_multiplicity
 _atom_site_fract_x
 _atom_site_fract_y
 _atom_site_fract_z
 _atom_site_occupancy
  Mn  Mn0  1  0.00000900  0.00000600  0.49996699  1
  Mn  Mn1  1  0.35488598  0.35488999  0.25000301  1
  Mn  Mn2  1  0.99999596  0.99999496  0.99998502  1
  Mn  Mn3  1  0.64511297  0.64510797  0.74999901  1
  O  O4  1  0.76428197  0.76428397  0.96535701  1
  O  O5  1  0.76431197  0.76431397  0.53466003  1
  O  O6  1  0.23571299  0.23571299  0.03465301  1
  O  O7  1  0.23570099  0.23569999  0.46536800  1
  O  O8  1  0.26054598  0.78983397  0.75001499  1
  O  O9  1  0.21017698  0.73942897  0.24998800  1
  O  O10  1  0.78982797  0.26055599  0.75001602  1
  O  O11  1  0.73943698  0.21017299  0.24998903  1
