# generated using pymatgen
data_BaZr4O6
_symmetry_space_group_name_H-M   'P 1'
_cell_length_a   5.30280876
_cell_length_b   6.25533819
_cell_length_c   6.25533819
_cell_angle_alpha   60.00000000
_cell_angle_beta   90.00000000
_cell_angle_gamma   90.00000000
_symmetry_Int_Tables_number   1
_chemical_formula_structural   BaZr4O6
_chemical_formula_sum   'Ba1 Zr4 O6'
_cell_volume   179.69590738
_cell_formula_units_Z   1
loop_
 _symmetry_equiv_pos_site_id
 _symmetry_equiv_pos_as_xyz
  1  'x, y, z'
loop_
 _atom_site_type_symbol
 _atom_site_label
 _atom_site_symmetry_multiplicity
 _atom_site_fract_x
 _atom_site_fract_y
 _atom_site_fract_z
 _atom_site_occupancy
  Ba  Ba0  1  0.50000002  0.00000000  0.00000000  1
  Zr  Zr1  1  0.57417503  0.66666666  0.66666666  1
  Zr  Zr2  1  0.42582502  0.33333333  0.33333333  1
  Zr  Zr3  1  0.07250400  0.33333333  0.33333333  1
  Zr  Zr4  1  0.92749604  0.66666666  0.66666666  1
  O  O5  1  0.75149503  0.48248399  0.48248399  1
  O  O6  1  0.75149503  0.48248399  0.03503198  1
  O  O7  1  0.75149503  0.03503200  0.48248401  1
  O  O8  1  0.24850501  0.51751599  0.51751599  1
  O  O9  1  0.24850501  0.51751599  0.96496800  1
  O  O10  1  0.24850501  0.96496799  0.51751598  1
