# generated using pymatgen
data_Ba2LaCl6
_symmetry_space_group_name_H-M   'P 1'
_cell_length_a   5.50943184
_cell_length_b   7.27276039
_cell_length_c   7.66269779
_cell_angle_alpha   104.39935303
_cell_angle_beta   105.39056396
_cell_angle_gamma   107.70465088
_symmetry_Int_Tables_number   1
_chemical_formula_structural   Ba2LaCl6
_chemical_formula_sum   'Ba2 La1 Cl6'
_cell_volume   263.24518911
_cell_formula_units_Z   1
loop_
 _symmetry_equiv_pos_site_id
 _symmetry_equiv_pos_as_xyz
  1  'x, y, z'
loop_
 _atom_site_type_symbol
 _atom_site_label
 _atom_site_symmetry_multiplicity
 _atom_site_fract_x
 _atom_site_fract_y
 _atom_site_fract_z
 _atom_site_occupancy
  Ba  Ba0  1  0.92688798  0.43005997  0.46666793  1
  Ba  Ba1  1  0.27011595  0.68860696  0.09201893  1
  La  La2  1  0.75573693  0.98565794  0.76124990  1
  Cl  Cl3  1  0.50191700  0.07167900  0.42438998  1
  Cl  Cl4  1  0.81093299  0.33772598  0.06997194  1
  Cl  Cl5  1  0.48119296  0.58148896  0.43964594  1
  Cl  Cl6  1  0.19604794  0.83872095  0.76437593  1
  Cl  Cl7  1  0.80990995  0.81535595  0.06687090  1
  Cl  Cl8  1  0.19225898  0.33470498  0.77580797  1
