# generated using pymatgen
data_Hf5Pb4
_symmetry_space_group_name_H-M   'P 1'
_cell_length_a   6.03791714
_cell_length_b   8.98735809
_cell_length_c   8.98735809
_cell_angle_alpha   120.00000000
_cell_angle_beta   90.00000000
_cell_angle_gamma   90.00000000
_symmetry_Int_Tables_number   1
_chemical_formula_structural   Hf5Pb4
_chemical_formula_sum   'Hf10 Pb8'
_cell_volume   422.35911626
_cell_formula_units_Z   2
loop_
 _symmetry_equiv_pos_site_id
 _symmetry_equiv_pos_as_xyz
  1  'x, y, z'
loop_
 _atom_site_type_symbol
 _atom_site_label
 _atom_site_symmetry_multiplicity
 _atom_site_fract_x
 _atom_site_fract_y
 _atom_site_fract_z
 _atom_site_occupancy
  Hf  Hf0  1  0.99999998  0.33333333  0.66666663  1
  Hf  Hf1  1  -0.00000000  0.66666665  0.33333330  1
  Hf  Hf2  1  0.49999999  0.66666665  0.33333330  1
  Hf  Hf3  1  0.49999999  0.33333333  0.66666663  1
  Hf  Hf4  1  0.24999999  0.27865299  -0.00000001  1
  Hf  Hf5  1  0.24999999  0.72134698  0.72134695  1
  Hf  Hf6  1  0.24999999  0.99999998  0.27865297  1
  Hf  Hf7  1  0.74999998  0.72134698  0.99999994  1
  Hf  Hf8  1  0.74999998  0.27865299  0.27865298  1
  Hf  Hf9  1  0.74999998  0.99999998  0.72134695  1
  Pb  Pb10  1  0.00000000  0.00000000  0.00000000  1
  Pb  Pb11  1  0.49999999  0.00000000  -0.00000000  1
  Pb  Pb12  1  0.24999999  0.61366699  0.99999994  1
  Pb  Pb13  1  0.24999999  0.38633299  0.38633297  1
  Pb  Pb14  1  0.24999999  0.99999998  0.61366695  1
  Pb  Pb15  1  0.74999998  0.38633299  -0.00000001  1
  Pb  Pb16  1  0.74999998  0.61366699  0.61366696  1
  Pb  Pb17  1  0.74999998  0.99999998  0.38633296  1
