# generated using pymatgen
data_Li3Fe5OF11
_symmetry_space_group_name_H-M   'P 1'
_cell_length_a   5.12774038
_cell_length_b   5.48952675
_cell_length_c   8.89505959
_cell_angle_alpha   74.27893829
_cell_angle_beta   89.69834137
_cell_angle_gamma   62.86869812
_symmetry_Int_Tables_number   1
_chemical_formula_structural   Li3Fe5OF11
_chemical_formula_sum   'Li3 Fe5 O1 F11'
_cell_volume   212.44361518
_cell_formula_units_Z   1
loop_
 _symmetry_equiv_pos_site_id
 _symmetry_equiv_pos_as_xyz
  1  'x, y, z'
loop_
 _atom_site_type_symbol
 _atom_site_label
 _atom_site_symmetry_multiplicity
 _atom_site_fract_x
 _atom_site_fract_y
 _atom_site_fract_z
 _atom_site_occupancy
  Li  Li0  1  0.71043501  0.57234999  0.57367902  1
  Li  Li1  1  0.77783500  0.44311099  0.92823402  1
  Li  Li2  1  0.29274401  0.42395799  0.43970201  1
  Fe  Fe3  1  0.24103501  0.56234799  0.07142701  1
  Fe  Fe4  1  0.51642402  0.94452498  0.16828003  1
  Fe  Fe5  1  0.01184303  0.97423098  0.66995703  1
  Fe  Fe6  1  0.98264498  0.03598200  0.32787801  1
  Fe  Fe7  1  0.47272499  0.02305600  0.83408901  1
  O  O8  1  0.48207002  0.74796798  0.02802702  1
  F  F9  1  0.45417502  0.76105498  0.71328502  1
  F  F10  1  0.96778101  0.75679898  0.21870902  1
  F  F11  1  0.42542202  0.75438798  0.37433102  1
  F  F12  1  0.07205601  0.25245999  0.12891301  1
  F  F13  1  0.02307201  0.25136599  0.46686601  1
  F  F14  1  0.52960400  0.24980499  0.96966701  1
  F  F15  1  0.96724901  0.75972298  0.52762503  1
  F  F16  1  0.94335801  0.75042698  0.87113403  1
  F  F17  1  0.56883800  0.23800500  0.63266301  1
  F  F18  1  0.53456100  0.24448500  0.27992301  1
  F  F19  1  0.02612801  0.25395699  0.77561301  1
