# generated using pymatgen
data_ZnGaCuSnTe4
_symmetry_space_group_name_H-M   'P 1'
_cell_length_a   6.06802607
_cell_length_b   6.06802607
_cell_length_c   7.16344976
_cell_angle_alpha   115.05833435
_cell_angle_beta   115.05833435
_cell_angle_gamma   90.00000000
_symmetry_Int_Tables_number   1
_chemical_formula_structural   ZnGaCuSnTe4
_chemical_formula_sum   'Zn1 Ga1 Cu1 Sn1 Te4'
_cell_volume   211.21404712
_cell_formula_units_Z   1
loop_
 _symmetry_equiv_pos_site_id
 _symmetry_equiv_pos_as_xyz
  1  'x, y, z'
loop_
 _atom_site_type_symbol
 _atom_site_label
 _atom_site_symmetry_multiplicity
 _atom_site_fract_x
 _atom_site_fract_y
 _atom_site_fract_z
 _atom_site_occupancy
  Zn  Zn0  1  0.25000000  0.75000000  0.50000000  1
  Ga  Ga1  1  0.50000000  0.50000000  0.00000001  1
  Cu  Cu2  1  0.75000000  0.25000000  0.50000000  1
  Sn  Sn3  1  0.00000000  0.00000000  0.00000000  1
  Te  Te4  1  0.65250500  0.62500000  0.75000000  1
  Te  Te5  1  0.37500000  0.90250499  0.25000001  1
  Te  Te6  1  0.09749500  0.12500000  0.74999999  1
  Te  Te7  1  0.87500000  0.34749500  0.25000000  1
