# generated using pymatgen
data_YO2
_symmetry_space_group_name_H-M   'P 1'
_cell_length_a   3.80349398
_cell_length_b   5.36477423
_cell_length_c   6.55299044
_cell_angle_alpha   114.16324615
_cell_angle_beta   106.87055969
_cell_angle_gamma   90.00000000
_symmetry_Int_Tables_number   1
_chemical_formula_structural   YO2
_chemical_formula_sum   'Y3 O6'
_cell_volume   115.66141056
_cell_formula_units_Z   3
loop_
 _symmetry_equiv_pos_site_id
 _symmetry_equiv_pos_as_xyz
  1  'x, y, z'
loop_
 _atom_site_type_symbol
 _atom_site_label
 _atom_site_symmetry_multiplicity
 _atom_site_fract_x
 _atom_site_fract_y
 _atom_site_fract_z
 _atom_site_occupancy
  Y  Y0  1  0.33545898  0.33545898  0.67091797  1
  Y  Y1  1  0.66454097  0.66454097  0.32908196  1
  Y  Y2  1  0.00000000  0.00000000  0.00000000  1
  O  O3  1  0.16075398  0.40432398  0.32150898  1
  O  O4  1  0.49999997  0.76361996  -0.00000003  1
  O  O5  1  0.83924499  0.08281500  0.67848996  1
  O  O6  1  0.49999999  0.23637999  -0.00000002  1
  O  O7  1  0.83924597  0.59567597  0.67849095  1
  O  O8  1  0.16075496  0.91718495  0.32150997  1
