# generated using pymatgen
data_RbAg3As2PbS
_symmetry_space_group_name_H-M   'P 1'
_cell_length_a   4.28584194
_cell_length_b   4.28584194
_cell_length_c   9.92161179
_cell_angle_alpha   90.00000000
_cell_angle_beta   90.00000000
_cell_angle_gamma   90.00000000
_symmetry_Int_Tables_number   1
_chemical_formula_structural   RbAg3As2PbS
_chemical_formula_sum   'Rb1 Ag3 As2 Pb1 S1'
_cell_volume   182.24454221
_cell_formula_units_Z   1
loop_
 _symmetry_equiv_pos_site_id
 _symmetry_equiv_pos_as_xyz
  1  'x, y, z'
loop_
 _atom_site_type_symbol
 _atom_site_label
 _atom_site_symmetry_multiplicity
 _atom_site_fract_x
 _atom_site_fract_y
 _atom_site_fract_z
 _atom_site_occupancy
  Rb  Rb0  1  0.00000000  0.50000001  0.84044302  1
  Ag  Ag1  1  0.50000001  0.00000000  0.15955700  1
  Ag  Ag2  1  0.00000000  0.00000000  0.50000001  1
  Ag  Ag3  1  0.50000001  0.50000001  0.50000001  1
  As  As4  1  0.00000000  0.50000001  0.34379501  1
  S  S5  1  0.50000001  0.00000000  0.65620501  1
  As  As6  1  0.00000000  0.00000000  0.00000000  1
  Pb  Pb7  1  0.50000001  0.50000001  0.00000000  1
