# generated using pymatgen
data_ThSn
_symmetry_space_group_name_H-M   'P 1'
_cell_length_a   7.15458298
_cell_length_b   9.05948830
_cell_length_c   9.05948734
_cell_angle_alpha   120.00000000
_cell_angle_beta   90.00000000
_cell_angle_gamma   90.00000000
_symmetry_Int_Tables_number   1
_chemical_formula_structural   ThSn
_chemical_formula_sum   'Th9 Sn9'
_cell_volume   508.53663789
_cell_formula_units_Z   9
loop_
 _symmetry_equiv_pos_site_id
 _symmetry_equiv_pos_as_xyz
  1  'x, y, z'
loop_
 _atom_site_type_symbol
 _atom_site_label
 _atom_site_symmetry_multiplicity
 _atom_site_fract_x
 _atom_site_fract_y
 _atom_site_fract_z
 _atom_site_occupancy
  Th  Th0  1  0.75000000  0.76167596  0.76167596  1
  Th  Th1  1  0.25000000  0.23832399  0.23832399  1
  Th  Th2  1  0.75000000  0.00000000  0.23832400  1
  Th  Th3  1  0.25000000  0.00000000  0.76167600  1
  Th  Th4  1  0.75000000  0.23832399  -0.00000001  1
  Th  Th5  1  0.25000000  0.76167596  0.99999996  1
  Th  Th6  1  -0.00000000  0.66666663  0.33333330  1
  Th  Th7  1  -0.00000000  0.33333331  0.66666665  1
  Th  Th8  1  0.50000000  0.33333331  0.66666665  1
  Sn  Sn9  1  0.50000000  0.66666663  0.33333330  1
  Sn  Sn10  1  0.00000000  0.00000000  0.00000000  1
  Sn  Sn11  1  0.50000000  0.00000000  -0.00000000  1
  Sn  Sn12  1  0.75000000  0.40916798  0.40916798  1
  Sn  Sn13  1  0.25000000  0.59083197  0.59083197  1
  Sn  Sn14  1  0.75000000  0.00000000  0.59083200  1
  Sn  Sn15  1  0.25000000  0.00000000  0.40916800  1
  Sn  Sn16  1  0.75000000  0.59083197  -0.00000003  1
  Sn  Sn17  1  0.25000000  0.40916798  -0.00000002  1
