# generated using pymatgen
data_Li5Cu4
_symmetry_space_group_name_H-M   'P 1'
_cell_length_a   5.83630514
_cell_length_b   5.83630514
_cell_length_c   5.83630514
_cell_angle_alpha   90.00000000
_cell_angle_beta   90.00000000
_cell_angle_gamma   90.00000000
_symmetry_Int_Tables_number   1
_chemical_formula_structural   Li5Cu4
_chemical_formula_sum   'Li5 Cu4'
_cell_volume   198.79889703
_cell_formula_units_Z   1
loop_
 _symmetry_equiv_pos_site_id
 _symmetry_equiv_pos_as_xyz
  1  'x, y, z'
loop_
 _atom_site_type_symbol
 _atom_site_label
 _atom_site_symmetry_multiplicity
 _atom_site_fract_x
 _atom_site_fract_y
 _atom_site_fract_z
 _atom_site_occupancy
  Li  Li0  1  0.49999999  0.49999999  0.49999999  1
  Li  Li1  1  0.00000000  0.49999999  0.00000000  1
  Li  Li2  1  0.00000000  0.00000000  0.49999999  1
  Li  Li3  1  0.49999999  0.00000000  0.00000000  1
  Li  Li4  1  0.00000000  0.00000000  0.00000000  1
  Cu  Cu5  1  0.22807499  0.22807499  0.22807499  1
  Cu  Cu6  1  0.77192498  0.77192498  0.22807499  1
  Cu  Cu7  1  0.22807499  0.77192498  0.77192498  1
  Cu  Cu8  1  0.77192498  0.22807499  0.77192498  1
