# generated using pymatgen
data_Cr2S3
_symmetry_space_group_name_H-M   'P 1'
_cell_length_a   3.11468196
_cell_length_b   6.39718866
_cell_length_c   7.75845337
_cell_angle_alpha   78.78412628
_cell_angle_beta   78.42044830
_cell_angle_gamma   75.91025543
_symmetry_Int_Tables_number   1
_chemical_formula_structural   Cr2S3
_chemical_formula_sum   'Cr4 S6'
_cell_volume   145.15065837
_cell_formula_units_Z   2
loop_
 _symmetry_equiv_pos_site_id
 _symmetry_equiv_pos_as_xyz
  1  'x, y, z'
loop_
 _atom_site_type_symbol
 _atom_site_label
 _atom_site_symmetry_multiplicity
 _atom_site_fract_x
 _atom_site_fract_y
 _atom_site_fract_z
 _atom_site_occupancy
  Cr  Cr0  1  0.63447911  0.58648199  0.14455996  1
  Cr  Cr1  1  0.36552107  0.41351800  0.85543998  1
  Cr  Cr2  1  0.74992904  0.13685200  0.36328999  1
  Cr  Cr3  1  0.25007114  0.86314799  0.63670996  1
  S  S4  1  0.90225711  0.56688800  0.62859796  1
  S  S5  1  0.09774307  0.43311200  0.37140198  1
  S  S6  1  0.58865303  0.14475700  0.67793699  1
  S  S7  1  0.41134715  0.85524299  0.32206295  1
  S  S8  1  0.11035813  0.81943199  0.95985196  1
  S  S9  1  0.88964205  0.18056800  0.04014798  1
