# generated using pymatgen
data_Ti2CN
_symmetry_space_group_name_H-M   'P 1'
_cell_length_a   2.91523147
_cell_length_b   2.91523147
_cell_length_c   5.58436155
_cell_angle_alpha   74.86956787
_cell_angle_beta   74.86956787
_cell_angle_gamma   60.00001144
_symmetry_Int_Tables_number   1
_chemical_formula_structural   Ti2CN
_chemical_formula_sum   'Ti2 C1 N1'
_cell_volume   39.18956548
_cell_formula_units_Z   1
loop_
 _symmetry_equiv_pos_site_id
 _symmetry_equiv_pos_as_xyz
  1  'x, y, z'
loop_
 _atom_site_type_symbol
 _atom_site_label
 _atom_site_symmetry_multiplicity
 _atom_site_fract_x
 _atom_site_fract_y
 _atom_site_fract_z
 _atom_site_occupancy
  Ti  Ti0  1  0.41373397  0.41373400  0.75879804  1
  Ti  Ti1  1  0.58581396  0.58581400  0.24255803  1
  N  N2  1  0.84214194  0.84214200  0.47357405  1
  C  C3  1  0.99700993  0.99701000  0.00897005  1
