# generated using pymatgen
data_Eu2CuSn4
_symmetry_space_group_name_H-M   'P 1'
_cell_length_a   4.59761715
_cell_length_b   4.59969521
_cell_length_c   9.02342129
_cell_angle_alpha   90.00000000
_cell_angle_beta   104.75936890
_cell_angle_gamma   90.00000000
_symmetry_Int_Tables_number   1
_chemical_formula_structural   Eu2CuSn4
_chemical_formula_sum   'Eu2 Cu1 Sn4'
_cell_volume   184.52766891
_cell_formula_units_Z   1
loop_
 _symmetry_equiv_pos_site_id
 _symmetry_equiv_pos_as_xyz
  1  'x, y, z'
loop_
 _atom_site_type_symbol
 _atom_site_label
 _atom_site_symmetry_multiplicity
 _atom_site_fract_x
 _atom_site_fract_y
 _atom_site_fract_z
 _atom_site_occupancy
  Eu  Eu0  1  0.89494696  0.74999997  0.78989297  1
  Eu  Eu1  1  0.10358100  0.24999999  0.20716300  1
  Cu  Cu2  1  0.54243397  0.74999997  0.08486698  1
  Sn  Sn3  1  0.43324998  0.24999999  0.86649999  1
  Sn  Sn4  1  0.26100499  0.74999997  0.52201099  1
  Sn  Sn5  1  0.76028496  0.24999999  0.52056898  1
  Sn  Sn6  1  0.68949897  0.74999997  0.37899798  1
