# generated using pymatgen
data_ZrSnS7
_symmetry_space_group_name_H-M   'P 1'
_cell_length_a   6.71580982
_cell_length_b   7.55859756
_cell_length_c   7.03530788
_cell_angle_alpha   117.73510742
_cell_angle_beta   90.00000000
_cell_angle_gamma   116.37535095
_symmetry_Int_Tables_number   1
_chemical_formula_structural   ZrSnS7
_chemical_formula_sum   'Zr2 Sn2 S14'
_cell_volume   273.39687242
_cell_formula_units_Z   2
loop_
 _symmetry_equiv_pos_site_id
 _symmetry_equiv_pos_as_xyz
  1  'x, y, z'
loop_
 _atom_site_type_symbol
 _atom_site_label
 _atom_site_symmetry_multiplicity
 _atom_site_fract_x
 _atom_site_fract_y
 _atom_site_fract_z
 _atom_site_occupancy
  Zr  Zr0  1  0.48619804  0.39065901  0.94533002  1
  Zr  Zr1  1  0.09554005  0.60934201  0.05467100  1
  Sn  Sn2  1  0.06824904  0.56866201  0.53433101  1
  Sn  Sn3  1  0.49958705  0.43133801  0.46566901  1
  S  S4  1  0.90401210  0.99302002  0.74651002  1
  S  S5  1  0.91099203  0.00698000  0.25349000  1
  S  S6  1  0.24591101  0.00000000  0.50000001  1
  S  S7  1  0.24591108  1.00000002  0.00000001  1
  S  S8  1  0.49550007  0.74586802  0.90745102  1
  S  S9  1  0.74963204  0.25413201  0.09254900  1
  S  S10  1  0.49550007  0.74586802  0.33841701  1
  S  S11  1  0.74963204  0.25413201  0.66158301  1
  S  S12  1  0.48159708  0.94396602  0.72198302  1
  S  S13  1  0.53763102  0.05603400  0.27801701  1
  S  S14  1  0.16144603  0.33473901  0.67208601  1
  S  S15  1  0.82670707  0.66526102  0.32791401  1
  S  S16  1  0.16144603  0.33473901  0.16265300  1
  S  S17  1  0.82670707  0.66526102  0.83734702  1
