# generated using pymatgen
data_CaB2Ru2C
_symmetry_space_group_name_H-M   'P 1'
_cell_length_a   3.79033995
_cell_length_b   3.79033995
_cell_length_c   6.01027632
_cell_angle_alpha   108.38022614
_cell_angle_beta   108.38022614
_cell_angle_gamma   90.00000000
_symmetry_Int_Tables_number   1
_chemical_formula_structural   CaB2Ru2C
_chemical_formula_sum   'Ca1 B2 Ru2 C1'
_cell_volume   77.28696124
_cell_formula_units_Z   1
loop_
 _symmetry_equiv_pos_site_id
 _symmetry_equiv_pos_as_xyz
  1  'x, y, z'
loop_
 _atom_site_type_symbol
 _atom_site_label
 _atom_site_symmetry_multiplicity
 _atom_site_fract_x
 _atom_site_fract_y
 _atom_site_fract_z
 _atom_site_occupancy
  Ca  Ca0  1  0.49999998  0.50000000  -0.00000004  1
  B  B1  1  0.13716699  0.13716700  0.27433400  1
  B  B2  1  0.86283296  0.86283299  0.72566595  1
  Ru  Ru3  1  0.74999999  0.25000000  0.49999998  1
  Ru  Ru4  1  0.24999997  0.74999999  0.49999997  1
  C  C5  1  0.00000000  0.00000000  0.00000000  1
