# generated using pymatgen
data_LiFe
_symmetry_space_group_name_H-M   'P 1'
_cell_length_a   6.99658537
_cell_length_b   6.99658537
_cell_length_c   7.38330841
_cell_angle_alpha   61.71804428
_cell_angle_beta   61.71804428
_cell_angle_gamma   60.00000763
_symmetry_Int_Tables_number   1
_chemical_formula_structural   LiFe
_chemical_formula_sum   'Li5 Fe5'
_cell_volume   262.00586224
_cell_formula_units_Z   5
loop_
 _symmetry_equiv_pos_site_id
 _symmetry_equiv_pos_as_xyz
  1  'x, y, z'
loop_
 _atom_site_type_symbol
 _atom_site_label
 _atom_site_symmetry_multiplicity
 _atom_site_fract_x
 _atom_site_fract_y
 _atom_site_fract_z
 _atom_site_occupancy
  Li  Li0  1  0.00000000  0.00000000  0.00000000  1
  Li  Li1  1  0.20749599  0.20749599  0.37751202  1
  Li  Li2  1  0.49999998  0.49999999  0.50000003  1
  Li  Li3  1  0.79250397  0.79250398  0.62248805  1
  Fe  Fe4  1  0.38265998  0.77016098  0.74416804  1
  Li  Li5  1  0.77016098  0.10301100  0.74416804  1
  Fe  Fe6  1  0.10301099  0.38265999  0.74416803  1
  Fe  Fe7  1  0.89698897  0.61733998  0.25583204  1
  Fe  Fe8  1  0.22983899  0.89698898  0.25583203  1
  Fe  Fe9  1  0.61733998  0.22983899  0.25583202  1
