# generated using pymatgen
data_Ti5Re11
_symmetry_space_group_name_H-M   'P 1'
_cell_length_a   4.92343998
_cell_length_b   4.92456198
_cell_length_c   9.85498047
_cell_angle_alpha   90.00000000
_cell_angle_beta   90.00000000
_cell_angle_gamma   90.00000000
_symmetry_Int_Tables_number   1
_chemical_formula_structural   Ti5Re11
_chemical_formula_sum   'Ti5 Re11'
_cell_volume   238.94174079
_cell_formula_units_Z   1
loop_
 _symmetry_equiv_pos_site_id
 _symmetry_equiv_pos_as_xyz
  1  'x, y, z'
loop_
 _atom_site_type_symbol
 _atom_site_label
 _atom_site_symmetry_multiplicity
 _atom_site_fract_x
 _atom_site_fract_y
 _atom_site_fract_z
 _atom_site_occupancy
  Ti  Ti0  1  0.50000000  0.50000000  0.24999999  1
  Ti  Ti1  1  0.00000000  0.00000000  0.99998695  1
  Ti  Ti2  1  0.00000000  0.00000000  0.50001298  1
  Ti  Ti3  1  0.50000000  0.50000000  0.74999996  1
  Ti  Ti4  1  0.50000000  0.00000000  0.62462197  1
  Re  Re5  1  0.50000000  0.00000000  0.12555899  1
  Re  Re6  1  0.75028000  0.50000000  0.99948595  1
  Re  Re7  1  0.75028000  0.50000000  0.50051398  1
  Re  Re8  1  0.00000000  0.24983700  0.74999996  1
  Re  Re9  1  0.00000000  0.25074900  0.24999999  1
  Re  Re10  1  0.50000000  0.00000000  0.87537796  1
  Re  Re11  1  0.50000000  0.00000000  0.37444098  1
  Re  Re12  1  0.24972000  0.50000000  0.99948595  1
  Re  Re13  1  0.24972000  0.50000000  0.50051398  1
  Re  Re14  1  0.00000000  0.75016300  0.74999996  1
  Re  Re15  1  0.00000000  0.74925100  0.24999999  1
