# generated using pymatgen
data_FeP
_symmetry_space_group_name_H-M   'P 1'
_cell_length_a   3.15826797
_cell_length_b   5.30109882
_cell_length_c   5.91243887
_cell_angle_alpha   90.00000000
_cell_angle_beta   90.00000000
_cell_angle_gamma   90.00000000
_symmetry_Int_Tables_number   1
_chemical_formula_structural   FeP
_chemical_formula_sum   'Fe4 P4'
_cell_volume   98.98776998
_cell_formula_units_Z   4
loop_
 _symmetry_equiv_pos_site_id
 _symmetry_equiv_pos_as_xyz
  1  'x, y, z'
loop_
 _atom_site_type_symbol
 _atom_site_label
 _atom_site_symmetry_multiplicity
 _atom_site_fract_x
 _atom_site_fract_y
 _atom_site_fract_z
 _atom_site_occupancy
  Fe  Fe0  1  0.50000000  0.49687502  0.04343000  1
  Fe  Fe1  1  0.50000000  0.99687503  0.95657002  1
  Fe  Fe2  1  0.00000000  0.49498502  0.44177401  1
  Fe  Fe3  1  0.00000000  0.99498503  0.55822601  1
  P  P4  1  0.50000000  0.30725401  0.67927601  1
  P  P5  1  0.50000000  0.80725403  0.32072401  1
  P  P6  1  0.00000000  0.70088602  0.82426502  1
  P  P7  1  0.00000000  0.20088601  0.17573500  1
