# generated using pymatgen
data_CdNiPtO3
_symmetry_space_group_name_H-M   'P 1'
_cell_length_a   5.68053484
_cell_length_b   5.68053484
_cell_length_c   5.68053484
_cell_angle_alpha   90.68503571
_cell_angle_beta   90.68503571
_cell_angle_gamma   90.68502808
_symmetry_Int_Tables_number   1
_chemical_formula_structural   CdNiPtO3
_chemical_formula_sum   'Cd2 Ni2 Pt2 O6'
_cell_volume   183.26258283
_cell_formula_units_Z   2
loop_
 _symmetry_equiv_pos_site_id
 _symmetry_equiv_pos_as_xyz
  1  'x, y, z'
loop_
 _atom_site_type_symbol
 _atom_site_label
 _atom_site_symmetry_multiplicity
 _atom_site_fract_x
 _atom_site_fract_y
 _atom_site_fract_z
 _atom_site_occupancy
  Ni  Ni0  1  0.00649700  0.00649700  0.00649700  1
  Cd  Cd1  1  0.99901900  0.50379901  0.49102609  1
  Ni  Ni2  1  0.49102598  0.99901902  0.50379909  1
  Cd  Cd3  1  0.50379900  0.49102601  0.99901907  1
  Pt  Pt4  1  0.62009999  0.88162601  0.11737609  1
  O  O5  1  0.11737599  0.62010001  0.88162605  1
  O  O6  1  0.88162601  0.11737600  0.62010006  1
  Pt  Pt7  1  0.60503800  0.60503801  0.60503808  1
  O  O8  1  0.38321300  0.11575600  0.88550203  1
  O  O9  1  0.88550201  0.38321301  0.11575608  1
  O  O10  1  0.11575598  0.88550201  0.38321306  1
  O  O11  1  0.39104800  0.39104801  0.39104805  1
