# generated using pymatgen
data_Er2Se2O3
_symmetry_space_group_name_H-M   'P 1'
_cell_length_a   3.98650789
_cell_length_b   4.04886818
_cell_length_c   8.64518356
_cell_angle_alpha   103.37660980
_cell_angle_beta   90.00000000
_cell_angle_gamma   90.00000000
_symmetry_Int_Tables_number   1
_chemical_formula_structural   Er2Se2O3
_chemical_formula_sum   'Er2 Se2 O3'
_cell_volume   135.75488840
_cell_formula_units_Z   1
loop_
 _symmetry_equiv_pos_site_id
 _symmetry_equiv_pos_as_xyz
  1  'x, y, z'
loop_
 _atom_site_type_symbol
 _atom_site_label
 _atom_site_symmetry_multiplicity
 _atom_site_fract_x
 _atom_site_fract_y
 _atom_site_fract_z
 _atom_site_occupancy
  Er  Er0  1  0.25000001  0.19903799  0.85920902  1
  Er  Er1  1  0.25000001  0.40118499  0.28934401  1
  Se  Se2  1  0.75000002  0.61224298  0.71190802  1
  Se  Se3  1  0.25000001  0.78023698  0.02775700  1
  O  O4  1  0.75000002  0.25610499  0.02087500  1
  O  O5  1  0.25000001  0.04262200  0.57970901  1
  O  O6  1  0.75000002  0.94857097  0.39119801  1
