# generated using pymatgen
data_Mg2Cr2Cu(HS3)3
_symmetry_space_group_name_H-M   'P 1'
_cell_length_a   6.91765547
_cell_length_b   6.91765547
_cell_length_c   6.91765547
_cell_angle_alpha   60.00000000
_cell_angle_beta   60.00000000
_cell_angle_gamma   60.00000000
_symmetry_Int_Tables_number   1
_chemical_formula_structural   Mg2Cr2Cu(HS3)3
_chemical_formula_sum   'Mg2 Cr2 Cu1 H3 S9'
_cell_volume   234.07864082
_cell_formula_units_Z   1
loop_
 _symmetry_equiv_pos_site_id
 _symmetry_equiv_pos_as_xyz
  1  'x, y, z'
loop_
 _atom_site_type_symbol
 _atom_site_label
 _atom_site_symmetry_multiplicity
 _atom_site_fract_x
 _atom_site_fract_y
 _atom_site_fract_z
 _atom_site_occupancy
  Mg  Mg0  1  0.23570400  0.76429599  0.23570400  1
  Mg  Mg1  1  0.23570400  0.76429599  0.76429599  1
  Cr  Cr2  1  0.76429599  0.23570400  0.23570400  1
  Cr  Cr3  1  0.23570400  0.23570400  0.76429599  1
  Cu  Cu4  1  0.76429599  0.76429599  0.23570400  1
  H  H5  1  0.76429599  0.23570400  0.76429599  1
  H  H6  1  0.74999999  0.74999999  0.74999999  1
  H  H7  1  0.25000000  0.25000000  0.25000000  1
  S  S8  1  0.00000000  0.00000000  0.00000000  1
  S  S9  1  0.66179199  0.01462400  0.66179199  1
  S  S10  1  0.33820799  0.33820799  0.33820799  1
  S  S11  1  0.98537598  0.33820799  0.33820799  1
  S  S12  1  0.33820799  0.33820799  0.98537598  1
  S  S13  1  0.66179199  0.66179199  0.01462400  1
  S  S14  1  0.66179199  0.66179199  0.66179199  1
  S  S15  1  0.01462400  0.66179199  0.66179199  1
  S  S16  1  0.33820799  0.98537598  0.33820799  1
