# generated using pymatgen
data_Pr2Co3Si5
_symmetry_space_group_name_H-M   'P 1'
_cell_length_a   4.15982580
_cell_length_b   4.15982580
_cell_length_c   9.81708622
_cell_angle_alpha   90.00000000
_cell_angle_beta   90.00000000
_cell_angle_gamma   90.00000000
_symmetry_Int_Tables_number   1
_chemical_formula_structural   Pr2Co3Si5
_chemical_formula_sum   'Pr2 Co3 Si5'
_cell_volume   169.87633940
_cell_formula_units_Z   1
loop_
 _symmetry_equiv_pos_site_id
 _symmetry_equiv_pos_as_xyz
  1  'x, y, z'
loop_
 _atom_site_type_symbol
 _atom_site_label
 _atom_site_symmetry_multiplicity
 _atom_site_fract_x
 _atom_site_fract_y
 _atom_site_fract_z
 _atom_site_occupancy
  Pr  Pr0  1  0.00000000  0.00000000  0.00554800  1
  Pr  Pr1  1  0.50000002  0.50000002  0.49739799  1
  Co  Co2  1  0.00000000  0.50000002  0.24186899  1
  Co  Co3  1  0.50000002  0.00000000  0.75240198  1
  Si  Si4  1  0.50000002  0.00000000  0.24186899  1
  Co  Co5  1  0.00000000  0.50000002  0.75240198  1
  Si  Si6  1  0.00000000  0.00000000  0.63311899  1
  Si  Si7  1  0.00000000  0.00000000  0.36746599  1
  Si  Si8  1  0.50000002  0.50000002  0.86813998  1
  Si  Si9  1  0.50000002  0.50000002  0.13978600  1
