# generated using pymatgen
data_TlAg7S12
_symmetry_space_group_name_H-M   'P 1'
_cell_length_a   6.96539307
_cell_length_b   7.29194832
_cell_length_c   8.58159161
_cell_angle_alpha   89.12804413
_cell_angle_beta   75.74172211
_cell_angle_gamma   73.78710938
_symmetry_Int_Tables_number   1
_chemical_formula_structural   TlAg7S12
_chemical_formula_sum   'Tl1 Ag7 S12'
_cell_volume   404.97100373
_cell_formula_units_Z   1
loop_
 _symmetry_equiv_pos_site_id
 _symmetry_equiv_pos_as_xyz
  1  'x, y, z'
loop_
 _atom_site_type_symbol
 _atom_site_label
 _atom_site_symmetry_multiplicity
 _atom_site_fract_x
 _atom_site_fract_y
 _atom_site_fract_z
 _atom_site_occupancy
  Ag  Ag0  1  0.82937299  0.67115299  0.67102200  1
  Tl  Tl1  1  0.17062700  0.32884700  0.32897799  1
  Ag  Ag2  1  0.52472999  0.25228000  0.50076301  1
  Ag  Ag3  1  0.84826799  0.92633299  0.15813597  1
  Ag  Ag4  1  0.18085500  0.59519299  0.84545299  1
  Ag  Ag5  1  0.47527000  0.74771999  0.49923698  1
  Ag  Ag6  1  0.81914499  0.40480700  0.15454700  1
  Ag  Ag7  1  0.15173200  0.07366700  0.84186401  1
  S  S8  1  0.53938100  0.97946799  0.69055797  1
  S  S9  1  0.87661799  0.65082399  0.35890999  1
  S  S10  1  0.20794600  0.31640600  0.02626299  1
  S  S11  1  0.46061899  0.02053200  0.30944202  1
  S  S12  1  0.79205399  0.68359399  0.97373700  1
  S  S13  1  0.12338200  0.34917600  0.64108999  1
  S  S14  1  0.44234200  0.51062299  0.30388599  1
  S  S15  1  0.77742299  0.17840600  0.96846703  1
  S  S16  1  0.10253300  0.85072499  0.64271297  1
  S  S17  1  0.55765799  0.48937699  0.69611400  1
  S  S18  1  0.89746699  0.14927500  0.35728702  1
  S  S19  1  0.22257700  0.82159399  0.03153296  1
