# generated using pymatgen
data_YSe
_symmetry_space_group_name_H-M   'P 1'
_cell_length_a   5.87823582
_cell_length_b   5.87823582
_cell_length_c   7.22504520
_cell_angle_alpha   114.00370789
_cell_angle_beta   114.00370789
_cell_angle_gamma   90.00000000
_symmetry_Int_Tables_number   1
_chemical_formula_structural   YSe
_chemical_formula_sum   'Y4 Se4'
_cell_volume   204.20144332
_cell_formula_units_Z   4
loop_
 _symmetry_equiv_pos_site_id
 _symmetry_equiv_pos_as_xyz
  1  'x, y, z'
loop_
 _atom_site_type_symbol
 _atom_site_label
 _atom_site_symmetry_multiplicity
 _atom_site_fract_x
 _atom_site_fract_y
 _atom_site_fract_z
 _atom_site_occupancy
  Y  Y0  1  0.49999998  0.50000000  -0.00000004  1
  Y  Y1  1  0.24999997  0.75000000  0.49999995  1
  Y  Y2  1  0.00000000  0.00000000  0.00000000  1
  Y  Y3  1  0.75000000  0.25000000  0.49999995  1
  Se  Se4  1  0.75003698  0.75003700  0.50007393  1
  Se  Se5  1  0.50003701  0.00003700  0.00007398  1
  Se  Se6  1  0.24996299  0.24996300  0.49992597  1
  Se  Se7  1  0.99996299  0.49996300  0.99992593  1
