# generated using pymatgen
data_Ce(GeIr)2
_symmetry_space_group_name_H-M   'P 1'
_cell_length_a   4.26610613
_cell_length_b   4.26610613
_cell_length_c   5.84613657
_cell_angle_alpha   111.39929962
_cell_angle_beta   111.39929962
_cell_angle_gamma   90.00000000
_symmetry_Int_Tables_number   1
_chemical_formula_structural   Ce(GeIr)2
_chemical_formula_sum   'Ce1 Ge2 Ir2'
_cell_volume   91.13921447
_cell_formula_units_Z   1
loop_
 _symmetry_equiv_pos_site_id
 _symmetry_equiv_pos_as_xyz
  1  'x, y, z'
loop_
 _atom_site_type_symbol
 _atom_site_label
 _atom_site_symmetry_multiplicity
 _atom_site_fract_x
 _atom_site_fract_y
 _atom_site_fract_z
 _atom_site_occupancy
  Ce  Ce0  1  0.00000000  0.00000000  0.00000000  1
  Ge  Ge1  1  0.37945798  0.37945798  0.75891596  1
  Ge  Ge2  1  0.62054197  0.62054197  0.24108397  1
  Ir  Ir3  1  0.24999998  0.74999997  0.49999996  1
  Ir  Ir4  1  0.74999997  0.24999999  0.49999996  1
