# generated using pymatgen
data_Sr4BiO5
_symmetry_space_group_name_H-M   'P 1'
_cell_length_a   3.87512112
_cell_length_b   3.90866590
_cell_length_c   12.09581947
_cell_angle_alpha   90.00000000
_cell_angle_beta   90.00000000
_cell_angle_gamma   90.00000000
_symmetry_Int_Tables_number   1
_chemical_formula_structural   Sr4BiO5
_chemical_formula_sum   'Sr4 Bi1 O5'
_cell_volume   183.20997979
_cell_formula_units_Z   1
loop_
 _symmetry_equiv_pos_site_id
 _symmetry_equiv_pos_as_xyz
  1  'x, y, z'
loop_
 _atom_site_type_symbol
 _atom_site_label
 _atom_site_symmetry_multiplicity
 _atom_site_fract_x
 _atom_site_fract_y
 _atom_site_fract_z
 _atom_site_occupancy
  Sr  Sr0  1  0.49999998  0.41976601  0.85634697  1
  Sr  Sr1  1  0.49999998  0.58023402  0.14365299  1
  Sr  Sr2  1  0.00000000  0.91976602  0.64365297  1
  Sr  Sr3  1  -0.00000000  0.08023400  0.35634699  1
  O  O4  1  0.00000000  0.00000000  0.00000000  1
  Bi  Bi5  1  0.49999998  0.50000001  0.49999998  1
  O  O6  1  -0.00000000  0.44060201  0.74925497  1
  O  O7  1  -0.00000000  0.55939801  0.25074499  1
  O  O8  1  0.49999998  0.94060203  0.75074497  1
  O  O9  1  0.49999998  0.05939800  0.24925499  1
