# generated using pymatgen
data_LiFeF2
_symmetry_space_group_name_H-M   'P 1'
_cell_length_a   5.02854586
_cell_length_b   5.04458666
_cell_length_c   9.72807026
_cell_angle_alpha   76.10322571
_cell_angle_beta   76.04876709
_cell_angle_gamma   60.85113907
_symmetry_Int_Tables_number   1
_chemical_formula_structural   LiFeF2
_chemical_formula_sum   'Li4 Fe4 F8'
_cell_volume   206.95727849
_cell_formula_units_Z   4
loop_
 _symmetry_equiv_pos_site_id
 _symmetry_equiv_pos_as_xyz
  1  'x, y, z'
loop_
 _atom_site_type_symbol
 _atom_site_label
 _atom_site_symmetry_multiplicity
 _atom_site_fract_x
 _atom_site_fract_y
 _atom_site_fract_z
 _atom_site_occupancy
  Li  Li0  1  0.00000000  0.00000000  0.00000000  1
  Li  Li1  1  0.50000002  0.50000001  0.49999997  1
  Li  Li2  1  0.72698602  0.78154302  0.74990095  1
  Li  Li3  1  0.27301401  0.21845701  0.25009898  1
  Fe  Fe4  1  0.90876703  0.20090600  0.37130697  1
  Fe  Fe5  1  0.09123300  0.79909402  0.62869296  1
  Fe  Fe6  1  0.54153802  0.85078302  0.37431996  1
  Fe  Fe7  1  0.45846202  0.14921700  0.62567997  1
  F  F8  1  0.35863901  0.75083502  0.87344995  1
  F  F9  1  0.64136102  0.24916501  0.12654998  1
  F  F10  1  0.71174402  0.04538600  0.87538296  1
  F  F11  1  0.28825601  0.95461402  0.12461697  1
  F  F12  1  0.98902103  0.41942801  0.87087795  1
  F  F13  1  0.01097900  0.58057201  0.12912198  1
  F  F14  1  0.75252303  0.50703101  0.62598496  1
  F  F15  1  0.24747701  0.49296901  0.37401497  1
