# generated using pymatgen
data_Th4SbPd5
_symmetry_space_group_name_H-M   'P 1'
_cell_length_a   8.63517189
_cell_length_b   8.63517189
_cell_length_c   8.63517189
_cell_angle_alpha   109.47122192
_cell_angle_beta   109.47122192
_cell_angle_gamma   109.47122192
_symmetry_Int_Tables_number   1
_chemical_formula_structural   Th4SbPd5
_chemical_formula_sum   'Th8 Sb2 Pd10'
_cell_volume   495.66819108
_cell_formula_units_Z   2
loop_
 _symmetry_equiv_pos_site_id
 _symmetry_equiv_pos_as_xyz
  1  'x, y, z'
loop_
 _atom_site_type_symbol
 _atom_site_label
 _atom_site_symmetry_multiplicity
 _atom_site_fract_x
 _atom_site_fract_y
 _atom_site_fract_z
 _atom_site_occupancy
  Th  Th0  1  0.75000007  0.62500005  0.87500009  1
  Th  Th1  1  0.25000007  0.87500007  0.62500008  1
  Th  Th2  1  0.87500005  0.12500001  0.75000006  1
  Th  Th3  1  0.62500005  0.37500003  0.25000005  1
  Th  Th4  1  0.12500002  0.25000002  0.37500003  1
  Th  Th5  1  0.37500006  0.75000006  0.12500006  1
  Th  Th6  1  0.75000004  0.12500001  0.37500004  1
  Th  Th7  1  0.25000004  0.37500003  0.12500003  1
  Sb  Sb8  1  0.37500006  0.62500005  0.75000007  1
  Sb  Sb9  1  0.12500006  0.87500007  0.25000006  1
  Pd  Pd10  1  0.62500004  0.25000002  0.87500006  1
  Pd  Pd11  1  0.87500009  0.75000006  0.62500009  1
  Pd  Pd12  1  0.65587709  1.00000008  1.00000011  1
  Pd  Pd13  1  1.00000008  0.50000004  0.15587706  1
  Pd  Pd14  1  0.50000006  0.65587705  0.50000007  1
  Pd  Pd15  1  0.15587707  1.00000008  1.00000010  1
  Pd  Pd16  1  0.84412309  0.84412306  0.34412308  1
  Pd  Pd17  1  0.00000003  0.50000004  0.65587705  1
  Pd  Pd18  1  0.34412304  0.34412303  0.84412306  1
  Pd  Pd19  1  0.50000003  0.15587701  0.50000004  1
