# generated using pymatgen
data_HfS3
_symmetry_space_group_name_H-M   'P 1'
_cell_length_a   6.36734915
_cell_length_b   6.36734915
_cell_length_c   6.36734915
_cell_angle_alpha   90.00000000
_cell_angle_beta   90.00000000
_cell_angle_gamma   90.00000000
_symmetry_Int_Tables_number   1
_chemical_formula_structural   HfS3
_chemical_formula_sum   'Hf4 S12'
_cell_volume   258.15229717
_cell_formula_units_Z   4
loop_
 _symmetry_equiv_pos_site_id
 _symmetry_equiv_pos_as_xyz
  1  'x, y, z'
loop_
 _atom_site_type_symbol
 _atom_site_label
 _atom_site_symmetry_multiplicity
 _atom_site_fract_x
 _atom_site_fract_y
 _atom_site_fract_z
 _atom_site_occupancy
  Hf  Hf0  1  0.49999999  0.49999999  0.49999999  1
  Hf  Hf1  1  0.49999999  0.49999999  0.00000000  1
  Hf  Hf2  1  0.49999999  0.00000000  0.49999999  1
  Hf  Hf3  1  0.00000000  0.49999999  0.49999999  1
  S  S4  1  0.27201299  0.27201299  0.72798698  1
  S  S5  1  0.27201299  0.72798698  0.27201299  1
  S  S6  1  0.72798698  0.27201299  0.27201299  1
  S  S7  1  0.72798698  0.72798698  0.72798698  1
  S  S8  1  0.00000000  0.00000000  0.00000000  1
  S  S9  1  0.00000000  0.00000000  0.49999999  1
  S  S10  1  0.00000000  0.49999999  0.00000000  1
  S  S11  1  0.49999999  0.00000000  0.00000000  1
  S  S12  1  0.74749598  0.74749598  0.25250399  1
  S  S13  1  0.74749598  0.25250399  0.74749598  1
  S  S14  1  0.25250399  0.74749598  0.74749598  1
  S  S15  1  0.25250399  0.25250399  0.25250399  1
