# generated using pymatgen
data_Li5FeO8
_symmetry_space_group_name_H-M   'P 1'
_cell_length_a   6.06721067
_cell_length_b   6.06721067
_cell_length_c   6.09560966
_cell_angle_alpha   60.15399933
_cell_angle_beta   60.15399933
_cell_angle_gamma   59.99999237
_symmetry_Int_Tables_number   1
_chemical_formula_structural   Li5FeO8
_chemical_formula_sum   'Li5 Fe1 O8'
_cell_volume   159.03300731
_cell_formula_units_Z   1
loop_
 _symmetry_equiv_pos_site_id
 _symmetry_equiv_pos_as_xyz
  1  'x, y, z'
loop_
 _atom_site_type_symbol
 _atom_site_label
 _atom_site_symmetry_multiplicity
 _atom_site_fract_x
 _atom_site_fract_y
 _atom_site_fract_z
 _atom_site_occupancy
  Li  Li0  1  0.50000001  0.50000000  0.49999995  1
  Li  Li1  1  0.12923400  0.12923400  0.61229797  1
  Li  Li2  1  0.87076602  0.87076601  0.38770192  1
  Li  Li3  1  0.50000001  0.00000000  -0.00000002  1
  Li  Li4  1  0.50000001  0.50000000  -0.00000004  1
  Fe  Fe5  1  0.00000001  0.50000000  -0.00000002  1
  O  O6  1  0.25735701  0.25735700  0.22792897  1
  O  O7  1  0.26588001  0.73879101  0.72944894  1
  O  O8  1  0.26588001  0.26588000  0.72944896  1
  O  O9  1  0.73879101  0.26588000  0.72944894  1
  O  O10  1  0.74264302  0.74264301  0.77207092  1
  O  O11  1  0.73412001  0.26120900  0.27055096  1
  O  O12  1  0.73412002  0.73412001  0.27055094  1
  O  O13  1  0.26120901  0.73412001  0.27055095  1
