# generated using pymatgen
data_TiO2
_symmetry_space_group_name_H-M   'P 1'
_cell_length_a   4.88113308
_cell_length_b   5.60348988
_cell_length_c   5.63571501
_cell_angle_alpha   119.49902344
_cell_angle_beta   90.00000000
_cell_angle_gamma   90.00000000
_symmetry_Int_Tables_number   1
_chemical_formula_structural   TiO2
_chemical_formula_sum   'Ti4 O8'
_cell_volume   134.16190829
_cell_formula_units_Z   4
loop_
 _symmetry_equiv_pos_site_id
 _symmetry_equiv_pos_as_xyz
  1  'x, y, z'
loop_
 _atom_site_type_symbol
 _atom_site_label
 _atom_site_symmetry_multiplicity
 _atom_site_fract_x
 _atom_site_fract_y
 _atom_site_fract_z
 _atom_site_occupancy
  Ti  Ti0  1  0.50459699  0.48669402  0.71933201  1
  Ti  Ti1  1  0.00459700  0.01330600  0.78066799  1
  Ti  Ti2  1  0.49540299  0.51330602  0.28066802  1
  Ti  Ti3  1  0.99540298  0.98669404  0.21933204  1
  O  O4  1  0.27674100  0.27318701  0.38052601  1
  O  O5  1  0.77674099  0.22681301  0.11947401  1
  O  O6  1  0.72325899  0.72681303  0.61947402  1
  O  O7  1  0.22325900  0.77318704  0.88052602  1
  O  O8  1  0.80118199  0.19355801  0.58844600  1
  O  O9  1  0.30118200  0.30644201  0.91155400  1
  O  O10  1  0.19881800  0.80644204  0.41155403  1
  O  O11  1  0.69881799  0.69355803  0.08844603  1
