# generated using pymatgen
data_Li6FeF9
_symmetry_space_group_name_H-M   'P 1'
_cell_length_a   4.47297192
_cell_length_b   5.59856510
_cell_length_c   9.76911545
_cell_angle_alpha   90.00000000
_cell_angle_beta   90.00000000
_cell_angle_gamma   113.54534912
_symmetry_Int_Tables_number   1
_chemical_formula_structural   Li6FeF9
_chemical_formula_sum   'Li6 Fe1 F9'
_cell_volume   224.27264649
_cell_formula_units_Z   1
loop_
 _symmetry_equiv_pos_site_id
 _symmetry_equiv_pos_as_xyz
  1  'x, y, z'
loop_
 _atom_site_type_symbol
 _atom_site_label
 _atom_site_symmetry_multiplicity
 _atom_site_fract_x
 _atom_site_fract_y
 _atom_site_fract_z
 _atom_site_occupancy
  Li  Li0  1  0.13955598  0.27911200  0.57958497  1
  Li  Li1  1  0.13955598  0.27911200  0.92041496  1
  Li  Li2  1  0.86044396  0.72088800  0.07958500  1
  Li  Li3  1  0.86044396  0.72088800  0.42041498  1
  Li  Li4  1  0.19081097  0.38162200  0.24999999  1
  Li  Li5  1  0.80918896  0.61837800  0.74999997  1
  Fe  Fe6  1  0.31551695  0.63103400  0.09008400  1
  F  F7  1  0.31551695  0.63103400  0.40991598  1
  F  F8  1  0.05675899  0.11351800  0.10570200  1
  F  F9  1  0.05675899  0.11351800  0.39429798  1
  F  F10  1  0.21935097  0.43870200  0.74999997  1
  F  F11  1  0.78064897  0.56129800  0.24999999  1
  F  F12  1  0.94324094  0.88648200  0.60570197  1
  F  F13  1  0.94324094  0.88648200  0.89429796  1
  F  F14  1  0.68448298  0.36896600  0.90991596  1
  F  F15  1  0.68448298  0.36896600  0.59008397  1
