# generated using pymatgen
data_TaMo3
_symmetry_space_group_name_H-M   'P 1'
_cell_length_a   3.90276599
_cell_length_b   3.90276599
_cell_length_c   5.31806087
_cell_angle_alpha   111.52671814
_cell_angle_beta   111.52671814
_cell_angle_gamma   90.00000000
_symmetry_Int_Tables_number   1
_chemical_formula_structural   TaMo3
_chemical_formula_sum   'Ta1 Mo3'
_cell_volume   69.24254628
_cell_formula_units_Z   1
loop_
 _symmetry_equiv_pos_site_id
 _symmetry_equiv_pos_as_xyz
  1  'x, y, z'
loop_
 _atom_site_type_symbol
 _atom_site_label
 _atom_site_symmetry_multiplicity
 _atom_site_fract_x
 _atom_site_fract_y
 _atom_site_fract_z
 _atom_site_occupancy
  Ta  Ta0  1  0.00000000  0.00000000  0.00000000  1
  Mo  Mo1  1  0.50000000  0.50000000  -0.00000001  1
  Mo  Mo2  1  0.75000000  0.25000000  0.49999999  1
  Mo  Mo3  1  0.24999999  0.75000000  0.49999999  1
