# generated using pymatgen
data_Eu4In2Pb3
_symmetry_space_group_name_H-M   'P 1'
_cell_length_a   7.19669485
_cell_length_b   8.50879002
_cell_length_c   8.50879002
_cell_angle_alpha   120.00000000
_cell_angle_beta   90.00000000
_cell_angle_gamma   90.00000000
_symmetry_Int_Tables_number   1
_chemical_formula_structural   Eu4In2Pb3
_chemical_formula_sum   'Eu4 In2 Pb3'
_cell_volume   451.23141958
_cell_formula_units_Z   1
loop_
 _symmetry_equiv_pos_site_id
 _symmetry_equiv_pos_as_xyz
  1  'x, y, z'
loop_
 _atom_site_type_symbol
 _atom_site_label
 _atom_site_symmetry_multiplicity
 _atom_site_fract_x
 _atom_site_fract_y
 _atom_site_fract_z
 _atom_site_occupancy
  Eu  Eu0  1  0.50000001  0.66666666  0.33333331  1
  Eu  Eu1  1  0.50000001  0.33333333  0.66666664  1
  Eu  Eu2  1  0.00000000  0.00000000  0.00000000  1
  Pb  Pb3  1  0.23399000  0.00000000  0.68063098  1
  Eu  Eu4  1  0.76601002  0.00000000  0.31936899  1
  In  In5  1  0.23399000  0.68063099  -0.00000001  1
  Pb  Pb6  1  0.76601002  0.31936900  0.99999996  1
  Pb  Pb7  1  0.76601002  0.68063099  0.68063096  1
  In  In8  1  0.23399000  0.31936900  0.31936898  1
