# generated using pymatgen
data_ZrFe4
_symmetry_space_group_name_H-M   'P 1'
_cell_length_a   3.00172591
_cell_length_b   9.11377716
_cell_length_c   9.20164967
_cell_angle_alpha   90.00000000
_cell_angle_beta   90.00000000
_cell_angle_gamma   90.00000000
_symmetry_Int_Tables_number   1
_chemical_formula_structural   ZrFe4
_chemical_formula_sum   'Zr4 Fe16'
_cell_volume   251.73009176
_cell_formula_units_Z   4
loop_
 _symmetry_equiv_pos_site_id
 _symmetry_equiv_pos_as_xyz
  1  'x, y, z'
loop_
 _atom_site_type_symbol
 _atom_site_label
 _atom_site_symmetry_multiplicity
 _atom_site_fract_x
 _atom_site_fract_y
 _atom_site_fract_z
 _atom_site_occupancy
  Zr  Zr0  1  -0.00000000  0.32296199  0.82052203  1
  Zr  Zr1  1  -0.00000000  0.67703799  0.17947801  1
  Zr  Zr2  1  0.00000000  0.82296199  0.67947802  1
  Zr  Zr3  1  0.00000000  0.17703800  0.32052201  1
  Fe  Fe4  1  -0.00000000  0.49999999  0.50000002  1
  Fe  Fe5  1  0.00000000  0.00000000  0.00000000  1
  Fe  Fe6  1  -0.00000000  0.87642098  0.37237801  1
  Fe  Fe7  1  -0.00000000  0.12357900  0.62762202  1
  Fe  Fe8  1  0.00000000  0.37642099  0.12762200  1
  Fe  Fe9  1  -0.00000000  0.62357899  0.87237803  1
  Fe  Fe10  1  0.50000001  0.42679699  0.28800801  1
  Fe  Fe11  1  0.50000001  0.57320299  0.71199203  1
  Fe  Fe12  1  0.50000001  0.92679698  0.21199201  1
  Fe  Fe13  1  0.50000001  0.07320300  0.78800803  1
  Fe  Fe14  1  0.50000001  0.71568499  0.42703302  1
  Fe  Fe15  1  0.50000001  0.28431499  0.57296702  1
  Fe  Fe16  1  0.50000001  0.78431499  0.92703303  1
  Fe  Fe17  1  0.50000001  0.21568500  0.07296700  1
  Fe  Fe18  1  0.50000001  0.49999999  -0.00000000  1
  Fe  Fe19  1  0.50000001  0.00000000  0.50000002  1
