# generated using pymatgen
data_VF4
_symmetry_space_group_name_H-M   'P 1'
_cell_length_a   5.17257118
_cell_length_b   5.47301388
_cell_length_c   5.73350620
_cell_angle_alpha   110.49581146
_cell_angle_beta   107.00781250
_cell_angle_gamma   92.41277313
_symmetry_Int_Tables_number   1
_chemical_formula_structural   VF4
_chemical_formula_sum   'V2 F8'
_cell_volume   143.48413128
_cell_formula_units_Z   2
loop_
 _symmetry_equiv_pos_site_id
 _symmetry_equiv_pos_as_xyz
  1  'x, y, z'
loop_
 _atom_site_type_symbol
 _atom_site_label
 _atom_site_symmetry_multiplicity
 _atom_site_fract_x
 _atom_site_fract_y
 _atom_site_fract_z
 _atom_site_occupancy
  V  V0  1  0.99573095  0.52985002  0.00159296  1
  V  V1  1  0.43001698  0.10297100  0.00294898  1
  F  F2  1  0.10467500  0.16743601  0.78326502  1
  F  F3  1  0.33352398  0.45760102  0.21526001  1
  F  F4  1  0.95903295  0.82327003  0.23782699  1
  F  F5  1  0.79138296  0.32431401  0.14630697  1
  F  F6  1  0.68200096  0.44148702  0.73922100  1
  F  F7  1  0.54987797  0.91857003  0.74687303  1
  F  F8  1  0.17093799  0.71821703  0.85673905  1
  F  F9  1  0.49817297  0.02145500  0.28249798  1
