# generated using pymatgen
data_NaAsO3
_symmetry_space_group_name_H-M   'P 1'
_cell_length_a   4.41511822
_cell_length_b   4.41511869
_cell_length_c   4.68396282
_cell_angle_alpha   90.00000000
_cell_angle_beta   90.00000000
_cell_angle_gamma   119.99999237
_symmetry_Int_Tables_number   1
_chemical_formula_structural   NaAsO3
_chemical_formula_sum   'Na1 As1 O3'
_cell_volume   79.07311076
_cell_formula_units_Z   1
loop_
 _symmetry_equiv_pos_site_id
 _symmetry_equiv_pos_as_xyz
  1  'x, y, z'
loop_
 _atom_site_type_symbol
 _atom_site_label
 _atom_site_symmetry_multiplicity
 _atom_site_fract_x
 _atom_site_fract_y
 _atom_site_fract_z
 _atom_site_occupancy
  Na  Na0  1  0.00000000  0.00000000  0.00000000  1
  As  As1  1  0.66666661  0.33333331  0.53698302  1
  O  O2  1  0.33333327  0.66666662  0.46301702  1
  O  O3  1  0.66666661  0.33333331  0.90086203  1
  O  O4  1  0.33333327  0.66666662  0.09913800  1
