# generated using pymatgen
data_MgSn3
_symmetry_space_group_name_H-M   'P 1'
_cell_length_a   3.24956203
_cell_length_b   5.45753813
_cell_length_c   6.36904144
_cell_angle_alpha   115.36878967
_cell_angle_beta   104.77987671
_cell_angle_gamma   90.00000000
_symmetry_Int_Tables_number   1
_chemical_formula_structural   MgSn3
_chemical_formula_sum   'Mg1 Sn3'
_cell_volume   97.90817999
_cell_formula_units_Z   1
loop_
 _symmetry_equiv_pos_site_id
 _symmetry_equiv_pos_as_xyz
  1  'x, y, z'
loop_
 _atom_site_type_symbol
 _atom_site_label
 _atom_site_symmetry_multiplicity
 _atom_site_fract_x
 _atom_site_fract_y
 _atom_site_fract_z
 _atom_site_occupancy
  Mg  Mg0  1  0.74999999  0.41364800  0.50000100  1
  Sn  Sn1  1  0.02750300  0.04730000  0.05500300  1
  Sn  Sn2  1  0.47249799  0.49229600  0.94499801  1
  Sn  Sn3  1  0.24999899  0.88009100  0.50000103  1
