# generated using pymatgen
data_Li2NiO3
_symmetry_space_group_name_H-M   'P 1'
_cell_length_a   5.04587936
_cell_length_b   5.04587936
_cell_length_c   5.09269857
_cell_angle_alpha   99.53866577
_cell_angle_beta   99.53866577
_cell_angle_gamma   119.97753906
_symmetry_Int_Tables_number   1
_chemical_formula_structural   Li2NiO3
_chemical_formula_sum   'Li4 Ni2 O6'
_cell_volume   105.97464501
_cell_formula_units_Z   2
loop_
 _symmetry_equiv_pos_site_id
 _symmetry_equiv_pos_as_xyz
  1  'x, y, z'
loop_
 _atom_site_type_symbol
 _atom_site_label
 _atom_site_symmetry_multiplicity
 _atom_site_fract_x
 _atom_site_fract_y
 _atom_site_fract_z
 _atom_site_occupancy
  Li  Li0  1  0.33032294  0.66967695  -0.00000005  1
  Li  Li1  1  0.66143695  0.33856297  -0.00000004  1
  Li  Li2  1  0.00743793  0.99256192  -0.00000006  1
  Li  Li3  1  0.16685193  0.83314793  0.49999996  1
  Ni  Ni4  1  0.49981394  0.50018596  0.49999996  1
  Ni  Ni5  1  0.83362495  0.16637499  0.49999997  1
  O  O6  1  0.44073397  0.11221299  0.26944898  1
  O  O7  1  0.73488692  0.75265594  0.27358394  1
  O  O8  1  0.09543297  0.40567397  0.27226498  1
  O  O9  1  0.59432591  0.90456693  0.72773494  1
  O  O10  1  0.88778692  0.55926596  0.73055095  1
  O  O11  1  0.24734397  0.26511298  0.72641599  1
