# generated using pymatgen
data_Ti5VS8
_symmetry_space_group_name_H-M   'P 1'
_cell_length_a   7.31010866
_cell_length_b   7.31010866
_cell_length_c   7.31010771
_cell_angle_alpha   60.60525513
_cell_angle_beta   60.60525513
_cell_angle_gamma   60.60525513
_symmetry_Int_Tables_number   1
_chemical_formula_structural   Ti5VS8
_chemical_formula_sum   'Ti5 V1 S8'
_cell_volume   279.99657657
_cell_formula_units_Z   1
loop_
 _symmetry_equiv_pos_site_id
 _symmetry_equiv_pos_as_xyz
  1  'x, y, z'
loop_
 _atom_site_type_symbol
 _atom_site_label
 _atom_site_symmetry_multiplicity
 _atom_site_fract_x
 _atom_site_fract_y
 _atom_site_fract_z
 _atom_site_occupancy
  Ti  Ti0  1  0.61771297  0.61771297  0.61771306  1
  Ti  Ti1  1  0.38228698  0.38228698  0.38228704  1
  Ti  Ti2  1  0.00000000  0.00000000  0.00000000  1
  Ti  Ti3  1  0.49999998  0.00000000  0.00000002  1
  Ti  Ti4  1  0.00000000  0.00000000  0.50000001  1
  V  V5  1  0.00000000  0.49999997  0.00000002  1
  S  S6  1  0.76711896  0.23628099  0.23628104  1
  S  S7  1  0.25118999  0.25118999  0.25119002  1
  S  S8  1  0.76371896  0.23288099  0.76371906  1
  S  S9  1  0.76371897  0.76371896  0.23288106  1
  S  S10  1  0.23288099  0.76371896  0.76371906  1
  S  S11  1  0.74880997  0.74880996  0.74881007  1
  S  S12  1  0.23628099  0.76711896  0.23628104  1
  S  S13  1  0.23628099  0.23628099  0.76711904  1
