# generated using pymatgen
data_LiAg3AsS11F4
_symmetry_space_group_name_H-M   'P 1'
_cell_length_a   5.41084909
_cell_length_b   5.69855309
_cell_length_c   7.72752190
_cell_angle_alpha   90.00000000
_cell_angle_beta   90.00000000
_cell_angle_gamma   90.00000000
_symmetry_Int_Tables_number   1
_chemical_formula_structural   LiAg3AsS11F4
_chemical_formula_sum   'Li1 Ag3 As1 S11 F4'
_cell_volume   238.27049362
_cell_formula_units_Z   1
loop_
 _symmetry_equiv_pos_site_id
 _symmetry_equiv_pos_as_xyz
  1  'x, y, z'
loop_
 _atom_site_type_symbol
 _atom_site_label
 _atom_site_symmetry_multiplicity
 _atom_site_fract_x
 _atom_site_fract_y
 _atom_site_fract_z
 _atom_site_occupancy
  Li  Li0  1  0.97881498  0.93279299  0.25000000  1
  Ag  Ag1  1  0.47881499  0.56720699  0.75000001  1
  Ag  Ag2  1  0.52118499  0.43279299  0.25000000  1
  Ag  Ag3  1  0.02118500  0.06720700  0.75000001  1
  As  As4  1  0.49999999  0.00000000  -0.00000000  1
  S  S5  1  0.00000000  0.49999999  0.00000000  1
  S  S6  1  0.00000000  0.49999999  0.50000001  1
  S  S7  1  0.49999999  0.00000000  0.50000001  1
  S  S8  1  0.11097900  0.53587699  0.25000000  1
  F  F9  1  0.61097899  0.96412299  0.75000001  1
  S  S10  1  0.38902099  0.03587700  0.25000000  1
  F  F11  1  0.88902098  0.46412299  0.75000001  1
  S  S12  1  0.68972899  0.70171199  0.05647500  1
  S  S13  1  0.18972900  0.79828799  0.94352501  1
  S  S14  1  0.81027099  0.20171200  0.44352501  1
  F  F15  1  0.31027099  0.29828800  0.55647501  1
  F  F16  1  0.31027099  0.29828800  0.94352501  1
  S  S17  1  0.81027099  0.20171200  0.05647500  1
  S  S18  1  0.18972900  0.79828799  0.55647501  1
  S  S19  1  0.68972899  0.70171199  0.44352501  1
