# generated using pymatgen
data_RbBiPb
_symmetry_space_group_name_H-M   'P 1'
_cell_length_a   6.59989405
_cell_length_b   6.99734116
_cell_length_c   6.99734116
_cell_angle_alpha   60.43465805
_cell_angle_beta   61.86178589
_cell_angle_gamma   61.86178589
_symmetry_Int_Tables_number   1
_chemical_formula_structural   RbBiPb
_chemical_formula_sum   'Rb2 Bi2 Pb2'
_cell_volume   235.52353449
_cell_formula_units_Z   2
loop_
 _symmetry_equiv_pos_site_id
 _symmetry_equiv_pos_as_xyz
  1  'x, y, z'
loop_
 _atom_site_type_symbol
 _atom_site_label
 _atom_site_symmetry_multiplicity
 _atom_site_fract_x
 _atom_site_fract_y
 _atom_site_fract_z
 _atom_site_occupancy
  Rb  Rb0  1  0.99968598  0.00031400  0.00031402  1
  Rb  Rb1  1  0.75177300  0.74822698  0.74822701  1
  Bi  Bi2  1  0.35976000  0.90863997  0.37184001  1
  Bi  Bi3  1  0.35976100  0.37183999  0.90863899  1
  Pb  Pb4  1  0.89732899  0.36048999  0.36049002  1
  Pb  Pb5  1  0.38169100  0.36048999  0.36049001  1
