# generated using pymatgen
data_HoCu2
_symmetry_space_group_name_H-M   'P 1'
_cell_length_a   4.47867584
_cell_length_b   5.60074043
_cell_length_c   5.60074043
_cell_angle_alpha   77.38881683
_cell_angle_beta   66.43251801
_cell_angle_gamma   66.43251801
_symmetry_Int_Tables_number   1
_chemical_formula_structural   HoCu2
_chemical_formula_sum   'Ho2 Cu4'
_cell_volume   117.74330301
_cell_formula_units_Z   2
loop_
 _symmetry_equiv_pos_site_id
 _symmetry_equiv_pos_as_xyz
  1  'x, y, z'
loop_
 _atom_site_type_symbol
 _atom_site_label
 _atom_site_symmetry_multiplicity
 _atom_site_fract_x
 _atom_site_fract_y
 _atom_site_fract_z
 _atom_site_occupancy
  Ho  Ho0  1  0.46924302  0.28075699  0.78075701  1
  Ho  Ho1  1  0.53075703  0.71924296  0.21924306  1
  Cu  Cu2  1  0.83348803  0.70950196  0.62352105  1
  Cu  Cu3  1  0.16651201  0.29049799  0.37647901  1
  Cu  Cu4  1  0.16651103  0.87647995  0.79049803  1
  Cu  Cu5  1  0.83348902  0.12351999  0.20950203  1
