# generated using pymatgen
data_BaCaO3
_symmetry_space_group_name_H-M   'P 1'
_cell_length_a   3.91249204
_cell_length_b   3.91249204
_cell_length_c   7.35579538
_cell_angle_alpha   105.42318726
_cell_angle_beta   105.42318726
_cell_angle_gamma   90.00000000
_symmetry_Int_Tables_number   1
_chemical_formula_structural   BaCaO3
_chemical_formula_sum   'Ba1 Ca1 O3'
_cell_volume   104.33214804
_cell_formula_units_Z   1
loop_
 _symmetry_equiv_pos_site_id
 _symmetry_equiv_pos_as_xyz
  1  'x, y, z'
loop_
 _atom_site_type_symbol
 _atom_site_label
 _atom_site_symmetry_multiplicity
 _atom_site_fract_x
 _atom_site_fract_y
 _atom_site_fract_z
 _atom_site_occupancy
  Ba  Ba0  1  0.66800902  0.66800900  0.33601804  1
  Ca  Ca1  1  0.33199101  0.33199100  0.66398202  1
  O  O2  1  0.00000000  0.00000000  0.00000000  1
  O  O3  1  0.75000001  0.25000000  0.50000003  1
  O  O4  1  0.25000002  0.75000000  0.50000003  1
