# generated using pymatgen
data_Rb2CuBr4
_symmetry_space_group_name_H-M   'P 1'
_cell_length_a   7.28759718
_cell_length_b   7.56382513
_cell_length_c   9.49392986
_cell_angle_alpha   108.45542908
_cell_angle_beta   90.00000000
_cell_angle_gamma   90.00000000
_symmetry_Int_Tables_number   1
_chemical_formula_structural   Rb2CuBr4
_chemical_formula_sum   'Rb4 Cu2 Br8'
_cell_volume   496.41093070
_cell_formula_units_Z   2
loop_
 _symmetry_equiv_pos_site_id
 _symmetry_equiv_pos_as_xyz
  1  'x, y, z'
loop_
 _atom_site_type_symbol
 _atom_site_label
 _atom_site_symmetry_multiplicity
 _atom_site_fract_x
 _atom_site_fract_y
 _atom_site_fract_z
 _atom_site_occupancy
  Rb  Rb0  1  0.74999998  0.23793799  0.05973899  1
  Rb  Rb1  1  0.74999998  0.21372499  0.55115100  1
  Rb  Rb2  1  0.24999999  0.78627497  0.44884897  1
  Rb  Rb3  1  0.24999999  0.76206197  0.94026099  1
  Cu  Cu4  1  0.74999998  0.78866197  0.70298398  1
  Cu  Cu5  1  0.24999999  0.21133799  0.29701600  1
  Br  Br6  1  0.74999998  0.59827698  0.88865699  1
  Br  Br7  1  0.74999998  0.62089598  0.41773998  1
  Br  Br8  1  0.24999999  0.37910399  0.58226000  1
  Br  Br9  1  0.24999999  0.40172299  0.11134298  1
  Br  Br10  1  0.49519699  0.99750097  0.75984997  1
  Br  Br11  1  0.99519698  0.00249900  0.24015000  1
  Br  Br12  1  0.50480299  0.00249900  0.24015000  1
  Br  Br13  1  0.00480300  0.99750097  0.75984997  1
