# generated using pymatgen
data_Pr2Co17
_symmetry_space_group_name_H-M   'P 1'
_cell_length_a   6.41787434
_cell_length_b   6.41787434
_cell_length_c   6.41787434
_cell_angle_alpha   82.95581818
_cell_angle_beta   82.95581818
_cell_angle_gamma   82.95580292
_symmetry_Int_Tables_number   1
_chemical_formula_structural   Pr2Co17
_chemical_formula_sum   'Pr2 Co17'
_cell_volume   258.81278746
_cell_formula_units_Z   1
loop_
 _symmetry_equiv_pos_site_id
 _symmetry_equiv_pos_as_xyz
  1  'x, y, z'
loop_
 _atom_site_type_symbol
 _atom_site_label
 _atom_site_symmetry_multiplicity
 _atom_site_fract_x
 _atom_site_fract_y
 _atom_site_fract_z
 _atom_site_occupancy
  Pr  Pr0  1  0.65793599  0.65793600  0.65793609  1
  Pr  Pr1  1  0.34159899  0.34159900  0.34159905  1
  Co  Co2  1  0.65581099  0.65581100  0.15558308  1
  Co  Co3  1  0.15558299  0.65581100  0.65581106  1
  Co  Co4  1  0.65581099  0.15558300  0.65581106  1
  Co  Co5  1  0.34346199  0.34346200  0.84494006  1
  Co  Co6  1  0.84493999  0.34346200  0.34346208  1
  Co  Co7  1  0.34346198  0.84494000  0.34346208  1
  Co  Co8  1  0.00048400  0.00048400  0.49975301  1
  Co  Co9  1  0.49975300  0.00048400  0.00048403  1
  Co  Co10  1  0.00048399  0.49975300  0.00048403  1
  Co  Co11  1  0.29269099  0.70660800  0.00078106  1
  Co  Co12  1  0.00078100  0.29269100  0.70660803  1
  Co  Co13  1  0.70660800  0.00078100  0.29269105  1
  Co  Co14  1  0.00078099  0.70660800  0.29269105  1
  Co  Co15  1  0.29269100  0.00078100  0.70660803  1
  Co  Co16  1  0.70660799  0.29269100  0.00078106  1
  Co  Co17  1  0.09681600  0.09681600  0.09681601  1
  Co  Co18  1  0.90369898  0.90369900  0.90369913  1
