# generated using pymatgen
data_Ce5Sb3
_symmetry_space_group_name_H-M   'P 1'
_cell_length_a   6.75427008
_cell_length_b   9.02102375
_cell_length_c   9.02102375
_cell_angle_alpha   120.00000000
_cell_angle_beta   90.00000000
_cell_angle_gamma   90.00000000
_symmetry_Int_Tables_number   1
_chemical_formula_structural   Ce5Sb3
_chemical_formula_sum   'Ce10 Sb6'
_cell_volume   476.01507482
_cell_formula_units_Z   2
loop_
 _symmetry_equiv_pos_site_id
 _symmetry_equiv_pos_as_xyz
  1  'x, y, z'
loop_
 _atom_site_type_symbol
 _atom_site_label
 _atom_site_symmetry_multiplicity
 _atom_site_fract_x
 _atom_site_fract_y
 _atom_site_fract_z
 _atom_site_occupancy
  Ce  Ce0  1  -0.00000000  0.33333334  0.66666669  1
  Ce  Ce1  1  -0.00000000  0.66666669  0.33333335  1
  Ce  Ce2  1  0.49999999  0.66666669  0.33333335  1
  Ce  Ce3  1  0.49999999  0.33333334  0.66666669  1
  Ce  Ce4  1  0.25000000  0.23553301  0.00000000  1
  Ce  Ce5  1  0.25000000  0.76446702  0.76446703  1
  Ce  Ce6  1  0.25000000  0.00000000  0.23553301  1
  Ce  Ce7  1  0.74999999  0.76446702  0.00000000  1
  Ce  Ce8  1  0.74999999  0.23553301  0.23553301  1
  Ce  Ce9  1  0.74999999  0.00000000  0.76446702  1
  Sb  Sb10  1  0.25000000  0.59573502  0.00000000  1
  Sb  Sb11  1  0.25000000  0.40426501  0.40426501  1
  Sb  Sb12  1  0.25000000  0.00000000  0.59573502  1
  Sb  Sb13  1  0.74999999  0.40426501  0.00000000  1
  Sb  Sb14  1  0.74999999  0.59573502  0.59573502  1
  Sb  Sb15  1  0.74999999  0.00000000  0.40426501  1
