# generated using pymatgen
data_Sr2PdPb5
_symmetry_space_group_name_H-M   'P 1'
_cell_length_a   4.54708195
_cell_length_b   6.00973940
_cell_length_c   8.45713139
_cell_angle_alpha   90.00000000
_cell_angle_beta   90.00000000
_cell_angle_gamma   112.22900391
_symmetry_Int_Tables_number   1
_chemical_formula_structural   Sr2PdPb5
_chemical_formula_sum   'Sr2 Pd1 Pb5'
_cell_volume   213.93015366
_cell_formula_units_Z   1
loop_
 _symmetry_equiv_pos_site_id
 _symmetry_equiv_pos_as_xyz
  1  'x, y, z'
loop_
 _atom_site_type_symbol
 _atom_site_label
 _atom_site_symmetry_multiplicity
 _atom_site_fract_x
 _atom_site_fract_y
 _atom_site_fract_z
 _atom_site_occupancy
  Sr  Sr0  1  0.43487304  0.86974604  0.24999999  1
  Sr  Sr1  1  0.56512701  0.13025401  0.74999997  1
  Pb  Pb2  1  0.14765501  0.29531001  0.05087600  1
  Pb  Pb3  1  0.85234504  0.70469003  0.94912396  1
  Pb  Pb4  1  0.14765501  0.29531001  0.44912398  1
  Pb  Pb5  1  0.85234504  0.70469003  0.55087597  1
  Pb  Pb6  1  0.28076002  0.56152003  0.74999997  1
  Pd  Pd7  1  0.71924003  0.43848002  0.24999999  1
