# generated using pymatgen
data_Li6FeO6
_symmetry_space_group_name_H-M   'P 1'
_cell_length_a   5.69506931
_cell_length_b   5.69506931
_cell_length_c   5.69506931
_cell_angle_alpha   61.16768265
_cell_angle_beta   61.16768265
_cell_angle_gamma   61.16767120
_symmetry_Int_Tables_number   1
_chemical_formula_structural   Li6FeO6
_chemical_formula_sum   'Li6 Fe1 O6'
_cell_volume   134.04309418
_cell_formula_units_Z   1
loop_
 _symmetry_equiv_pos_site_id
 _symmetry_equiv_pos_as_xyz
  1  'x, y, z'
loop_
 _atom_site_type_symbol
 _atom_site_label
 _atom_site_symmetry_multiplicity
 _atom_site_fract_x
 _atom_site_fract_y
 _atom_site_fract_z
 _atom_site_occupancy
  Li  Li0  1  0.71968096  0.08342900  0.51226501  1
  Li  Li1  1  0.91657093  0.48773498  0.28031905  1
  Li  Li2  1  0.48773496  0.28031899  0.91657100  1
  Li  Li3  1  0.51226494  0.71968097  0.08342905  1
  Li  Li4  1  0.08342897  0.51226498  0.71968100  1
  Li  Li5  1  0.28031895  0.91657096  0.48773504  1
  Fe  Fe6  1  0.00000000  0.00000000  0.00000000  1
  O  O7  1  0.90262794  0.20278399  0.64936902  1
  O  O8  1  0.79721594  0.35063099  0.09737204  1
  O  O9  1  0.35063098  0.09737200  0.79721599  1
  O  O10  1  0.64936893  0.90262796  0.20278406  1
  O  O11  1  0.20278396  0.64936897  0.90262801  1
  O  O12  1  0.09737196  0.79721597  0.35063103  1
