# generated using pymatgen
data_Li3Mn(OF)4
_symmetry_space_group_name_H-M   'P 1'
_cell_length_a   2.93799305
_cell_length_b   4.94963121
_cell_length_c   9.35738277
_cell_angle_alpha   89.96500397
_cell_angle_beta   92.41619110
_cell_angle_gamma   89.62454987
_symmetry_Int_Tables_number   1
_chemical_formula_structural   Li3Mn(OF)4
_chemical_formula_sum   'Li3 Mn1 O4 F4'
_cell_volume   135.95094389
_cell_formula_units_Z   1
loop_
 _symmetry_equiv_pos_site_id
 _symmetry_equiv_pos_as_xyz
  1  'x, y, z'
loop_
 _atom_site_type_symbol
 _atom_site_label
 _atom_site_symmetry_multiplicity
 _atom_site_fract_x
 _atom_site_fract_y
 _atom_site_fract_z
 _atom_site_occupancy
  Li  Li0  1  0.76092700  0.57711001  0.63811800  1
  Li  Li1  1  0.75617501  0.91872201  0.14011501  1
  Mn  Mn2  1  0.24807101  0.41819000  0.36357001  1
  Li  Li3  1  0.23744100  0.07140100  0.86683000  1
  F  F4  1  0.25892402  0.70470901  0.52291401  1
  O  O5  1  0.73392699  0.20525400  0.97819000  1
  O  O6  1  0.24345702  0.79498201  0.02232601  1
  O  O7  1  0.74321899  0.28909600  0.47366600  1
  O  O8  1  0.26490200  0.11776900  0.23364700  1
  F  F9  1  0.22595101  0.39279700  0.73813201  1
  F  F10  1  0.76529901  0.89490401  0.76069901  1
  F  F11  1  0.76170800  0.61506601  0.26179200  1
