# generated using pymatgen
data_Li3MnO4
_symmetry_space_group_name_H-M   'P 1'
_cell_length_a   2.88943100
_cell_length_b   5.02290726
_cell_length_c   5.02390385
_cell_angle_alpha   72.34769440
_cell_angle_beta   89.83475494
_cell_angle_gamma   89.93821716
_symmetry_Int_Tables_number   1
_chemical_formula_structural   Li3MnO4
_chemical_formula_sum   'Li3 Mn1 O4'
_cell_volume   69.48015920
_cell_formula_units_Z   1
loop_
 _symmetry_equiv_pos_site_id
 _symmetry_equiv_pos_as_xyz
  1  'x, y, z'
loop_
 _atom_site_type_symbol
 _atom_site_label
 _atom_site_symmetry_multiplicity
 _atom_site_fract_x
 _atom_site_fract_y
 _atom_site_fract_z
 _atom_site_occupancy
  Li  Li0  1  0.00608599  0.99757197  0.00038698  1
  Li  Li1  1  0.50677999  0.50293799  0.00558400  1
  Li  Li2  1  0.00446499  0.49669499  0.50347701  1
  Mn  Mn3  1  0.50728399  0.99764997  0.49981901  1
  O  O4  1  0.00842400  0.22723999  0.27077501  1
  O  O5  1  0.50929999  0.76868198  0.27162200  1
  O  O6  1  0.00623399  0.76838898  0.72936002  1
  O  O7  1  0.50420200  0.22497599  0.72842404  1
