# generated using pymatgen
data_Zr2Se3
_symmetry_space_group_name_H-M   'P 1'
_cell_length_a   4.02098322
_cell_length_b   9.04197025
_cell_length_c   14.82634544
_cell_angle_alpha   89.97659302
_cell_angle_beta   90.00000000
_cell_angle_gamma   90.00000000
_symmetry_Int_Tables_number   1
_chemical_formula_structural   Zr2Se3
_chemical_formula_sum   'Zr8 Se12'
_cell_volume   539.05045010
_cell_formula_units_Z   4
loop_
 _symmetry_equiv_pos_site_id
 _symmetry_equiv_pos_as_xyz
  1  'x, y, z'
loop_
 _atom_site_type_symbol
 _atom_site_label
 _atom_site_symmetry_multiplicity
 _atom_site_fract_x
 _atom_site_fract_y
 _atom_site_fract_z
 _atom_site_occupancy
  Zr  Zr0  1  0.49999997  0.93231297  0.82349199  1
  Zr  Zr1  1  0.49999997  0.43643099  0.67607699  1
  Zr  Zr2  1  -0.00000000  0.06268800  0.17855500  1
  Zr  Zr3  1  -0.00000000  0.56356998  0.32225800  1
  Zr  Zr4  1  0.49999997  0.66593898  0.06034100  1
  Zr  Zr5  1  0.49999997  0.16988200  0.44150599  1
  Zr  Zr6  1  -0.00000000  0.33371799  0.94261499  1
  Zr  Zr7  1  -0.00000000  0.83021298  0.55561799  1
  Se  Se8  1  0.49999997  0.66086298  0.48686699  1
  Se  Se9  1  0.49999997  0.16425400  0.01237800  1
  Se  Se10  1  -0.00000000  0.33843599  0.51096099  1
  Se  Se11  1  -0.00000000  0.83824798  0.99515299  1
  Se  Se12  1  0.49999997  0.52500399  0.89332599  1
  Se  Se13  1  0.49999997  0.02137700  0.60607799  1
  Se  Se14  1  -0.00000000  0.47601299  0.10906700  1
  Se  Se15  1  -0.00000000  0.97862297  0.39151000  1
  Se  Se16  1  0.49999997  0.79084298  0.21899000  1
  Se  Se17  1  0.49999997  0.29126999  0.28197000  1
  Se  Se18  1  -0.00000000  0.22124199  0.78091899  1
  Se  Se19  1  0.00000000  0.69907298  0.71231899  1
