# generated using pymatgen
data_BeC2
_symmetry_space_group_name_H-M   'P 1'
_cell_length_a   2.74906206
_cell_length_b   2.74906230
_cell_length_c   7.01974201
_cell_angle_alpha   90.00000000
_cell_angle_beta   90.00000000
_cell_angle_gamma   119.99999237
_symmetry_Int_Tables_number   1
_chemical_formula_structural   BeC2
_chemical_formula_sum   'Be2 C4'
_cell_volume   45.94316845
_cell_formula_units_Z   2
loop_
 _symmetry_equiv_pos_site_id
 _symmetry_equiv_pos_as_xyz
  1  'x, y, z'
loop_
 _atom_site_type_symbol
 _atom_site_label
 _atom_site_symmetry_multiplicity
 _atom_site_fract_x
 _atom_site_fract_y
 _atom_site_fract_z
 _atom_site_occupancy
  Be  Be0  1  0.00000000  0.00000000  0.50000000  1
  Be  Be1  1  0.00000000  0.00000000  0.00000000  1
  C  C2  1  0.66666663  0.33333334  0.25000000  1
  C  C3  1  0.33333329  0.66666668  0.75000000  1
  C  C4  1  0.66666663  0.33333334  0.75000000  1
  C  C5  1  0.33333329  0.66666668  0.25000000  1
