# generated using pymatgen
data_TaTi2Be2Al
_symmetry_space_group_name_H-M   'P 1'
_cell_length_a   4.07635212
_cell_length_b   4.07635164
_cell_length_c   5.51514101
_cell_angle_alpha   90.00000000
_cell_angle_beta   90.00000000
_cell_angle_gamma   120.00000000
_symmetry_Int_Tables_number   1
_chemical_formula_structural   TaTi2Be2Al
_chemical_formula_sum   'Ta1 Ti2 Be2 Al1'
_cell_volume   79.36528594
_cell_formula_units_Z   1
loop_
 _symmetry_equiv_pos_site_id
 _symmetry_equiv_pos_as_xyz
  1  'x, y, z'
loop_
 _atom_site_type_symbol
 _atom_site_label
 _atom_site_symmetry_multiplicity
 _atom_site_fract_x
 _atom_site_fract_y
 _atom_site_fract_z
 _atom_site_occupancy
  Ta  Ta0  1  0.33333329  0.66666665  0.75000000  1
  Ti  Ti1  1  0.66666663  0.33333333  0.25000000  1
  Be  Be2  1  0.33333329  0.66666665  0.25000000  1
  Be  Be3  1  0.66666663  0.33333333  0.75000000  1
  Al  Al4  1  0.00000000  0.00000000  0.00000000  1
  Ti  Ti5  1  0.00000000  0.00000000  0.50000000  1
