# generated using pymatgen
data_LiNi10
_symmetry_space_group_name_H-M   'P 1'
_cell_length_a   6.15836287
_cell_length_b   6.15836287
_cell_length_c   6.15836287
_cell_angle_alpha   90.21778870
_cell_angle_beta   119.87433624
_cell_angle_gamma   119.87433624
_symmetry_Int_Tables_number   1
_chemical_formula_structural   LiNi10
_chemical_formula_sum   'Li1 Ni10'
_cell_volume   165.46325711
_cell_formula_units_Z   1
loop_
 _symmetry_equiv_pos_site_id
 _symmetry_equiv_pos_as_xyz
  1  'x, y, z'
loop_
 _atom_site_type_symbol
 _atom_site_label
 _atom_site_symmetry_multiplicity
 _atom_site_fract_x
 _atom_site_fract_y
 _atom_site_fract_z
 _atom_site_occupancy
  Li  Li0  1  0.00000000  0.00000000  0.00000000  1
  Ni  Ni1  1  0.35722889  0.75754894  0.75754892  1
  Ni  Ni2  1  0.64277092  0.40032097  0.40032093  1
  Ni  Ni3  1  0.99999992  0.24244998  0.59967991  1
  Ni  Ni4  1  0.99999987  0.59967995  0.24244989  1
  Ni  Ni5  1  0.66139895  0.12467999  0.12467995  1
  Ni  Ni6  1  0.33860092  0.46327996  0.46327994  1
  Ni  Ni7  1  0.99999984  0.87532093  0.53671887  1
  Ni  Ni8  1  -0.00000007  0.53671896  0.87532096  1
  Ni  Ni9  1  0.49999991  0.49999996  -0.00000006  1
  Ni  Ni10  1  0.49999998  0.00000000  0.49999996  1
