# generated using pymatgen
data_YMn6Si5Mo
_symmetry_space_group_name_H-M   'P 1'
_cell_length_a   5.12816715
_cell_length_b   5.15275717
_cell_length_c   8.21046543
_cell_angle_alpha   90.00107574
_cell_angle_beta   90.00105286
_cell_angle_gamma   60.23934174
_symmetry_Int_Tables_number   1
_chemical_formula_structural   YMn6Si5Mo
_chemical_formula_sum   'Y1 Mn6 Si5 Mo1'
_cell_volume   188.34002758
_cell_formula_units_Z   1
loop_
 _symmetry_equiv_pos_site_id
 _symmetry_equiv_pos_as_xyz
  1  'x, y, z'
loop_
 _atom_site_type_symbol
 _atom_site_label
 _atom_site_symmetry_multiplicity
 _atom_site_fract_x
 _atom_site_fract_y
 _atom_site_fract_z
 _atom_site_occupancy
  Y  Y0  1  0.00001502  0.99998995  0.00013702  1
  Mn  Mn1  1  0.50001303  0.99998095  0.74909397  1
  Mn  Mn2  1  0.50001202  0.50000197  0.25085598  1
  Mn  Mn3  1  0.00002201  0.49999897  0.25089600  1
  Mn  Mn4  1  0.49998603  0.99997695  0.25015399  1
  Mn  Mn5  1  0.50001002  0.49999297  0.74992196  1
  Mn  Mn6  1  0.00003201  0.49997697  0.74987097  1
  Si  Si7  1  0.33438901  0.33192398  0.49837997  1
  Si  Si8  1  0.66567303  0.66802496  0.49836697  1
  Si  Si9  1  0.33401801  0.33264865  0.00119300  1
  Mo  Mo10  1  0.66603003  0.66730330  0.00117500  1
  Si  Si11  1  0.00000202  0.99999395  0.65422498  1
  Si  Si12  1  0.99999804  0.99998695  0.34572997  1
