# generated using pymatgen
data_BaCeSe2
_symmetry_space_group_name_H-M   'P 1'
_cell_length_a   4.26647377
_cell_length_b   4.26647425
_cell_length_c   16.02652931
_cell_angle_alpha   90.00000000
_cell_angle_beta   90.00000000
_cell_angle_gamma   120.00000000
_symmetry_Int_Tables_number   1
_chemical_formula_structural   BaCeSe2
_chemical_formula_sum   'Ba2 Ce2 Se4'
_cell_volume   252.64361237
_cell_formula_units_Z   2
loop_
 _symmetry_equiv_pos_site_id
 _symmetry_equiv_pos_as_xyz
  1  'x, y, z'
loop_
 _atom_site_type_symbol
 _atom_site_label
 _atom_site_symmetry_multiplicity
 _atom_site_fract_x
 _atom_site_fract_y
 _atom_site_fract_z
 _atom_site_occupancy
  Ba  Ba0  1  0.66666671  0.33333333  0.75000003  1
  Ba  Ba1  1  0.33333336  0.66666665  0.25000001  1
  Ce  Ce2  1  0.00000000  0.00000000  0.50000002  1
  Ce  Ce3  1  0.00000000  0.00000000  0.00000000  1
  Se  Se4  1  0.66666671  0.33333333  0.09198600  1
  Se  Se5  1  0.33333336  0.66666665  0.90801404  1
  Se  Se6  1  0.33333336  0.66666665  0.59198603  1
  Se  Se7  1  0.66666671  0.33333333  0.40801402  1
