# generated using pymatgen
data_CrGe
_symmetry_space_group_name_H-M   'P 1'
_cell_length_a   3.73036408
_cell_length_b   5.87201691
_cell_length_c   6.18541718
_cell_angle_alpha   90.00000000
_cell_angle_beta   90.00000000
_cell_angle_gamma   90.00000000
_symmetry_Int_Tables_number   1
_chemical_formula_structural   CrGe
_chemical_formula_sum   'Cr4 Ge4'
_cell_volume   135.49008473
_cell_formula_units_Z   4
loop_
 _symmetry_equiv_pos_site_id
 _symmetry_equiv_pos_as_xyz
  1  'x, y, z'
loop_
 _atom_site_type_symbol
 _atom_site_label
 _atom_site_symmetry_multiplicity
 _atom_site_fract_x
 _atom_site_fract_y
 _atom_site_fract_z
 _atom_site_occupancy
  Cr  Cr0  1  0.74999998  0.81234301  0.58689698  1
  Cr  Cr1  1  0.24999999  0.18765700  0.41310299  1
  Cr  Cr2  1  0.74999998  0.31234300  0.91310297  1
  Cr  Cr3  1  0.24999999  0.68765701  0.08689700  1
  Ge  Ge4  1  0.74999998  0.00013800  0.19344599  1
  Ge  Ge5  1  0.24999999  0.99986202  0.80655398  1
  Ge  Ge6  1  0.74999998  0.50013801  0.30655399  1
  Ge  Ge7  1  0.24999999  0.49986201  0.69344598  1
