# generated using pymatgen
data_Li3Mn3CoO8
_symmetry_space_group_name_H-M   'P 1'
_cell_length_a   5.88206196
_cell_length_b   5.88206196
_cell_length_c   5.89891243
_cell_angle_alpha   60.09444809
_cell_angle_beta   60.09444809
_cell_angle_gamma   60.00000000
_symmetry_Int_Tables_number   1
_chemical_formula_structural   Li3Mn3CoO8
_chemical_formula_sum   'Li3 Mn3 Co1 O8'
_cell_volume   144.52223163
_cell_formula_units_Z   1
loop_
 _symmetry_equiv_pos_site_id
 _symmetry_equiv_pos_as_xyz
  1  'x, y, z'
loop_
 _atom_site_type_symbol
 _atom_site_label
 _atom_site_symmetry_multiplicity
 _atom_site_fract_x
 _atom_site_fract_y
 _atom_site_fract_z
 _atom_site_occupancy
  Li  Li0  1  0.50000000  0.00000000  0.50000002  1
  Li  Li1  1  0.00000000  0.00000000  0.50000001  1
  Li  Li2  1  0.00000000  0.50000000  0.50000002  1
  Mn  Mn3  1  0.00000000  0.50000000  0.00000001  1
  Mn  Mn4  1  0.50000001  0.50000000  0.00000003  1
  Mn  Mn5  1  0.50000000  0.00000000  0.00000001  1
  Co  Co6  1  0.00000000  0.00000000  0.00000000  1
  O  O7  1  0.25792900  0.25792900  0.22621302  1
  O  O8  1  0.25333100  0.76498401  0.21670103  1
  O  O9  1  0.76498401  0.76498401  0.21670104  1
  O  O10  1  0.74207101  0.74207101  0.77378705  1
  O  O11  1  0.76498401  0.25333100  0.21670103  1
  O  O12  1  0.74666901  0.23501600  0.78329904  1
  O  O13  1  0.23501600  0.23501600  0.78329902  1
  O  O14  1  0.23501600  0.74666901  0.78329904  1
