# generated using pymatgen
data_Pr(GeRh)2
_symmetry_space_group_name_H-M   'P 1'
_cell_length_a   4.47557211
_cell_length_b   4.47557211
_cell_length_c   10.09500313
_cell_angle_alpha   90.00000000
_cell_angle_beta   90.00000000
_cell_angle_gamma   90.00000000
_symmetry_Int_Tables_number   1
_chemical_formula_structural   Pr(GeRh)2
_chemical_formula_sum   'Pr2 Ge4 Rh4'
_cell_volume   202.21044055
_cell_formula_units_Z   2
loop_
 _symmetry_equiv_pos_site_id
 _symmetry_equiv_pos_as_xyz
  1  'x, y, z'
loop_
 _atom_site_type_symbol
 _atom_site_label
 _atom_site_symmetry_multiplicity
 _atom_site_fract_x
 _atom_site_fract_y
 _atom_site_fract_z
 _atom_site_occupancy
  Pr  Pr0  1  0.00000000  0.49999999  0.23992300  1
  Pr  Pr1  1  0.49999999  0.00000000  0.76007699  1
  Ge  Ge2  1  0.00000000  0.00000000  0.00000000  1
  Ge  Ge3  1  0.49999999  0.49999999  0.00000000  1
  Ge  Ge4  1  0.00000000  0.49999999  0.62311599  1
  Ge  Ge5  1  0.49999999  0.00000000  0.37688400  1
  Rh  Rh6  1  0.00000000  0.00000000  0.49999999  1
  Rh  Rh7  1  0.49999999  0.49999999  0.49999999  1
  Rh  Rh8  1  0.00000000  0.49999999  0.87401699  1
  Rh  Rh9  1  0.49999999  0.00000000  0.12598300  1
