# generated using pymatgen
data_SrInPd
_symmetry_space_group_name_H-M   'P 1'
_cell_length_a   4.77025604
_cell_length_b   7.73249197
_cell_length_c   8.11176014
_cell_angle_alpha   90.00000000
_cell_angle_beta   90.00000000
_cell_angle_gamma   90.00000000
_symmetry_Int_Tables_number   1
_chemical_formula_structural   SrInPd
_chemical_formula_sum   'Sr4 In4 Pd4'
_cell_volume   299.21011311
_cell_formula_units_Z   4
loop_
 _symmetry_equiv_pos_site_id
 _symmetry_equiv_pos_as_xyz
  1  'x, y, z'
loop_
 _atom_site_type_symbol
 _atom_site_label
 _atom_site_symmetry_multiplicity
 _atom_site_fract_x
 _atom_site_fract_y
 _atom_site_fract_z
 _atom_site_occupancy
  Sr  Sr0  1  0.74999999  0.98134800  0.68245999  1
  Sr  Sr1  1  0.25000000  0.01865200  0.31753999  1
  Sr  Sr2  1  0.74999999  0.48134800  0.81753999  1
  Sr  Sr3  1  0.25000000  0.51865200  0.18246000  1
  In  In4  1  0.74999999  0.33758400  0.42501999  1
  In  In5  1  0.25000000  0.16241600  0.92501998  1
  In  In6  1  0.25000000  0.66241600  0.57497999  1
  In  In7  1  0.74999999  0.83758400  0.07498000  1
  Pd  Pd8  1  0.25000000  0.79813300  0.89372098  1
  Pd  Pd9  1  0.25000000  0.29813300  0.60627899  1
  Pd  Pd10  1  0.74999999  0.70186700  0.39372099  1
  Pd  Pd11  1  0.74999999  0.20186700  0.10627900  1
