# generated using pymatgen
data_EuGe2Ir
_symmetry_space_group_name_H-M   'P 1'
_cell_length_a   4.41211414
_cell_length_b   8.81404972
_cell_length_c   9.61045456
_cell_angle_alpha   117.29459381
_cell_angle_beta   103.27043915
_cell_angle_gamma   90.00000000
_symmetry_Int_Tables_number   1
_chemical_formula_structural   EuGe2Ir
_chemical_formula_sum   'Eu4 Ge8 Ir4'
_cell_volume   320.85394903
_cell_formula_units_Z   4
loop_
 _symmetry_equiv_pos_site_id
 _symmetry_equiv_pos_as_xyz
  1  'x, y, z'
loop_
 _atom_site_type_symbol
 _atom_site_label
 _atom_site_symmetry_multiplicity
 _atom_site_fract_x
 _atom_site_fract_y
 _atom_site_fract_z
 _atom_site_occupancy
  Eu  Eu0  1  -0.00000001  0.75875702  -0.00000000  1
  Eu  Eu1  1  -0.00000000  0.24124301  -0.00000000  1
  Eu  Eu2  1  0.79712697  0.79712702  0.59425401  1
  Eu  Eu3  1  0.20287299  0.20287301  0.40574601  1
  Ge  Ge4  1  0.42573898  0.92573903  0.85147802  1
  Ge  Ge5  1  0.42566898  0.42566901  0.85133802  1
  Ge  Ge6  1  0.80199797  0.45224001  0.60399601  1
  Ge  Ge7  1  0.80199797  0.15175600  0.60399601  1
  Ge  Ge8  1  0.19800199  0.84824403  0.39600401  1
  Ge  Ge9  1  0.19800199  0.54776002  0.39600401  1
  Ge  Ge10  1  0.57433098  0.57433102  0.14866200  1
  Ge  Ge11  1  0.57426098  0.07426100  0.14852200  1
  Ir  Ir12  1  0.35108198  0.59988802  0.70216402  1
  Ir  Ir13  1  0.35108199  0.10227600  0.70216402  1
  Ir  Ir14  1  0.64891797  0.89772403  0.29783600  1
  Ir  Ir15  1  0.64891797  0.40011201  0.29783601  1
