# generated using pymatgen
data_LiFeF3
_symmetry_space_group_name_H-M   'P 1'
_cell_length_a   5.23280191
_cell_length_b   5.29105902
_cell_length_c   7.54040098
_cell_angle_alpha   90.00000000
_cell_angle_beta   90.00000000
_cell_angle_gamma   90.00000000
_symmetry_Int_Tables_number   1
_chemical_formula_structural   LiFeF3
_chemical_formula_sum   'Li4 Fe4 F12'
_cell_volume   208.77156271
_cell_formula_units_Z   4
loop_
 _symmetry_equiv_pos_site_id
 _symmetry_equiv_pos_as_xyz
  1  'x, y, z'
loop_
 _atom_site_type_symbol
 _atom_site_label
 _atom_site_symmetry_multiplicity
 _atom_site_fract_x
 _atom_site_fract_y
 _atom_site_fract_z
 _atom_site_occupancy
  Li  Li0  1  0.50000001  0.00000000  0.00000000  1
  Li  Li1  1  0.00000000  0.50000000  0.00000000  1
  Li  Li2  1  0.00000000  0.50000000  0.50000000  1
  Li  Li3  1  0.50000001  0.00000000  0.50000000  1
  Fe  Fe4  1  0.50799001  0.46044700  0.75000000  1
  Fe  Fe5  1  0.00799000  0.03955300  0.25000000  1
  Fe  Fe6  1  0.99201002  0.96044700  0.75000000  1
  Fe  Fe7  1  0.49201001  0.53955300  0.25000000  1
  F  F8  1  0.10524600  0.44323500  0.25000000  1
  F  F9  1  0.60524601  0.05676500  0.75000000  1
  F  F10  1  0.39475401  0.94323500  0.25000000  1
  F  F11  1  0.89475401  0.55676500  0.75000000  1
  F  F12  1  0.82319001  0.81809700  0.44328300  1
  F  F13  1  0.17681000  0.18190300  0.55671700  1
  F  F14  1  0.82319001  0.81809700  0.05671700  1
  F  F15  1  0.32319001  0.68190300  0.94328300  1
  F  F16  1  0.32319001  0.68190300  0.55671700  1
  F  F17  1  0.67681001  0.31809700  0.05671700  1
  F  F18  1  0.17681000  0.18190300  0.94328300  1
  F  F19  1  0.67681001  0.31809700  0.44328300  1
