# generated using pymatgen
data_Li6Ca3Bi7
_symmetry_space_group_name_H-M   'P 1'
_cell_length_a   6.50060987
_cell_length_b   8.85647011
_cell_length_c   8.86658859
_cell_angle_alpha   60.03775024
_cell_angle_beta   89.99742889
_cell_angle_gamma   89.99483490
_symmetry_Int_Tables_number   1
_chemical_formula_structural   Li6Ca3Bi7
_chemical_formula_sum   'Li6 Ca3 Bi7'
_cell_volume   442.24917410
_cell_formula_units_Z   1
loop_
 _symmetry_equiv_pos_site_id
 _symmetry_equiv_pos_as_xyz
  1  'x, y, z'
loop_
 _atom_site_type_symbol
 _atom_site_label
 _atom_site_symmetry_multiplicity
 _atom_site_fract_x
 _atom_site_fract_y
 _atom_site_fract_z
 _atom_site_occupancy
  Li  Li0  1  0.49999198  0.66666666  0.66666668  1
  Li  Li1  1  0.49999200  0.33333333  0.33333334  1
  Li  Li2  1  0.00002199  0.33329766  0.33336901  1
  Li  Li3  1  0.00002197  0.66666666  0.66666668  1
  Li  Li4  1  0.75002901  0.24909300  -0.00000000  1
  Li  Li5  1  0.75002598  0.99996499  0.75088202  1
  Ca  Ca6  1  0.75002599  0.75084700  0.24911800  1
  Ca  Ca7  1  0.25002297  0.75089800  1.00000003  1
  Ca  Ca8  1  0.25001701  0.00004300  0.24910901  1
  Bi  Bi9  1  0.25001700  0.24915200  0.75089103  1
  Bi  Bi10  1  0.74994699  0.60729800  1.00000003  1
  Bi  Bi11  1  0.74996798  0.99994299  0.39266000  1
  Bi  Bi12  1  0.74996800  0.39260300  0.60734002  1
  Bi  Bi13  1  0.24997099  0.39268200  1.00000003  1
  Bi  Bi14  1  0.24999101  0.00008500  0.60728802  1
  Bi  Bi15  1  0.24999098  0.60737300  0.39271201  1
