# generated using pymatgen
data_LiNbO3
_symmetry_space_group_name_H-M   'P 1'
_cell_length_a   5.35105419
_cell_length_b   5.75067186
_cell_length_c   7.66421080
_cell_angle_alpha   90.00000000
_cell_angle_beta   90.00000000
_cell_angle_gamma   90.00000000
_symmetry_Int_Tables_number   1
_chemical_formula_structural   LiNbO3
_chemical_formula_sum   'Li4 Nb4 O12'
_cell_volume   235.84429622
_cell_formula_units_Z   4
loop_
 _symmetry_equiv_pos_site_id
 _symmetry_equiv_pos_as_xyz
  1  'x, y, z'
loop_
 _atom_site_type_symbol
 _atom_site_label
 _atom_site_symmetry_multiplicity
 _atom_site_fract_x
 _atom_site_fract_y
 _atom_site_fract_z
 _atom_site_occupancy
  Li  Li0  1  0.51967898  0.56896301  0.75000002  1
  Li  Li1  1  0.98032096  0.06896300  0.75000002  1
  Li  Li2  1  0.48032098  0.43103701  0.25000001  1
  Li  Li3  1  0.01967900  0.93103702  0.25000001  1
  Nb  Nb4  1  0.00000000  0.50000001  0.00000000  1
  Nb  Nb5  1  0.49999998  0.00000000  0.50000001  1
  Nb  Nb6  1  0.00000000  0.50000001  0.50000001  1
  Nb  Nb7  1  0.49999998  0.00000000  -0.00000000  1
  O  O8  1  0.69575598  0.31042401  0.94193903  1
  O  O9  1  0.30424399  0.68957602  0.44193901  1
  O  O10  1  0.80424397  0.81042402  0.55806101  1
  O  O11  1  0.19575599  0.18957600  0.44193901  1
  O  O12  1  0.69575598  0.31042401  0.55806101  1
  O  O13  1  0.88422797  0.54496401  0.25000001  1
  O  O14  1  0.19575599  0.18957600  0.05806100  1
  O  O15  1  0.38422799  0.95503602  0.75000002  1
  O  O16  1  0.80424397  0.81042402  0.94193903  1
  O  O17  1  0.61577198  0.04496400  0.25000001  1
  O  O18  1  0.30424399  0.68957602  0.05806100  1
  O  O19  1  0.11577200  0.45503601  0.75000002  1
