# generated using pymatgen
data_MgSn2
_symmetry_space_group_name_H-M   'P 1'
_cell_length_a   3.19819593
_cell_length_b   6.06870604
_cell_length_c   7.31411219
_cell_angle_alpha   104.12064362
_cell_angle_beta   90.00000000
_cell_angle_gamma   105.27777863
_symmetry_Int_Tables_number   1
_chemical_formula_structural   MgSn2
_chemical_formula_sum   'Mg2 Sn4'
_cell_volume   132.49034875
_cell_formula_units_Z   2
loop_
 _symmetry_equiv_pos_site_id
 _symmetry_equiv_pos_as_xyz
  1  'x, y, z'
loop_
 _atom_site_type_symbol
 _atom_site_label
 _atom_site_symmetry_multiplicity
 _atom_site_fract_x
 _atom_site_fract_y
 _atom_site_fract_z
 _atom_site_occupancy
  Mg  Mg0  1  0.00204300  0.00408600  0.00366000  1
  Mg  Mg1  1  0.05538499  0.11077000  0.60878299  1
  Sn  Sn2  1  0.33175492  0.66351000  0.66576399  1
  Sn  Sn3  1  0.39050491  0.78101000  0.27993600  1
  Sn  Sn4  1  0.66614197  0.33228400  0.33553700  1
  Sn  Sn5  1  0.72083796  0.44167600  0.93965398  1
