# generated using pymatgen
data_LiMg3Mn4O8
_symmetry_space_group_name_H-M   'P 1'
_cell_length_a   5.27939939
_cell_length_b   5.28206635
_cell_length_c   6.09604454
_cell_angle_alpha   89.96597290
_cell_angle_beta   89.96715546
_cell_angle_gamma   69.75498962
_symmetry_Int_Tables_number   1
_chemical_formula_structural   LiMg3Mn4O8
_chemical_formula_sum   'Li1 Mg3 Mn4 O8'
_cell_volume   159.49304905
_cell_formula_units_Z   1
loop_
 _symmetry_equiv_pos_site_id
 _symmetry_equiv_pos_as_xyz
  1  'x, y, z'
loop_
 _atom_site_type_symbol
 _atom_site_label
 _atom_site_symmetry_multiplicity
 _atom_site_fract_x
 _atom_site_fract_y
 _atom_site_fract_z
 _atom_site_occupancy
  Mg  Mg0  1  0.99999896  0.99999802  0.99997801  1
  Mg  Mg1  1  0.49999898  0.49999901  0.50001701  1
  Li  Li2  1  0.50007899  0.00003600  0.75413497  1
  Mg  Mg3  1  0.99994297  0.49993601  0.24694502  1
  Mn  Mn4  1  0.00006499  0.50007001  0.75305099  1
  Mn  Mn5  1  0.49991797  0.99996502  0.24587104  1
  Mn  Mn6  1  0.50000498  0.50000301  0.00002003  1
  Mn  Mn7  1  0.99999398  0.00000500  0.49995699  1
  O  O8  1  0.24583398  0.75553002  0.25828003  1
  O  O9  1  0.75413798  0.24446301  0.74171599  1
  O  O10  1  0.75409898  0.24435601  0.25824301  1
  O  O11  1  0.24592898  0.75564602  0.74174901  1
  O  O12  1  0.74859697  0.75213002  0.99991800  1
  O  O13  1  0.23979899  0.23562901  0.49994099  1
  O  O14  1  0.76020197  0.76436702  0.50022002  1
  O  O15  1  0.25140099  0.24786701  0.99995997  1
