# generated using pymatgen
data_Ca3BiN6
_symmetry_space_group_name_H-M   'P 1'
_cell_length_a   6.03216934
_cell_length_b   6.22938299
_cell_length_c   8.65656662
_cell_angle_alpha   90.01602936
_cell_angle_beta   89.90805054
_cell_angle_gamma   89.99919891
_symmetry_Int_Tables_number   1
_chemical_formula_structural   Ca3BiN6
_chemical_formula_sum   'Ca6 Bi2 N12'
_cell_volume   325.28471556
_cell_formula_units_Z   2
loop_
 _symmetry_equiv_pos_site_id
 _symmetry_equiv_pos_as_xyz
  1  'x, y, z'
loop_
 _atom_site_type_symbol
 _atom_site_label
 _atom_site_symmetry_multiplicity
 _atom_site_fract_x
 _atom_site_fract_y
 _atom_site_fract_z
 _atom_site_occupancy
  Ca  Ca0  1  0.48631110  0.55065197  0.74993190  1
  Ca  Ca1  1  0.01360025  0.05068715  0.74995033  1
  Ca  Ca2  1  0.51368898  0.44934801  0.25006813  1
  Ca  Ca3  1  0.98639982  0.94931283  0.25004970  1
  Ca  Ca4  1  0.50000000  0.00000000  1.00000005  1
  Ca  Ca5  1  0.00000003  0.49999999  0.50000002  1
  Bi  Bi6  1  0.00000003  0.49999999  1.00000004  1
  Bi  Bi7  1  0.50000000  0.00000000  0.50000002  1
  N  N8  1  0.79972445  0.19986640  0.05438717  1
  N  N9  1  0.70047827  0.69968430  0.44547892  1
  N  N10  1  0.20027563  0.80013358  0.94561285  1
  N  N11  1  0.29952180  0.30031568  0.55452111  1
  N  N12  1  0.69799731  0.70236787  0.05659196  1
  N  N13  1  0.80212968  0.20262374  0.44327575  1
  N  N14  1  0.30200276  0.29763211  0.94340806  1
  N  N15  1  0.19787040  0.79737624  0.55672428  1
  N  N16  1  0.60364467  0.95793915  0.75104727  1
  N  N17  1  0.89645888  0.45797645  0.74916790  1
  N  N18  1  0.39635541  0.04206083  0.24895276  1
  N  N19  1  0.10354120  0.54202353  0.25083213  1
