# generated using pymatgen
data_Zr2FeS8
_symmetry_space_group_name_H-M   'P 1'
_cell_length_a   3.86930609
_cell_length_b   7.50077915
_cell_length_c   11.36553288
_cell_angle_alpha   72.11100006
_cell_angle_beta   80.19932556
_cell_angle_gamma   75.05290985
_symmetry_Int_Tables_number   1
_chemical_formula_structural   Zr2FeS8
_chemical_formula_sum   'Zr2 Fe1 S8'
_cell_volume   301.80186620
_cell_formula_units_Z   1
loop_
 _symmetry_equiv_pos_site_id
 _symmetry_equiv_pos_as_xyz
  1  'x, y, z'
loop_
 _atom_site_type_symbol
 _atom_site_label
 _atom_site_symmetry_multiplicity
 _atom_site_fract_x
 _atom_site_fract_y
 _atom_site_fract_z
 _atom_site_occupancy
  Zr  Zr0  1  0.25737100  0.01269700  0.47256098  1
  Zr  Zr1  1  0.08797300  0.00062300  0.82343097  1
  Fe  Fe2  1  0.91580898  0.99531201  0.17306997  1
  S  S3  1  0.27559800  0.73804101  0.71076296  1
  S  S4  1  0.72642699  0.25063000  0.29651598  1
  S  S5  1  0.11073200  0.73547101  0.04306499  1
  S  S6  1  0.89196499  0.26153900  0.95453095  1
  S  S7  1  0.05292900  0.27199500  0.62214697  1
  S  S8  1  0.94495498  0.73312001  0.37696996  1
  S  S9  1  0.58553399  0.00128400  0.82764796  1
  S  S10  1  0.41610899  0.00078300  0.16699899  1
