# generated using pymatgen
data_CrP2
_symmetry_space_group_name_H-M   'P 1'
_cell_length_a   3.67304897
_cell_length_b   6.26706409
_cell_length_c   6.26706409
_cell_angle_alpha   120.00000000
_cell_angle_beta   90.00000000
_cell_angle_gamma   90.00000000
_symmetry_Int_Tables_number   1
_chemical_formula_structural   CrP2
_chemical_formula_sum   'Cr3 P6'
_cell_volume   124.93543212
_cell_formula_units_Z   3
loop_
 _symmetry_equiv_pos_site_id
 _symmetry_equiv_pos_as_xyz
  1  'x, y, z'
loop_
 _atom_site_type_symbol
 _atom_site_label
 _atom_site_symmetry_multiplicity
 _atom_site_fract_x
 _atom_site_fract_y
 _atom_site_fract_z
 _atom_site_occupancy
  Cr  Cr0  1  0.50000000  0.58410500  0.00000002  1
  Cr  Cr1  1  0.50000000  0.41589500  0.41589503  1
  Cr  Cr2  1  0.50000000  0.00000000  0.58410502  1
  P  P3  1  0.50000000  0.00000000  -0.00000000  1
  P  P4  1  -0.00000000  0.33333333  0.66666670  1
  P  P5  1  -0.00000000  0.66666667  0.33333337  1
  P  P6  1  0.00000000  0.00000000  0.25099101  1
  P  P7  1  -0.00000000  0.74900900  0.74900905  1
  P  P8  1  -0.00000000  0.25099100  0.00000001  1
