# generated using pymatgen
data_CuAgF6
_symmetry_space_group_name_H-M   'P 1'
_cell_length_a   5.62486696
_cell_length_b   5.62486696
_cell_length_c   6.04769230
_cell_angle_alpha   62.28703308
_cell_angle_beta   62.28703308
_cell_angle_gamma   59.99999237
_symmetry_Int_Tables_number   1
_chemical_formula_structural   CuAgF6
_chemical_formula_sum   'Cu1 Ag1 F6'
_cell_volume   139.79036452
_cell_formula_units_Z   1
loop_
 _symmetry_equiv_pos_site_id
 _symmetry_equiv_pos_as_xyz
  1  'x, y, z'
loop_
 _atom_site_type_symbol
 _atom_site_label
 _atom_site_symmetry_multiplicity
 _atom_site_fract_x
 _atom_site_fract_y
 _atom_site_fract_z
 _atom_site_occupancy
  Cu  Cu0  1  0.00000000  0.00000000  0.00000000  1
  Ag  Ag1  1  0.50000000  0.49999998  0.49999997  1
  F  F2  1  0.88745198  0.23298099  0.22647398  1
  F  F3  1  0.65309301  0.88745196  0.22647397  1
  F  F4  1  0.23298102  0.65309297  0.22647398  1
  F  F5  1  0.76701899  0.34690698  0.77352597  1
  F  F6  1  0.34690699  0.11254800  0.77352598  1
  F  F7  1  0.11254802  0.76701897  0.77352597  1
