# generated using pymatgen
data_LiReO3
_symmetry_space_group_name_H-M   'P 1'
_cell_length_a   5.30706978
_cell_length_b   5.56812286
_cell_length_c   7.58878899
_cell_angle_alpha   90.00000000
_cell_angle_beta   90.00000000
_cell_angle_gamma   90.00000000
_symmetry_Int_Tables_number   1
_chemical_formula_structural   LiReO3
_chemical_formula_sum   'Li4 Re4 O12'
_cell_volume   224.25187583
_cell_formula_units_Z   4
loop_
 _symmetry_equiv_pos_site_id
 _symmetry_equiv_pos_as_xyz
  1  'x, y, z'
loop_
 _atom_site_type_symbol
 _atom_site_label
 _atom_site_symmetry_multiplicity
 _atom_site_fract_x
 _atom_site_fract_y
 _atom_site_fract_z
 _atom_site_occupancy
  Li  Li0  1  0.98314904  0.06671500  0.25000000  1
  Li  Li1  1  0.48314902  0.43328501  0.75000000  1
  Li  Li2  1  0.51685102  0.56671501  0.25000000  1
  Li  Li3  1  0.01685100  0.93328502  0.75000000  1
  Re  Re4  1  0.50000002  0.00000000  0.00000000  1
  Re  Re5  1  0.00000000  0.50000001  0.00000000  1
  Re  Re6  1  0.00000000  0.50000001  0.50000000  1
  Re  Re7  1  0.50000002  0.00000000  0.50000000  1
  O  O8  1  0.09545000  0.47400801  0.25000000  1
  O  O9  1  0.59545002  0.02599200  0.75000000  1
  O  O10  1  0.40455002  0.97400802  0.25000000  1
  O  O11  1  0.90455004  0.52599201  0.75000000  1
  O  O12  1  0.70046703  0.29996801  0.04935200  1
  O  O13  1  0.20046701  0.20003200  0.95064800  1
  O  O14  1  0.79953303  0.79996802  0.45064800  1
  O  O15  1  0.29953301  0.70003202  0.54935200  1
  O  O16  1  0.29953301  0.70003202  0.95064800  1
  O  O17  1  0.79953303  0.79996802  0.04935200  1
  O  O18  1  0.20046701  0.20003200  0.54935200  1
  O  O19  1  0.70046703  0.29996801  0.45064800  1
