# generated using pymatgen
data_SmMn4AlCr7
_symmetry_space_group_name_H-M   'P 1'
_cell_length_a   5.11248016
_cell_length_b   6.71225119
_cell_length_c   6.71225119
_cell_angle_alpha   81.66081238
_cell_angle_beta   67.61476898
_cell_angle_gamma   67.61476898
_symmetry_Int_Tables_number   1
_chemical_formula_structural   SmMn4AlCr7
_chemical_formula_sum   'Sm1 Mn4 Al1 Cr7'
_cell_volume   196.93248668
_cell_formula_units_Z   1
loop_
 _symmetry_equiv_pos_site_id
 _symmetry_equiv_pos_as_xyz
  1  'x, y, z'
loop_
 _atom_site_type_symbol
 _atom_site_label
 _atom_site_symmetry_multiplicity
 _atom_site_fract_x
 _atom_site_fract_y
 _atom_site_fract_z
 _atom_site_occupancy
  Sm  Sm0  1  0.00000000  0.00000000  0.00000000  1
  Mn  Mn1  1  0.00000000  0.00000000  0.50000000  1
  Mn  Mn2  1  0.49999987  1.00000003  0.50000006  1
  Mn  Mn3  1  0.49999993  0.50000001  0.00000002  1
  Mn  Mn4  1  -0.00000006  0.50000001  0.00000004  1
  Cr  Cr5  1  0.49999990  0.78092502  0.21907504  1
  Cr  Cr6  1  -0.00000004  0.34104501  0.65895503  1
  Cr  Cr7  1  0.71907490  0.78092502  0.78092503  1
  Al  Al8  1  0.65895495  0.34104501  0.34104500  1
  Cr  Cr9  1  0.34104492  0.65895502  0.65895504  1
  Cr  Cr10  1  0.49999997  0.21907501  0.78092500  1
  Cr  Cr11  1  -0.00000008  0.65895502  0.34104506  1
  Cr  Cr12  1  0.28092497  0.21907501  0.21907501  1
