# generated using pymatgen
data_PrY2AlNi8
_symmetry_space_group_name_H-M   'P 1'
_cell_length_a   5.04930115
_cell_length_b   5.04930115
_cell_length_c   8.39838314
_cell_angle_alpha   72.50566864
_cell_angle_beta   72.50566864
_cell_angle_gamma   60.00000763
_symmetry_Int_Tables_number   1
_chemical_formula_structural   PrY2AlNi8
_chemical_formula_sum   'Pr1 Y2 Al1 Ni8'
_cell_volume   173.90391944
_cell_formula_units_Z   1
loop_
 _symmetry_equiv_pos_site_id
 _symmetry_equiv_pos_as_xyz
  1  'x, y, z'
loop_
 _atom_site_type_symbol
 _atom_site_label
 _atom_site_symmetry_multiplicity
 _atom_site_fract_x
 _atom_site_fract_y
 _atom_site_fract_z
 _atom_site_occupancy
  Pr  Pr0  1  0.00017500  0.00017500  0.99947495  1
  Y  Y1  1  0.85999598  0.85999604  0.42001301  1
  Y  Y2  1  0.14019900  0.14019901  0.57940397  1
  Al  Al3  1  0.33187899  0.33187901  0.00436301  1
  Ni  Ni4  1  0.58090901  0.08104300  0.75713997  1
  Ni  Ni5  1  0.58090899  0.58090902  0.75713998  1
  Ni  Ni6  1  0.08104298  0.58090902  0.75713997  1
  Ni  Ni7  1  0.42222897  0.91379304  0.24174901  1
  Ni  Ni8  1  0.42222899  0.42222902  0.24174900  1
  Ni  Ni9  1  0.91379300  0.42222902  0.24174901  1
  Ni  Ni10  1  0.49925299  0.49925302  0.50224099  1
  Ni  Ni11  1  0.66738699  0.66738703  0.99783897  1
