# generated using pymatgen
data_Sr2Ce(WO3)2
_symmetry_space_group_name_H-M   'P 1'
_cell_length_a   5.65564060
_cell_length_b   5.65705538
_cell_length_c   6.45455408
_cell_angle_alpha   64.04769897
_cell_angle_beta   64.09215546
_cell_angle_gamma   60.03039932
_symmetry_Int_Tables_number   1
_chemical_formula_structural   Sr2Ce(WO3)2
_chemical_formula_sum   'Sr2 Ce1 W2 O6'
_cell_volume   154.40929669
_cell_formula_units_Z   1
loop_
 _symmetry_equiv_pos_site_id
 _symmetry_equiv_pos_as_xyz
  1  'x, y, z'
loop_
 _atom_site_type_symbol
 _atom_site_label
 _atom_site_symmetry_multiplicity
 _atom_site_fract_x
 _atom_site_fract_y
 _atom_site_fract_z
 _atom_site_occupancy
  Sr  Sr0  1  0.12141801  0.12154600  0.63549301  1
  Sr  Sr1  1  0.87858406  0.87845300  0.36450700  1
  Ce  Ce2  1  0.50000003  0.50000000  0.50000000  1
  W  W3  1  0.33145902  0.33138800  0.00570000  1
  W  W4  1  0.66854304  0.66861100  0.99429801  1
  O  O5  1  0.38675703  0.48188200  0.20857400  1
  O  O6  1  0.48176804  0.92301200  0.20862702  1
  O  O7  1  0.92290406  0.38677900  0.20860097  1
  O  O8  1  0.61324304  0.51811700  0.79142600  1
  O  O9  1  0.07709601  0.61321900  0.79140003  1
  O  O10  1  0.51823303  0.07698900  0.79137199  1
