# generated using pymatgen
data_LiNiSO2
_symmetry_space_group_name_H-M   'P 1'
_cell_length_a   3.29623199
_cell_length_b   3.29623222
_cell_length_c   5.50580978
_cell_angle_alpha   90.00000000
_cell_angle_beta   90.00000000
_cell_angle_gamma   120.00000000
_symmetry_Int_Tables_number   1
_chemical_formula_structural   LiNiSO2
_chemical_formula_sum   'Li1 Ni1 S1 O2'
_cell_volume   51.80687601
_cell_formula_units_Z   1
loop_
 _symmetry_equiv_pos_site_id
 _symmetry_equiv_pos_as_xyz
  1  'x, y, z'
loop_
 _atom_site_type_symbol
 _atom_site_label
 _atom_site_symmetry_multiplicity
 _atom_site_fract_x
 _atom_site_fract_y
 _atom_site_fract_z
 _atom_site_occupancy
  Li  Li0  1  0.33333338  0.66666670  0.62152302  1
  S  S1  1  0.66666669  0.33333335  0.37847701  1
  O  O2  1  0.00000000  0.00000000  0.00000000  1
  Ni  Ni3  1  0.33333338  0.66666670  0.22645601  1
  O  O4  1  0.66666669  0.33333335  0.77354403  1
