# generated using pymatgen
data_BaSn4
_symmetry_space_group_name_H-M   'P 1'
_cell_length_a   5.29531002
_cell_length_b   6.86471510
_cell_length_c   20.17679977
_cell_angle_alpha   80.22879028
_cell_angle_beta   82.45974731
_cell_angle_gamma   67.31339264
_symmetry_Int_Tables_number   1
_chemical_formula_structural   BaSn4
_chemical_formula_sum   'Ba4 Sn16'
_cell_volume   665.13165152
_cell_formula_units_Z   4
loop_
 _symmetry_equiv_pos_site_id
 _symmetry_equiv_pos_as_xyz
  1  'x, y, z'
loop_
 _atom_site_type_symbol
 _atom_site_label
 _atom_site_symmetry_multiplicity
 _atom_site_fract_x
 _atom_site_fract_y
 _atom_site_fract_z
 _atom_site_occupancy
  Ba  Ba0  1  0.67923003  0.49484298  0.14669701  1
  Ba  Ba1  1  0.17763806  0.99649497  0.64822899  1
  Ba  Ba2  1  0.82261099  0.00083000  0.35394800  1
  Ba  Ba3  1  0.32215603  0.50381098  0.85187698  1
  Sn  Sn4  1  0.53048503  0.60478098  0.33424900  1
  Sn  Sn5  1  0.03079301  0.10553100  0.83288297  1
  Sn  Sn6  1  0.97523805  0.88233897  0.16718502  1
  Sn  Sn7  1  0.46886002  0.39472899  0.66755099  1
  Sn  Sn8  1  0.11054602  0.34151699  0.43739099  1
  Sn  Sn9  1  0.60578105  0.85111597  0.93732198  1
  Sn  Sn10  1  0.38909601  0.16073599  0.06107201  1
  Sn  Sn11  1  0.89431603  0.64856698  0.56280100  1
  Sn  Sn12  1  0.37293105  0.77680197  0.47733600  1
  Sn  Sn13  1  0.87409301  0.27586799  0.97594598  1
  Sn  Sn14  1  0.12798505  0.72186098  0.02216901  1
  Sn  Sn15  1  0.62475501  0.22687199  0.52361799  1
  Sn  Sn16  1  0.36407100  0.04779800  0.22406000  1
  Sn  Sn17  1  0.86577803  0.54317498  0.72526899  1
  Sn  Sn18  1  0.12938403  0.46612298  0.27510900  1
  Sn  Sn19  1  0.63425206  0.95620997  0.77528599  1
