# generated using pymatgen
data_Ce3In3Pd2Pb
_symmetry_space_group_name_H-M   'P 1'
_cell_length_a   4.12723494
_cell_length_b   7.50064421
_cell_length_c   7.50064373
_cell_angle_alpha   120.00000000
_cell_angle_beta   90.00000000
_cell_angle_gamma   90.00000000
_symmetry_Int_Tables_number   1
_chemical_formula_structural   Ce3In3Pd2Pb
_chemical_formula_sum   'Ce3 In3 Pd2 Pb1'
_cell_volume   201.08835692
_cell_formula_units_Z   1
loop_
 _symmetry_equiv_pos_site_id
 _symmetry_equiv_pos_as_xyz
  1  'x, y, z'
loop_
 _atom_site_type_symbol
 _atom_site_label
 _atom_site_symmetry_multiplicity
 _atom_site_fract_x
 _atom_site_fract_y
 _atom_site_fract_z
 _atom_site_occupancy
  Ce  Ce0  1  -0.00000000  0.41032498  -0.00000001  1
  Ce  Ce1  1  -0.00000000  0.58967498  0.58967499  1
  Ce  Ce2  1  1.00000002  0.00000000  0.41032500  1
  In  In3  1  0.50000001  0.99999996  0.75723699  1
  In  In4  1  0.50000001  0.75723697  -0.00000001  1
  In  In5  1  0.50000001  0.24276299  0.24276300  1
  Pb  Pb6  1  0.00000000  0.00000000  0.00000000  1
  Pd  Pd7  1  0.50000001  0.66666664  0.33333332  1
  Pd  Pd8  1  0.50000001  0.33333332  0.66666666  1
