# generated using pymatgen
data_Y(CuS3)2
_symmetry_space_group_name_H-M   'P 1'
_cell_length_a   6.38138390
_cell_length_b   6.38138342
_cell_length_c   7.97659111
_cell_angle_alpha   90.00000000
_cell_angle_beta   90.00000000
_cell_angle_gamma   120.00000000
_symmetry_Int_Tables_number   1
_chemical_formula_structural   Y(CuS3)2
_chemical_formula_sum   'Y2 Cu4 S12'
_cell_volume   281.30514373
_cell_formula_units_Z   2
loop_
 _symmetry_equiv_pos_site_id
 _symmetry_equiv_pos_as_xyz
  1  'x, y, z'
loop_
 _atom_site_type_symbol
 _atom_site_label
 _atom_site_symmetry_multiplicity
 _atom_site_fract_x
 _atom_site_fract_y
 _atom_site_fract_z
 _atom_site_occupancy
  Y  Y0  1  0.33333330  0.66666665  0.60873799  1
  Y  Y1  1  0.66666666  0.33333332  0.39126199  1
  Cu  Cu2  1  0.00000000  0.00000000  0.76547099  1
  Cu  Cu3  1  0.00000000  0.00000000  0.23452900  1
  Cu  Cu4  1  0.66666666  0.33333332  0.87873699  1
  Cu  Cu5  1  0.33333330  0.66666665  0.12126300  1
  S  S6  1  0.72383197  0.61657198  0.67872999  1
  S  S7  1  0.07594096  0.68665498  0.90290899  1
  S  S8  1  0.61071395  0.92405797  0.90290899  1
  S  S9  1  0.38928600  0.07594200  0.09709100  1
  S  S10  1  0.10725996  0.72383198  0.32127000  1
  S  S11  1  0.27616798  0.38342799  0.32127000  1
  S  S12  1  0.68665597  0.61071498  0.09709100  1
  S  S13  1  0.92405900  0.31334499  0.09709100  1
  S  S14  1  0.89274000  0.27616799  0.67872999  1
  S  S15  1  0.31334398  0.38928499  0.90290899  1
  S  S16  1  0.38342800  0.10726000  0.67872999  1
  S  S17  1  0.61657196  0.89273998  0.32127000  1
