# generated using pymatgen
data_Nd3Ge8
_symmetry_space_group_name_H-M   'P 1'
_cell_length_a   4.42148590
_cell_length_b   7.19349480
_cell_length_c   8.47282410
_cell_angle_alpha   115.11927032
_cell_angle_beta   105.12474823
_cell_angle_gamma   90.00000000
_symmetry_Int_Tables_number   1
_chemical_formula_structural   Nd3Ge8
_chemical_formula_sum   'Nd3 Ge8'
_cell_volume   233.64869816
_cell_formula_units_Z   1
loop_
 _symmetry_equiv_pos_site_id
 _symmetry_equiv_pos_as_xyz
  1  'x, y, z'
loop_
 _atom_site_type_symbol
 _atom_site_label
 _atom_site_symmetry_multiplicity
 _atom_site_fract_x
 _atom_site_fract_y
 _atom_site_fract_z
 _atom_site_occupancy
  Nd  Nd0  1  0.12741001  0.62740903  0.25481902  1
  Nd  Nd1  1  0.87259003  0.37259102  0.74518099  1
  Nd  Nd2  1  0.00000000  0.00000000  0.00000000  1
  Ge  Ge3  1  0.66882903  0.97384305  0.33765803  1
  Ge  Ge4  1  0.33117101  0.02615700  0.66234198  1
  Ge  Ge5  1  0.66882902  0.36381602  0.33765800  1
  Ge  Ge6  1  0.33117102  0.63618403  0.66234200  1
  Ge  Ge7  1  0.78345103  0.78345004  0.56690101  1
  Ge  Ge8  1  0.21654901  0.21655001  0.43309899  1
  Ge  Ge9  1  0.50000002  0.68235303  0.99999999  1
  Ge  Ge10  1  0.50000002  0.31764702  0.99999998  1
