# generated using pymatgen
data_CeFeNiGe2
_symmetry_space_group_name_H-M   'P 1'
_cell_length_a   3.90696406
_cell_length_b   3.90696406
_cell_length_c   5.99960709
_cell_angle_alpha   109.00202942
_cell_angle_beta   109.00202942
_cell_angle_gamma   90.00000000
_symmetry_Int_Tables_number   1
_chemical_formula_structural   CeFeNiGe2
_chemical_formula_sum   'Ce1 Fe1 Ni1 Ge2'
_cell_volume   81.29347631
_cell_formula_units_Z   1
loop_
 _symmetry_equiv_pos_site_id
 _symmetry_equiv_pos_as_xyz
  1  'x, y, z'
loop_
 _atom_site_type_symbol
 _atom_site_label
 _atom_site_symmetry_multiplicity
 _atom_site_fract_x
 _atom_site_fract_y
 _atom_site_fract_z
 _atom_site_occupancy
  Ce  Ce0  1  0.99763497  0.99763498  0.99526999  1
  Fe  Fe1  1  0.75405498  0.25405499  0.50811000  1
  Ni  Ni2  1  0.25405499  0.75405498  0.50810999  1
  Ge  Ge3  1  0.37768899  0.37768899  0.75537800  1
  Ge  Ge4  1  0.61656698  0.61656699  0.23313399  1
