# generated using pymatgen
data_UCo2
_symmetry_space_group_name_H-M   'P 1'
_cell_length_a   4.98356819
_cell_length_b   4.98356819
_cell_length_c   5.27964067
_cell_angle_alpha   61.83834076
_cell_angle_beta   61.83834076
_cell_angle_gamma   59.99999619
_symmetry_Int_Tables_number   1
_chemical_formula_structural   UCo2
_chemical_formula_sum   'U2 Co4'
_cell_volume   95.21264930
_cell_formula_units_Z   2
loop_
 _symmetry_equiv_pos_site_id
 _symmetry_equiv_pos_as_xyz
  1  'x, y, z'
loop_
 _atom_site_type_symbol
 _atom_site_label
 _atom_site_symmetry_multiplicity
 _atom_site_fract_x
 _atom_site_fract_y
 _atom_site_fract_z
 _atom_site_occupancy
  U  U0  1  0.12142400  0.12142400  0.63572801  1
  U  U1  1  0.87857597  0.87857601  0.36427205  1
  Co  Co2  1  -0.00000002  0.50000000  0.00000002  1
  Co  Co3  1  0.50000000  0.00000000  0.00000001  1
  Co  Co4  1  0.49999998  0.50000000  0.00000003  1
  Co  Co5  1  0.49999998  0.50000000  0.50000003  1
