# generated using pymatgen
data_Rb4Y3MnCl10
_symmetry_space_group_name_H-M   'P 1'
_cell_length_a   7.40300512
_cell_length_b   8.78670311
_cell_length_c   9.54020500
_cell_angle_alpha   103.52325439
_cell_angle_beta   103.07385254
_cell_angle_gamma   107.39854431
_symmetry_Int_Tables_number   1
_chemical_formula_structural   Rb4Y3MnCl10
_chemical_formula_sum   'Rb4 Y3 Mn1 Cl10'
_cell_volume   545.64588567
_cell_formula_units_Z   1
loop_
 _symmetry_equiv_pos_site_id
 _symmetry_equiv_pos_as_xyz
  1  'x, y, z'
loop_
 _atom_site_type_symbol
 _atom_site_label
 _atom_site_symmetry_multiplicity
 _atom_site_fract_x
 _atom_site_fract_y
 _atom_site_fract_z
 _atom_site_occupancy
  Rb  Rb0  1  0.63352995  0.97796698  0.28912802  1
  Rb  Rb1  1  0.36646999  0.02203300  0.71087199  1
  Rb  Rb2  1  0.34330597  0.51094299  0.70731800  1
  Rb  Rb3  1  0.65669397  0.48905699  0.29268201  1
  Y  Y4  1  0.99792696  0.72996699  0.99833800  1
  Y  Y5  1  0.00207299  0.27003299  0.00166200  1
  Y  Y6  1  0.80572595  0.87179198  0.68764001  1
  Mn  Mn7  1  0.19427399  0.12820800  0.31236000  1
  Cl  Cl8  1  0.98783696  0.68256299  0.68505701  1
  Cl  Cl9  1  0.01216299  0.31743699  0.31494300  1
  Cl  Cl10  1  0.98392898  0.15365900  0.68747500  1
  Cl  Cl11  1  0.01607096  0.84634098  0.31252500  1
  Cl  Cl12  1  0.71296895  0.90875598  0.92735000  1
  Cl  Cl13  1  0.28703099  0.09124400  0.07265000  1
  Cl  Cl14  1  0.70543097  0.41111299  0.94494000  1
  Cl  Cl15  1  0.29456897  0.58888699  0.05506001  1
  Cl  Cl16  1  0.48864496  0.74162599  0.49250301  1
  Cl  Cl17  1  0.51135498  0.25837399  0.50749700  1
