# generated using pymatgen
data_HoFe12
_symmetry_space_group_name_H-M   'P 1'
_cell_length_a   4.74766207
_cell_length_b   6.33370638
_cell_length_c   6.33370638
_cell_angle_alpha   82.23580933
_cell_angle_beta   67.98845673
_cell_angle_gamma   67.98845673
_symmetry_Int_Tables_number   1
_chemical_formula_structural   HoFe12
_chemical_formula_sum   'Ho1 Fe12'
_cell_volume   163.69980507
_cell_formula_units_Z   1
loop_
 _symmetry_equiv_pos_site_id
 _symmetry_equiv_pos_as_xyz
  1  'x, y, z'
loop_
 _atom_site_type_symbol
 _atom_site_label
 _atom_site_symmetry_multiplicity
 _atom_site_fract_x
 _atom_site_fract_y
 _atom_site_fract_z
 _atom_site_occupancy
  Ho  Ho0  1  0.00000000  0.00000000  0.00000000  1
  Fe  Fe1  1  -0.00000003  0.36101800  0.63898201  1
  Fe  Fe2  1  -0.00000005  0.63898200  0.36101802  1
  Fe  Fe3  1  0.64552598  0.35447400  0.35447399  1
  Fe  Fe4  1  0.35447395  0.64552600  0.64552601  1
  Fe  Fe5  1  0.70889394  0.79110601  0.79110600  1
  Fe  Fe6  1  0.29110599  0.20889400  0.20889400  1
  Fe  Fe7  1  0.00000000  0.00000000  0.50000000  1
  Fe  Fe8  1  0.50000000  0.00000000  0.49999998  1
  Fe  Fe9  1  0.49999996  0.50000000  0.00000000  1
  Fe  Fe10  1  -0.00000004  0.50000000  0.00000002  1
  Fe  Fe11  1  0.49999994  0.76655900  0.23344101  1
  Fe  Fe12  1  0.49999998  0.23344100  0.76655899  1
