# generated using pymatgen
data_NaS
_symmetry_space_group_name_H-M   'P 1'
_cell_length_a   4.12127590
_cell_length_b   5.80883789
_cell_length_c   7.11072826
_cell_angle_alpha   114.10787201
_cell_angle_beta   106.84555054
_cell_angle_gamma   90.00000000
_symmetry_Int_Tables_number   1
_chemical_formula_structural   NaS
_chemical_formula_sum   'Na3 S3'
_cell_volume   147.34291557
_cell_formula_units_Z   3
loop_
 _symmetry_equiv_pos_site_id
 _symmetry_equiv_pos_as_xyz
  1  'x, y, z'
loop_
 _atom_site_type_symbol
 _atom_site_label
 _atom_site_symmetry_multiplicity
 _atom_site_fract_x
 _atom_site_fract_y
 _atom_site_fract_z
 _atom_site_occupancy
  Na  Na0  1  0.67184598  0.67184600  0.34369195  1
  Na  Na1  1  0.00000000  0.00000000  0.00000000  1
  Na  Na2  1  0.32815399  0.32815400  0.65630798  1
  S  S3  1  -0.00000002  0.50000000  0.99999998  1
  S  S4  1  0.33497396  0.83497400  0.66994796  1
  S  S5  1  0.66502600  0.16502600  0.33005198  1
