# generated using pymatgen
data_CuPdSe4
_symmetry_space_group_name_H-M   'P 1'
_cell_length_a   3.95810699
_cell_length_b   5.33123207
_cell_length_c   8.11806202
_cell_angle_alpha   90.00000000
_cell_angle_beta   90.00000000
_cell_angle_gamma   90.00000000
_symmetry_Int_Tables_number   1
_chemical_formula_structural   CuPdSe4
_chemical_formula_sum   'Cu1 Pd1 Se4'
_cell_volume   171.30399157
_cell_formula_units_Z   1
loop_
 _symmetry_equiv_pos_site_id
 _symmetry_equiv_pos_as_xyz
  1  'x, y, z'
loop_
 _atom_site_type_symbol
 _atom_site_label
 _atom_site_symmetry_multiplicity
 _atom_site_fract_x
 _atom_site_fract_y
 _atom_site_fract_z
 _atom_site_occupancy
  Cu  Cu0  1  0.00000000  0.00000000  0.14166600  1
  Pd  Pd1  1  0.50000000  0.49999999  0.85833400  1
  Se  Se2  1  0.50000000  0.00000000  0.91040800  1
  Se  Se3  1  0.00000000  0.49999999  0.08959200  1
  Se  Se4  1  0.00000000  0.49999999  0.64145300  1
  Se  Se5  1  0.50000000  0.00000000  0.35854700  1
