# generated using pymatgen
data_Cs3MoWBr9
_symmetry_space_group_name_H-M   'P 1'
_cell_length_a   7.79652786
_cell_length_b   7.79652882
_cell_length_c   9.53674793
_cell_angle_alpha   90.00000000
_cell_angle_beta   90.00000000
_cell_angle_gamma   120.00000000
_symmetry_Int_Tables_number   1
_chemical_formula_structural   Cs3MoWBr9
_chemical_formula_sum   'Cs3 Mo1 W1 Br9'
_cell_volume   502.03437999
_cell_formula_units_Z   1
loop_
 _symmetry_equiv_pos_site_id
 _symmetry_equiv_pos_as_xyz
  1  'x, y, z'
loop_
 _atom_site_type_symbol
 _atom_site_label
 _atom_site_symmetry_multiplicity
 _atom_site_fract_x
 _atom_site_fract_y
 _atom_site_fract_z
 _atom_site_occupancy
  Cs  Cs0  1  0.33333337  0.66666667  0.33446800  1
  Cs  Cs1  1  0.66666670  0.33333333  0.66553200  1
  Cs  Cs2  1  0.00000000  0.00000000  0.00000000  1
  Mo  Mo3  1  0.33333337  0.66666667  0.81930001  1
  W  W4  1  0.66666670  0.33333333  0.18070000  1
  Br  Br5  1  0.17774202  0.35548400  0.67153500  1
  Br  Br6  1  0.17774205  0.82225800  0.67153500  1
  Br  Br7  1  0.64451605  0.82225800  0.67153500  1
  Br  Br8  1  0.35548402  0.17774200  0.32846500  1
  Br  Br9  1  0.82225802  0.17774200  0.32846500  1
  Br  Br10  1  0.50000003  0.50000000  1.00000001  1
  Br  Br11  1  0.00000003  0.50000000  -0.00000000  1
  Br  Br12  1  0.50000006  1.00000000  1.00000001  1
  Br  Br13  1  0.82225805  0.64451600  0.32846500  1
