# generated using pymatgen
data_Te(MoS2)3
_symmetry_space_group_name_H-M   'P 1'
_cell_length_a   3.42736411
_cell_length_b   6.62862778
_cell_length_c   9.31089211
_cell_angle_alpha   104.39559174
_cell_angle_beta   90.00000000
_cell_angle_gamma   90.00000000
_symmetry_Int_Tables_number   1
_chemical_formula_structural   Te(MoS2)3
_chemical_formula_sum   'Te1 Mo3 S6'
_cell_volume   204.88995341
_cell_formula_units_Z   1
loop_
 _symmetry_equiv_pos_site_id
 _symmetry_equiv_pos_as_xyz
  1  'x, y, z'
loop_
 _atom_site_type_symbol
 _atom_site_label
 _atom_site_symmetry_multiplicity
 _atom_site_fract_x
 _atom_site_fract_y
 _atom_site_fract_z
 _atom_site_occupancy
  Te  Te0  1  0.74999998  0.11366500  0.63494297  1
  Mo  Mo1  1  0.24999999  0.88633502  0.36505697  1
  Mo  Mo2  1  0.74999998  0.32180301  0.00079999  1
  Mo  Mo3  1  0.24999999  0.67819702  0.99919994  1
  S  S4  1  0.74999998  0.72780902  0.51308596  1
  S  S5  1  0.24999999  0.27219101  0.48691397  1
  S  S6  1  0.74999998  0.97225703  0.15726897  1
  S  S7  1  0.24999999  0.02774300  0.84273096  1
  S  S8  1  0.24999999  0.47651001  0.20562198  1
  S  S9  1  0.74999998  0.52349001  0.79437796  1
