# generated using pymatgen
data_Zr5Sn3
_symmetry_space_group_name_H-M   'P 1'
_cell_length_a   7.78769588
_cell_length_b   8.81562519
_cell_length_c   7.78769588
_cell_angle_alpha   116.21230316
_cell_angle_beta   90.00000000
_cell_angle_gamma   116.21230316
_symmetry_Int_Tables_number   1
_chemical_formula_structural   Zr5Sn3
_chemical_formula_sum   'Zr10 Sn6'
_cell_volume   417.50965354
_cell_formula_units_Z   2
loop_
 _symmetry_equiv_pos_site_id
 _symmetry_equiv_pos_as_xyz
  1  'x, y, z'
loop_
 _atom_site_type_symbol
 _atom_site_label
 _atom_site_symmetry_multiplicity
 _atom_site_fract_x
 _atom_site_fract_y
 _atom_site_fract_z
 _atom_site_occupancy
  Zr  Zr0  1  0.00000000  0.00000000  0.00000000  1
  Zr  Zr1  1  0.50000001  0.00000000  0.50000001  1
  Zr  Zr2  1  0.20263205  0.72108001  0.01844805  1
  Zr  Zr3  1  0.79736803  0.27892000  0.98155204  1
  Zr  Zr4  1  0.51844906  0.72108201  0.70263306  1
  Zr  Zr5  1  0.70263206  0.72108101  0.20263205  1
  Zr  Zr6  1  0.98155103  0.27891900  0.48155103  1
  Zr  Zr7  1  0.48155103  0.27891800  0.29736702  1
  Zr  Zr8  1  0.29736802  0.27891900  0.79736803  1
  Zr  Zr9  1  0.01844905  0.72108101  0.51844906  1
  Sn  Sn10  1  0.75000005  0.50000000  0.75000005  1
  Sn  Sn11  1  0.25000004  0.50000000  0.25000004  1
  Sn  Sn12  1  0.86229809  1.00000001  0.63770208  1
  Sn  Sn13  1  0.13770200  0.00000000  0.36229801  1
  Sn  Sn14  1  0.36229801  0.00000000  0.86229801  1
  Sn  Sn15  1  0.63770201  0.00000000  0.13770200  1
