# generated using pymatgen
data_ScAlFe4
_symmetry_space_group_name_H-M   'P 1'
_cell_length_a   4.80414009
_cell_length_b   4.80413961
_cell_length_c   7.90915012
_cell_angle_alpha   90.00000000
_cell_angle_beta   90.00000000
_cell_angle_gamma   120.00000000
_symmetry_Int_Tables_number   1
_chemical_formula_structural   ScAlFe4
_chemical_formula_sum   'Sc2 Al2 Fe8'
_cell_volume   158.08538958
_cell_formula_units_Z   2
loop_
 _symmetry_equiv_pos_site_id
 _symmetry_equiv_pos_as_xyz
  1  'x, y, z'
loop_
 _atom_site_type_symbol
 _atom_site_label
 _atom_site_symmetry_multiplicity
 _atom_site_fract_x
 _atom_site_fract_y
 _atom_site_fract_z
 _atom_site_occupancy
  Sc  Sc0  1  0.33333330  0.66666667  0.92938599  1
  Sc  Sc1  1  0.66666664  0.33333334  0.07061400  1
  Al  Al2  1  0.66666664  0.33333334  0.44000399  1
  Al  Al3  1  0.33333330  0.66666667  0.55999599  1
  Fe  Fe4  1  0.00000000  0.00000000  0.00000000  1
  Fe  Fe5  1  0.34659499  0.17329700  0.74292299  1
  Fe  Fe6  1  0.82670196  0.65340401  0.74292299  1
  Fe  Fe7  1  0.82670198  0.17329700  0.74292299  1
  Fe  Fe8  1  0.65340496  0.82670301  0.25707700  1
  Fe  Fe9  1  0.17329798  0.34659600  0.25707700  1
  Fe  Fe10  1  0.17329797  0.82670301  0.25707700  1
  Fe  Fe11  1  0.00000000  0.00000000  0.49999999  1
