# generated using pymatgen
data_Na2Mg5
_symmetry_space_group_name_H-M   'P 1'
_cell_length_a   6.24900818
_cell_length_b   6.24900818
_cell_length_c   6.73624325
_cell_angle_alpha   62.36515808
_cell_angle_beta   62.36515808
_cell_angle_gamma   59.99999619
_symmetry_Int_Tables_number   1
_chemical_formula_structural   Na2Mg5
_chemical_formula_sum   'Na2 Mg5'
_cell_volume   192.37953394
_cell_formula_units_Z   1
loop_
 _symmetry_equiv_pos_site_id
 _symmetry_equiv_pos_as_xyz
  1  'x, y, z'
loop_
 _atom_site_type_symbol
 _atom_site_label
 _atom_site_symmetry_multiplicity
 _atom_site_fract_x
 _atom_site_fract_y
 _atom_site_fract_z
 _atom_site_occupancy
  Na  Na0  1  0.00000000  0.00000000  0.00000000  1
  Na  Na1  1  0.77410000  0.37634801  0.76676901  1
  Mg  Mg2  1  0.08278298  0.77410002  0.76676901  1
  Mg  Mg3  1  0.37634800  0.08278300  0.76676901  1
  Mg  Mg4  1  0.22589999  0.62365201  0.23323100  1
  Mg  Mg5  1  0.91721701  0.22590000  0.23323100  1
  Mg  Mg6  1  0.62365199  0.91721702  0.23323100  1
