# generated using pymatgen
data_ZrOsO6
_symmetry_space_group_name_H-M   'P 1'
_cell_length_a   5.02470589
_cell_length_b   5.18833923
_cell_length_c   5.54909039
_cell_angle_alpha   62.15547180
_cell_angle_beta   65.50153351
_cell_angle_gamma   62.78085327
_symmetry_Int_Tables_number   1
_chemical_formula_structural   ZrOsO6
_chemical_formula_sum   'Zr1 Os1 O6'
_cell_volume   109.96935954
_cell_formula_units_Z   1
loop_
 _symmetry_equiv_pos_site_id
 _symmetry_equiv_pos_as_xyz
  1  'x, y, z'
loop_
 _atom_site_type_symbol
 _atom_site_label
 _atom_site_symmetry_multiplicity
 _atom_site_fract_x
 _atom_site_fract_y
 _atom_site_fract_z
 _atom_site_occupancy
  Zr  Zr0  1  0.00000000  0.00000000  0.00000000  1
  Os  Os1  1  0.50000003  0.49999999  0.49999999  1
  O  O2  1  0.24991603  0.88943798  0.24226498  1
  O  O3  1  0.75008403  0.11056200  0.75773499  1
  O  O4  1  0.41251103  0.72718898  0.73611699  1
  O  O5  1  0.58748903  0.27281099  0.26388298  1
  O  O6  1  0.87295805  0.62525299  0.25199896  1
  O  O7  1  0.12704201  0.37474699  0.74800101  1
