# generated using pymatgen
data_MgNiSnO5
_symmetry_space_group_name_H-M   'P 1'
_cell_length_a   5.24632740
_cell_length_b   5.24632740
_cell_length_c   5.58217812
_cell_angle_alpha   61.97105026
_cell_angle_beta   61.97105026
_cell_angle_gamma   60.00000763
_symmetry_Int_Tables_number   1
_chemical_formula_structural   MgNiSnO5
_chemical_formula_sum   'Mg1 Ni1 Sn1 O5'
_cell_volume   111.76740011
_cell_formula_units_Z   1
loop_
 _symmetry_equiv_pos_site_id
 _symmetry_equiv_pos_as_xyz
  1  'x, y, z'
loop_
 _atom_site_type_symbol
 _atom_site_label
 _atom_site_symmetry_multiplicity
 _atom_site_fract_x
 _atom_site_fract_y
 _atom_site_fract_z
 _atom_site_occupancy
  Mg  Mg0  1  0.00000000  0.00000000  0.00000000  1
  Sn  Sn1  1  0.50000004  0.50000001  0.49999999  1
  O  O2  1  0.63358807  0.88790301  0.24081696  1
  Ni  Ni3  1  0.36641202  0.11209700  0.75918301  1
  O  O4  1  0.11209704  0.76230801  0.75918300  1
  O  O5  1  0.88790304  0.23769200  0.24081698  1
  O  O6  1  0.23769204  0.63358801  0.24081698  1
  O  O7  1  0.76230805  0.36641201  0.75918300  1
