# generated using pymatgen
data_Li4Mn2WO7
_symmetry_space_group_name_H-M   'P 1'
_cell_length_a   3.65001607
_cell_length_b   7.10213470
_cell_length_c   8.88388157
_cell_angle_alpha   78.05235291
_cell_angle_beta   78.14537811
_cell_angle_gamma   75.10987854
_symmetry_Int_Tables_number   1
_chemical_formula_structural   Li4Mn2WO7
_chemical_formula_sum   'Li4 Mn2 W1 O7'
_cell_volume   214.90051369
_cell_formula_units_Z   1
loop_
 _symmetry_equiv_pos_site_id
 _symmetry_equiv_pos_as_xyz
  1  'x, y, z'
loop_
 _atom_site_type_symbol
 _atom_site_label
 _atom_site_symmetry_multiplicity
 _atom_site_fract_x
 _atom_site_fract_y
 _atom_site_fract_z
 _atom_site_occupancy
  Li  Li0  1  0.61928296  0.22321700  0.53821698  1
  Li  Li1  1  0.15932194  0.48082901  0.20052701  1
  Li  Li2  1  0.84067792  0.51917101  0.79947298  1
  Li  Li3  1  0.38071689  0.77678301  0.46178301  1
  Mn  Mn4  1  0.88663798  0.06590600  0.16081799  1
  Mn  Mn5  1  0.11336188  0.93409401  0.83918200  1
  O  O6  1  0.23259298  0.14709100  0.38772299  1
  W  W7  1  0.79669194  0.35196800  0.05464801  1
  O  O8  1  0.03502297  0.21232100  0.71763298  1
  O  O9  1  0.58221093  0.48832501  0.34725300  1
  O  O10  1  0.41778893  0.51167501  0.65274699  1
  O  O11  1  0.96497688  0.78767901  0.28236702  1
  O  O12  1  0.20330791  0.64803201  0.94535198  1
  O  O13  1  0.76740688  0.85290901  0.61227700  1
