# generated using pymatgen
data_HoP2
_symmetry_space_group_name_H-M   'P 1'
_cell_length_a   4.03603315
_cell_length_b   6.39150906
_cell_length_c   9.66736889
_cell_angle_alpha   90.00000000
_cell_angle_beta   96.79022217
_cell_angle_gamma   90.00000000
_symmetry_Int_Tables_number   1
_chemical_formula_structural   HoP2
_chemical_formula_sum   'Ho4 P8'
_cell_volume   247.63351296
_cell_formula_units_Z   4
loop_
 _symmetry_equiv_pos_site_id
 _symmetry_equiv_pos_as_xyz
  1  'x, y, z'
loop_
 _atom_site_type_symbol
 _atom_site_label
 _atom_site_symmetry_multiplicity
 _atom_site_fract_x
 _atom_site_fract_y
 _atom_site_fract_z
 _atom_site_occupancy
  Ho  Ho0  1  0.21659999  0.68220199  0.13804500  1
  Ho  Ho1  1  0.78339997  0.31779800  0.86195499  1
  Ho  Ho2  1  0.28339999  0.18220200  0.36195499  1
  Ho  Ho3  1  0.71659997  0.81779799  0.63804499  1
  P  P4  1  0.20827199  0.14979700  0.67122600  1
  P  P5  1  0.79172797  0.85020299  0.32877399  1
  P  P6  1  0.14809499  0.63017399  0.44924400  1
  P  P7  1  0.35190499  0.13017400  0.05075599  1
  P  P8  1  0.70827197  0.35020300  0.17122599  1
  P  P9  1  0.64809497  0.86982599  0.94924399  1
  P  P10  1  0.85190496  0.36982600  0.55075599  1
  P  P11  1  0.29172799  0.64979699  0.82877399  1
