# generated using pymatgen
data_Li2FeO5
_symmetry_space_group_name_H-M   'P 1'
_cell_length_a   4.35241222
_cell_length_b   5.20279884
_cell_length_c   6.57164478
_cell_angle_alpha   90.00000000
_cell_angle_beta   90.00000000
_cell_angle_gamma   90.00000000
_symmetry_Int_Tables_number   1
_chemical_formula_structural   Li2FeO5
_chemical_formula_sum   'Li4 Fe2 O10'
_cell_volume   148.81309078
_cell_formula_units_Z   2
loop_
 _symmetry_equiv_pos_site_id
 _symmetry_equiv_pos_as_xyz
  1  'x, y, z'
loop_
 _atom_site_type_symbol
 _atom_site_label
 _atom_site_symmetry_multiplicity
 _atom_site_fract_x
 _atom_site_fract_y
 _atom_site_fract_z
 _atom_site_occupancy
  Li  Li0  1  0.86942396  0.52822002  0.25000001  1
  Li  Li1  1  0.63057597  0.02822000  0.25000001  1
  Li  Li2  1  0.13057599  0.47178001  0.75000002  1
  Li  Li3  1  0.36942398  0.97178003  0.75000002  1
  Fe  Fe4  1  0.35276198  0.68590902  0.05988800  1
  Fe  Fe5  1  0.14723799  0.18590901  0.44011201  1
  O  O6  1  0.64723797  0.31409101  0.55988802  1
  O  O7  1  0.85276196  0.81409102  0.94011203  1
  O  O8  1  0.64723797  0.31409101  0.94011203  1
  O  O9  1  0.85276196  0.81409102  0.55988802  1
  O  O10  1  0.35276198  0.68590902  0.44011201  1
  O  O11  1  0.14723799  0.18590901  0.05988800  1
  O  O12  1  0.07093200  0.88315003  0.25000001  1
  O  O13  1  0.42906798  0.38315001  0.25000001  1
  O  O14  1  0.92906795  0.11685000  0.75000002  1
  O  O15  1  0.57093197  0.61685002  0.75000002  1
