# generated using pymatgen
data_Na5Sn2
_symmetry_space_group_name_H-M   'P 1'
_cell_length_a   5.84789419
_cell_length_b   5.84789419
_cell_length_c   9.97408676
_cell_angle_alpha   72.95310211
_cell_angle_beta   72.95310211
_cell_angle_gamma   60.00000000
_symmetry_Int_Tables_number   1
_chemical_formula_structural   Na5Sn2
_chemical_formula_sum   'Na5 Sn2'
_cell_volume   277.95595587
_cell_formula_units_Z   1
loop_
 _symmetry_equiv_pos_site_id
 _symmetry_equiv_pos_as_xyz
  1  'x, y, z'
loop_
 _atom_site_type_symbol
 _atom_site_label
 _atom_site_symmetry_multiplicity
 _atom_site_fract_x
 _atom_site_fract_y
 _atom_site_fract_z
 _atom_site_occupancy
  Na  Na0  1  0.20840299  0.20840299  0.37479099  1
  Na  Na1  1  0.79159698  0.79159697  0.62520899  1
  Na  Na2  1  0.39180299  0.39180299  0.82459097  1
  Na  Na3  1  0.60819698  0.60819698  0.17540900  1
  Na  Na4  1  0.00000000  0.00000000  0.00000000  1
  Sn  Sn5  1  0.91049797  0.91049797  0.26850600  1
  Sn  Sn6  1  0.08950200  0.08950200  0.73149397  1
