# generated using pymatgen
data_NaZnH3
_symmetry_space_group_name_H-M   'P 1'
_cell_length_a   5.00028563
_cell_length_b   5.00028563
_cell_length_c   5.56175280
_cell_angle_alpha   63.28684235
_cell_angle_beta   63.28684235
_cell_angle_gamma   60.00000381
_symmetry_Int_Tables_number   1
_chemical_formula_structural   NaZnH3
_chemical_formula_sum   'Na2 Zn2 H6'
_cell_volume   102.93500388
_cell_formula_units_Z   2
loop_
 _symmetry_equiv_pos_site_id
 _symmetry_equiv_pos_as_xyz
  1  'x, y, z'
loop_
 _atom_site_type_symbol
 _atom_site_label
 _atom_site_symmetry_multiplicity
 _atom_site_fract_x
 _atom_site_fract_y
 _atom_site_fract_z
 _atom_site_occupancy
  Zn  Zn0  1  0.35277499  0.35277500  0.94167501  1
  Zn  Zn1  1  0.64722498  0.64722501  0.05832502  1
  Na  Na2  1  0.14035900  0.14035900  0.57892301  1
  Na  Na3  1  0.85964097  0.85964101  0.42107702  1
  H  H4  1  0.06641298  0.71554601  0.77173101  1
  H  H5  1  0.44631000  0.06641300  0.77173101  1
  H  H6  1  0.71554599  0.44631000  0.77173102  1
  H  H7  1  0.93358699  0.28445400  0.22826901  1
  H  H8  1  0.28445398  0.55369001  0.22826901  1
  H  H9  1  0.55368997  0.93358701  0.22826902  1
