# generated using pymatgen
data_Sm(Ni2Ge)2
_symmetry_space_group_name_H-M   'P 1'
_cell_length_a   4.15267992
_cell_length_b   7.45619678
_cell_length_c   7.45619678
_cell_angle_alpha   90.00000000
_cell_angle_beta   90.00000000
_cell_angle_gamma   90.00000000
_symmetry_Int_Tables_number   1
_chemical_formula_structural   Sm(Ni2Ge)2
_chemical_formula_sum   'Sm2 Ni8 Ge4'
_cell_volume   230.86770238
_cell_formula_units_Z   2
loop_
 _symmetry_equiv_pos_site_id
 _symmetry_equiv_pos_as_xyz
  1  'x, y, z'
loop_
 _atom_site_type_symbol
 _atom_site_label
 _atom_site_symmetry_multiplicity
 _atom_site_fract_x
 _atom_site_fract_y
 _atom_site_fract_z
 _atom_site_occupancy
  Sm  Sm0  1  0.00000000  0.50000001  0.50000001  1
  Sm  Sm1  1  0.50000001  0.00000000  0.00000000  1
  Ni  Ni2  1  0.50000001  0.59319902  0.15728500  1
  Ni  Ni3  1  0.50000001  0.40680101  0.84271502  1
  Ni  Ni4  1  0.00000000  0.09319900  0.34271501  1
  Ni  Ni5  1  0.00000000  0.90680103  0.65728502  1
  Ni  Ni6  1  0.50000001  0.15728500  0.59319902  1
  Ni  Ni7  1  0.50000001  0.84271502  0.40680101  1
  Ni  Ni8  1  0.00000000  0.34271501  0.09319900  1
  Ni  Ni9  1  0.00000000  0.65728502  0.90680103  1
  Ge  Ge10  1  0.50000001  0.70923102  0.70923102  1
  Ge  Ge11  1  0.50000001  0.29076901  0.29076901  1
  Ge  Ge12  1  0.00000000  0.20923101  0.79076902  1
  Ge  Ge13  1  0.00000000  0.79076902  0.20923101  1
