# generated using pymatgen
data_Ce8CS7
_symmetry_space_group_name_H-M   'P 1'
_cell_length_a   3.95848489
_cell_length_b   7.81168222
_cell_length_c   10.55481815
_cell_angle_alpha   90.00000000
_cell_angle_beta   90.00000000
_cell_angle_gamma   90.00000000
_symmetry_Int_Tables_number   1
_chemical_formula_structural   Ce8CS7
_chemical_formula_sum   'Ce8 C1 S7'
_cell_volume   326.38058366
_cell_formula_units_Z   1
loop_
 _symmetry_equiv_pos_site_id
 _symmetry_equiv_pos_as_xyz
  1  'x, y, z'
loop_
 _atom_site_type_symbol
 _atom_site_label
 _atom_site_symmetry_multiplicity
 _atom_site_fract_x
 _atom_site_fract_y
 _atom_site_fract_z
 _atom_site_occupancy
  Ce  Ce0  1  0.25000001  0.48745099  0.39238399  1
  Ce  Ce1  1  0.25000001  0.98745097  0.10761600  1
  Ce  Ce2  1  0.75000002  0.51254899  0.60761599  1
  Ce  Ce3  1  0.75000002  0.01254900  0.89238399  1
  Ce  Ce4  1  0.25000001  0.13918900  0.63606499  1
  Ce  Ce5  1  0.25000001  0.63918898  0.86393499  1
  Ce  Ce6  1  0.75000002  0.86081098  0.36393499  1
  Ce  Ce7  1  0.75000002  0.36081099  0.13606500  1
  S  S8  1  0.25000001  0.22674499  0.93461399  1
  S  S9  1  0.25000001  0.72674498  0.56538599  1
  S  S10  1  0.75000002  0.77325498  0.06538600  1
  S  S11  1  0.75000002  0.27325499  0.43461399  1
  S  S12  1  0.25000001  0.15279400  0.31431000  1
  C  C13  1  0.25000001  0.65279398  0.18569000  1
  S  S14  1  0.75000002  0.84720598  0.68568999  1
  S  S15  1  0.75000002  0.34720599  0.81430999  1
