# generated using pymatgen
data_BaPrSeO2
_symmetry_space_group_name_H-M   'P 1'
_cell_length_a   4.00128603
_cell_length_b   4.00128603
_cell_length_c   7.47861862
_cell_angle_alpha   105.51644897
_cell_angle_beta   105.51644897
_cell_angle_gamma   90.00000000
_symmetry_Int_Tables_number   1
_chemical_formula_structural   BaPrSeO2
_chemical_formula_sum   'Ba1 Pr1 Se1 O2'
_cell_volume   110.83538013
_cell_formula_units_Z   1
loop_
 _symmetry_equiv_pos_site_id
 _symmetry_equiv_pos_as_xyz
  1  'x, y, z'
loop_
 _atom_site_type_symbol
 _atom_site_label
 _atom_site_symmetry_multiplicity
 _atom_site_fract_x
 _atom_site_fract_y
 _atom_site_fract_z
 _atom_site_occupancy
  Ba  Ba0  1  0.66352298  0.66352299  0.32704598  1
  Pr  Pr1  1  0.33647699  0.33647699  0.67295399  1
  Se  Se2  1  0.00000000  0.00000000  0.00000000  1
  O  O3  1  0.74999998  0.25000000  0.49999998  1
  O  O4  1  0.24999998  0.74999999  0.49999998  1
