# generated using pymatgen
data_Li3Cu
_symmetry_space_group_name_H-M   'P 1'
_cell_length_a   3.74951792
_cell_length_b   5.44819593
_cell_length_c   10.19817638
_cell_angle_alpha   96.18040466
_cell_angle_beta   90.00000000
_cell_angle_gamma   90.00000000
_symmetry_Int_Tables_number   1
_chemical_formula_structural   Li3Cu
_chemical_formula_sum   'Li6 Cu2'
_cell_volume   207.11860768
_cell_formula_units_Z   2
loop_
 _symmetry_equiv_pos_site_id
 _symmetry_equiv_pos_as_xyz
  1  'x, y, z'
loop_
 _atom_site_type_symbol
 _atom_site_label
 _atom_site_symmetry_multiplicity
 _atom_site_fract_x
 _atom_site_fract_y
 _atom_site_fract_z
 _atom_site_occupancy
  Li  Li0  1  0.75000002  0.27941000  0.64603200  1
  Li  Li1  1  0.25000001  0.72059001  0.35396800  1
  Li  Li2  1  0.75000002  0.90757201  0.19462100  1
  Li  Li3  1  0.25000001  0.09242800  0.80537900  1
  Cu  Cu4  1  0.25000001  0.24010300  0.45057000  1
  Li  Li5  1  0.75000002  0.75989701  0.54943000  1
  Cu  Cu6  1  0.25000001  0.53096001  0.80524400  1
  Li  Li7  1  0.75000002  0.46904001  0.19475600  1
