# generated using pymatgen
data_Cr4CuP4
_symmetry_space_group_name_H-M   'P 1'
_cell_length_a   3.40791607
_cell_length_b   5.72631788
_cell_length_c   5.72631788
_cell_angle_alpha   120.00000000
_cell_angle_beta   90.00000000
_cell_angle_gamma   90.00000000
_symmetry_Int_Tables_number   1
_chemical_formula_structural   Cr4CuP4
_chemical_formula_sum   'Cr4 Cu1 P4'
_cell_volume   96.77661518
_cell_formula_units_Z   1
loop_
 _symmetry_equiv_pos_site_id
 _symmetry_equiv_pos_as_xyz
  1  'x, y, z'
loop_
 _atom_site_type_symbol
 _atom_site_label
 _atom_site_symmetry_multiplicity
 _atom_site_fract_x
 _atom_site_fract_y
 _atom_site_fract_z
 _atom_site_occupancy
  Cr  Cr0  1  0.49999999  0.39820101  0.39820102  1
  Cr  Cr1  1  0.49999999  0.60179902  1.00000005  1
  Cr  Cr2  1  0.49999999  0.00000000  0.60179902  1
  Cr  Cr3  1  0.00000000  0.00000000  0.25870601  1
  Cu  Cu4  1  -0.00000000  0.25870601  0.00000000  1
  P  P5  1  -0.00000000  0.74129402  0.74129404  1
  P  P6  1  0.49999999  0.00000000  -0.00000000  1
  P  P7  1  0.99999998  0.33333334  0.66666670  1
  P  P8  1  0.99999998  0.66666668  0.33333336  1
