# generated using pymatgen
data_Cu4Ge
_symmetry_space_group_name_H-M   'P 1'
_cell_length_a   5.59831810
_cell_length_b   6.34420681
_cell_length_c   19.80988121
_cell_angle_alpha   90.00000000
_cell_angle_beta   90.00000000
_cell_angle_gamma   103.92974091
_symmetry_Int_Tables_number   1
_chemical_formula_structural   Cu4Ge
_chemical_formula_sum   'Cu8 Ge2'
_cell_volume   682.89404780
_cell_formula_units_Z   2
loop_
 _symmetry_equiv_pos_site_id
 _symmetry_equiv_pos_as_xyz
  1  'x, y, z'
loop_
 _atom_site_type_symbol
 _atom_site_label
 _atom_site_symmetry_multiplicity
 _atom_site_fract_x
 _atom_site_fract_y
 _atom_site_fract_z
 _atom_site_occupancy
  Cu  Cu0  1  0.14609698  0.69200598  0.41276602  1
  Cu  Cu1  1  0.17183699  0.36158499  0.44313702  1
  Cu  Cu2  1  0.17183699  0.36158499  0.55686302  1
  Cu  Cu3  1  0.14609698  0.69200598  0.58723402  1
  Cu  Cu4  1  0.22359697  0.91695597  0.50000002  1
  Cu  Cu5  1  0.54723898  0.32778099  0.58676702  1
  Cu  Cu6  1  0.75133997  0.65866398  0.55776402  1
  Ge  Ge7  1  0.75133997  0.65866398  0.44223602  1
  Ge  Ge8  1  0.54723898  0.32778099  0.41323302  1
  Cu  Cu9  1  0.61401499  0.12096200  0.50000002  1
