# generated using pymatgen
data_Ce4Co3P5
_symmetry_space_group_name_H-M   'P 1'
_cell_length_a   4.10653400
_cell_length_b   8.03831387
_cell_length_c   8.03831387
_cell_angle_alpha   120.00000000
_cell_angle_beta   90.00000000
_cell_angle_gamma   90.00000000
_symmetry_Int_Tables_number   1
_chemical_formula_structural   Ce4Co3P5
_chemical_formula_sum   'Ce4 Co3 P5'
_cell_volume   229.79256588
_cell_formula_units_Z   1
loop_
 _symmetry_equiv_pos_site_id
 _symmetry_equiv_pos_as_xyz
  1  'x, y, z'
loop_
 _atom_site_type_symbol
 _atom_site_label
 _atom_site_symmetry_multiplicity
 _atom_site_fract_x
 _atom_site_fract_y
 _atom_site_fract_z
 _atom_site_occupancy
  Ce  Ce0  1  -0.00000000  0.50000001  -0.00000000  1
  Ce  Ce1  1  1.00000000  0.00000000  0.50000000  1
  Ce  Ce2  1  -0.00000000  0.50000001  0.50000000  1
  Ce  Ce3  1  0.00000000  0.00000000  0.00000000  1
  Co  Co4  1  0.50000000  0.66666667  0.33333333  1
  Co  Co5  1  0.50000000  0.33333334  0.66666667  1
  P  P6  1  0.50000000  0.16996600  0.83003400  1
  Co  Co7  1  0.50000000  0.83003401  0.66006799  1
  P  P8  1  0.50000000  0.33993200  0.16996600  1
  P  P9  1  0.50000000  0.83003401  0.16996599  1
  P  P10  1  0.50000000  0.16996600  0.33993200  1
  P  P11  1  0.50000000  0.66006801  0.83003400  1
