# generated using pymatgen
data_SrLiCu2(BN)2
_symmetry_space_group_name_H-M   'P 1'
_cell_length_a   3.77950096
_cell_length_b   3.77950096
_cell_length_c   7.30743313
_cell_angle_alpha   90.00000000
_cell_angle_beta   90.00000000
_cell_angle_gamma   90.00000000
_symmetry_Int_Tables_number   1
_chemical_formula_structural   SrLiCu2(BN)2
_chemical_formula_sum   'Sr1 Li1 Cu2 B2 N2'
_cell_volume   104.38396034
_cell_formula_units_Z   1
loop_
 _symmetry_equiv_pos_site_id
 _symmetry_equiv_pos_as_xyz
  1  'x, y, z'
loop_
 _atom_site_type_symbol
 _atom_site_label
 _atom_site_symmetry_multiplicity
 _atom_site_fract_x
 _atom_site_fract_y
 _atom_site_fract_z
 _atom_site_occupancy
  Li  Li0  1  0.50000001  0.00000000  0.17815200  1
  Sr  Sr1  1  0.00000000  0.50000001  0.82184799  1
  Cu  Cu2  1  0.50000001  0.50000001  0.49999999  1
  Cu  Cu3  1  0.00000000  0.00000000  0.49999999  1
  B  B4  1  0.50000001  0.00000000  0.63430599  1
  B  B5  1  0.00000000  0.50000001  0.36569399  1
  N  N6  1  0.00000000  0.50000001  0.16800900  1
  N  N7  1  0.50000001  0.00000000  0.83199099  1
