# generated using pymatgen
data_HoAlO2
_symmetry_space_group_name_H-M   'P 1'
_cell_length_a   3.53702593
_cell_length_b   3.53702664
_cell_length_c   11.77167034
_cell_angle_alpha   90.00000000
_cell_angle_beta   90.00000000
_cell_angle_gamma   119.99999237
_symmetry_Int_Tables_number   1
_chemical_formula_structural   HoAlO2
_chemical_formula_sum   'Ho2 Al2 O4'
_cell_volume   127.53968243
_cell_formula_units_Z   2
loop_
 _symmetry_equiv_pos_site_id
 _symmetry_equiv_pos_as_xyz
  1  'x, y, z'
loop_
 _atom_site_type_symbol
 _atom_site_label
 _atom_site_symmetry_multiplicity
 _atom_site_fract_x
 _atom_site_fract_y
 _atom_site_fract_z
 _atom_site_occupancy
  Ho  Ho0  1  0.00000000  0.00000000  0.00000000  1
  Ho  Ho1  1  0.00000000  0.00000000  0.49999999  1
  Al  Al2  1  0.33333331  0.66666663  0.24999999  1
  Al  Al3  1  0.66666666  0.33333332  0.74999998  1
  O  O4  1  0.33333331  0.66666663  0.09566800  1
  O  O5  1  0.66666666  0.33333332  0.59566798  1
  O  O6  1  0.33333331  0.66666663  0.40433199  1
  O  O7  1  0.66666666  0.33333332  0.90433197  1
