# generated using pymatgen
data_Zr5Sb3
_symmetry_space_group_name_H-M   'P 1'
_cell_length_a   5.89637518
_cell_length_b   8.73227406
_cell_length_c   8.73227310
_cell_angle_alpha   120.00000000
_cell_angle_beta   90.00000000
_cell_angle_gamma   90.00000000
_symmetry_Int_Tables_number   1
_chemical_formula_structural   Zr5Sb3
_chemical_formula_sum   'Zr10 Sb6'
_cell_volume   389.37710166
_cell_formula_units_Z   2
loop_
 _symmetry_equiv_pos_site_id
 _symmetry_equiv_pos_as_xyz
  1  'x, y, z'
loop_
 _atom_site_type_symbol
 _atom_site_label
 _atom_site_symmetry_multiplicity
 _atom_site_fract_x
 _atom_site_fract_y
 _atom_site_fract_z
 _atom_site_occupancy
  Zr  Zr0  1  -0.00000000  0.33333332  0.66666664  1
  Zr  Zr1  1  -0.00000000  0.66666664  0.33333328  1
  Zr  Zr2  1  0.49999998  0.66666664  0.33333328  1
  Zr  Zr3  1  0.49999998  0.33333332  0.66666664  1
  Zr  Zr4  1  0.74999998  0.74533197  -0.00000006  1
  Zr  Zr5  1  0.24999999  0.25466799  -0.00000002  1
  Zr  Zr6  1  0.74999998  0.25466799  0.25466798  1
  Zr  Zr7  1  0.24999999  0.74533197  0.74533194  1
  Zr  Zr8  1  0.74999998  0.99999996  0.74533192  1
  Zr  Zr9  1  0.24999999  0.99999996  0.25466792  1
  Sb  Sb10  1  0.74999998  0.38560598  0.99999996  1
  Sb  Sb11  1  0.24999999  0.61439397  -0.00000005  1
  Sb  Sb12  1  0.74999998  0.61439397  0.61439395  1
  Sb  Sb13  1  0.24999999  0.38560598  0.38560597  1
  Sb  Sb14  1  0.74999998  0.99999996  0.38560592  1
  Sb  Sb15  1  0.24999999  0.99999996  0.61439392  1
