# generated using pymatgen
data_CdCuSF5
_symmetry_space_group_name_H-M   'P 1'
_cell_length_a   5.67046499
_cell_length_b   5.67046499
_cell_length_c   6.04250765
_cell_angle_alpha   62.01667786
_cell_angle_beta   62.01667786
_cell_angle_gamma   60.00001144
_symmetry_Int_Tables_number   1
_chemical_formula_structural   CdCuSF5
_chemical_formula_sum   'Cd1 Cu1 S1 F5'
_cell_volume   141.42494995
_cell_formula_units_Z   1
loop_
 _symmetry_equiv_pos_site_id
 _symmetry_equiv_pos_as_xyz
  1  'x, y, z'
loop_
 _atom_site_type_symbol
 _atom_site_label
 _atom_site_symmetry_multiplicity
 _atom_site_fract_x
 _atom_site_fract_y
 _atom_site_fract_z
 _atom_site_occupancy
  Cu  Cu0  1  0.49999999  0.50000000  0.49999998  1
  Cd  Cd1  1  0.00000000  0.00000000  0.00000000  1
  F  F2  1  0.12165799  0.36028000  0.76099800  1
  F  F3  1  0.36027999  0.75706400  0.76099799  1
  F  F4  1  0.75706399  0.12165800  0.76099799  1
  F  F5  1  0.24293599  0.87834200  0.23900198  1
  F  F6  1  0.63971999  0.24293600  0.23900198  1
  S  S7  1  0.87834199  0.63972000  0.23900197  1
