# generated using pymatgen
data_SrCO3
_symmetry_space_group_name_H-M   'P 1'
_cell_length_a   4.48615503
_cell_length_b   5.46667719
_cell_length_c   7.06090784
_cell_angle_alpha   90.00000000
_cell_angle_beta   90.00000000
_cell_angle_gamma   90.00000000
_symmetry_Int_Tables_number   1
_chemical_formula_structural   SrCO3
_chemical_formula_sum   'Sr2 C2 O6'
_cell_volume   173.16425559
_cell_formula_units_Z   2
loop_
 _symmetry_equiv_pos_site_id
 _symmetry_equiv_pos_as_xyz
  1  'x, y, z'
loop_
 _atom_site_type_symbol
 _atom_site_label
 _atom_site_symmetry_multiplicity
 _atom_site_fract_x
 _atom_site_fract_y
 _atom_site_fract_z
 _atom_site_occupancy
  Sr  Sr0  1  0.50000000  0.01080100  0.50000001  1
  Sr  Sr1  1  -0.00000000  0.51080098  -0.00000000  1
  C  C2  1  0.50000000  0.00006200  -0.00000000  1
  C  C3  1  -0.00000000  0.50006198  0.50000001  1
  O  O4  1  0.50000000  0.23791199  0.00000000  1
  O  O5  1  0.86470099  0.37122799  0.36625501  1
  O  O6  1  -0.00000000  0.73791197  0.50000001  1
  O  O7  1  0.63529900  0.87122797  0.86625502  1
  O  O8  1  0.13529900  0.37122799  0.63374501  1
  O  O9  1  0.36470100  0.87122797  0.13374500  1
