# generated using pymatgen
data_Cd2AgS6
_symmetry_space_group_name_H-M   'P 1'
_cell_length_a   6.01019621
_cell_length_b   7.32757711
_cell_length_c   8.54601002
_cell_angle_alpha   106.75273132
_cell_angle_beta   90.00000000
_cell_angle_gamma   114.21161652
_symmetry_Int_Tables_number   1
_chemical_formula_structural   Cd2AgS6
_chemical_formula_sum   'Cd4 Ag2 S12'
_cell_volume   325.66756060
_cell_formula_units_Z   2
loop_
 _symmetry_equiv_pos_site_id
 _symmetry_equiv_pos_as_xyz
  1  'x, y, z'
loop_
 _atom_site_type_symbol
 _atom_site_label
 _atom_site_symmetry_multiplicity
 _atom_site_fract_x
 _atom_site_fract_y
 _atom_site_fract_z
 _atom_site_occupancy
  Cd  Cd0  1  0.24891599  0.00000000  0.24999999  1
  Cd  Cd1  1  0.91072494  0.32520399  0.07183001  1
  Cd  Cd2  1  0.57923393  0.66694397  0.91192198  1
  Cd  Cd3  1  0.08927494  0.67479597  0.92816998  1
  Ag  Ag4  1  0.91228994  0.33305599  0.58807799  1
  Ag  Ag5  1  0.75108397  0.00000000  0.74999997  1
  S  S6  1  0.41447896  0.32520399  0.57182999  1
  S  S7  1  0.58552093  0.67479597  0.42817000  1
  S  S8  1  0.08770995  0.66694397  0.41192200  1
  S  S9  1  0.42076596  0.33305599  0.08807801  1
  S  S10  1  0.73754590  0.99999996  0.25000002  1
  S  S11  1  0.26245391  0.99999996  0.75000000  1
  S  S12  1  0.00000000  0.00000000  0.00000000  1
  S  S13  1  0.31432194  0.68579597  0.67614499  1
  S  S14  1  0.00000000  0.00000000  0.49999998  1
  S  S15  1  0.68567795  0.31420399  0.32385500  1
  S  S16  1  0.37147393  0.68579597  0.17614501  1
  S  S17  1  0.62852595  0.31420399  0.82385498  1
