# generated using pymatgen
data_Ba(GePd)2
_symmetry_space_group_name_H-M   'P 1'
_cell_length_a   4.49381208
_cell_length_b   4.49381208
_cell_length_c   6.54380417
_cell_angle_alpha   110.08195496
_cell_angle_beta   110.08195496
_cell_angle_gamma   90.00000000
_symmetry_Int_Tables_number   1
_chemical_formula_structural   Ba(GePd)2
_chemical_formula_sum   'Ba1 Ge2 Pd2'
_cell_volume   115.52189942
_cell_formula_units_Z   1
loop_
 _symmetry_equiv_pos_site_id
 _symmetry_equiv_pos_as_xyz
  1  'x, y, z'
loop_
 _atom_site_type_symbol
 _atom_site_label
 _atom_site_symmetry_multiplicity
 _atom_site_fract_x
 _atom_site_fract_y
 _atom_site_fract_z
 _atom_site_occupancy
  Ba  Ba0  1  0.00000000  0.00000000  0.00000000  1
  Ge  Ge1  1  0.63643802  0.63643800  0.27287604  1
  Ge  Ge2  1  0.36356201  0.36356200  0.72712403  1
  Pd  Pd3  1  0.75000000  0.25000000  0.50000003  1
  Pd  Pd4  1  0.25000002  0.75000000  0.50000004  1
