# generated using pymatgen
data_LaFe2PC
_symmetry_space_group_name_H-M   'P 1'
_cell_length_a   3.74976397
_cell_length_b   5.53104782
_cell_length_c   6.74100780
_cell_angle_alpha   90.00000000
_cell_angle_beta   90.00000000
_cell_angle_gamma   109.81438446
_symmetry_Int_Tables_number   1
_chemical_formula_structural   LaFe2PC
_chemical_formula_sum   'La2 Fe4 P2 C2'
_cell_volume   131.53202217
_cell_formula_units_Z   2
loop_
 _symmetry_equiv_pos_site_id
 _symmetry_equiv_pos_as_xyz
  1  'x, y, z'
loop_
 _atom_site_type_symbol
 _atom_site_label
 _atom_site_symmetry_multiplicity
 _atom_site_fract_x
 _atom_site_fract_y
 _atom_site_fract_z
 _atom_site_occupancy
  La  La0  1  0.94997203  0.89994400  0.75000002  1
  La  La1  1  0.05002800  0.10005600  0.25000001  1
  Fe  Fe2  1  0.66593101  0.33186200  0.93759503  1
  Fe  Fe3  1  0.33406902  0.66813800  0.43759501  1
  Fe  Fe4  1  0.66593101  0.33186200  0.56240502  1
  Fe  Fe5  1  0.33406902  0.66813800  0.06240500  1
  P  P6  1  0.23013401  0.46026800  0.75000002  1
  P  P7  1  0.76986602  0.53973200  0.25000001  1
  C  C8  1  0.50000000  0.00000000  1.00000003  1
  C  C9  1  0.50000000  0.00000000  0.50000001  1
