# generated using pymatgen
data_CsFeO
_symmetry_space_group_name_H-M   'P 1'
_cell_length_a   5.91555119
_cell_length_b   7.43400145
_cell_length_c   7.43400192
_cell_angle_alpha   80.89167786
_cell_angle_beta   66.55483246
_cell_angle_gamma   66.55484009
_symmetry_Int_Tables_number   1
_chemical_formula_structural   CsFeO
_chemical_formula_sum   'Cs4 Fe4 O4'
_cell_volume   275.16746784
_cell_formula_units_Z   4
loop_
 _symmetry_equiv_pos_site_id
 _symmetry_equiv_pos_as_xyz
  1  'x, y, z'
loop_
 _atom_site_type_symbol
 _atom_site_label
 _atom_site_symmetry_multiplicity
 _atom_site_fract_x
 _atom_site_fract_y
 _atom_site_fract_z
 _atom_site_occupancy
  Cs  Cs0  1  0.55416498  0.19358199  0.19358203  1
  Cs  Cs1  1  0.94132901  0.80641798  0.80641805  1
  Cs  Cs2  1  0.25225305  0.80641798  0.19358203  1
  Cs  Cs3  1  0.25225300  0.19358199  0.80641801  1
  Fe  Fe4  1  0.88529899  0.49999999  0.22940105  1
  Fe  Fe5  1  0.61470100  0.49999999  0.77059903  1
  Fe  Fe6  1  0.61470002  0.77059898  0.50000004  1
  Fe  Fe7  1  0.88529997  0.22940099  0.50000004  1
  O  O8  1  0.48947303  0.76989298  0.76989303  1
  O  O9  1  0.02925902  0.23010699  0.23010700  1
  O  O10  1  0.74063298  0.23010699  0.76989303  1
  O  O11  1  0.74063402  0.76989298  0.23010705  1
