# generated using pymatgen
data_ScInNi4
_symmetry_space_group_name_H-M   'P 1'
_cell_length_a   4.74313211
_cell_length_b   4.74313211
_cell_length_c   8.20628357
_cell_angle_alpha   73.20227814
_cell_angle_beta   73.20227814
_cell_angle_gamma   60.00000000
_symmetry_Int_Tables_number   1
_chemical_formula_structural   ScInNi4
_chemical_formula_sum   'Sc2 In2 Ni8'
_cell_volume   150.72017105
_cell_formula_units_Z   2
loop_
 _symmetry_equiv_pos_site_id
 _symmetry_equiv_pos_as_xyz
  1  'x, y, z'
loop_
 _atom_site_type_symbol
 _atom_site_label
 _atom_site_symmetry_multiplicity
 _atom_site_fract_x
 _atom_site_fract_y
 _atom_site_fract_z
 _atom_site_occupancy
  Sc  Sc0  1  0.62285293  0.62285298  0.13144105  1
  Sc  Sc1  1  0.00346800  0.00346800  0.98959604  1
  In  In2  1  0.49777695  0.49777698  0.50666906  1
  In  In3  1  0.12607199  0.12607200  0.62178403  1
  Ni  Ni4  1  0.06018697  0.56368098  0.81245106  1
  Ni  Ni5  1  0.56057196  0.06383400  0.31176003  1
  Ni  Ni6  1  0.56368096  0.06018700  0.81245105  1
  Ni  Ni7  1  0.06383397  0.56057198  0.31176004  1
  Ni  Ni8  1  0.81165891  0.81165897  0.56502308  1
  Ni  Ni9  1  0.31238397  0.31238399  0.06284803  1
  Ni  Ni10  1  0.56368094  0.56368098  0.81245107  1
  Ni  Ni11  1  0.06383399  0.06383400  0.31176002  1
