# generated using pymatgen
data_TlAg2As5(PbBr2)2
_symmetry_space_group_name_H-M   'P 1'
_cell_length_a   4.29482079
_cell_length_b   4.29482079
_cell_length_c   14.47291088
_cell_angle_alpha   90.00000000
_cell_angle_beta   90.00000000
_cell_angle_gamma   90.00000000
_symmetry_Int_Tables_number   1
_chemical_formula_structural   TlAg2As5(PbBr2)2
_chemical_formula_sum   'Tl1 Ag2 As5 Pb2 Br4'
_cell_volume   266.95986895
_cell_formula_units_Z   1
loop_
 _symmetry_equiv_pos_site_id
 _symmetry_equiv_pos_as_xyz
  1  'x, y, z'
loop_
 _atom_site_type_symbol
 _atom_site_label
 _atom_site_symmetry_multiplicity
 _atom_site_fract_x
 _atom_site_fract_y
 _atom_site_fract_z
 _atom_site_occupancy
  Tl  Tl0  1  0.00000000  0.00000000  0.00578800  1
  Ag  Ag1  1  0.50000002  0.00000000  0.81283001  1
  Ag  Ag2  1  0.00000000  0.50000002  0.81283001  1
  As  As3  1  0.50000002  0.00000000  0.18974300  1
  As  As4  1  0.00000000  0.50000002  0.18974300  1
  As  As5  1  0.50000002  0.00000000  0.60322100  1
  Br  Br6  1  0.00000000  0.50000002  0.60322100  1
  As  As7  1  0.50000002  0.00000000  0.39617200  1
  Br  Br8  1  0.00000000  0.50000002  0.39617200  1
  As  As9  1  0.50000002  0.50000002  0.08279100  1
  Br  Br10  1  0.50000002  0.50000002  0.49929100  1
  Br  Br11  1  0.00000000  0.00000000  0.70575701  1
  Pb  Pb12  1  0.00000000  0.00000000  0.29021200  1
  Pb  Pb13  1  0.50000002  0.50000002  0.91223001  1
