# generated using pymatgen
data_Ce2Co2Si2C
_symmetry_space_group_name_H-M   'P 1'
_cell_length_a   4.09979296
_cell_length_b   4.12153816
_cell_length_c   8.18942165
_cell_angle_alpha   104.57446289
_cell_angle_beta   90.00000000
_cell_angle_gamma   90.00000000
_symmetry_Int_Tables_number   1
_chemical_formula_structural   Ce2Co2Si2C
_chemical_formula_sum   'Ce2 Co2 Si2 C1'
_cell_volume   133.92748527
_cell_formula_units_Z   1
loop_
 _symmetry_equiv_pos_site_id
 _symmetry_equiv_pos_as_xyz
  1  'x, y, z'
loop_
 _atom_site_type_symbol
 _atom_site_label
 _atom_site_symmetry_multiplicity
 _atom_site_fract_x
 _atom_site_fract_y
 _atom_site_fract_z
 _atom_site_occupancy
  Ce  Ce0  1  0.25000000  0.10433200  0.20866401  1
  Ce  Ce1  1  0.75000001  0.89582896  0.79165803  1
  Co  Co2  1  0.25000000  0.30885399  0.61770902  1
  Co  Co3  1  0.25000000  0.73983197  0.47966401  1
  Si  Si4  1  0.75000001  0.24232499  0.48465102  1
  Si  Si5  1  0.25000000  0.45324498  0.90648903  1
  C  C6  1  0.75000001  0.55658298  0.11316600  1
