# generated using pymatgen
data_Th3Sb4Pt3
_symmetry_space_group_name_H-M   'P 1'
_cell_length_a   8.62886906
_cell_length_b   8.62886906
_cell_length_c   8.62886906
_cell_angle_alpha   109.47122192
_cell_angle_beta   109.47122192
_cell_angle_gamma   109.47122192
_symmetry_Int_Tables_number   1
_chemical_formula_structural   Th3Sb4Pt3
_chemical_formula_sum   'Th6 Sb8 Pt6'
_cell_volume   494.58361474
_cell_formula_units_Z   2
loop_
 _symmetry_equiv_pos_site_id
 _symmetry_equiv_pos_as_xyz
  1  'x, y, z'
loop_
 _atom_site_type_symbol
 _atom_site_label
 _atom_site_symmetry_multiplicity
 _atom_site_fract_x
 _atom_site_fract_y
 _atom_site_fract_z
 _atom_site_occupancy
  Th  Th0  1  0.62500005  0.37500002  0.25000004  1
  Th  Th1  1  0.37500006  0.75000005  0.12500005  1
  Th  Th2  1  0.12500002  0.25000002  0.37500003  1
  Th  Th3  1  0.25000006  0.87500006  0.62500007  1
  Th  Th4  1  0.75000007  0.62500004  0.87500008  1
  Th  Th5  1  0.87500004  0.12500001  0.75000005  1
  Sb  Sb6  1  0.00000003  0.50000003  0.17757803  1
  Sb  Sb7  1  0.67757802  0.00000000  1.00000004  1
  Sb  Sb8  1  0.50000006  0.67757804  0.50000006  1
  Sb  Sb9  1  0.17757807  1.00000007  1.00000009  1
  Sb  Sb10  1  0.32242203  0.32242202  0.82242205  1
  Sb  Sb11  1  0.50000003  0.17757801  0.50000003  1
  Sb  Sb12  1  0.82242208  0.82242205  0.32242207  1
  Sb  Sb13  1  1.00000007  0.50000003  0.67757807  1
  Pt  Pt14  1  0.37500005  0.62500004  0.75000006  1
  Pt  Pt15  1  0.25000003  0.37500002  0.12500003  1
  Pt  Pt16  1  0.62500004  0.25000002  0.87500005  1
  Pt  Pt17  1  0.87500008  0.75000005  0.62500008  1
  Pt  Pt18  1  0.12500006  0.87500006  0.25000006  1
  Pt  Pt19  1  0.75000003  0.12500001  0.37500003  1
