# generated using pymatgen
data_LiNiH3
_symmetry_space_group_name_H-M   'P 1'
_cell_length_a   3.54195189
_cell_length_b   4.31328678
_cell_length_c   5.48870659
_cell_angle_alpha   90.00000000
_cell_angle_beta   108.82375336
_cell_angle_gamma   90.00000000
_symmetry_Int_Tables_number   1
_chemical_formula_structural   LiNiH3
_chemical_formula_sum   'Li2 Ni2 H6'
_cell_volume   79.36860976
_cell_formula_units_Z   2
loop_
 _symmetry_equiv_pos_site_id
 _symmetry_equiv_pos_as_xyz
  1  'x, y, z'
loop_
 _atom_site_type_symbol
 _atom_site_label
 _atom_site_symmetry_multiplicity
 _atom_site_fract_x
 _atom_site_fract_y
 _atom_site_fract_z
 _atom_site_occupancy
  Li  Li0  1  0.63316001  0.25000001  0.26631997  1
  Li  Li1  1  0.36684000  0.75000004  0.73367996  1
  Ni  Ni2  1  0.07301200  0.75000004  0.14602399  1
  Ni  Ni3  1  0.92698801  0.25000001  0.85397594  1
  H  H4  1  0.57428301  0.75000004  0.14856597  1
  H  H5  1  0.18619600  0.49483303  0.37239198  1
  H  H6  1  0.18619600  0.00516700  0.37239198  1
  H  H7  1  0.81380401  0.99483305  0.62760795  1
  H  H8  1  0.81380401  0.50516703  0.62760795  1
  H  H9  1  0.42571700  0.25000001  0.85143395  1
