# generated using pymatgen
data_MgZnAsO4
_symmetry_space_group_name_H-M   'P 1'
_cell_length_a   5.71177959
_cell_length_b   5.71184301
_cell_length_c   6.38524580
_cell_angle_alpha   103.12588501
_cell_angle_beta   103.12547302
_cell_angle_gamma   119.49179840
_symmetry_Int_Tables_number   1
_chemical_formula_structural   MgZnAsO4
_chemical_formula_sum   'Mg2 Zn2 As2 O8'
_cell_volume   161.86258758
_cell_formula_units_Z   2
loop_
 _symmetry_equiv_pos_site_id
 _symmetry_equiv_pos_as_xyz
  1  'x, y, z'
loop_
 _atom_site_type_symbol
 _atom_site_label
 _atom_site_symmetry_multiplicity
 _atom_site_fract_x
 _atom_site_fract_y
 _atom_site_fract_z
 _atom_site_occupancy
  Mg  Mg0  1  0.47606801  0.52393800  0.25000002  1
  Mg  Mg1  1  0.22602201  0.77398499  0.74999904  1
  Zn  Zn2  1  0.77398001  0.22601900  0.25000201  1
  Zn  Zn3  1  0.52393201  0.47606300  0.74999803  1
  As  As4  1  0.12500501  0.87499399  0.25000003  1
  As  As5  1  0.87499801  0.12500100  0.74999902  1
  O  O6  1  0.77818601  0.73508999  0.09833502  1
  O  O7  1  0.13677500  0.67988100  0.40167503  1
  O  O8  1  0.26490700  0.22181000  0.40166302  1
  O  O9  1  0.32012101  0.86322499  0.09832403  1
  O  O10  1  0.22180400  0.26490100  0.90166204  1
  O  O11  1  0.86322901  0.32012500  0.59832302  1
  O  O12  1  0.67987301  0.13677000  0.90167903  1
  O  O13  1  0.73510001  0.77819799  0.59834004  1
