# generated using pymatgen
data_K2Tl
_symmetry_space_group_name_H-M   'P 1'
_cell_length_a   4.17631388
_cell_length_b   8.86229324
_cell_length_c   8.86229324
_cell_angle_alpha   90.00000000
_cell_angle_beta   90.00000000
_cell_angle_gamma   90.00000000
_symmetry_Int_Tables_number   1
_chemical_formula_structural   K2Tl
_chemical_formula_sum   'K4 Tl2'
_cell_volume   328.00870062
_cell_formula_units_Z   2
loop_
 _symmetry_equiv_pos_site_id
 _symmetry_equiv_pos_as_xyz
  1  'x, y, z'
loop_
 _atom_site_type_symbol
 _atom_site_label
 _atom_site_symmetry_multiplicity
 _atom_site_fract_x
 _atom_site_fract_y
 _atom_site_fract_z
 _atom_site_occupancy
  K  K0  1  0.00000000  0.00000000  0.00000000  1
  K  K1  1  0.50000001  0.49999999  0.49999999  1
  K  K2  1  1.00000003  0.32770699  0.32770699  1
  K  K3  1  1.00000003  0.67229298  0.67229298  1
  Tl  Tl4  1  0.50000001  0.17229300  0.82770698  1
  Tl  Tl5  1  0.50000001  0.82770698  0.17229300  1
