# generated using pymatgen
data_CuS
_symmetry_space_group_name_H-M   'P 1'
_cell_length_a   6.23957491
_cell_length_b   6.50448322
_cell_length_c   7.59316397
_cell_angle_alpha   90.00000000
_cell_angle_beta   90.00000000
_cell_angle_gamma   90.00000000
_symmetry_Int_Tables_number   1
_chemical_formula_structural   CuS
_chemical_formula_sum   'Cu8 S8'
_cell_volume   308.17015657
_cell_formula_units_Z   8
loop_
 _symmetry_equiv_pos_site_id
 _symmetry_equiv_pos_as_xyz
  1  'x, y, z'
loop_
 _atom_site_type_symbol
 _atom_site_label
 _atom_site_symmetry_multiplicity
 _atom_site_fract_x
 _atom_site_fract_y
 _atom_site_fract_z
 _atom_site_occupancy
  Cu  Cu0  1  0.50232601  0.84089797  -0.00000000  1
  Cu  Cu1  1  0.00232600  0.15910199  0.50000000  1
  Cu  Cu2  1  0.00952300  0.67516798  0.75119900  1
  Cu  Cu3  1  0.00952300  0.67516798  0.24880100  1
  Cu  Cu4  1  0.50952301  0.32483199  0.25119900  1
  Cu  Cu5  1  0.50952301  0.32483199  0.74880100  1
  Cu  Cu6  1  0.50196701  0.82646997  0.50000000  1
  Cu  Cu7  1  0.00196700  0.17352999  0.00000000  1
  S  S8  1  0.37723501  0.65900398  0.74182200  1
  S  S9  1  0.87723501  0.34099599  0.75817800  1
  S  S10  1  0.87723501  0.34099599  0.24182200  1
  S  S11  1  0.37723501  0.65900398  0.25817800  1
  S  S12  1  0.36680301  0.18387799  0.00000000  1
  S  S13  1  0.88679701  0.84266497  0.00000000  1
  S  S14  1  0.86680301  0.81612197  0.50000000  1
  S  S15  1  0.38679701  0.15733499  0.50000000  1
