# generated using pymatgen
data_BaPb
_symmetry_space_group_name_H-M   'P 1'
_cell_length_a   5.73953819
_cell_length_b   5.73953819
_cell_length_c   10.14723206
_cell_angle_alpha   90.00000000
_cell_angle_beta   90.00000000
_cell_angle_gamma   120.00000000
_symmetry_Int_Tables_number   1
_chemical_formula_structural   BaPb
_chemical_formula_sum   'Ba4 Pb4'
_cell_volume   289.48903885
_cell_formula_units_Z   4
loop_
 _symmetry_equiv_pos_site_id
 _symmetry_equiv_pos_as_xyz
  1  'x, y, z'
loop_
 _atom_site_type_symbol
 _atom_site_label
 _atom_site_symmetry_multiplicity
 _atom_site_fract_x
 _atom_site_fract_y
 _atom_site_fract_z
 _atom_site_occupancy
  Ba  Ba0  1  0.66666665  0.33333334  0.42184900  1
  Ba  Ba1  1  0.33333334  0.66666668  0.92184899  1
  Ba  Ba2  1  0.33333334  0.66666668  0.57815100  1
  Ba  Ba3  1  0.66666665  0.33333334  0.07815100  1
  Pb  Pb4  1  0.00000000  0.00000000  0.25000000  1
  Pb  Pb5  1  0.00000000  0.00000000  0.75000000  1
  Pb  Pb6  1  0.33333334  0.66666668  0.25000000  1
  Pb  Pb7  1  0.66666665  0.33333334  0.75000000  1
