# generated using pymatgen
data_BaLi3Co4O
_symmetry_space_group_name_H-M   'P 1'
_cell_length_a   5.00439501
_cell_length_b   5.00439501
_cell_length_c   9.51385689
_cell_angle_alpha   74.75152588
_cell_angle_beta   74.75152588
_cell_angle_gamma   60.00001144
_symmetry_Int_Tables_number   1
_chemical_formula_structural   BaLi3Co4O
_chemical_formula_sum   'Ba1 Li3 Co4 O1'
_cell_volume   196.59775812
_cell_formula_units_Z   1
loop_
 _symmetry_equiv_pos_site_id
 _symmetry_equiv_pos_as_xyz
  1  'x, y, z'
loop_
 _atom_site_type_symbol
 _atom_site_label
 _atom_site_symmetry_multiplicity
 _atom_site_fract_x
 _atom_site_fract_y
 _atom_site_fract_z
 _atom_site_occupancy
  Ba  Ba0  1  0.49999999  0.50000001  0.50000000  1
  Li  Li1  1  0.30571600  0.30571601  0.08285200  1
  Li  Li2  1  0.69428399  0.69428401  0.91714800  1
  Li  Li3  1  0.00000000  0.00000000  0.00000000  1
  Co  Co4  1  0.22196200  0.22196200  0.33411400  1
  O  O5  1  0.77803799  0.77803801  0.66588600  1
  Co  Co6  1  -0.00000002  0.72332101  0.00000001  1
  Co  Co7  1  0.27667898  1.00000002  0.00000001  1
  Co  Co8  1  0.72332100  0.27667901  0.00000001  1
