# generated using pymatgen
data_SrCO3
_symmetry_space_group_name_H-M   'P 1'
_cell_length_a   5.26015615
_cell_length_b   6.28133154
_cell_length_c   8.56543064
_cell_angle_alpha   90.00000000
_cell_angle_beta   90.00000000
_cell_angle_gamma   89.91828918
_symmetry_Int_Tables_number   1
_chemical_formula_structural   SrCO3
_chemical_formula_sum   'Sr4 C4 O12'
_cell_volume   283.00826235
_cell_formula_units_Z   4
loop_
 _symmetry_equiv_pos_site_id
 _symmetry_equiv_pos_as_xyz
  1  'x, y, z'
loop_
 _atom_site_type_symbol
 _atom_site_label
 _atom_site_symmetry_multiplicity
 _atom_site_fract_x
 _atom_site_fract_y
 _atom_site_fract_z
 _atom_site_occupancy
  Sr  Sr0  1  0.24798300  0.24941899  0.41992002  1
  Sr  Sr1  1  0.75201698  0.25058099  0.91992004  1
  Sr  Sr2  1  0.75201699  0.75058098  0.58008002  1
  Sr  Sr3  1  0.24798300  0.74941898  0.08008000  1
  C  C4  1  0.25808099  0.09356700  0.77242403  1
  C  C5  1  0.74191898  0.40643299  0.27242401  1
  C  C6  1  0.74191899  0.90643298  0.22757601  1
  C  C7  1  0.25808100  0.59356699  0.72757603  1
  O  O8  1  0.25670499  0.10375300  0.92467004  1
  O  O9  1  0.74329498  0.39624699  0.42467002  1
  O  O10  1  0.74329499  0.89624698  0.07533000  1
  O  O11  1  0.25670500  0.60375299  0.57533002  1
  O  O12  1  0.47328099  0.09413600  0.69776703  1
  O  O13  1  0.52671899  0.40586399  0.19776701  1
  O  O14  1  0.52671899  0.90586398  0.30223301  1
  O  O15  1  0.47328099  0.59413599  0.80223303  1
  O  O16  1  0.04480500  0.09444400  0.69625403  1
  O  O17  1  0.95519498  0.40555599  0.19625401  1
  O  O18  1  0.95519498  0.90555598  0.30374601  1
  O  O19  1  0.04480500  0.59444399  0.80374603  1
