# generated using pymatgen
data_BaSb
_symmetry_space_group_name_H-M   'P 1'
_cell_length_a   9.08920288
_cell_length_b   10.71120644
_cell_length_c   11.72064686
_cell_angle_alpha   112.79947662
_cell_angle_beta   90.00000000
_cell_angle_gamma   90.00000000
_symmetry_Int_Tables_number   1
_chemical_formula_structural   BaSb
_chemical_formula_sum   'Ba10 Sb10'
_cell_volume   1051.92285558
_cell_formula_units_Z   10
loop_
 _symmetry_equiv_pos_site_id
 _symmetry_equiv_pos_as_xyz
  1  'x, y, z'
loop_
 _atom_site_type_symbol
 _atom_site_label
 _atom_site_symmetry_multiplicity
 _atom_site_fract_x
 _atom_site_fract_y
 _atom_site_fract_z
 _atom_site_occupancy
  Ba  Ba0  1  0.37593300  0.27269599  0.69542300  1
  Ba  Ba1  1  0.87593301  0.72730396  0.80457699  1
  Ba  Ba2  1  0.62406701  0.72730396  0.30457699  1
  Ba  Ba3  1  0.12406700  0.27269599  0.19542300  1
  Ba  Ba4  1  0.64380801  0.45315998  0.51232200  1
  Ba  Ba5  1  0.14380800  0.54683997  0.98767800  1
  Ba  Ba6  1  0.35619200  0.54683997  0.48767799  1
  Ba  Ba7  1  0.85619201  0.45315998  0.01232199  1
  Sb  Sb8  1  0.97020101  0.33002298  0.54944000  1
  Ba  Ba9  1  0.47020101  0.66997697  0.95056000  1
  Ba  Ba10  1  0.02979900  0.66997697  0.45055999  1
  Sb  Sb11  1  0.52979901  0.33002298  0.04943999  1
  Sb  Sb12  1  0.79366601  0.12444899  0.60913701  1
  Sb  Sb13  1  0.29366600  0.87555095  0.89086299  1
  Sb  Sb14  1  0.20633400  0.87555095  0.39086298  1
  Sb  Sb15  1  0.70633401  0.12444899  0.10913700  1
  Sb  Sb16  1  0.60480301  0.94039095  0.66918199  1
  Sb  Sb17  1  0.10480300  0.05960900  0.83081801  1
  Sb  Sb18  1  0.39519701  0.05960900  0.33081800  1
  Sb  Sb19  1  0.89519701  0.94039095  0.16918198  1
