# generated using pymatgen
data_LiTi2Fe
_symmetry_space_group_name_H-M   'P 1'
_cell_length_a   3.74844360
_cell_length_b   3.74844360
_cell_length_c   6.72646332
_cell_angle_alpha   73.82129669
_cell_angle_beta   73.82129669
_cell_angle_gamma   60.00000381
_symmetry_Int_Tables_number   1
_chemical_formula_structural   LiTi2Fe
_chemical_formula_sum   'Li1 Ti2 Fe1'
_cell_volume   77.49803002
_cell_formula_units_Z   1
loop_
 _symmetry_equiv_pos_site_id
 _symmetry_equiv_pos_as_xyz
  1  'x, y, z'
loop_
 _atom_site_type_symbol
 _atom_site_label
 _atom_site_symmetry_multiplicity
 _atom_site_fract_x
 _atom_site_fract_y
 _atom_site_fract_z
 _atom_site_occupancy
  Li  Li0  1  0.00064300  0.00064300  0.99807096  1
  Ti  Ti1  1  0.85720600  0.85720604  0.42838197  1
  Ti  Ti2  1  0.73466900  0.73466903  0.79599296  1
  Fe  Fe3  1  0.25548200  0.25548201  0.23355399  1
