# generated using pymatgen
data_EuMgMnCu(H2O5)2
_symmetry_space_group_name_H-M   'P 1'
_cell_length_a   5.73673201
_cell_length_b   6.30108023
_cell_length_c   7.43424749
_cell_angle_alpha   110.08161926
_cell_angle_beta   90.00000000
_cell_angle_gamma   117.07897186
_symmetry_Int_Tables_number   1
_chemical_formula_structural   EuMgMnCu(H2O5)2
_chemical_formula_sum   'Eu1 Mg1 Mn1 Cu1 H4 O10'
_cell_volume   220.76505262
_cell_formula_units_Z   1
loop_
 _symmetry_equiv_pos_site_id
 _symmetry_equiv_pos_as_xyz
  1  'x, y, z'
loop_
 _atom_site_type_symbol
 _atom_site_label
 _atom_site_symmetry_multiplicity
 _atom_site_fract_x
 _atom_site_fract_y
 _atom_site_fract_z
 _atom_site_occupancy
  Eu  Eu0  1  0.00000000  0.00000000  0.50000001  1
  Mg  Mg1  1  0.61169901  0.22339902  0.31566101  1
  Mn  Mn2  1  0.38830105  0.77660105  0.68433903  1
  Cu  Cu3  1  0.00000000  0.00000000  0.00000000  1
  H  H4  1  0.27222803  0.54445504  0.20235002  1
  H  H5  1  0.72777203  0.45554503  0.79765003  1
  H  H6  1  0.24303203  0.48606303  0.96481803  1
  H  H7  1  0.75696803  0.51393704  0.03518201  1
  O  O8  1  0.20633802  0.41267503  0.06643601  1
  O  O9  1  0.79366203  0.58732504  0.93356403  1
  O  O10  1  0.74233203  0.48466503  0.26732402  1
  O  O11  1  0.25766803  0.51533504  0.73267603  1
  O  O12  1  0.65105302  0.30210602  0.55097702  1
  O  O13  1  0.34894704  0.69789405  0.44902303  1
  O  O14  1  0.76747600  0.04545800  0.22325101  1
  O  O15  1  0.27798200  0.04545800  0.22325101  1
  O  O16  1  0.23252406  0.95454207  0.77674904  1
  O  O17  1  0.72201806  0.95454207  0.77674904  1
