# generated using pymatgen
data_La3SiGe3
_symmetry_space_group_name_H-M   'P 1'
_cell_length_a   4.08697796
_cell_length_b   4.53210783
_cell_length_c   9.76391506
_cell_angle_alpha   103.41983032
_cell_angle_beta   102.08074188
_cell_angle_gamma   90.00000000
_symmetry_Int_Tables_number   1
_chemical_formula_structural   La3SiGe3
_chemical_formula_sum   'La3 Si1 Ge3'
_cell_volume   171.79491353
_cell_formula_units_Z   1
loop_
 _symmetry_equiv_pos_site_id
 _symmetry_equiv_pos_as_xyz
  1  'x, y, z'
loop_
 _atom_site_type_symbol
 _atom_site_label
 _atom_site_symmetry_multiplicity
 _atom_site_fract_x
 _atom_site_fract_y
 _atom_site_fract_z
 _atom_site_occupancy
  La  La0  1  0.50000000  1.00000004  0.00000000  1
  La  La1  1  0.18655500  0.18655501  0.37311001  1
  La  La2  1  0.81344501  0.81344503  0.62689002  1
  Si  Si3  1  0.93137601  0.43137602  0.86275202  1
  Ge  Ge4  1  0.06862400  0.56862402  0.13724801  1
  Ge  Ge5  1  0.35571100  0.35571101  0.71142202  1
  Ge  Ge6  1  0.64428900  0.64428903  0.28857801  1
