# generated using pymatgen
data_Ba2Sb3
_symmetry_space_group_name_H-M   'P 1'
_cell_length_a   7.88444901
_cell_length_b   8.19782925
_cell_length_c   11.33868599
_cell_angle_alpha   90.00000000
_cell_angle_beta   90.00000000
_cell_angle_gamma   90.00000000
_symmetry_Int_Tables_number   1
_chemical_formula_structural   Ba2Sb3
_chemical_formula_sum   'Ba8 Sb12'
_cell_volume   732.88012622
_cell_formula_units_Z   4
loop_
 _symmetry_equiv_pos_site_id
 _symmetry_equiv_pos_as_xyz
  1  'x, y, z'
loop_
 _atom_site_type_symbol
 _atom_site_label
 _atom_site_symmetry_multiplicity
 _atom_site_fract_x
 _atom_site_fract_y
 _atom_site_fract_z
 _atom_site_occupancy
  Ba  Ba0  1  0.01801900  0.44107999  0.25000000  1
  Ba  Ba1  1  0.98198100  0.55891998  0.75000000  1
  Ba  Ba2  1  0.51801900  0.05892000  0.75000000  1
  Ba  Ba3  1  0.48198100  0.94107997  0.25000000  1
  Ba  Ba4  1  0.00000000  0.00000000  0.00000000  1
  Ba  Ba5  1  0.50000000  0.49999998  0.00000000  1
  Ba  Ba6  1  0.00000000  0.00000000  0.50000000  1
  Ba  Ba7  1  0.50000000  0.49999998  0.50000000  1
  Sb  Sb8  1  0.29461100  0.20903499  0.04117200  1
  Sb  Sb9  1  0.70538900  0.79096498  0.95882800  1
  Sb  Sb10  1  0.79461100  0.29096499  0.95882800  1
  Sb  Sb11  1  0.70538900  0.79096498  0.54117200  1
  Sb  Sb12  1  0.20538900  0.70903498  0.04117200  1
  Sb  Sb13  1  0.29461100  0.20903499  0.45882800  1
  Sb  Sb14  1  0.20538900  0.70903498  0.45882800  1
  Sb  Sb15  1  0.79461100  0.29096499  0.54117200  1
  Sb  Sb16  1  0.58013100  0.52145498  0.25000000  1
  Sb  Sb17  1  0.41986900  0.47854499  0.75000000  1
  Sb  Sb18  1  0.08013100  0.97854497  0.75000000  1
  Sb  Sb19  1  0.91986900  0.02145500  0.25000000  1
