# generated using pymatgen
data_LaO3
_symmetry_space_group_name_H-M   'P 1'
_cell_length_a   4.44595909
_cell_length_b   6.46480322
_cell_length_c   6.96554184
_cell_angle_alpha   90.00000000
_cell_angle_beta   90.00000000
_cell_angle_gamma   90.00000000
_symmetry_Int_Tables_number   1
_chemical_formula_structural   LaO3
_chemical_formula_sum   'La4 O12'
_cell_volume   200.20534942
_cell_formula_units_Z   4
loop_
 _symmetry_equiv_pos_site_id
 _symmetry_equiv_pos_as_xyz
  1  'x, y, z'
loop_
 _atom_site_type_symbol
 _atom_site_label
 _atom_site_symmetry_multiplicity
 _atom_site_fract_x
 _atom_site_fract_y
 _atom_site_fract_z
 _atom_site_occupancy
  La  La0  1  0.93855898  0.63142198  0.75000002  1
  La  La1  1  0.43855899  0.86857797  0.25000001  1
  La  La2  1  0.56144099  0.13142200  0.75000002  1
  La  La3  1  0.06144100  0.36857799  0.25000001  1
  O  O4  1  0.37808799  0.16426699  0.43682001  1
  O  O5  1  0.87808798  0.33573299  0.56318001  1
  O  O6  1  0.12191200  0.66426698  0.06318000  1
  O  O7  1  0.62191199  0.83573297  0.93682002  1
  O  O8  1  0.58848999  0.52261298  0.25000001  1
  O  O9  1  0.08849000  0.97738697  0.75000002  1
  O  O10  1  0.91150998  0.02261300  0.25000001  1
  O  O11  1  0.41150999  0.47738698  0.75000002  1
  O  O12  1  0.37808799  0.16426699  0.06318000  1
  O  O13  1  0.87808798  0.33573299  0.93682002  1
  O  O14  1  0.12191200  0.66426698  0.43682001  1
  O  O15  1  0.62191199  0.83573297  0.56318001  1
