# generated using pymatgen
data_K2UGePS5
_symmetry_space_group_name_H-M   'P 1'
_cell_length_a   4.07365179
_cell_length_b   7.15702820
_cell_length_c   9.09032631
_cell_angle_alpha   69.38488770
_cell_angle_beta   77.05208588
_cell_angle_gamma   73.46559906
_symmetry_Int_Tables_number   1
_chemical_formula_structural   K2UGePS5
_chemical_formula_sum   'K2 U1 Ge1 P1 S5'
_cell_volume   235.52557583
_cell_formula_units_Z   1
loop_
 _symmetry_equiv_pos_site_id
 _symmetry_equiv_pos_as_xyz
  1  'x, y, z'
loop_
 _atom_site_type_symbol
 _atom_site_label
 _atom_site_symmetry_multiplicity
 _atom_site_fract_x
 _atom_site_fract_y
 _atom_site_fract_z
 _atom_site_occupancy
  K  K0  1  0.17619504  0.34821000  0.29939999  1
  K  K1  1  0.82380510  0.65179000  0.70059999  1
  U  U2  1  0.00000000  0.00000000  0.00000000  1
  Ge  Ge3  1  0.55361104  0.18941600  0.70336200  1
  P  P4  1  0.44638910  0.81058400  0.29663797  1
  S  S5  1  0.38980004  0.28386600  0.93653400  1
  S  S6  1  0.14410801  0.01730200  0.69448200  1
  S  S7  1  0.61020009  0.71613400  0.06346598  1
  S  S8  1  0.50000007  0.50000000  0.49999999  1
  S  S9  1  0.85589213  0.98269799  0.30551797  1
