# generated using pymatgen
data_LiTaF6
_symmetry_space_group_name_H-M   'P 1'
_cell_length_a   4.94373178
_cell_length_b   4.98945999
_cell_length_c   9.61216068
_cell_angle_alpha   75.60315704
_cell_angle_beta   75.83879852
_cell_angle_gamma   60.86583710
_symmetry_Int_Tables_number   1
_chemical_formula_structural   LiTaF6
_chemical_formula_sum   'Li2 Ta2 F12'
_cell_volume   198.44578258
_cell_formula_units_Z   2
loop_
 _symmetry_equiv_pos_site_id
 _symmetry_equiv_pos_as_xyz
  1  'x, y, z'
loop_
 _atom_site_type_symbol
 _atom_site_label
 _atom_site_symmetry_multiplicity
 _atom_site_fract_x
 _atom_site_fract_y
 _atom_site_fract_z
 _atom_site_occupancy
  Li  Li0  1  0.50000001  0.50000001  0.50000001  1
  Ta  Ta1  1  0.00000000  0.00000000  0.00000000  1
  Li  Li2  1  0.23153701  0.27772501  0.24994901  1
  Ta  Ta3  1  0.76846302  0.72227502  0.75005102  1
  F  F4  1  0.21484301  0.54269402  0.37674100  1
  F  F5  1  0.78515702  0.45730601  0.62325903  1
  F  F6  1  0.85670402  0.24870001  0.37558203  1
  F  F7  1  0.14329600  0.75130002  0.62441800  1
  F  F8  1  0.60038902  0.29533701  0.12632101  1
  F  F9  1  0.39961101  0.70466302  0.87367901  1
  F  F10  1  0.25454401  0.00388400  0.12513201  1
  F  F11  1  0.74545602  0.99611603  0.87486802  1
  F  F12  1  0.04038100  0.34972201  0.87580001  1
  F  F13  1  0.95961903  0.65027802  0.12420002  1
  F  F14  1  0.50438401  0.08964500  0.62749203  1
  F  F15  1  0.49561601  0.91035503  0.37250800  1
