# generated using pymatgen
data_Cu
_symmetry_space_group_name_H-M   'P 1'
_cell_length_a   5.40652561
_cell_length_b   5.40856409
_cell_length_c   5.40856409
_cell_angle_alpha   89.90345764
_cell_angle_beta   89.88538361
_cell_angle_gamma   89.88538361
_symmetry_Int_Tables_number   1
_chemical_formula_structural   Cu
_chemical_formula_sum   Cu5
_cell_volume   158.15388837
_cell_formula_units_Z   5
loop_
 _symmetry_equiv_pos_site_id
 _symmetry_equiv_pos_as_xyz
  1  'x, y, z'
loop_
 _atom_site_type_symbol
 _atom_site_label
 _atom_site_symmetry_multiplicity
 _atom_site_fract_x
 _atom_site_fract_y
 _atom_site_fract_z
 _atom_site_occupancy
  Cu  Cu0  1  0.00143295  0.99765700  0.99765698  1
  Cu  Cu1  1  0.48509497  0.49856700  0.49856696  1
  Cu  Cu2  1  0.48218597  0.49454700  0.99988597  1
  Cu  Cu3  1  0.98495697  0.50628100  0.50628094  1
  Cu  Cu4  1  0.48218595  0.99988600  0.49454695  1
