# generated using pymatgen
data_Nb3Bi(SbSe4)2
_symmetry_space_group_name_H-M   'P 1'
_cell_length_a   3.93348002
_cell_length_b   9.46527767
_cell_length_c   9.87440586
_cell_angle_alpha   101.62406158
_cell_angle_beta   101.48874664
_cell_angle_gamma   90.00000000
_symmetry_Int_Tables_number   1
_chemical_formula_structural   Nb3Bi(SbSe4)2
_chemical_formula_sum   'Nb3 Bi1 Sb2 Se8'
_cell_volume   352.57518483
_cell_formula_units_Z   1
loop_
 _symmetry_equiv_pos_site_id
 _symmetry_equiv_pos_as_xyz
  1  'x, y, z'
loop_
 _atom_site_type_symbol
 _atom_site_label
 _atom_site_symmetry_multiplicity
 _atom_site_fract_x
 _atom_site_fract_y
 _atom_site_fract_z
 _atom_site_occupancy
  Bi  Bi0  1  0.49999998  0.50000001  0.00000000  1
  Nb  Nb1  1  0.00000000  0.00000000  0.00000000  1
  Nb  Nb2  1  0.34975299  0.06915200  0.69950602  1
  Nb  Nb3  1  0.65024698  0.93084801  0.30049402  1
  Sb  Sb4  1  0.28970599  0.66008901  0.57941204  1
  Sb  Sb5  1  0.71029398  0.33991101  0.42058801  1
  Se  Se6  1  0.83285298  0.51765201  0.66570602  1
  Se  Se7  1  0.92175398  0.19622100  0.84350802  1
  Se  Se8  1  0.07824599  0.80377901  0.15649203  1
  Se  Se9  1  0.58213899  0.13527800  0.16427800  1
  Se  Se10  1  0.41786098  0.86472201  0.83572205  1
  Se  Se11  1  0.76459898  0.84764601  0.52919803  1
  Se  Se12  1  0.23540099  0.15235400  0.47080202  1
  Se  Se13  1  0.16714699  0.48234801  0.33429402  1
