# generated using pymatgen
data_Mn4Re2Si3
_symmetry_space_group_name_H-M   'P 1'
_cell_length_a   6.39846992
_cell_length_b   7.27117205
_cell_length_c   7.05127192
_cell_angle_alpha   119.00452423
_cell_angle_beta   90.00000000
_cell_angle_gamma   116.10317230
_symmetry_Int_Tables_number   1
_chemical_formula_structural   Mn4Re2Si3
_chemical_formula_sum   'Mn8 Re4 Si6'
_cell_volume   247.95967367
_cell_formula_units_Z   2
loop_
 _symmetry_equiv_pos_site_id
 _symmetry_equiv_pos_as_xyz
  1  'x, y, z'
loop_
 _atom_site_type_symbol
 _atom_site_label
 _atom_site_symmetry_multiplicity
 _atom_site_fract_x
 _atom_site_fract_y
 _atom_site_fract_z
 _atom_site_occupancy
  Mn  Mn0  1  0.49322901  0.39585002  0.94792504  1
  Mn  Mn1  1  0.09737901  0.60415002  0.05207504  1
  Mn  Mn2  1  0.05470401  0.56149602  0.53074804  1
  Mn  Mn3  1  0.49320801  0.43850402  0.46925203  1
  Mn  Mn4  1  0.91122002  0.99744504  0.74872307  1
  Mn  Mn5  1  0.91377601  0.00255600  0.25127800  1
  Mn  Mn6  1  0.49831201  0.75436903  0.90816206  1
  Mn  Mn7  1  0.74394301  0.24563201  0.09183902  1
  Re  Re8  1  0.49831101  0.75436803  0.34620705  1
  Re  Re9  1  0.74394401  0.24563301  0.65379402  1
  Re  Re10  1  0.25252300  0.00000000  0.50000001  1
  Re  Re11  1  0.25252301  1.00000004  1.00000008  1
  Si  Si12  1  0.16306500  0.33483601  0.67293003  1
  Si  Si13  1  0.82822901  0.66516503  0.32707105  1
  Si  Si14  1  0.16306500  0.33483601  0.16190602  1
  Si  Si15  1  0.82822901  0.66516503  0.83809505  1
  Si  Si16  1  0.47904301  0.95174504  0.72587307  1
  Si  Si17  1  0.52729901  0.04825600  0.27412801  1
