# generated using pymatgen
data_Nd2SnP2Pb
_symmetry_space_group_name_H-M   'P 1'
_cell_length_a   4.51209021
_cell_length_b   4.51209021
_cell_length_c   7.87416983
_cell_angle_alpha   90.00000000
_cell_angle_beta   90.00000000
_cell_angle_gamma   120.00000000
_symmetry_Int_Tables_number   1
_chemical_formula_structural   Nd2SnP2Pb
_chemical_formula_sum   'Nd2 Sn1 P2 Pb1'
_cell_volume   138.83243982
_cell_formula_units_Z   1
loop_
 _symmetry_equiv_pos_site_id
 _symmetry_equiv_pos_as_xyz
  1  'x, y, z'
loop_
 _atom_site_type_symbol
 _atom_site_label
 _atom_site_symmetry_multiplicity
 _atom_site_fract_x
 _atom_site_fract_y
 _atom_site_fract_z
 _atom_site_occupancy
  Nd  Nd0  1  0.00000000  0.00000000  0.24851501  1
  Nd  Nd1  1  0.00000000  0.00000000  0.74851502  1
  P  P2  1  0.33333336  0.66666671  0.03061400  1
  Sn  Sn3  1  0.66666666  0.33333336  0.53061401  1
  P  P4  1  0.33333336  0.66666671  0.48087101  1
  Pb  Pb5  1  0.66666666  0.33333336  0.98087102  1
