# generated using pymatgen
data_CuS
_symmetry_space_group_name_H-M   'P 1'
_cell_length_a   4.55519152
_cell_length_b   4.55519152
_cell_length_c   5.83925581
_cell_angle_alpha   106.39003754
_cell_angle_beta   111.85499573
_cell_angle_gamma   99.27005005
_symmetry_Int_Tables_number   1
_chemical_formula_structural   CuS
_chemical_formula_sum   'Cu3 S3'
_cell_volume   102.95376390
_cell_formula_units_Z   3
loop_
 _symmetry_equiv_pos_site_id
 _symmetry_equiv_pos_as_xyz
  1  'x, y, z'
loop_
 _atom_site_type_symbol
 _atom_site_label
 _atom_site_symmetry_multiplicity
 _atom_site_fract_x
 _atom_site_fract_y
 _atom_site_fract_z
 _atom_site_occupancy
  Cu  Cu0  1  0.97645594  0.93823595  0.66628599  1
  Cu  Cu1  1  0.77194999  0.31016999  0.83371402  1
  Cu  Cu2  1  0.22804995  0.68982997  0.16628596  1
  S  S3  1  0.02354400  0.06176400  0.33371400  1
  S  S4  1  0.49999997  0.49999998  0.49999999  1
  S  S5  1  0.50000001  0.00000000  0.00000002  1
