# generated using pymatgen
data_Li3Ti4O11
_symmetry_space_group_name_H-M   'P 1'
_cell_length_a   3.08301497
_cell_length_b   6.63818884
_cell_length_c   10.52969074
_cell_angle_alpha   108.28104401
_cell_angle_beta   90.00000000
_cell_angle_gamma   90.00000000
_symmetry_Int_Tables_number   1
_chemical_formula_structural   Li3Ti4O11
_chemical_formula_sum   'Li3 Ti4 O11'
_cell_volume   204.62053980
_cell_formula_units_Z   1
loop_
 _symmetry_equiv_pos_site_id
 _symmetry_equiv_pos_as_xyz
  1  'x, y, z'
loop_
 _atom_site_type_symbol
 _atom_site_label
 _atom_site_symmetry_multiplicity
 _atom_site_fract_x
 _atom_site_fract_y
 _atom_site_fract_z
 _atom_site_occupancy
  Li  Li0  1  -0.00000000  0.99256302  0.99666900  1
  Li  Li1  1  0.50000001  0.51062301  0.00338799  1
  Li  Li2  1  0.50000001  0.16565100  0.33127100  1
  Ti  Ti3  1  -0.00000000  0.33268301  0.66691100  1
  Ti  Ti4  1  -0.00000000  0.67033101  0.34204699  1
  Ti  Ti5  1  0.50000001  0.83122001  0.66250700  1
  O  O6  1  -0.00000000  0.69787501  0.00145999  1
  Ti  Ti7  1  0.50000001  0.73130401  0.46382799  1
  O  O8  1  0.50000001  0.06660500  0.12971100  1
  O  O9  1  -0.00000000  0.63449001  0.66666666  1
  O  O10  1  -0.00000000  0.30243401  0.00112300  1
  O  O11  1  -0.00000000  0.97017602  0.33250399  1
  O  O12  1  0.50000001  0.60386401  0.20632899  1
  O  O13  1  0.50000001  0.26699900  0.53425000  1
  O  O14  1  0.50000001  0.39789001  0.79825000  1
  O  O15  1  -0.00000000  0.03034400  0.66486901  1
  O  O16  1  -0.00000000  0.36236301  0.33392400  1
  O  O17  1  0.50000001  0.93258502  0.86427300  1
