# generated using pymatgen
data_LiTiO2
_symmetry_space_group_name_H-M   'P 1'
_cell_length_a   6.06714058
_cell_length_b   6.09847116
_cell_length_c   6.10724401
_cell_angle_alpha   89.66944885
_cell_angle_beta   60.39867020
_cell_angle_gamma   60.34023666
_symmetry_Int_Tables_number   1
_chemical_formula_structural   LiTiO2
_chemical_formula_sum   'Li4 Ti4 O8'
_cell_volume   161.99265756
_cell_formula_units_Z   4
loop_
 _symmetry_equiv_pos_site_id
 _symmetry_equiv_pos_as_xyz
  1  'x, y, z'
loop_
 _atom_site_type_symbol
 _atom_site_label
 _atom_site_symmetry_multiplicity
 _atom_site_fract_x
 _atom_site_fract_y
 _atom_site_fract_z
 _atom_site_occupancy
  Li  Li0  1  0.99997396  0.00001200  0.50004401  1
  Li  Li1  1  0.49997397  0.50001199  0.00004505  1
  Li  Li2  1  0.99996595  0.50002099  0.00005506  1
  Li  Li3  1  0.99996995  0.50001699  0.50005204  1
  Ti  Ti4  1  0.49996998  0.00001900  0.00005201  1
  Ti  Ti5  1  0.49996298  0.00002200  0.50005799  1
  Ti  Ti6  1  0.49996897  0.50001799  0.50005203  1
  Ti  Ti7  1  0.99996796  0.00001700  0.00005302  1
  O  O8  1  0.01287499  0.25129300  0.75135799  1
  O  O9  1  0.51483996  0.75111599  0.25101606  1
  O  O10  1  0.48509797  0.24891900  0.74908700  1
  O  O11  1  0.98706194  0.74874199  0.24874707  1
  O  O12  1  0.00003899  0.74193499  0.75783703  1
  O  O13  1  0.49966997  0.24213400  0.25846902  1
  O  O14  1  0.50026796  0.75790199  0.74164104  1
  O  O15  1  0.99989895  0.25810300  0.24226903  1
