# generated using pymatgen
data_Ta2SeN
_symmetry_space_group_name_H-M   'P 1'
_cell_length_a   3.05096412
_cell_length_b   3.05096459
_cell_length_c   12.89461803
_cell_angle_alpha   90.00000000
_cell_angle_beta   90.00000000
_cell_angle_gamma   119.99999237
_symmetry_Int_Tables_number   1
_chemical_formula_structural   Ta2SeN
_chemical_formula_sum   'Ta4 Se2 N2'
_cell_volume   103.94734822
_cell_formula_units_Z   2
loop_
 _symmetry_equiv_pos_site_id
 _symmetry_equiv_pos_as_xyz
  1  'x, y, z'
loop_
 _atom_site_type_symbol
 _atom_site_label
 _atom_site_symmetry_multiplicity
 _atom_site_fract_x
 _atom_site_fract_y
 _atom_site_fract_z
 _atom_site_occupancy
  Ta  Ta0  1  0.66666663  0.33333333  0.59165700  1
  Ta  Ta1  1  0.33333330  0.66666665  0.40834300  1
  Ta  Ta2  1  0.33333330  0.66666665  0.09165700  1
  Ta  Ta3  1  0.66666663  0.33333333  0.90834300  1
  Se  Se4  1  0.66666663  0.33333333  0.25000000  1
  Se  Se5  1  0.33333330  0.66666665  0.75000000  1
  N  N6  1  0.00000000  0.00000000  0.50000000  1
  N  N7  1  0.00000000  0.00000000  0.00000000  1
