# generated using pymatgen
data_VCu5S8
_symmetry_space_group_name_H-M   'P 1'
_cell_length_a   3.44224501
_cell_length_b   5.99103308
_cell_length_c   10.90594959
_cell_angle_alpha   91.11132050
_cell_angle_beta   90.00000000
_cell_angle_gamma   90.00000000
_symmetry_Int_Tables_number   1
_chemical_formula_structural   VCu5S8
_chemical_formula_sum   'V1 Cu5 S8'
_cell_volume   224.86677087
_cell_formula_units_Z   1
loop_
 _symmetry_equiv_pos_site_id
 _symmetry_equiv_pos_as_xyz
  1  'x, y, z'
loop_
 _atom_site_type_symbol
 _atom_site_label
 _atom_site_symmetry_multiplicity
 _atom_site_fract_x
 _atom_site_fract_y
 _atom_site_fract_z
 _atom_site_occupancy
  Cu  Cu0  1  0.50000000  0.48523799  0.75732498  1
  V  V1  1  -0.00000000  0.98532799  0.26878298  1
  Cu  Cu2  1  0.00000000  0.01467200  0.73121699  1
  Cu  Cu3  1  0.50000000  0.51476199  0.24267499  1
  Cu  Cu4  1  0.00000000  0.00000000  0.00000000  1
  Cu  Cu5  1  0.50000000  0.49999999  0.49999999  1
  S  S6  1  0.00000000  0.32397600  0.87557598  1
  S  S7  1  0.50000000  0.82483699  0.38038298  1
  S  S8  1  0.50000000  0.17516300  0.61961699  1
  S  S9  1  -0.00000000  0.67602399  0.12442399  1
  S  S10  1  0.50000000  0.84490999  0.86856797  1
  S  S11  1  -0.00000000  0.34508900  0.36693399  1
  S  S12  1  -0.00000000  0.65491099  0.63306598  1
  S  S13  1  0.50000000  0.15509000  0.13143200  1
