# generated using pymatgen
data_MgZn2
_symmetry_space_group_name_H-M   'P 1'
_cell_length_a   3.07895994
_cell_length_b   5.35480642
_cell_length_c   7.39800310
_cell_angle_alpha   110.33451843
_cell_angle_beta   90.00000000
_cell_angle_gamma   106.70804596
_symmetry_Int_Tables_number   1
_chemical_formula_structural   MgZn2
_chemical_formula_sum   'Mg2 Zn4'
_cell_volume   108.86285703
_cell_formula_units_Z   2
loop_
 _symmetry_equiv_pos_site_id
 _symmetry_equiv_pos_as_xyz
  1  'x, y, z'
loop_
 _atom_site_type_symbol
 _atom_site_label
 _atom_site_symmetry_multiplicity
 _atom_site_fract_x
 _atom_site_fract_y
 _atom_site_fract_z
 _atom_site_occupancy
  Mg  Mg0  1  0.98150808  0.96301601  0.73179097  1
  Mg  Mg1  1  0.01849200  0.03698400  0.26820899  1
  Zn  Zn2  1  0.34996505  0.69993001  0.94422997  1
  Zn  Zn3  1  0.65003503  0.30007000  0.05576999  1
  Zn  Zn4  1  0.33521605  0.67043201  0.39996398  1
  Zn  Zn5  1  0.66478403  0.32956800  0.60003598  1
