# generated using pymatgen
data_Eu2CoSb4
_symmetry_space_group_name_H-M   'P 1'
_cell_length_a   4.61045504
_cell_length_b   4.65081787
_cell_length_c   8.87446785
_cell_angle_alpha   74.82876587
_cell_angle_beta   89.99200439
_cell_angle_gamma   89.93218994
_symmetry_Int_Tables_number   1
_chemical_formula_structural   Eu2CoSb4
_chemical_formula_sum   'Eu2 Co1 Sb4'
_cell_volume   183.65766199
_cell_formula_units_Z   1
loop_
 _symmetry_equiv_pos_site_id
 _symmetry_equiv_pos_as_xyz
  1  'x, y, z'
loop_
 _atom_site_type_symbol
 _atom_site_label
 _atom_site_symmetry_multiplicity
 _atom_site_fract_x
 _atom_site_fract_y
 _atom_site_fract_z
 _atom_site_occupancy
  Eu  Eu0  1  0.24992100  0.10181200  0.79633900  1
  Eu  Eu1  1  0.74992203  0.89734301  0.20543997  1
  Co  Co2  1  0.25014101  0.30336100  0.39300899  1
  Sb  Sb3  1  0.24998502  0.44878600  0.10229999  1
  Sb  Sb4  1  0.74991501  0.56348701  0.87320099  1
  Sb  Sb5  1  0.24997304  0.74206201  0.51573998  1
  Sb  Sb6  1  0.75014399  0.24314800  0.51397199  1
