# generated using pymatgen
data_Y12Sn
_symmetry_space_group_name_H-M   'P 1'
_cell_length_a   7.31557798
_cell_length_b   7.31557798
_cell_length_c   7.31557798
_cell_angle_alpha   90.00000000
_cell_angle_beta   90.00000000
_cell_angle_gamma   90.00000000
_symmetry_Int_Tables_number   1
_chemical_formula_structural   Y12Sn
_chemical_formula_sum   'Y12 Sn1'
_cell_volume   391.51277061
_cell_formula_units_Z   1
loop_
 _symmetry_equiv_pos_site_id
 _symmetry_equiv_pos_as_xyz
  1  'x, y, z'
loop_
 _atom_site_type_symbol
 _atom_site_label
 _atom_site_symmetry_multiplicity
 _atom_site_fract_x
 _atom_site_fract_y
 _atom_site_fract_z
 _atom_site_occupancy
  Y  Y0  1  0.25110000  0.25110000  0.74890000  1
  Y  Y1  1  0.25110000  0.74890000  0.25110000  1
  Y  Y2  1  0.74890000  0.25110000  0.25110000  1
  Y  Y3  1  0.74890000  0.74890000  0.74890000  1
  Y  Y4  1  0.74890000  0.74890000  0.25110000  1
  Y  Y5  1  0.74890000  0.25110000  0.74890000  1
  Y  Y6  1  0.25110000  0.74890000  0.74890000  1
  Y  Y7  1  0.25110000  0.25110000  0.25110000  1
  Y  Y8  1  0.00000000  0.00000000  0.00000000  1
  Y  Y9  1  0.50000000  0.50000000  0.00000000  1
  Y  Y10  1  0.50000000  0.00000000  0.50000000  1
  Y  Y11  1  0.00000000  0.50000000  0.50000000  1
  Sn  Sn12  1  0.50000000  0.50000000  0.50000000  1
