# generated using pymatgen
data_TaSe2
_symmetry_space_group_name_H-M   'P 1'
_cell_length_a   6.43156481
_cell_length_b   6.43156481
_cell_length_c   6.43156481
_cell_angle_alpha   90.00000000
_cell_angle_beta   90.00000000
_cell_angle_gamma   90.00000000
_symmetry_Int_Tables_number   1
_chemical_formula_structural   TaSe2
_chemical_formula_sum   'Ta4 Se8'
_cell_volume   266.04184472
_cell_formula_units_Z   4
loop_
 _symmetry_equiv_pos_site_id
 _symmetry_equiv_pos_as_xyz
  1  'x, y, z'
loop_
 _atom_site_type_symbol
 _atom_site_label
 _atom_site_symmetry_multiplicity
 _atom_site_fract_x
 _atom_site_fract_y
 _atom_site_fract_z
 _atom_site_occupancy
  Ta  Ta0  1  0.88025803  0.38025801  0.11974200  1
  Ta  Ta1  1  0.38025801  0.11974200  0.88025803  1
  Ta  Ta2  1  0.11974200  0.88025803  0.38025801  1
  Ta  Ta3  1  0.61974202  0.61974202  0.61974202  1
  Se  Se4  1  0.49812301  0.99812303  0.50187701  1
  Se  Se5  1  0.99812303  0.50187701  0.49812301  1
  Se  Se6  1  0.50187701  0.49812301  0.99812303  1
  Se  Se7  1  0.00187700  0.00187700  0.00187700  1
  Se  Se8  1  0.12261000  0.62261002  0.87739003  1
  Se  Se9  1  0.62261002  0.87739003  0.12261000  1
  Se  Se10  1  0.87739003  0.12261000  0.62261002  1
  Se  Se11  1  0.37739001  0.37739001  0.37739001  1
