# generated using pymatgen
data_Ti(CrS2)2
_symmetry_space_group_name_H-M   'P 1'
_cell_length_a   7.05908012
_cell_length_b   7.11322737
_cell_length_c   7.11322737
_cell_angle_alpha   60.75799561
_cell_angle_beta   60.25149155
_cell_angle_gamma   60.25149155
_symmetry_Int_Tables_number   1
_chemical_formula_structural   Ti(CrS2)2
_chemical_formula_sum   'Ti2 Cr4 S8'
_cell_volume   254.94836539
_cell_formula_units_Z   2
loop_
 _symmetry_equiv_pos_site_id
 _symmetry_equiv_pos_as_xyz
  1  'x, y, z'
loop_
 _atom_site_type_symbol
 _atom_site_label
 _atom_site_symmetry_multiplicity
 _atom_site_fract_x
 _atom_site_fract_y
 _atom_site_fract_z
 _atom_site_occupancy
  Ti  Ti0  1  0.13096699  0.61903299  0.11903301  1
  Ti  Ti1  1  0.86903298  0.38096700  0.88096699  1
  Cr  Cr2  1  0.49999999  0.00000000  -0.00000000  1
  Cr  Cr3  1  0.49999999  0.49999999  0.50000000  1
  Cr  Cr4  1  0.99999998  0.00000000  0.49999999  1
  Cr  Cr5  1  0.49999999  0.00000000  0.49999999  1
  S  S6  1  0.74129698  0.77252399  0.74488200  1
  S  S7  1  0.74129799  0.24488200  0.27252300  1
  S  S8  1  0.74211499  0.24320500  0.74320499  1
  S  S9  1  0.27147499  0.24320500  0.74320500  1
  S  S10  1  0.72852498  0.75679499  0.25679500  1
  S  S11  1  0.25788499  0.75679499  0.25679501  1
  S  S12  1  0.25870199  0.75511799  0.72747700  1
  S  S13  1  0.25870299  0.22747600  0.25511800  1
