# generated using pymatgen
data_Zn2Cu3S4
_symmetry_space_group_name_H-M   'P 1'
_cell_length_a   6.19710684
_cell_length_b   6.57636976
_cell_length_c   9.99316692
_cell_angle_alpha   109.18391418
_cell_angle_beta   90.00000000
_cell_angle_gamma   90.00000000
_symmetry_Int_Tables_number   1
_chemical_formula_structural   Zn2Cu3S4
_chemical_formula_sum   'Zn4 Cu6 S8'
_cell_volume   384.65014606
_cell_formula_units_Z   2
loop_
 _symmetry_equiv_pos_site_id
 _symmetry_equiv_pos_as_xyz
  1  'x, y, z'
loop_
 _atom_site_type_symbol
 _atom_site_label
 _atom_site_symmetry_multiplicity
 _atom_site_fract_x
 _atom_site_fract_y
 _atom_site_fract_z
 _atom_site_occupancy
  Zn  Zn0  1  0.12202800  0.84032202  0.50022299  1
  Zn  Zn1  1  0.12569000  0.62821702  0.10322099  1
  Zn  Zn2  1  0.62569002  0.37178301  0.89677900  1
  Zn  Zn3  1  0.62202802  0.15967800  0.49977700  1
  Cu  Cu4  1  0.11947900  0.03265100  0.89053901  1
  Cu  Cu5  1  0.13371700  0.23730001  0.30639600  1
  Cu  Cu6  1  0.61947902  0.96734902  0.10946098  1
  Cu  Cu7  1  0.63371702  0.76270002  0.69360399  1
  Cu  Cu8  1  0.50504401  0.04314700  0.90132501  1
  Cu  Cu9  1  0.50136601  0.42659701  0.69805800  1
  S  S10  1  0.49067901  0.83692702  0.49714399  1
  S  S11  1  0.50862501  0.23972801  0.30903200  1
  S  S12  1  0.49337201  0.62222702  0.09402399  1
  S  S13  1  0.00504400  0.95685302  0.09867498  1
  S  S14  1  0.99337203  0.37777301  0.90597600  1
  S  S15  1  0.00862500  0.76027202  0.69096799  1
  S  S16  1  0.99067903  0.16307300  0.50285600  1
  S  S17  1  0.00136600  0.57340301  0.30194199  1
