# generated using pymatgen
data_Zr4Cd5(As2Rh)3
_symmetry_space_group_name_H-M   'P 1'
_cell_length_a   3.94610310
_cell_length_b   8.56340218
_cell_length_c   13.03201771
_cell_angle_alpha   98.55492401
_cell_angle_beta   90.00000000
_cell_angle_gamma   90.00000000
_symmetry_Int_Tables_number   1
_chemical_formula_structural   Zr4Cd5(As2Rh)3
_chemical_formula_sum   'Zr4 Cd5 As6 Rh3'
_cell_volume   435.47904752
_cell_formula_units_Z   1
loop_
 _symmetry_equiv_pos_site_id
 _symmetry_equiv_pos_as_xyz
  1  'x, y, z'
loop_
 _atom_site_type_symbol
 _atom_site_label
 _atom_site_symmetry_multiplicity
 _atom_site_fract_x
 _atom_site_fract_y
 _atom_site_fract_z
 _atom_site_occupancy
  Zr  Zr0  1  0.49999999  0.32590099  0.80864302  1
  Zr  Zr1  1  0.49999999  0.99239696  0.14290300  1
  Zr  Zr2  1  0.49999999  0.66062597  0.47842301  1
  Zr  Zr3  1  0.49999999  0.67519597  0.19070800  1
  Cd  Cd4  1  0.49999999  0.34216199  0.52347601  1
  As  As5  1  0.49999999  0.00788900  0.85728002  1
  Cd  Cd6  1  -0.00000000  0.31418999  0.05441800  1
  Cd  Cd7  1  -0.00000000  0.97845996  0.38609801  1
  Cd  Cd8  1  -0.00000000  0.64657297  0.72094602  1
  Cd  Cd9  1  0.00000000  0.68605197  0.94654202  1
  As  As10  1  0.00000000  0.35336999  0.27867401  1
  As  As11  1  0.00000000  0.01821600  0.61221002  1
  As  As12  1  0.49999999  0.83341197  0.66873302  1
  As  As13  1  0.49999999  0.49918798  0.99965303  1
  Rh  Rh14  1  0.49999999  0.16758899  0.33443101  1
  As  As15  1  0.00000000  0.33202399  0.66469102  1
  Rh  Rh16  1  -0.00000000  0.00103700  0.99805203  1
  Rh  Rh17  1  0.00000000  0.66571597  0.33412001  1
