# generated using pymatgen
data_Ti2S3
_symmetry_space_group_name_H-M   'P 1'
_cell_length_a   6.96954775
_cell_length_b   6.96954775
_cell_length_c   7.63488579
_cell_angle_alpha   62.84315872
_cell_angle_beta   62.84315872
_cell_angle_gamma   60.00000381
_symmetry_Int_Tables_number   1
_chemical_formula_structural   Ti2S3
_chemical_formula_sum   'Ti6 S9'
_cell_volume   272.94843059
_cell_formula_units_Z   3
loop_
 _symmetry_equiv_pos_site_id
 _symmetry_equiv_pos_as_xyz
  1  'x, y, z'
loop_
 _atom_site_type_symbol
 _atom_site_label
 _atom_site_symmetry_multiplicity
 _atom_site_fract_x
 _atom_site_fract_y
 _atom_site_fract_z
 _atom_site_occupancy
  Ti  Ti0  1  0.64244202  0.13782200  0.57729397  1
  Ti  Ti1  1  0.13782204  0.64244200  0.57729396  1
  Ti  Ti2  1  0.64244205  0.64244200  0.57729395  1
  Ti  Ti3  1  0.99861507  0.99861500  0.00415495  1
  Ti  Ti4  1  0.00460903  0.48779500  0.01980098  1
  Ti  Ti5  1  0.48779501  0.00460900  0.01980099  1
  S  S6  1  0.48779504  0.48779500  0.01980097  1
  S  S7  1  0.73147305  0.73147300  0.80558094  1
  S  S8  1  0.23381702  0.23381700  0.80293897  1
  S  S9  1  0.26344805  0.76461400  0.20732396  1
  S  S10  1  0.76461403  0.26344800  0.20732397  1
  S  S11  1  0.72942702  0.23381700  0.80293896  1
  S  S12  1  0.23381704  0.72942700  0.80293895  1
  S  S13  1  0.76461406  0.76461400  0.20732395  1
  S  S14  1  0.25909402  0.25909400  0.22271798  1
