# generated using pymatgen
data_Li5Mn2F11
_symmetry_space_group_name_H-M   'P 1'
_cell_length_a   4.61400604
_cell_length_b   4.65220785
_cell_length_c   9.53219128
_cell_angle_alpha   90.91155243
_cell_angle_beta   90.00000000
_cell_angle_gamma   90.00000000
_symmetry_Int_Tables_number   1
_chemical_formula_structural   Li5Mn2F11
_chemical_formula_sum   'Li5 Mn2 F11'
_cell_volume   204.58559512
_cell_formula_units_Z   1
loop_
 _symmetry_equiv_pos_site_id
 _symmetry_equiv_pos_as_xyz
  1  'x, y, z'
loop_
 _atom_site_type_symbol
 _atom_site_label
 _atom_site_symmetry_multiplicity
 _atom_site_fract_x
 _atom_site_fract_y
 _atom_site_fract_z
 _atom_site_occupancy
  Li  Li0  1  0.96422599  0.71763102  0.91690700  1
  Li  Li1  1  0.01501800  0.78508302  0.24826800  1
  Li  Li2  1  0.01486400  0.78022602  0.58547100  1
  Li  Li3  1  0.51501800  0.21491701  0.75173200  1
  Mn  Mn4  1  0.46422600  0.28236901  0.08309300  1
  Li  Li5  1  0.51486400  0.21977401  0.41452900  1
  Mn  Mn6  1  0.82641499  0.95511803  0.41140800  1
  F  F7  1  0.81139399  0.91748103  0.75203000  1
  F  F8  1  0.31139400  0.08251900  0.24797000  1
  F  F9  1  0.32641500  0.04488200  0.58859200  1
  F  F10  1  0.66392299  0.42810801  0.91674800  1
  F  F11  1  0.16392300  0.57189202  0.08325200  1
  F  F12  1  0.76565599  0.97705103  0.08351199  1
  F  F13  1  0.26565600  0.02294900  0.91648801  1
  F  F14  1  0.71167099  0.48125302  0.25480600  1
  F  F15  1  0.72683499  0.44706601  0.57400600  1
  F  F16  1  0.22683500  0.55293402  0.42599400  1
  F  F17  1  0.21167100  0.51874702  0.74519400  1
