# generated using pymatgen
data_NdY3CoSb8
_symmetry_space_group_name_H-M   'P 1'
_cell_length_a   4.40366793
_cell_length_b   4.41091585
_cell_length_c   16.60510254
_cell_angle_alpha   90.00000000
_cell_angle_beta   90.00000000
_cell_angle_gamma   90.00000000
_symmetry_Int_Tables_number   1
_chemical_formula_structural   NdY3CoSb8
_chemical_formula_sum   'Nd1 Y3 Co1 Sb8'
_cell_volume   322.54097660
_cell_formula_units_Z   1
loop_
 _symmetry_equiv_pos_site_id
 _symmetry_equiv_pos_as_xyz
  1  'x, y, z'
loop_
 _atom_site_type_symbol
 _atom_site_label
 _atom_site_symmetry_multiplicity
 _atom_site_fract_x
 _atom_site_fract_y
 _atom_site_fract_z
 _atom_site_occupancy
  Nd  Nd0  1  -0.00000000  0.75000003  0.90150897  1
  Y  Y1  1  0.50000001  0.75000003  0.39667699  1
  Y  Y2  1  0.50000001  0.25000001  0.60326998  1
  Y  Y3  1  0.00000000  0.25000001  0.10069400  1
  Co  Co4  1  -0.00000000  0.75000003  0.69161698  1
  Sb  Sb5  1  -0.00000000  0.75000003  0.54466398  1
  Sb  Sb6  1  0.50000001  0.75000003  0.06392900  1
  Sb  Sb7  1  0.50000001  0.25000001  0.93761697  1
  Sb  Sb8  1  0.00000000  0.25000001  0.42587299  1
  Sb  Sb9  1  0.50000001  0.75000003  0.76327298  1
  Sb  Sb10  1  -0.00000000  0.75000003  0.25162199  1
  Sb  Sb11  1  0.00000000  0.25000001  0.76109898  1
  Sb  Sb12  1  0.50000001  0.25000001  0.24715599  1
