# generated using pymatgen
data_Pr5Sb3
_symmetry_space_group_name_H-M   'P 1'
_cell_length_a   6.38320684
_cell_length_b   9.25037193
_cell_length_c   9.25037289
_cell_angle_alpha   120.00000000
_cell_angle_beta   90.00000000
_cell_angle_gamma   90.00000000
_symmetry_Int_Tables_number   1
_chemical_formula_structural   Pr5Sb3
_chemical_formula_sum   'Pr10 Sb6'
_cell_volume   473.02923656
_cell_formula_units_Z   2
loop_
 _symmetry_equiv_pos_site_id
 _symmetry_equiv_pos_as_xyz
  1  'x, y, z'
loop_
 _atom_site_type_symbol
 _atom_site_label
 _atom_site_symmetry_multiplicity
 _atom_site_fract_x
 _atom_site_fract_y
 _atom_site_fract_z
 _atom_site_occupancy
  Pr  Pr0  1  1.00000002  0.33333334  0.66666667  1
  Pr  Pr1  1  -0.00000000  0.66666669  0.33333336  1
  Pr  Pr2  1  0.50000001  0.66666669  0.33333336  1
  Pr  Pr3  1  0.50000001  0.33333334  0.66666667  1
  Pr  Pr4  1  0.25000001  0.24451401  0.00000001  1
  Pr  Pr5  1  0.25000001  0.75548603  0.75548603  1
  Pr  Pr6  1  0.25000001  1.00000003  0.24451405  1
  Pr  Pr7  1  0.75000002  0.75548603  0.00000004  1
  Pr  Pr8  1  0.75000002  0.24451401  0.24451401  1
  Pr  Pr9  1  0.75000002  0.00000000  0.75548599  1
  Sb  Sb10  1  0.25000001  0.61263302  0.00000003  1
  Sb  Sb11  1  0.25000001  0.38736701  0.38736701  1
  Sb  Sb12  1  0.25000001  1.00000003  0.61263304  1
  Sb  Sb13  1  0.75000002  0.38736701  0.00000002  1
  Sb  Sb14  1  0.75000002  0.61263302  0.61263302  1
  Sb  Sb15  1  0.75000002  1.00000003  0.38736705  1
