# generated using pymatgen
data_ZrSi2
_symmetry_space_group_name_H-M   'P 1'
_cell_length_a   4.17325687
_cell_length_b   6.85296106
_cell_length_c   6.85781908
_cell_angle_alpha   90.00000000
_cell_angle_beta   90.00000000
_cell_angle_gamma   90.00000000
_symmetry_Int_Tables_number   1
_chemical_formula_structural   ZrSi2
_chemical_formula_sum   'Zr4 Si8'
_cell_volume   196.12791221
_cell_formula_units_Z   4
loop_
 _symmetry_equiv_pos_site_id
 _symmetry_equiv_pos_as_xyz
  1  'x, y, z'
loop_
 _atom_site_type_symbol
 _atom_site_label
 _atom_site_symmetry_multiplicity
 _atom_site_fract_x
 _atom_site_fract_y
 _atom_site_fract_z
 _atom_site_occupancy
  Zr  Zr0  1  0.25000001  0.18758900  0.48039099  1
  Zr  Zr1  1  0.25000001  0.31241100  0.98039099  1
  Zr  Zr2  1  0.75000002  0.81241099  0.51960899  1
  Zr  Zr3  1  0.75000002  0.68758899  0.01960900  1
  Si  Si4  1  0.25000001  0.56265299  0.64410399  1
  Si  Si5  1  0.25000001  0.93734699  0.14410400  1
  Si  Si6  1  0.75000002  0.43734700  0.35589600  1
  Si  Si7  1  0.75000002  0.06265300  0.85589599  1
  Si  Si8  1  0.25000001  0.88973699  0.80505799  1
  Si  Si9  1  0.25000001  0.61026299  0.30505800  1
  Si  Si10  1  0.75000002  0.11026300  0.19494200  1
  Si  Si11  1  0.75000002  0.38973700  0.69494199  1
