# generated using pymatgen
data_RbIn(SO4)2
_symmetry_space_group_name_H-M   'P 1'
_cell_length_a   5.04120398
_cell_length_b   5.04120350
_cell_length_c   8.66155434
_cell_angle_alpha   90.00000000
_cell_angle_beta   90.00000000
_cell_angle_gamma   120.00000763
_symmetry_Int_Tables_number   1
_chemical_formula_structural   RbIn(SO4)2
_chemical_formula_sum   'Rb1 In1 S2 O8'
_cell_volume   190.63161695
_cell_formula_units_Z   1
loop_
 _symmetry_equiv_pos_site_id
 _symmetry_equiv_pos_as_xyz
  1  'x, y, z'
loop_
 _atom_site_type_symbol
 _atom_site_label
 _atom_site_symmetry_multiplicity
 _atom_site_fract_x
 _atom_site_fract_y
 _atom_site_fract_z
 _atom_site_occupancy
  Rb  Rb0  1  0.00000000  0.00000000  0.49999998  1
  In  In1  1  0.00000000  0.00000000  0.00000000  1
  S  S2  1  0.33333338  0.66666667  0.21292999  1
  S  S3  1  0.66666669  0.33333334  0.78706997  1
  O  O4  1  0.09855403  0.36040800  0.15277199  1
  O  O5  1  0.63959106  0.73814501  0.15277199  1
  O  O6  1  0.36040901  0.09855500  0.84722797  1
  O  O7  1  0.26185406  0.90144501  0.15277199  1
  O  O8  1  0.73814605  0.63959201  0.84722797  1
  O  O9  1  0.90144602  0.26185500  0.84722797  1
  O  O10  1  0.33333338  0.66666667  0.38166799  1
  O  O11  1  0.66666669  0.33333334  0.61833198  1
