# generated using pymatgen
data_Fe10CoC3
_symmetry_space_group_name_H-M   'P 1'
_cell_length_a   4.89482117
_cell_length_b   6.51559401
_cell_length_c   6.51559448
_cell_angle_alpha   81.51412201
_cell_angle_beta   67.93714142
_cell_angle_gamma   67.93714905
_symmetry_Int_Tables_number   1
_chemical_formula_structural   Fe10CoC3
_chemical_formula_sum   'Fe10 Co1 C3'
_cell_volume   178.47553439
_cell_formula_units_Z   1
loop_
 _symmetry_equiv_pos_site_id
 _symmetry_equiv_pos_as_xyz
  1  'x, y, z'
loop_
 _atom_site_type_symbol
 _atom_site_label
 _atom_site_symmetry_multiplicity
 _atom_site_fract_x
 _atom_site_fract_y
 _atom_site_fract_z
 _atom_site_occupancy
  Fe  Fe0  1  0.00000005  0.99254199  0.00745795  1
  Fe  Fe1  1  0.99999997  0.36660900  0.63339099  1
  Fe  Fe2  1  0.50000002  0.77473599  0.22526397  1
  Fe  Fe3  1  0.49999999  0.22330700  0.77669299  1
  Fe  Fe4  1  0.72053701  0.78156499  0.77736097  1
  Fe  Fe5  1  0.27946300  0.22263900  0.21843499  1
  Fe  Fe6  1  0.00103805  0.99784599  0.49895894  1
  Fe  Fe7  1  0.50215703  0.99784599  0.49895896  1
  Fe  Fe8  1  0.49784300  0.50104100  0.00215399  1
  Fe  Fe9  1  0.99896198  0.50104100  0.00215400  1
  C  C10  1  0.00000003  0.64261399  0.35738596  1
  C  C11  1  0.64069799  0.35909700  0.35950699  1
  C  C12  1  0.35930202  0.64049299  0.64090297  1
  Co  Co13  1  0.50000003  0.99862399  0.00137596  1
