# generated using pymatgen
data_CuAg4Ge3O8
_symmetry_space_group_name_H-M   'P 1'
_cell_length_a   5.38957596
_cell_length_b   5.61379480
_cell_length_c   7.23771286
_cell_angle_alpha   90.00000000
_cell_angle_beta   90.00000000
_cell_angle_gamma   90.00000000
_symmetry_Int_Tables_number   1
_chemical_formula_structural   CuAg4Ge3O8
_chemical_formula_sum   'Cu1 Ag4 Ge3 O8'
_cell_volume   218.98404855
_cell_formula_units_Z   1
loop_
 _symmetry_equiv_pos_site_id
 _symmetry_equiv_pos_as_xyz
  1  'x, y, z'
loop_
 _atom_site_type_symbol
 _atom_site_label
 _atom_site_symmetry_multiplicity
 _atom_site_fract_x
 _atom_site_fract_y
 _atom_site_fract_z
 _atom_site_occupancy
  Ag  Ag0  1  0.01314500  0.07030100  0.62255701  1
  Ag  Ag1  1  0.51314500  0.42969902  0.12255700  1
  Ag  Ag2  1  0.51314500  0.92969903  0.37744301  1
  Ag  Ag3  1  0.01314500  0.57030102  0.87744302  1
  Cu  Cu4  1  0.99959201  0.06295200  0.12611600  1
  Ge  Ge5  1  0.49959200  0.93704803  0.87388402  1
  Ge  Ge6  1  0.49959200  0.43704802  0.62611601  1
  Ge  Ge7  1  0.99959201  0.56295202  0.37388401  1
  O  O8  1  0.15614800  0.45946702  0.58876401  1
  O  O9  1  0.65614801  0.54053302  0.41123601  1
  O  O10  1  0.65614801  0.04053300  0.08876400  1
  O  O11  1  0.15614800  0.95946703  0.91123602  1
  O  O12  1  0.08061600  0.88507703  0.33689301  1
  O  O13  1  0.08061600  0.38507701  0.16310700  1
  O  O14  1  0.58061600  0.61492302  0.83689302  1
  O  O15  1  0.58061600  0.11492300  0.66310701  1
