# generated using pymatgen
data_Cs2In(SbO4)3
_symmetry_space_group_name_H-M   'P 1'
_cell_length_a   7.44280529
_cell_length_b   7.44280529
_cell_length_c   7.44280529
_cell_angle_alpha   60.00000000
_cell_angle_beta   60.00000000
_cell_angle_gamma   60.00000000
_symmetry_Int_Tables_number   1
_chemical_formula_structural   Cs2In(SbO4)3
_chemical_formula_sum   'Cs2 In1 Sb3 O12'
_cell_volume   291.53786909
_cell_formula_units_Z   1
loop_
 _symmetry_equiv_pos_site_id
 _symmetry_equiv_pos_as_xyz
  1  'x, y, z'
loop_
 _atom_site_type_symbol
 _atom_site_label
 _atom_site_symmetry_multiplicity
 _atom_site_fract_x
 _atom_site_fract_y
 _atom_site_fract_z
 _atom_site_occupancy
  Cs  Cs0  1  0.00000000  0.00000000  0.00000000  1
  Cs  Cs1  1  0.74999999  0.74999999  0.74999999  1
  In  In2  1  0.37499999  0.37499999  0.87499998  1
  Sb  Sb3  1  0.87499998  0.37499999  0.37499999  1
  Sb  Sb4  1  0.37499999  0.37499999  0.37499999  1
  Sb  Sb5  1  0.37499999  0.87499998  0.37499999  1
  O  O6  1  0.06458400  0.43541599  0.43541599  1
  O  O7  1  0.31458399  0.68541599  0.68541599  1
  O  O8  1  0.06458400  0.06458400  0.43541599  1
  O  O9  1  0.06458400  0.43541599  0.06458400  1
  O  O10  1  0.43541599  0.06458400  0.43541599  1
  O  O11  1  0.43541599  0.43541599  0.06458400  1
  O  O12  1  0.43541599  0.06458400  0.06458400  1
  O  O13  1  0.31458399  0.68541599  0.31458399  1
  O  O14  1  0.68541599  0.31458399  0.68541599  1
  O  O15  1  0.68541599  0.31458399  0.31458399  1
  O  O16  1  0.31458399  0.31458399  0.68541599  1
  O  O17  1  0.68541599  0.68541599  0.31458399  1
