# generated using pymatgen
data_K4EuN3
_symmetry_space_group_name_H-M   'P 1'
_cell_length_a   6.49016619
_cell_length_b   6.51877403
_cell_length_c   8.12006664
_cell_angle_alpha   98.80027771
_cell_angle_beta   90.00000000
_cell_angle_gamma   119.85493469
_symmetry_Int_Tables_number   1
_chemical_formula_structural   K4EuN3
_chemical_formula_sum   'K4 Eu1 N3'
_cell_volume   293.27871758
_cell_formula_units_Z   1
loop_
 _symmetry_equiv_pos_site_id
 _symmetry_equiv_pos_as_xyz
  1  'x, y, z'
loop_
 _atom_site_type_symbol
 _atom_site_label
 _atom_site_symmetry_multiplicity
 _atom_site_fract_x
 _atom_site_fract_y
 _atom_site_fract_z
 _atom_site_occupancy
  K  K0  1  0.08958200  0.21383699  0.73231802  1
  K  K1  1  0.87574497  0.78616297  0.26768197  1
  K  K2  1  0.01858300  0.37460699  0.36220800  1
  N  N3  1  0.64397598  0.62539298  0.63779199  1
  K  K4  1  0.28693999  0.43126998  0.15641199  1
  Eu  Eu5  1  0.85566998  0.56872998  0.84358800  1
  N  N6  1  0.27749099  0.86347797  0.86594199  1
  N  N7  1  0.41401299  0.13652199  0.13405800  1
