# generated using pymatgen
data_V7GaCo11
_symmetry_space_group_name_H-M   'P 1'
_cell_length_a   3.72707891
_cell_length_b   9.40699196
_cell_length_c   9.40699100
_cell_angle_alpha   120.00000000
_cell_angle_beta   90.00000000
_cell_angle_gamma   90.00000000
_symmetry_Int_Tables_number   1
_chemical_formula_structural   V7GaCo11
_chemical_formula_sum   'V7 Ga1 Co11'
_cell_volume   285.62796226
_cell_formula_units_Z   1
loop_
 _symmetry_equiv_pos_site_id
 _symmetry_equiv_pos_as_xyz
  1  'x, y, z'
loop_
 _atom_site_type_symbol
 _atom_site_label
 _atom_site_symmetry_multiplicity
 _atom_site_fract_x
 _atom_site_fract_y
 _atom_site_fract_z
 _atom_site_occupancy
  V  V0  1  0.58766401  0.00000000  -0.00000000  1
  V  V1  1  0.74987502  0.84160298  0.55509095  1
  V  V2  1  0.74987502  0.44490899  0.28651197  1
  V  V3  1  0.74987502  0.71348798  0.15839696  1
  V  V4  1  0.25323801  0.16131200  0.44610399  1
  V  V5  1  0.25323801  0.55389598  0.71520797  1
  V  V6  1  0.25323801  0.28479199  0.83868799  1
  Co  Co7  1  0.75549102  0.74853798  0.75835096  1
  Co  Co8  1  0.75549102  0.24164999  0.99018799  1
  Co  Co9  1  0.75549102  0.00981300  0.25146300  1
  Co  Co10  1  0.25452601  0.23557499  0.22800399  1
  Co  Co11  1  0.25452601  0.77199598  0.00757095  1
  Co  Co12  1  0.25452601  0.99242897  0.76442494  1
  Ga  Ga13  1  0.75429702  0.13403900  0.61854200  1
  Co  Co14  1  0.75429702  0.38145799  0.51549698  1
  Co  Co15  1  0.75429702  0.48450299  0.86596098  1
  Co  Co16  1  0.24768601  0.86251498  0.37932995  1
  Co  Co17  1  0.24768601  0.62067098  0.48318596  1
  Co  Co18  1  0.24768601  0.51681499  0.13748597  1
