# generated using pymatgen
data_Li2SO5
_symmetry_space_group_name_H-M   'P 1'
_cell_length_a   5.23700094
_cell_length_b   5.25454712
_cell_length_c   7.25386286
_cell_angle_alpha   105.06756592
_cell_angle_beta   108.90847015
_cell_angle_gamma   98.11191559
_symmetry_Int_Tables_number   1
_chemical_formula_structural   Li2SO5
_chemical_formula_sum   'Li4 S2 O10'
_cell_volume   176.71308355
_cell_formula_units_Z   2
loop_
 _symmetry_equiv_pos_site_id
 _symmetry_equiv_pos_as_xyz
  1  'x, y, z'
loop_
 _atom_site_type_symbol
 _atom_site_label
 _atom_site_symmetry_multiplicity
 _atom_site_fract_x
 _atom_site_fract_y
 _atom_site_fract_z
 _atom_site_occupancy
  Li  Li0  1  0.43298301  0.07664300  0.80882901  1
  Li  Li1  1  0.56701701  0.92335701  0.19117098  1
  Li  Li2  1  0.00000000  0.00000000  0.00000000  1
  Li  Li3  1  0.50000001  0.50000001  0.50000000  1
  S  S4  1  0.88361601  0.55182101  0.24109000  1
  S  S5  1  0.11638400  0.44817901  0.75891000  1
  O  O6  1  0.17091600  0.28692000  0.91409100  1
  O  O7  1  0.32253000  0.35464900  0.65380900  1
  O  O8  1  0.67747001  0.64535101  0.34619099  1
  O  O9  1  0.81272301  0.35208300  0.60380700  1
  O  O10  1  0.82908401  0.71308001  0.08590899  1
  O  O11  1  0.18727700  0.64791701  0.39619299  1
  O  O12  1  0.21756800  0.75933501  0.87708399  1
  O  O13  1  0.78243201  0.24066500  0.12291600  1
  O  O14  1  0.67922501  0.87871201  0.74710299  1
  O  O15  1  0.32077500  0.12128800  0.25289700  1
