# generated using pymatgen
data_La3Tl
_symmetry_space_group_name_H-M   'P 1'
_cell_length_a   6.35125589
_cell_length_b   7.88508606
_cell_length_c   7.88508511
_cell_angle_alpha   120.00000000
_cell_angle_beta   90.00000000
_cell_angle_gamma   90.00000000
_symmetry_Int_Tables_number   1
_chemical_formula_structural   La3Tl
_chemical_formula_sum   'La6 Tl2'
_cell_volume   341.98185637
_cell_formula_units_Z   2
loop_
 _symmetry_equiv_pos_site_id
 _symmetry_equiv_pos_as_xyz
  1  'x, y, z'
loop_
 _atom_site_type_symbol
 _atom_site_label
 _atom_site_symmetry_multiplicity
 _atom_site_fract_x
 _atom_site_fract_y
 _atom_site_fract_z
 _atom_site_occupancy
  La  La0  1  0.25000000  0.16824599  0.33649200  1
  La  La1  1  0.25000000  0.66350898  0.83175498  1
  La  La2  1  0.25000000  0.16824599  0.83175501  1
  La  La3  1  0.75000001  0.83175397  0.66350797  1
  La  La4  1  0.75000001  0.33649099  0.16824499  1
  La  La5  1  0.75000001  0.83175397  0.16824496  1
  Tl  Tl6  1  0.75000001  0.33333332  0.66666667  1
  Tl  Tl7  1  0.25000000  0.66666664  0.33333330  1
