# generated using pymatgen
data_SrAgGe
_symmetry_space_group_name_H-M   'P 1'
_cell_length_a   4.54195976
_cell_length_b   4.54196024
_cell_length_c   8.61467743
_cell_angle_alpha   90.00000000
_cell_angle_beta   90.00000000
_cell_angle_gamma   120.00000000
_symmetry_Int_Tables_number   1
_chemical_formula_structural   SrAgGe
_chemical_formula_sum   'Sr2 Ag2 Ge2'
_cell_volume   153.90625210
_cell_formula_units_Z   2
loop_
 _symmetry_equiv_pos_site_id
 _symmetry_equiv_pos_as_xyz
  1  'x, y, z'
loop_
 _atom_site_type_symbol
 _atom_site_label
 _atom_site_symmetry_multiplicity
 _atom_site_fract_x
 _atom_site_fract_y
 _atom_site_fract_z
 _atom_site_occupancy
  Sr  Sr0  1  0.00000000  0.00000000  0.00000000  1
  Sr  Sr1  1  0.00000000  0.00000000  0.49999998  1
  Ag  Ag2  1  0.66666671  0.33333334  0.74999996  1
  Ag  Ag3  1  0.33333337  0.66666667  0.24999999  1
  Ge  Ge4  1  0.66666671  0.33333334  0.24999999  1
  Ge  Ge5  1  0.33333337  0.66666667  0.74999996  1
