# generated using pymatgen
data_MnPO5
_symmetry_space_group_name_H-M   'P 1'
_cell_length_a   4.56405401
_cell_length_b   6.24646807
_cell_length_c   6.24646807
_cell_angle_alpha   90.00000000
_cell_angle_beta   90.00000000
_cell_angle_gamma   90.00000000
_symmetry_Int_Tables_number   1
_chemical_formula_structural   MnPO5
_chemical_formula_sum   'Mn2 P2 O10'
_cell_volume   178.08191764
_cell_formula_units_Z   2
loop_
 _symmetry_equiv_pos_site_id
 _symmetry_equiv_pos_as_xyz
  1  'x, y, z'
loop_
 _atom_site_type_symbol
 _atom_site_label
 _atom_site_symmetry_multiplicity
 _atom_site_fract_x
 _atom_site_fract_y
 _atom_site_fract_z
 _atom_site_occupancy
  Mn  Mn0  1  0.38879800  0.49999999  0.00000000  1
  Mn  Mn1  1  0.61120200  0.00000000  0.49999999  1
  P  P2  1  0.50000000  0.49999999  0.49999999  1
  P  P3  1  0.50000000  0.00000000  0.00000000  1
  O  O4  1  0.26012500  0.00000000  0.49999999  1
  O  O5  1  0.69972800  0.70016399  0.51686699  1
  O  O6  1  0.73987500  0.49999999  -0.00000000  1
  O  O7  1  0.69972800  0.01686700  0.79983599  1
  O  O8  1  0.30027200  0.79983599  0.98313299  1
  O  O9  1  0.30027200  0.51686699  0.29983600  1
  O  O10  1  0.30027200  0.48313299  0.70016399  1
  O  O11  1  0.69972800  0.98313299  0.20016400  1
  O  O12  1  0.69972800  0.29983600  0.48313299  1
  O  O13  1  0.30027200  0.20016400  0.01686700  1
