# generated using pymatgen
data_Lu2CuGe2
_symmetry_space_group_name_H-M   'P 1'
_cell_length_a   4.06307220
_cell_length_b   4.06307173
_cell_length_c   14.16822147
_cell_angle_alpha   90.00000000
_cell_angle_beta   90.00000000
_cell_angle_gamma   120.00000763
_symmetry_Int_Tables_number   1
_chemical_formula_structural   Lu2CuGe2
_chemical_formula_sum   'Lu4 Cu2 Ge4'
_cell_volume   202.56059535
_cell_formula_units_Z   2
loop_
 _symmetry_equiv_pos_site_id
 _symmetry_equiv_pos_as_xyz
  1  'x, y, z'
loop_
 _atom_site_type_symbol
 _atom_site_label
 _atom_site_symmetry_multiplicity
 _atom_site_fract_x
 _atom_site_fract_y
 _atom_site_fract_z
 _atom_site_occupancy
  Lu  Lu0  1  0.66666666  0.33333333  0.61733698  1
  Lu  Lu1  1  0.33333337  0.66666666  0.38266299  1
  Lu  Lu2  1  0.33333337  0.66666666  0.11733700  1
  Lu  Lu3  1  0.66666666  0.33333333  0.88266297  1
  Cu  Cu4  1  0.00000000  0.00000000  0.74999997  1
  Cu  Cu5  1  0.00000000  0.00000000  0.24999999  1
  Ge  Ge6  1  0.00000000  0.00000000  0.49999998  1
  Ge  Ge7  1  0.00000000  0.00000000  0.00000000  1
  Ge  Ge8  1  0.66666666  0.33333333  0.24999999  1
  Ge  Ge9  1  0.33333337  0.66666666  0.74999997  1
