# generated using pymatgen
data_Ce3NbO4
_symmetry_space_group_name_H-M   'P 1'
_cell_length_a   3.77338195
_cell_length_b   3.77338195
_cell_length_c   10.88911915
_cell_angle_alpha   99.97764587
_cell_angle_beta   99.97764587
_cell_angle_gamma   90.00000000
_symmetry_Int_Tables_number   1
_chemical_formula_structural   Ce3NbO4
_chemical_formula_sum   'Ce3 Nb1 O4'
_cell_volume   150.31723889
_cell_formula_units_Z   1
loop_
 _symmetry_equiv_pos_site_id
 _symmetry_equiv_pos_as_xyz
  1  'x, y, z'
loop_
 _atom_site_type_symbol
 _atom_site_label
 _atom_site_symmetry_multiplicity
 _atom_site_fract_x
 _atom_site_fract_y
 _atom_site_fract_z
 _atom_site_occupancy
  Ce  Ce0  1  0.49700702  0.49700701  0.99401403  1
  Ce  Ce1  1  0.81218804  0.81218802  0.62437604  1
  Ce  Ce2  1  0.19010701  0.19010700  0.38021401  1
  Nb  Nb3  1  0.62799303  0.62799302  0.25598603  1
  O  O4  1  0.37131702  0.37131701  0.74263402  1
  O  O5  1  0.00251500  0.00251500  0.00503000  1
  O  O6  1  0.74943602  0.24943601  0.49887203  1
  O  O7  1  0.24943602  0.74943602  0.49887203  1
