# generated using pymatgen
data_RbBi3O5
_symmetry_space_group_name_H-M   'P 1'
_cell_length_a   6.13021088
_cell_length_b   6.13021088
_cell_length_c   10.12016201
_cell_angle_alpha   90.00000000
_cell_angle_beta   90.00000000
_cell_angle_gamma   90.00000000
_symmetry_Int_Tables_number   1
_chemical_formula_structural   RbBi3O5
_chemical_formula_sum   'Rb2 Bi6 O10'
_cell_volume   380.31048041
_cell_formula_units_Z   2
loop_
 _symmetry_equiv_pos_site_id
 _symmetry_equiv_pos_as_xyz
  1  'x, y, z'
loop_
 _atom_site_type_symbol
 _atom_site_label
 _atom_site_symmetry_multiplicity
 _atom_site_fract_x
 _atom_site_fract_y
 _atom_site_fract_z
 _atom_site_occupancy
  Rb  Rb0  1  0.50000001  0.50000001  0.00000000  1
  Rb  Rb1  1  0.00000000  0.00000000  0.00000000  1
  Bi  Bi2  1  0.50000001  0.00000000  0.69355300  1
  Bi  Bi3  1  0.00000000  0.50000001  0.73563400  1
  Bi  Bi4  1  0.50000001  0.00000000  0.26436600  1
  Bi  Bi5  1  0.00000000  0.50000001  0.30644700  1
  Bi  Bi6  1  0.50000001  0.50000001  0.50000000  1
  Bi  Bi7  1  0.00000000  0.00000000  0.50000000  1
  O  O8  1  0.50000001  0.00000000  0.03537400  1
  O  O9  1  0.76397902  0.26397901  0.18016200  1
  O  O10  1  0.26397901  0.23602100  0.81983800  1
  O  O11  1  0.76397902  0.73602101  0.18016200  1
  O  O12  1  0.73602101  0.76397902  0.81983800  1
  O  O13  1  0.23602100  0.26397901  0.18016200  1
  O  O14  1  0.00000000  0.50000001  0.96462600  1
  O  O15  1  0.73602101  0.23602100  0.81983800  1
  O  O16  1  0.26397901  0.76397902  0.81983800  1
  O  O17  1  0.23602100  0.73602101  0.18016200  1
