# generated using pymatgen
data_KTmCuSe3
_symmetry_space_group_name_H-M   'P 1'
_cell_length_a   4.10492182
_cell_length_b   7.66130400
_cell_length_c   10.69996262
_cell_angle_alpha   90.00000000
_cell_angle_beta   90.00000000
_cell_angle_gamma   105.53932190
_symmetry_Int_Tables_number   1
_chemical_formula_structural   KTmCuSe3
_chemical_formula_sum   'K2 Tm2 Cu2 Se6'
_cell_volume   324.20342150
_cell_formula_units_Z   2
loop_
 _symmetry_equiv_pos_site_id
 _symmetry_equiv_pos_as_xyz
  1  'x, y, z'
loop_
 _atom_site_type_symbol
 _atom_site_label
 _atom_site_symmetry_multiplicity
 _atom_site_fract_x
 _atom_site_fract_y
 _atom_site_fract_z
 _atom_site_occupancy
  K  K0  1  0.74651199  0.49302400  0.25000001  1
  K  K1  1  0.25348797  0.50697600  0.75000003  1
  Tm  Tm2  1  0.00000000  0.00000000  0.50000002  1
  Tm  Tm3  1  0.00000000  0.00000000  0.00000000  1
  Cu  Cu4  1  0.53263002  0.06526000  0.75000003  1
  Cu  Cu5  1  0.46736994  0.93474000  0.25000001  1
  Se  Se6  1  0.93493297  0.86986600  0.75000003  1
  Se  Se7  1  0.37373995  0.74748000  0.06171400  1
  Se  Se8  1  0.62626001  0.25252000  0.93828603  1
  Se  Se9  1  0.37373995  0.74748000  0.43828602  1
  Se  Se10  1  0.62626001  0.25252000  0.56171402  1
  Se  Se11  1  0.06506699  0.13013400  0.25000001  1
