# generated using pymatgen
data_Zn3Ni13
_symmetry_space_group_name_H-M   'P 1'
_cell_length_a   4.22110558
_cell_length_b   4.22110558
_cell_length_c   14.00310802
_cell_angle_alpha   81.33132935
_cell_angle_beta   81.33132935
_cell_angle_gamma   60.00000381
_symmetry_Int_Tables_number   1
_chemical_formula_structural   Zn3Ni13
_chemical_formula_sum   'Zn3 Ni13'
_cell_volume   212.77897898
_cell_formula_units_Z   1
loop_
 _symmetry_equiv_pos_site_id
 _symmetry_equiv_pos_as_xyz
  1  'x, y, z'
loop_
 _atom_site_type_symbol
 _atom_site_label
 _atom_site_symmetry_multiplicity
 _atom_site_fract_x
 _atom_site_fract_y
 _atom_site_fract_z
 _atom_site_occupancy
  Zn  Zn0  1  0.12452800  0.12452800  0.62641601  1
  Zn  Zn1  1  0.37355000  0.37355001  0.87935002  1
  Zn  Zn2  1  0.62645000  0.62645002  0.12065001  1
  Ni  Ni3  1  0.87547200  0.87547203  0.37358402  1
  Ni  Ni4  1  0.00000000  0.00000000  0.00000000  1
  Ni  Ni5  1  0.81269700  0.81269703  0.56190902  1
  Ni  Ni6  1  0.06004800  0.06004800  0.81985602  1
  Ni  Ni7  1  0.31450200  0.31450201  0.05649401  1
  Ni  Ni8  1  0.56271300  0.56271302  0.31186101  1
  Ni  Ni9  1  0.43728700  0.43728702  0.68813902  1
  Ni  Ni10  1  0.68549800  0.68549802  0.94350603  1
  Ni  Ni11  1  0.93995200  0.93995203  0.18014402  1
  Ni  Ni12  1  0.18730300  0.18730301  0.43809101  1
  Ni  Ni13  1  0.25082600  0.25082601  0.24752201  1
  Ni  Ni14  1  0.50000000  0.50000002  0.50000002  1
  Ni  Ni15  1  0.74917400  0.74917403  0.75247803  1
