# generated using pymatgen
data_Mg5Ag
_symmetry_space_group_name_H-M   'P 1'
_cell_length_a   3.11179996
_cell_length_b   5.03672886
_cell_length_c   8.05849648
_cell_angle_alpha   90.00000000
_cell_angle_beta   101.13233185
_cell_angle_gamma   90.00000000
_symmetry_Int_Tables_number   1
_chemical_formula_structural   Mg5Ag
_chemical_formula_sum   'Mg5 Ag1'
_cell_volume   123.92663632
_cell_formula_units_Z   1
loop_
 _symmetry_equiv_pos_site_id
 _symmetry_equiv_pos_as_xyz
  1  'x, y, z'
loop_
 _atom_site_type_symbol
 _atom_site_label
 _atom_site_symmetry_multiplicity
 _atom_site_fract_x
 _atom_site_fract_y
 _atom_site_fract_z
 _atom_site_occupancy
  Mg  Mg0  1  0.44506300  0.25000001  0.89012603  1
  Mg  Mg1  1  0.10868100  0.25000001  0.21736201  1
  Mg  Mg2  1  0.89131901  0.75000002  0.78263802  1
  Mg  Mg3  1  0.55493700  0.75000002  0.10987400  1
  Mg  Mg4  1  0.77976201  0.25000001  0.55952401  1
  Ag  Ag5  1  0.22023800  0.75000002  0.44047601  1
