# generated using pymatgen
data_Li4FeMoO11F
_symmetry_space_group_name_H-M   'P 1'
_cell_length_a   5.18147421
_cell_length_b   5.40478420
_cell_length_c   9.35468197
_cell_angle_alpha   90.00000000
_cell_angle_beta   90.00000000
_cell_angle_gamma   90.00000000
_symmetry_Int_Tables_number   1
_chemical_formula_structural   Li4FeMoO11F
_chemical_formula_sum   'Li4 Fe1 Mo1 O11 F1'
_cell_volume   261.97552939
_cell_formula_units_Z   1
loop_
 _symmetry_equiv_pos_site_id
 _symmetry_equiv_pos_as_xyz
  1  'x, y, z'
loop_
 _atom_site_type_symbol
 _atom_site_label
 _atom_site_symmetry_multiplicity
 _atom_site_fract_x
 _atom_site_fract_y
 _atom_site_fract_z
 _atom_site_occupancy
  Li  Li0  1  0.49999998  0.49999998  0.52658800  1
  Li  Li1  1  0.00000000  0.00000000  0.47341200  1
  Li  Li2  1  0.00000000  0.49999998  0.25689600  1
  Li  Li3  1  0.49999998  0.00000000  0.74310400  1
  Mo  Mo4  1  0.49999998  0.00000000  0.19394100  1
  Fe  Fe5  1  0.00000000  0.49999998  0.80605900  1
  F  F6  1  0.71335397  0.17219799  0.60867400  1
  O  O7  1  0.21335399  0.32780199  0.39132600  1
  O  O8  1  0.78664597  0.67219797  0.39132600  1
  O  O9  1  0.28664599  0.82780197  0.60867400  1
  O  O10  1  0.75467697  0.18425499  0.29366700  1
  O  O11  1  0.25467699  0.31574499  0.70633300  1
  O  O12  1  0.24532299  0.81574497  0.29366700  1
  O  O13  1  0.74532297  0.68425497  0.70633300  1
  O  O14  1  0.16022099  0.70596897  0.91779600  1
  O  O15  1  0.66022097  0.79403097  0.08220400  1
  O  O16  1  0.33977899  0.20596899  0.08220400  1
  O  O17  1  0.83977897  0.29403099  0.91779600  1
