# generated using pymatgen
data_CeAlGeAs2
_symmetry_space_group_name_H-M   'P 1'
_cell_length_a   6.58769989
_cell_length_b   7.08233404
_cell_length_c   9.66205406
_cell_angle_alpha   90.00000000
_cell_angle_beta   90.00000000
_cell_angle_gamma   90.00000000
_symmetry_Int_Tables_number   1
_chemical_formula_structural   CeAlGeAs2
_chemical_formula_sum   'Ce4 Al4 Ge4 As8'
_cell_volume   450.79560778
_cell_formula_units_Z   4
loop_
 _symmetry_equiv_pos_site_id
 _symmetry_equiv_pos_as_xyz
  1  'x, y, z'
loop_
 _atom_site_type_symbol
 _atom_site_label
 _atom_site_symmetry_multiplicity
 _atom_site_fract_x
 _atom_site_fract_y
 _atom_site_fract_z
 _atom_site_occupancy
  Ce  Ce0  1  0.03338700  0.09278000  0.25000000  1
  Ce  Ce1  1  0.53338701  0.40722000  0.75000000  1
  Ce  Ce2  1  0.46661301  0.59278000  0.25000000  1
  Ce  Ce3  1  0.96661302  0.90721999  0.75000000  1
  Al  Al4  1  0.50000001  0.00000000  -0.00000000  1
  Al  Al5  1  0.00000000  0.50000000  -0.00000000  1
  Al  Al6  1  0.00000000  0.50000000  0.50000000  1
  Al  Al7  1  0.50000001  0.00000000  0.50000000  1
  Ge  Ge8  1  0.81661501  0.19056600  0.56411000  1
  Ge  Ge9  1  0.31661501  0.30943400  0.43589000  1
  Ge  Ge10  1  0.68338501  0.69056600  0.93588999  1
  As  As11  1  0.18338500  0.80943400  0.06411000  1
  As  As12  1  0.18338500  0.80943400  0.43589000  1
  Ge  Ge13  1  0.68338501  0.69056600  0.56411000  1
  As  As14  1  0.31661501  0.30943400  0.06411000  1
  As  As15  1  0.81661501  0.19056600  0.93588999  1
  As  As16  1  0.62541701  0.96550799  0.25000000  1
  As  As17  1  0.12541700  0.53449200  0.75000000  1
  As  As18  1  0.87458301  0.46550800  0.25000000  1
  As  As19  1  0.37458301  0.03449200  0.75000000  1
