# generated using pymatgen
data_F2
_symmetry_space_group_name_H-M   'P 1'
_cell_length_a   3.62801790
_cell_length_b   5.19328117
_cell_length_c   5.85743761
_cell_angle_alpha   65.72726440
_cell_angle_beta   88.29245758
_cell_angle_gamma   87.52919769
_symmetry_Int_Tables_number   1
_chemical_formula_structural   F2
_chemical_formula_sum   F8
_cell_volume   100.50337448
_cell_formula_units_Z   4
loop_
 _symmetry_equiv_pos_site_id
 _symmetry_equiv_pos_as_xyz
  1  'x, y, z'
loop_
 _atom_site_type_symbol
 _atom_site_label
 _atom_site_symmetry_multiplicity
 _atom_site_fract_x
 _atom_site_fract_y
 _atom_site_fract_z
 _atom_site_occupancy
  F  F0  1  0.00013202  0.36011500  0.26605298  1
  F  F1  1  0.99986806  0.63988501  0.73394698  1
  F  F2  1  0.00000000  0.00000000  0.50000000  1
  F  F3  1  0.00000003  0.50000000  0.49999998  1
  F  F4  1  0.49958005  0.64494801  0.72914597  1
  F  F5  1  0.50042003  0.35505200  0.27085399  1
  F  F6  1  0.98127507  0.72103601  0.00965197  1
  F  F7  1  0.01872502  0.27896400  0.99034799  1
