# generated using pymatgen
data_AlTl(SO4)2
_symmetry_space_group_name_H-M   'P 1'
_cell_length_a   4.76859188
_cell_length_b   4.76859188
_cell_length_c   7.21793413
_cell_angle_alpha   87.62960815
_cell_angle_beta   87.62960815
_cell_angle_gamma   66.56948090
_symmetry_Int_Tables_number   1
_chemical_formula_structural   AlTl(SO4)2
_chemical_formula_sum   'Al1 Tl1 S2 O8'
_cell_volume   150.41371384
_cell_formula_units_Z   1
loop_
 _symmetry_equiv_pos_site_id
 _symmetry_equiv_pos_as_xyz
  1  'x, y, z'
loop_
 _atom_site_type_symbol
 _atom_site_label
 _atom_site_symmetry_multiplicity
 _atom_site_fract_x
 _atom_site_fract_y
 _atom_site_fract_z
 _atom_site_occupancy
  Tl  Tl0  1  0.00000000  0.00000000  0.50000000  1
  Al  Al1  1  0.00000000  0.00000000  0.00000000  1
  S  S2  1  0.63372601  0.63372597  0.21535399  1
  S  S3  1  0.36627401  0.36627398  0.78464599  1
  O  O4  1  0.71651102  0.71651096  0.38927099  1
  O  O5  1  0.28348901  0.28348899  0.61072900  1
  O  O6  1  0.75512699  0.28642399  0.21097999  1
  O  O7  1  0.24487303  0.71357597  0.78901999  1
  O  O8  1  0.71357599  0.24487299  0.78901999  1
  O  O9  1  0.28642403  0.75512696  0.21097999  1
  O  O10  1  0.74373702  0.74373696  0.04219399  1
  O  O11  1  0.25626301  0.25626299  0.95780600  1
