# generated using pymatgen
data_Al3CuTe4
_symmetry_space_group_name_H-M   'P 1'
_cell_length_a   6.09324598
_cell_length_b   6.09324598
_cell_length_c   7.41406965
_cell_angle_alpha   114.26292419
_cell_angle_beta   114.26292419
_cell_angle_gamma   90.00000000
_symmetry_Int_Tables_number   1
_chemical_formula_structural   Al3CuTe4
_chemical_formula_sum   'Al3 Cu1 Te4'
_cell_volume   224.01422195
_cell_formula_units_Z   1
loop_
 _symmetry_equiv_pos_site_id
 _symmetry_equiv_pos_as_xyz
  1  'x, y, z'
loop_
 _atom_site_type_symbol
 _atom_site_label
 _atom_site_symmetry_multiplicity
 _atom_site_fract_x
 _atom_site_fract_y
 _atom_site_fract_z
 _atom_site_occupancy
  Al  Al0  1  0.00000000  0.00000000  0.00000000  1
  Al  Al1  1  0.75000000  0.25000000  0.50000000  1
  Al  Al2  1  0.24999999  0.75000000  0.50000000  1
  Cu  Cu3  1  0.50000000  0.50000000  -0.00000001  1
  Te  Te4  1  0.38448499  0.88197500  0.26645999  1
  Te  Te5  1  0.61551500  0.61551500  0.73354000  1
  Te  Te6  1  0.11802500  0.11802500  0.73354001  1
  Te  Te7  1  0.88197500  0.38448500  0.26645999  1
