# generated using pymatgen
data_Ho5Lu2Pa
_symmetry_space_group_name_H-M   'P 1'
_cell_length_a   5.83899117
_cell_length_b   6.76378822
_cell_length_c   6.76378775
_cell_angle_alpha   120.00000000
_cell_angle_beta   90.00000000
_cell_angle_gamma   90.00000000
_symmetry_Int_Tables_number   1
_chemical_formula_structural   Ho5Lu2Pa
_chemical_formula_sum   'Ho5 Lu2 Pa1'
_cell_volume   231.33876972
_cell_formula_units_Z   1
loop_
 _symmetry_equiv_pos_site_id
 _symmetry_equiv_pos_as_xyz
  1  'x, y, z'
loop_
 _atom_site_type_symbol
 _atom_site_label
 _atom_site_symmetry_multiplicity
 _atom_site_fract_x
 _atom_site_fract_y
 _atom_site_fract_z
 _atom_site_occupancy
  Ho  Ho0  1  0.74999998  0.83620996  0.16379098  1
  Ho  Ho1  1  0.74999998  0.32758099  0.16379099  1
  Pa  Pa2  1  0.74999998  0.83620996  0.67241999  1
  Ho  Ho3  1  0.24999999  0.16378999  0.83620900  1
  Ho  Ho4  1  0.24999999  0.67241897  0.83620899  1
  Ho  Ho5  1  0.24999999  0.16378999  0.32758000  1
  Lu  Lu6  1  0.24999999  0.66666664  0.33333332  1
  Lu  Lu7  1  0.74999998  0.33333332  0.66666667  1
