# generated using pymatgen
data_Yb4Cu3Ge4
_symmetry_space_group_name_H-M   'P 1'
_cell_length_a   4.24202204
_cell_length_b   7.05921030
_cell_length_c   8.04437447
_cell_angle_alpha   108.03401947
_cell_angle_beta   105.28757477
_cell_angle_gamma   90.00000000
_symmetry_Int_Tables_number   1
_chemical_formula_structural   Yb4Cu3Ge4
_chemical_formula_sum   'Yb4 Cu3 Ge4'
_cell_volume   220.07518056
_cell_formula_units_Z   1
loop_
 _symmetry_equiv_pos_site_id
 _symmetry_equiv_pos_as_xyz
  1  'x, y, z'
loop_
 _atom_site_type_symbol
 _atom_site_label
 _atom_site_symmetry_multiplicity
 _atom_site_fract_x
 _atom_site_fract_y
 _atom_site_fract_z
 _atom_site_occupancy
  Yb  Yb0  1  0.65568897  0.93801298  0.31137797  1
  Yb  Yb1  1  0.34431099  0.06198700  0.68862198  1
  Yb  Yb2  1  0.59182798  0.39098799  0.18365598  1
  Yb  Yb3  1  0.40817198  0.60901198  0.81634396  1
  Cu  Cu4  1  0.00000000  0.00000000  0.00000000  1
  Ge  Ge5  1  0.78336398  0.35607799  0.56672797  1
  Cu  Cu6  1  0.21663598  0.64392198  0.43327197  1
  Cu  Cu7  1  0.93458998  0.33773299  0.86917996  1
  Ge  Ge8  1  0.06540999  0.66226698  0.13081998  1
  Ge  Ge9  1  0.79583897  0.72735698  0.59167796  1
  Ge  Ge10  1  0.20416099  0.27264299  0.40832198  1
