# generated using pymatgen
data_Li3UO4
_symmetry_space_group_name_H-M   'P 1'
_cell_length_a   4.35410404
_cell_length_b   4.35410404
_cell_length_c   5.91339350
_cell_angle_alpha   111.60194397
_cell_angle_beta   111.60194397
_cell_angle_gamma   90.00000000
_symmetry_Int_Tables_number   1
_chemical_formula_structural   Li3UO4
_chemical_formula_sum   'Li3 U1 O4'
_cell_volume   95.71388954
_cell_formula_units_Z   1
loop_
 _symmetry_equiv_pos_site_id
 _symmetry_equiv_pos_as_xyz
  1  'x, y, z'
loop_
 _atom_site_type_symbol
 _atom_site_label
 _atom_site_symmetry_multiplicity
 _atom_site_fract_x
 _atom_site_fract_y
 _atom_site_fract_z
 _atom_site_occupancy
  Li  Li0  1  0.24999997  0.74999998  0.49999994  1
  Li  Li1  1  0.49999997  0.49999998  -0.00000003  1
  Li  Li2  1  0.00000000  0.00000000  0.00000000  1
  U  U3  1  0.74999997  0.24999999  0.49999995  1
  O  O4  1  0.77734995  0.77734998  0.55469992  1
  O  O5  1  0.22264999  0.22264999  0.44529997  1
  O  O6  1  0.52734999  0.02735000  0.05469998  1
  O  O7  1  0.97264996  0.47264999  0.94529992  1
