# generated using pymatgen
data_ErB3Rh5
_symmetry_space_group_name_H-M   'P 1'
_cell_length_a   5.34757280
_cell_length_b   5.34757280
_cell_length_c   7.47643805
_cell_angle_alpha   90.00000000
_cell_angle_beta   90.00000000
_cell_angle_gamma   90.00000000
_symmetry_Int_Tables_number   1
_chemical_formula_structural   ErB3Rh5
_chemical_formula_sum   'Er2 B6 Rh10'
_cell_volume   213.80022141
_cell_formula_units_Z   2
loop_
 _symmetry_equiv_pos_site_id
 _symmetry_equiv_pos_as_xyz
  1  'x, y, z'
loop_
 _atom_site_type_symbol
 _atom_site_label
 _atom_site_symmetry_multiplicity
 _atom_site_fract_x
 _atom_site_fract_y
 _atom_site_fract_z
 _atom_site_occupancy
  Er  Er0  1  0.00000000  0.00000000  0.00000000  1
  Er  Er1  1  0.50000002  0.50000002  0.50000000  1
  B  B2  1  0.83115003  0.50000002  0.15139100  1
  B  B3  1  0.16885001  0.50000002  0.15139100  1
  B  B4  1  0.00000000  0.33115001  0.65139100  1
  B  B5  1  0.00000000  0.66885002  0.65139100  1
  B  B6  1  0.66885002  0.00000000  0.34860900  1
  B  B7  1  0.33115001  0.00000000  0.34860900  1
  Rh  Rh8  1  0.50000002  0.16885001  0.84860899  1
  Rh  Rh9  1  0.50000002  0.83115003  0.84860899  1
  Rh  Rh10  1  0.25100501  0.50000002  0.85573099  1
  Rh  Rh11  1  0.74899503  0.50000002  0.85573099  1
  Rh  Rh12  1  0.00000000  0.75100503  0.35573100  1
  Rh  Rh13  1  0.00000000  0.24899501  0.35573100  1
  Rh  Rh14  1  0.24899501  0.00000000  0.64426900  1
  Rh  Rh15  1  0.75100503  0.00000000  0.64426900  1
  Rh  Rh16  1  0.50000002  0.74899503  0.14426900  1
  Rh  Rh17  1  0.50000002  0.25100501  0.14426900  1
