# generated using pymatgen
data_Li2Fe2O3
_symmetry_space_group_name_H-M   'P 1'
_cell_length_a   5.98949862
_cell_length_b   5.99744272
_cell_length_c   5.99808788
_cell_angle_alpha   90.06578827
_cell_angle_beta   119.92775726
_cell_angle_gamma   119.90040588
_symmetry_Int_Tables_number   1
_chemical_formula_structural   Li2Fe2O3
_chemical_formula_sum   'Li4 Fe4 O6'
_cell_volume   152.66202432
_cell_formula_units_Z   2
loop_
 _symmetry_equiv_pos_site_id
 _symmetry_equiv_pos_as_xyz
  1  'x, y, z'
loop_
 _atom_site_type_symbol
 _atom_site_label
 _atom_site_symmetry_multiplicity
 _atom_site_fract_x
 _atom_site_fract_y
 _atom_site_fract_z
 _atom_site_occupancy
  Li  Li0  1  0.75425898  0.87265397  0.12717091  1
  Li  Li1  1  0.24576700  0.12734300  0.87282400  1
  Li  Li2  1  0.49993098  0.99994197  0.49997092  1
  Li  Li3  1  0.00002499  0.50002799  0.00006196  1
  Fe  Fe4  1  0.49999599  0.50000199  0.49999596  1
  Fe  Fe5  1  0.99999599  0.50004099  0.49996094  1
  Fe  Fe6  1  0.51721900  0.26490799  0.28288397  1
  Fe  Fe7  1  0.97747100  0.26169399  0.73784996  1
  O  O8  1  0.51932400  0.26390499  0.73659398  1
  O  O9  1  0.03161699  0.28288799  0.26508298  1
  O  O10  1  0.48067398  0.73610698  0.26340293  1
  O  O11  1  0.02259098  0.73827398  0.26218295  1
  O  O12  1  0.96837599  0.71712398  0.73492193  1
  O  O13  1  0.48275698  0.73509098  0.71709994  1
