# generated using pymatgen
data_ScNi3
_symmetry_space_group_name_H-M   'P 1'
_cell_length_a   3.20152617
_cell_length_b   3.20152617
_cell_length_c   7.96125126
_cell_angle_alpha   78.40048981
_cell_angle_beta   78.40048981
_cell_angle_gamma   59.99999619
_symmetry_Int_Tables_number   1
_chemical_formula_structural   ScNi3
_chemical_formula_sum   'Sc1 Ni3'
_cell_volume   68.73744190
_cell_formula_units_Z   1
loop_
 _symmetry_equiv_pos_site_id
 _symmetry_equiv_pos_as_xyz
  1  'x, y, z'
loop_
 _atom_site_type_symbol
 _atom_site_label
 _atom_site_symmetry_multiplicity
 _atom_site_fract_x
 _atom_site_fract_y
 _atom_site_fract_z
 _atom_site_occupancy
  Sc  Sc0  1  0.00000000  0.00000000  0.00000000  1
  Ni  Ni1  1  0.50000001  0.50000000  0.50000000  1
  Ni  Ni2  1  0.12579400  0.12579400  0.62261800  1
  Ni  Ni3  1  0.87420601  0.87420601  0.37738200  1
