# generated using pymatgen
data_NaNiWO3
_symmetry_space_group_name_H-M   'P 1'
_cell_length_a   5.36072063
_cell_length_b   5.51639080
_cell_length_c   6.96834183
_cell_angle_alpha   112.57141876
_cell_angle_beta   111.85858154
_cell_angle_gamma   91.78527069
_symmetry_Int_Tables_number   1
_chemical_formula_structural   NaNiWO3
_chemical_formula_sum   'Na2 Ni2 W2 O6'
_cell_volume   172.92122362
_cell_formula_units_Z   2
loop_
 _symmetry_equiv_pos_site_id
 _symmetry_equiv_pos_as_xyz
  1  'x, y, z'
loop_
 _atom_site_type_symbol
 _atom_site_label
 _atom_site_symmetry_multiplicity
 _atom_site_fract_x
 _atom_site_fract_y
 _atom_site_fract_z
 _atom_site_occupancy
  Na  Na0  1  0.62328497  0.87328498  0.74656999  1
  Na  Na1  1  0.37671499  0.12671500  0.25343000  1
  W  W2  1  0.13488699  0.38488699  0.76977400  1
  W  W3  1  0.86511297  0.61511298  0.23022598  1
  Ni  Ni4  1  0.20074097  0.86292298  0.41604398  1
  Ni  Ni5  1  0.71530297  0.55312099  0.41604399  1
  O  O6  1  0.79925899  0.13707700  0.58395600  1
  O  O7  1  0.28469698  0.44687899  0.58395600  1
  O  O8  1  0.39242299  0.22002799  0.92844101  1
  O  O9  1  0.03601798  0.70841298  0.92844100  1
  O  O10  1  0.60757697  0.77997198  0.07155898  1
  O  O11  1  0.96398198  0.29158699  0.07155899  1
