# generated using pymatgen
data_La4Sb5
_symmetry_space_group_name_H-M   'P 1'
_cell_length_a   6.61682987
_cell_length_b   9.86630630
_cell_length_c   9.86630630
_cell_angle_alpha   120.00000000
_cell_angle_beta   90.00000000
_cell_angle_gamma   90.00000000
_symmetry_Int_Tables_number   1
_chemical_formula_structural   La4Sb5
_chemical_formula_sum   'La8 Sb10'
_cell_volume   557.81448639
_cell_formula_units_Z   2
loop_
 _symmetry_equiv_pos_site_id
 _symmetry_equiv_pos_as_xyz
  1  'x, y, z'
loop_
 _atom_site_type_symbol
 _atom_site_label
 _atom_site_symmetry_multiplicity
 _atom_site_fract_x
 _atom_site_fract_y
 _atom_site_fract_z
 _atom_site_occupancy
  La  La0  1  0.75000001  0.99999998  0.61854702  1
  La  La1  1  0.75000001  0.61854699  0.00000001  1
  La  La2  1  0.25000000  0.61854699  0.61854701  1
  La  La3  1  0.25000000  0.38145299  0.00000001  1
  La  La4  1  0.75000001  0.38145299  0.38145301  1
  La  La5  1  0.25000000  0.00000000  0.38145300  1
  La  La6  1  0.00000000  0.00000000  0.00000000  1
  La  La7  1  0.50000001  0.00000000  -0.00000000  1
  Sb  Sb8  1  0.75000001  0.00000000  0.26026600  1
  Sb  Sb9  1  0.50000001  0.66666665  0.33333335  1
  Sb  Sb10  1  -0.00000000  0.33333333  0.66666667  1
  Sb  Sb11  1  -0.00000000  0.66666665  0.33333335  1
  Sb  Sb12  1  0.25000000  0.73973398  0.00000002  1
  Sb  Sb13  1  0.25000000  0.26026599  0.26026601  1
  Sb  Sb14  1  0.25000000  0.00000000  0.73973400  1
  Sb  Sb15  1  0.75000001  0.26026599  0.00000001  1
  Sb  Sb16  1  0.75000001  0.73973398  0.73973402  1
  Sb  Sb17  1  0.50000001  0.33333333  0.66666667  1
