# generated using pymatgen
data_Cs3RbTi2O6
_symmetry_space_group_name_H-M   'P 1'
_cell_length_a   6.02438211
_cell_length_b   6.95290947
_cell_length_c   6.95290947
_cell_angle_alpha   111.42522430
_cell_angle_beta   90.00000000
_cell_angle_gamma   90.00000000
_symmetry_Int_Tables_number   1
_chemical_formula_structural   Cs3RbTi2O6
_chemical_formula_sum   'Cs3 Rb1 Ti2 O6'
_cell_volume   271.11053832
_cell_formula_units_Z   1
loop_
 _symmetry_equiv_pos_site_id
 _symmetry_equiv_pos_as_xyz
  1  'x, y, z'
loop_
 _atom_site_type_symbol
 _atom_site_label
 _atom_site_symmetry_multiplicity
 _atom_site_fract_x
 _atom_site_fract_y
 _atom_site_fract_z
 _atom_site_occupancy
  Rb  Rb0  1  0.25000000  0.51699999  0.19132098  1
  Cs  Cs1  1  0.74999999  0.48299999  0.80867897  1
  Cs  Cs2  1  0.74999999  0.80867898  0.48299996  1
  Cs  Cs3  1  0.25000000  0.19132099  0.51699999  1
  Ti  Ti4  1  0.25000000  0.91685197  0.91685195  1
  Ti  Ti5  1  0.74999999  0.08314800  0.08314800  1
  O  O6  1  0.74999999  0.33141299  0.33141298  1
  O  O7  1  0.25000000  0.66858698  0.66858696  1
  O  O8  1  0.49999999  0.11785500  0.88214498  1
  O  O9  1  0.99999998  0.11785500  0.88214498  1
  O  O10  1  0.49999999  0.88214497  0.11785496  1
  O  O11  1  -0.00000000  0.88214497  0.11785496  1
