# generated using pymatgen
data_La3Tl5
_symmetry_space_group_name_H-M   'P 1'
_cell_length_a   6.72850895
_cell_length_b   6.72850895
_cell_length_c   10.61972809
_cell_angle_alpha   90.00000000
_cell_angle_beta   90.00000000
_cell_angle_gamma   102.81595612
_symmetry_Int_Tables_number   1
_chemical_formula_structural   La3Tl5
_chemical_formula_sum   'La6 Tl10'
_cell_volume   468.80766905
_cell_formula_units_Z   2
loop_
 _symmetry_equiv_pos_site_id
 _symmetry_equiv_pos_as_xyz
  1  'x, y, z'
loop_
 _atom_site_type_symbol
 _atom_site_label
 _atom_site_symmetry_multiplicity
 _atom_site_fract_x
 _atom_site_fract_y
 _atom_site_fract_z
 _atom_site_occupancy
  La  La0  1  0.62858196  0.62858198  0.74999999  1
  La  La1  1  0.37141797  0.37141799  0.25000000  1
  La  La2  1  0.20136295  0.79863698  0.50000000  1
  La  La3  1  0.20136295  0.79863698  -0.00000000  1
  La  La4  1  0.79863698  0.20136299  0.50000000  1
  La  La5  1  0.79863698  0.20136299  -0.00000000  1
  Tl  Tl6  1  0.00370500  0.00370500  0.74999999  1
  Tl  Tl7  1  0.99629493  0.99629497  0.25000000  1
  Tl  Tl8  1  0.30674198  0.30674199  0.94868799  1
  Tl  Tl9  1  0.69325795  0.69325798  0.05131200  1
  Tl  Tl10  1  0.30674198  0.30674199  0.55131200  1
  Tl  Tl11  1  0.69325795  0.69325798  0.44868800  1
  Tl  Tl12  1  0.51001199  0.06017700  0.74999999  1
  Tl  Tl13  1  0.93982296  0.48998799  0.25000000  1
  Tl  Tl14  1  0.48998794  0.93982298  0.25000000  1
  Tl  Tl15  1  0.06017697  0.51001199  0.74999999  1
