# generated using pymatgen
data_ZrFeRe3NiO4
_symmetry_space_group_name_H-M   'P 1'
_cell_length_a   4.01024294
_cell_length_b   5.33098888
_cell_length_c   5.33098888
_cell_angle_alpha   90.00000000
_cell_angle_beta   90.00000000
_cell_angle_gamma   90.00000000
_symmetry_Int_Tables_number   1
_chemical_formula_structural   ZrFeRe3NiO4
_chemical_formula_sum   'Zr1 Fe1 Re3 Ni1 O4'
_cell_volume   113.96886854
_cell_formula_units_Z   1
loop_
 _symmetry_equiv_pos_site_id
 _symmetry_equiv_pos_as_xyz
  1  'x, y, z'
loop_
 _atom_site_type_symbol
 _atom_site_label
 _atom_site_symmetry_multiplicity
 _atom_site_fract_x
 _atom_site_fract_y
 _atom_site_fract_z
 _atom_site_occupancy
  Zr  Zr0  1  0.92230301  0.20841800  0.70841802  1
  Re  Re1  1  0.92230301  0.79158202  0.29158201  1
  Fe  Fe2  1  0.50000001  0.50000001  0.50000001  1
  Re  Re3  1  0.07769700  0.29158201  0.20841800  1
  Re  Re4  1  0.07769700  0.70841802  0.79158202  1
  Ni  Ni5  1  0.50000001  0.00000000  -0.00000000  1
  O  O6  1  0.44554501  0.00000000  0.50000001  1
  O  O7  1  0.55445501  0.50000001  -0.00000000  1
  O  O8  1  0.00000000  0.00000000  0.00000000  1
  O  O9  1  -0.00000000  0.50000001  0.50000001  1
