# generated using pymatgen
data_ZrRuSe6
_symmetry_space_group_name_H-M   'P 1'
_cell_length_a   5.16986179
_cell_length_b   5.16986179
_cell_length_c   5.16986275
_cell_angle_alpha   98.67175293
_cell_angle_beta   98.67175293
_cell_angle_gamma   98.67175293
_symmetry_Int_Tables_number   1
_chemical_formula_structural   ZrRuSe6
_chemical_formula_sum   'Zr1 Ru1 Se6'
_cell_volume   132.89092763
_cell_formula_units_Z   1
loop_
 _symmetry_equiv_pos_site_id
 _symmetry_equiv_pos_as_xyz
  1  'x, y, z'
loop_
 _atom_site_type_symbol
 _atom_site_label
 _atom_site_symmetry_multiplicity
 _atom_site_fract_x
 _atom_site_fract_y
 _atom_site_fract_z
 _atom_site_occupancy
  Zr  Zr0  1  0.50000006  0.50000003  0.50000003  1
  Ru  Ru1  1  0.00000000  0.00000000  0.00000000  1
  Se  Se2  1  0.27207408  0.92893405  0.27207404  1
  Se  Se3  1  0.92893406  0.27207402  0.27207404  1
  Se  Se4  1  0.72792608  0.72792604  0.07106605  1
  Se  Se5  1  0.07106605  0.72792604  0.72792603  1
  Se  Se6  1  0.72792604  0.07106600  0.72792602  1
  Se  Se7  1  0.27207403  0.27207402  0.92893401  1
