# generated using pymatgen
data_Pr5Sb4
_symmetry_space_group_name_H-M   'P 1'
_cell_length_a   6.78232288
_cell_length_b   9.27788162
_cell_length_c   9.27788162
_cell_angle_alpha   120.00000000
_cell_angle_beta   90.00000000
_cell_angle_gamma   90.00000000
_symmetry_Int_Tables_number   1
_chemical_formula_structural   Pr5Sb4
_chemical_formula_sum   'Pr10 Sb8'
_cell_volume   505.59962939
_cell_formula_units_Z   2
loop_
 _symmetry_equiv_pos_site_id
 _symmetry_equiv_pos_as_xyz
  1  'x, y, z'
loop_
 _atom_site_type_symbol
 _atom_site_label
 _atom_site_symmetry_multiplicity
 _atom_site_fract_x
 _atom_site_fract_y
 _atom_site_fract_z
 _atom_site_occupancy
  Pr  Pr0  1  0.75000001  0.72974002  0.72973997  1
  Pr  Pr1  1  0.25000000  0.27026001  0.27025999  1
  Pr  Pr2  1  0.75000001  0.00000000  0.27026000  1
  Pr  Pr3  1  0.25000000  1.00000002  0.72973996  1
  Pr  Pr4  1  0.75000001  0.27026001  -0.00000001  1
  Pr  Pr5  1  0.25000000  0.72974002  -0.00000002  1
  Pr  Pr6  1  -0.00000000  0.66666668  0.33333331  1
  Pr  Pr7  1  1.00000002  0.33333334  0.66666665  1
  Pr  Pr8  1  0.50000001  0.33333334  0.66666665  1
  Pr  Pr9  1  0.50000001  0.66666668  0.33333331  1
  Sb  Sb10  1  0.00000000  0.00000000  0.00000000  1
  Sb  Sb11  1  0.50000001  0.00000000  -0.00000000  1
  Sb  Sb12  1  0.75000001  0.38085501  0.38085499  1
  Sb  Sb13  1  0.25000000  0.61914502  0.61914498  1
  Sb  Sb14  1  0.75000001  1.00000002  0.61914496  1
  Sb  Sb15  1  0.25000000  1.00000002  0.38085497  1
  Sb  Sb16  1  0.75000001  0.61914502  0.99999997  1
  Sb  Sb17  1  0.25000000  0.38085501  -0.00000001  1
