# generated using pymatgen
data_Na2Li4Bi4O9
_symmetry_space_group_name_H-M   'P 1'
_cell_length_a   5.63742924
_cell_length_b   5.65170717
_cell_length_c   8.63304329
_cell_angle_alpha   71.51355743
_cell_angle_beta   71.50871277
_cell_angle_gamma   80.27803040
_symmetry_Int_Tables_number   1
_chemical_formula_structural   Na2Li4Bi4O9
_chemical_formula_sum   'Na2 Li4 Bi4 O9'
_cell_volume   246.68256496
_cell_formula_units_Z   1
loop_
 _symmetry_equiv_pos_site_id
 _symmetry_equiv_pos_as_xyz
  1  'x, y, z'
loop_
 _atom_site_type_symbol
 _atom_site_label
 _atom_site_symmetry_multiplicity
 _atom_site_fract_x
 _atom_site_fract_y
 _atom_site_fract_z
 _atom_site_occupancy
  Li  Li0  1  0.63116398  0.25006101  0.94988297  1
  Li  Li1  1  0.94408699  0.73394403  0.84774397  1
  Li  Li2  1  0.05591301  0.26605601  0.15225599  1
  Li  Li3  1  0.36883602  0.74993903  0.05011698  1
  Na  Na4  1  0.44623999  0.23930701  0.34845799  1
  Na  Na5  1  0.74455100  0.74676703  0.25302198  1
  Bi  Bi6  1  0.85246797  0.24015901  0.55495599  1
  Bi  Bi7  1  0.14753203  0.75984104  0.44504396  1
  Bi  Bi8  1  0.25544900  0.25323301  0.74697797  1
  Bi  Bi9  1  0.55376001  0.76069304  0.65154197  1
  O  O10  1  0.50000000  0.50000002  0.49999998  1
  O  O11  1  0.59377002  0.99272405  0.80325096  1
  O  O12  1  0.29296601  0.49489402  0.90350296  1
  O  O13  1  0.40622998  0.00727600  0.19674900  1
  O  O14  1  0.70703399  0.50510602  0.09649700  1
  O  O15  1  0.79489101  0.99593305  0.40241397  1
  O  O16  1  0.09590802  0.49568202  0.30164498  1
  O  O17  1  0.20510899  0.00406700  0.59758598  1
  O  O18  1  0.90409198  0.50431802  0.69835498  1
