# generated using pymatgen
data_CeTe2
_symmetry_space_group_name_H-M   'P 1'
_cell_length_a   4.37198877
_cell_length_b   4.44561386
_cell_length_c   8.49428654
_cell_angle_alpha   105.16992188
_cell_angle_beta   90.00000000
_cell_angle_gamma   90.00000000
_symmetry_Int_Tables_number   1
_chemical_formula_structural   CeTe2
_chemical_formula_sum   'Ce2 Te4'
_cell_volume   159.34348017
_cell_formula_units_Z   2
loop_
 _symmetry_equiv_pos_site_id
 _symmetry_equiv_pos_as_xyz
  1  'x, y, z'
loop_
 _atom_site_type_symbol
 _atom_site_label
 _atom_site_symmetry_multiplicity
 _atom_site_fract_x
 _atom_site_fract_y
 _atom_site_fract_z
 _atom_site_occupancy
  Ce  Ce0  1  0.25000001  0.09907500  0.19815001  1
  Ce  Ce1  1  0.75000004  0.90092502  0.80185002  1
  Te  Te2  1  0.25000001  0.43678801  0.87357604  1
  Te  Te3  1  0.75000004  0.56321201  0.12642399  1
  Te  Te4  1  0.25000001  0.74903601  0.49807201  1
  Te  Te5  1  0.75000004  0.25096400  0.50192802  1
