# generated using pymatgen
data_LiI
_symmetry_space_group_name_H-M   'P 1'
_cell_length_a   4.15410376
_cell_length_b   4.15410376
_cell_length_c   7.18012238
_cell_angle_alpha   73.18525696
_cell_angle_beta   73.18525696
_cell_angle_gamma   60.00000381
_symmetry_Int_Tables_number   1
_chemical_formula_structural   LiI
_chemical_formula_sum   'Li2 I2'
_cell_volume   101.14102930
_cell_formula_units_Z   2
loop_
 _symmetry_equiv_pos_site_id
 _symmetry_equiv_pos_as_xyz
  1  'x, y, z'
loop_
 _atom_site_type_symbol
 _atom_site_label
 _atom_site_symmetry_multiplicity
 _atom_site_fract_x
 _atom_site_fract_y
 _atom_site_fract_z
 _atom_site_occupancy
  Li  Li0  1  0.50000004  0.50000001  0.49999996  1
  Li  Li1  1  0.00000000  0.00000000  0.00000000  1
  I  I2  1  0.25087302  0.25087300  0.24738098  1
  I  I3  1  0.74912706  0.74912701  0.75261894  1
