# generated using pymatgen
data_Dy4In2Cu3
_symmetry_space_group_name_H-M   'P 1'
_cell_length_a   3.66954589
_cell_length_b   7.96497393
_cell_length_c   7.96497345
_cell_angle_alpha   120.00000000
_cell_angle_beta   90.00000000
_cell_angle_gamma   90.00000000
_symmetry_Int_Tables_number   1
_chemical_formula_structural   Dy4In2Cu3
_chemical_formula_sum   'Dy4 In2 Cu3'
_cell_volume   201.60980321
_cell_formula_units_Z   1
loop_
 _symmetry_equiv_pos_site_id
 _symmetry_equiv_pos_as_xyz
  1  'x, y, z'
loop_
 _atom_site_type_symbol
 _atom_site_label
 _atom_site_symmetry_multiplicity
 _atom_site_fract_x
 _atom_site_fract_y
 _atom_site_fract_z
 _atom_site_occupancy
  Dy  Dy0  1  0.50000002  0.76429698  -0.00000005  1
  Dy  Dy1  1  0.50000002  0.23570300  0.23570298  1
  Dy  Dy2  1  0.50000002  0.00000000  0.76429698  1
  In  In3  1  -0.00000000  0.39128799  -0.00000002  1
  In  In4  1  -0.00000000  0.60871199  0.60871195  1
  Dy  Dy5  1  0.00000000  0.00000000  0.39128799  1
  Cu  Cu6  1  0.00000000  0.00000000  0.00000000  1
  Cu  Cu7  1  0.50000002  0.33333333  0.66666663  1
  Cu  Cu8  1  0.50000002  0.66666665  0.33333329  1
