# generated using pymatgen
data_CuBi2AsSe4
_symmetry_space_group_name_H-M   'P 1'
_cell_length_a   4.18310404
_cell_length_b   4.18310356
_cell_length_c   11.46073627
_cell_angle_alpha   90.00000000
_cell_angle_beta   90.00000000
_cell_angle_gamma   120.00000000
_symmetry_Int_Tables_number   1
_chemical_formula_structural   CuBi2AsSe4
_chemical_formula_sum   'Cu1 Bi2 As1 Se4'
_cell_volume   173.67625002
_cell_formula_units_Z   1
loop_
 _symmetry_equiv_pos_site_id
 _symmetry_equiv_pos_as_xyz
  1  'x, y, z'
loop_
 _atom_site_type_symbol
 _atom_site_label
 _atom_site_symmetry_multiplicity
 _atom_site_fract_x
 _atom_site_fract_y
 _atom_site_fract_z
 _atom_site_occupancy
  Bi  Bi0  1  0.00000000  0.00000000  0.18272200  1
  Bi  Bi1  1  0.00000000  0.00000000  0.81727798  1
  Cu  Cu2  1  0.66666664  0.33333334  0.41802599  1
  As  As3  1  0.33333330  0.66666668  0.58197399  1
  Se  Se4  1  0.33333330  0.66666668  0.35722599  1
  Se  Se5  1  0.66666664  0.33333334  0.64277398  1
  Se  Se6  1  0.66666664  0.33333334  0.00590000  1
  Se  Se7  1  0.33333330  0.66666668  0.99409998  1
