# generated using pymatgen
data_Cs3CuO3
_symmetry_space_group_name_H-M   'P 1'
_cell_length_a   5.78985119
_cell_length_b   6.73770189
_cell_length_c   9.99077511
_cell_angle_alpha   90.00000000
_cell_angle_beta   90.00000000
_cell_angle_gamma   98.16032410
_symmetry_Int_Tables_number   1
_chemical_formula_structural   Cs3CuO3
_chemical_formula_sum   'Cs6 Cu2 O6'
_cell_volume   385.79680575
_cell_formula_units_Z   2
loop_
 _symmetry_equiv_pos_site_id
 _symmetry_equiv_pos_as_xyz
  1  'x, y, z'
loop_
 _atom_site_type_symbol
 _atom_site_label
 _atom_site_symmetry_multiplicity
 _atom_site_fract_x
 _atom_site_fract_y
 _atom_site_fract_z
 _atom_site_occupancy
  Cs  Cs0  1  0.28589399  0.67124999  0.95150999  1
  Cs  Cs1  1  0.71410598  0.32875000  0.45151000  1
  Cs  Cs2  1  0.71410598  0.32875000  0.04849000  1
  Cs  Cs3  1  0.28589399  0.67124999  0.54848999  1
  Cs  Cs4  1  0.84041697  0.99126299  0.74999999  1
  Cs  Cs5  1  0.15958299  0.00873700  0.25000000  1
  Cu  Cu6  1  0.38774699  0.26073700  0.74999999  1
  Cu  Cu7  1  0.61225298  0.73926299  0.25000000  1
  O  O8  1  0.74918498  0.81977699  0.40946700  1
  O  O9  1  0.25081499  0.18022300  0.90946699  1
  O  O10  1  0.25081499  0.18022300  0.59053299  1
  O  O11  1  0.74918498  0.81977699  0.09053300  1
  O  O12  1  0.33459199  0.57196800  0.25000000  1
  O  O13  1  0.66540798  0.42803200  0.74999999  1
