# generated using pymatgen
data_MnTlSiO4
_symmetry_space_group_name_H-M   'P 1'
_cell_length_a   5.09332418
_cell_length_b   5.18227720
_cell_length_c   5.18227720
_cell_angle_alpha   61.39059067
_cell_angle_beta   60.80142593
_cell_angle_gamma   60.80142593
_symmetry_Int_Tables_number   1
_chemical_formula_structural   MnTlSiO4
_chemical_formula_sum   'Mn1 Tl1 Si1 O4'
_cell_volume   98.88965957
_cell_formula_units_Z   1
loop_
 _symmetry_equiv_pos_site_id
 _symmetry_equiv_pos_as_xyz
  1  'x, y, z'
loop_
 _atom_site_type_symbol
 _atom_site_label
 _atom_site_symmetry_multiplicity
 _atom_site_fract_x
 _atom_site_fract_y
 _atom_site_fract_z
 _atom_site_occupancy
  Tl  Tl0  1  0.03134700  0.98277699  0.98277698  1
  Mn  Mn1  1  0.26289500  0.25281800  0.25281800  1
  Si  Si2  1  0.51451199  0.50125599  0.50125599  1
  O  O3  1  0.44399499  0.87837999  0.37607699  1
  O  O4  1  0.88764498  0.32555600  0.32555600  1
  O  O5  1  0.44399499  0.37607700  0.87837999  1
  O  O6  1  0.27631300  0.43213499  0.43213499  1
