# generated using pymatgen
data_Eu2TeSe
_symmetry_space_group_name_H-M   'P 1'
_cell_length_a   4.84863377
_cell_length_b   4.84863377
_cell_length_c   14.48723507
_cell_angle_alpha   90.00000000
_cell_angle_beta   90.00000000
_cell_angle_gamma   120.00000000
_symmetry_Int_Tables_number   1
_chemical_formula_structural   Eu2TeSe
_chemical_formula_sum   'Eu4 Te2 Se2'
_cell_volume   294.95441547
_cell_formula_units_Z   2
loop_
 _symmetry_equiv_pos_site_id
 _symmetry_equiv_pos_as_xyz
  1  'x, y, z'
loop_
 _atom_site_type_symbol
 _atom_site_label
 _atom_site_symmetry_multiplicity
 _atom_site_fract_x
 _atom_site_fract_y
 _atom_site_fract_z
 _atom_site_occupancy
  Eu  Eu0  1  0.00000000  0.00000000  0.73154700  1
  Eu  Eu1  1  0.33333333  0.66666666  0.52966500  1
  Eu  Eu2  1  0.66666669  0.33333333  0.02966500  1
  Eu  Eu3  1  0.00000000  0.00000000  0.23154700  1
  Te  Te4  1  0.00000000  0.00000000  0.99374600  1
  Se  Se5  1  0.33333333  0.66666666  0.74504200  1
  Se  Se6  1  0.66666669  0.33333333  0.24504200  1
  Te  Te7  1  0.00000000  0.00000000  0.49374600  1
