# generated using pymatgen
data_RbPt2RhS2
_symmetry_space_group_name_H-M   'P 1'
_cell_length_a   3.89718008
_cell_length_b   7.55015087
_cell_length_c   8.29652500
_cell_angle_alpha   112.52199554
_cell_angle_beta   90.00000000
_cell_angle_gamma   104.95653534
_symmetry_Int_Tables_number   1
_chemical_formula_structural   RbPt2RhS2
_chemical_formula_sum   'Rb2 Pt4 Rh2 S4'
_cell_volume   216.52076131
_cell_formula_units_Z   2
loop_
 _symmetry_equiv_pos_site_id
 _symmetry_equiv_pos_as_xyz
  1  'x, y, z'
loop_
 _atom_site_type_symbol
 _atom_site_label
 _atom_site_symmetry_multiplicity
 _atom_site_fract_x
 _atom_site_fract_y
 _atom_site_fract_z
 _atom_site_occupancy
  Rb  Rb0  1  0.13514999  0.27030000  0.04429501  1
  Rb  Rb1  1  0.86484996  0.72970000  0.95570507  1
  Pt  Pt2  1  0.68955698  0.37911400  0.41767803  1
  Pt  Pt3  1  0.06397500  0.12795000  0.40912503  1
  Rh  Rh4  1  0.31044298  0.62088600  0.58232204  1
  Rh  Rh5  1  0.59389898  0.18779800  0.63972004  1
  Pt  Pt6  1  0.40610097  0.81220200  0.36028004  1
  Pt  Pt7  1  0.93602496  0.87205000  0.59087505  1
  S  S8  1  0.52186599  0.04373200  0.23831201  1
  S  S9  1  0.80712797  0.61425600  0.30892703  1
  S  S10  1  0.19287199  0.38574400  0.69107305  1
  S  S11  1  0.47813396  0.95626800  0.76168806  1
