# generated using pymatgen
data_TiN2
_symmetry_space_group_name_H-M   'P 1'
_cell_length_a   4.10993385
_cell_length_b   5.84834957
_cell_length_c   5.84834957
_cell_angle_alpha   118.81277466
_cell_angle_beta   90.00000000
_cell_angle_gamma   90.00000000
_symmetry_Int_Tables_number   1
_chemical_formula_structural   TiN2
_chemical_formula_sum   'Ti4 N8'
_cell_volume   123.16983366
_cell_formula_units_Z   4
loop_
 _symmetry_equiv_pos_site_id
 _symmetry_equiv_pos_as_xyz
  1  'x, y, z'
loop_
 _atom_site_type_symbol
 _atom_site_label
 _atom_site_symmetry_multiplicity
 _atom_site_fract_x
 _atom_site_fract_y
 _atom_site_fract_z
 _atom_site_occupancy
  Ti  Ti0  1  0.25000001  0.65165800  0.65165802  1
  Ti  Ti1  1  0.75000003  0.34834200  0.34834201  1
  Ti  Ti2  1  0.25000001  0.99430401  0.32502904  1
  Ti  Ti3  1  0.25000001  0.32502900  0.99430400  1
  N  N4  1  0.75000003  0.00569600  0.67497099  1
  N  N5  1  0.75000003  0.67497101  0.00569603  1
  N  N6  1  0.75000003  0.98163501  0.33679904  1
  N  N7  1  0.75000003  0.33679900  0.98163500  1
  N  N8  1  0.25000001  0.01836500  0.66320099  1
  N  N9  1  0.25000001  0.66320101  0.01836503  1
  N  N10  1  0.75000003  0.71252101  0.71252102  1
  N  N11  1  0.25000001  0.28747900  0.28747901  1
