# generated using pymatgen
data_Rb3BiO10
_symmetry_space_group_name_H-M   'P 1'
_cell_length_a   6.02337217
_cell_length_b   6.02337170
_cell_length_c   7.93865204
_cell_angle_alpha   90.00000000
_cell_angle_beta   90.00000000
_cell_angle_gamma   120.00000000
_symmetry_Int_Tables_number   1
_chemical_formula_structural   Rb3BiO10
_chemical_formula_sum   'Rb3 Bi1 O10'
_cell_volume   249.43463711
_cell_formula_units_Z   1
loop_
 _symmetry_equiv_pos_site_id
 _symmetry_equiv_pos_as_xyz
  1  'x, y, z'
loop_
 _atom_site_type_symbol
 _atom_site_label
 _atom_site_symmetry_multiplicity
 _atom_site_fract_x
 _atom_site_fract_y
 _atom_site_fract_z
 _atom_site_occupancy
  Rb  Rb0  1  0.66666664  0.33333334  0.29614600  1
  Rb  Rb1  1  0.33333331  0.66666668  0.70385400  1
  Rb  Rb2  1  0.00000000  0.00000000  0.00000000  1
  Bi  Bi3  1  0.00000000  0.00000000  0.50000000  1
  O  O4  1  0.66666664  0.33333334  0.73876100  1
  O  O5  1  0.33333331  0.66666668  0.26123900  1
  O  O6  1  0.66666664  0.33333334  0.95139300  1
  O  O7  1  0.33333331  0.66666668  0.04860700  1
  O  O8  1  0.82696697  0.65393401  0.66446700  1
  O  O9  1  0.17303299  0.34606601  0.33553300  1
  O  O10  1  0.82696697  0.17303300  0.66446700  1
  O  O11  1  0.17303298  0.82696701  0.33553300  1
  O  O12  1  0.34606599  0.17303300  0.66446700  1
  O  O13  1  0.65393397  0.82696701  0.33553300  1
