# generated using pymatgen
data_TiS2
_symmetry_space_group_name_H-M   'P 1'
_cell_length_a   3.65278697
_cell_length_b   5.94335222
_cell_length_c   12.45142460
_cell_angle_alpha   100.03414917
_cell_angle_beta   90.00000000
_cell_angle_gamma   90.00000000
_symmetry_Int_Tables_number   1
_chemical_formula_structural   TiS2
_chemical_formula_sum   'Ti6 S12'
_cell_volume   266.18317107
_cell_formula_units_Z   6
loop_
 _symmetry_equiv_pos_site_id
 _symmetry_equiv_pos_as_xyz
  1  'x, y, z'
loop_
 _atom_site_type_symbol
 _atom_site_label
 _atom_site_symmetry_multiplicity
 _atom_site_fract_x
 _atom_site_fract_y
 _atom_site_fract_z
 _atom_site_occupancy
  Ti  Ti0  1  0.25000000  0.64283802  0.63708003  1
  Ti  Ti1  1  0.75000001  0.35716201  0.36292002  1
  Ti  Ti2  1  0.25000000  0.89046203  0.42415303  1
  Ti  Ti3  1  0.75000001  0.10953800  0.57584701  1
  Ti  Ti4  1  0.25000000  0.47220202  0.22462202  1
  Ti  Ti5  1  0.75000001  0.52779802  0.77537803  1
  S  S6  1  0.75000001  0.97829703  0.14099003  1
  S  S7  1  0.25000000  0.02170300  0.85901002  1
  S  S8  1  0.25000000  0.49130702  0.92161303  1
  S  S9  1  0.75000001  0.50869302  0.07838702  1
  S  S10  1  0.25000000  0.21876601  0.04926801  1
  S  S11  1  0.75000001  0.78123403  0.95073204  1
  S  S12  1  0.25000000  0.10746000  0.27365701  1
  S  S13  1  0.75000001  0.89254003  0.72634304  1
  S  S14  1  0.25000000  0.30017901  0.50153802  1
  S  S15  1  0.75000001  0.69982102  0.49846203  1
  S  S16  1  0.25000000  0.28983501  0.73121302  1
  S  S17  1  0.75000001  0.71016502  0.26878703  1
