# generated using pymatgen
data_Ba2Ca2Bi2Cl3O5
_symmetry_space_group_name_H-M   'P 1'
_cell_length_a   6.48583794
_cell_length_b   7.10408497
_cell_length_c   6.95787096
_cell_angle_alpha   90.00000000
_cell_angle_beta   66.25148773
_cell_angle_gamma   90.00000000
_symmetry_Int_Tables_number   1
_chemical_formula_structural   Ba2Ca2Bi2Cl3O5
_chemical_formula_sum   'Ba2 Ca2 Bi2 Cl3 O5'
_cell_volume   293.44349098
_cell_formula_units_Z   1
loop_
 _symmetry_equiv_pos_site_id
 _symmetry_equiv_pos_as_xyz
  1  'x, y, z'
loop_
 _atom_site_type_symbol
 _atom_site_label
 _atom_site_symmetry_multiplicity
 _atom_site_fract_x
 _atom_site_fract_y
 _atom_site_fract_z
 _atom_site_occupancy
  Ba  Ba0  1  0.57675701  0.13598700  0.76136299  1
  Ba  Ba1  1  0.42324301  0.63598700  0.73863699  1
  Ca  Ca2  1  0.42324301  0.86401300  0.23863699  1
  Ca  Ca3  1  0.57675701  0.36401300  0.26136299  1
  Bi  Bi4  1  0.00000000  0.50000000  0.50000000  1
  Bi  Bi5  1  0.00000000  0.00000000  0.00000000  1
  Cl  Cl6  1  0.22048700  0.37413500  0.03918600  1
  Cl  Cl7  1  0.77951302  0.87413500  0.46081398  1
  Cl  Cl8  1  0.22048700  0.12586500  0.53918600  1
  O  O9  1  0.77951302  0.62586500  0.96081399  1
  O  O10  1  0.67503601  0.39608800  0.56042899  1
  O  O11  1  0.32496401  0.89608800  0.93957100  1
  O  O12  1  0.32496401  0.60391200  0.43957099  1
  O  O13  1  0.67503601  0.10391200  0.06042899  1
