# generated using pymatgen
data_Ce3Sn4
_symmetry_space_group_name_H-M   'P 1'
_cell_length_a   8.32624626
_cell_length_b   8.32624626
_cell_length_c   8.32624626
_cell_angle_alpha   71.05976105
_cell_angle_beta   70.26263428
_cell_angle_gamma   109.73736572
_symmetry_Int_Tables_number   1
_chemical_formula_structural   Ce3Sn4
_chemical_formula_sum   'Ce6 Sn8'
_cell_volume   444.32206530
_cell_formula_units_Z   2
loop_
 _symmetry_equiv_pos_site_id
 _symmetry_equiv_pos_as_xyz
  1  'x, y, z'
loop_
 _atom_site_type_symbol
 _atom_site_label
 _atom_site_symmetry_multiplicity
 _atom_site_fract_x
 _atom_site_fract_y
 _atom_site_fract_z
 _atom_site_occupancy
  Ce  Ce0  1  0.50000002  0.25000000  0.24999994  1
  Ce  Ce1  1  0.00000000  0.00000000  0.00000000  1
  Ce  Ce2  1  0.87573408  0.75073401  0.62499986  1
  Ce  Ce3  1  0.37573407  0.62500001  0.49926591  1
  Ce  Ce4  1  0.12426606  0.49926601  0.12499995  1
  Ce  Ce5  1  0.62426600  0.12500000  0.75073391  1
  Sn  Sn6  1  0.24780111  0.87291701  0.72838189  1
  Sn  Sn7  1  0.25219911  0.87511701  0.22618291  1
  Sn  Sn8  1  0.60130008  0.72838201  0.02381591  1
  Sn  Sn9  1  0.74780105  0.52161801  0.37708290  1
  Sn  Sn10  1  0.89870002  0.37708201  0.87511687  1
  Sn  Sn11  1  0.10130003  0.22618400  0.52161795  1
  Sn  Sn12  1  0.39870004  0.37488301  0.87291790  1
  Sn  Sn13  1  0.75219898  0.02381700  0.37488293  1
