# generated using pymatgen
data_Zr3B2Ir5
_symmetry_space_group_name_H-M   'P 1'
_cell_length_a   3.39401889
_cell_length_b   9.28296089
_cell_length_c   9.28296089
_cell_angle_alpha   90.00000000
_cell_angle_beta   90.00000000
_cell_angle_gamma   90.00000000
_symmetry_Int_Tables_number   1
_chemical_formula_structural   Zr3B2Ir5
_chemical_formula_sum   'Zr6 B4 Ir10'
_cell_volume   292.47402142
_cell_formula_units_Z   2
loop_
 _symmetry_equiv_pos_site_id
 _symmetry_equiv_pos_as_xyz
  1  'x, y, z'
loop_
 _atom_site_type_symbol
 _atom_site_label
 _atom_site_symmetry_multiplicity
 _atom_site_fract_x
 _atom_site_fract_y
 _atom_site_fract_z
 _atom_site_occupancy
  Zr  Zr0  1  -0.00000000  0.17587900  0.67587901  1
  Zr  Zr1  1  -0.00000000  0.32412100  0.17587900  1
  Zr  Zr2  1  1.00000003  0.82412101  0.32412100  1
  Zr  Zr3  1  0.00000000  0.50000001  0.50000001  1
  Zr  Zr4  1  0.00000000  0.67587901  0.82412101  1
  Zr  Zr5  1  0.00000000  0.00000000  0.00000000  1
  B  B6  1  1.00000003  0.38072700  0.88072701  1
  B  B7  1  1.00000003  0.11927300  0.38072700  1
  B  B8  1  -0.00000000  0.88072701  0.61927301  1
  B  B9  1  1.00000003  0.61927301  0.11927300  1
  Ir  Ir10  1  0.50000002  0.22003200  0.92737001  1
  Ir  Ir11  1  0.50000002  0.92737001  0.77996801  1
  Ir  Ir12  1  0.50000002  0.42737000  0.72003201  1
  Ir  Ir13  1  0.50000002  0.57263001  0.27996800  1
  Ir  Ir14  1  0.50000002  0.72003201  0.57263001  1
  Ir  Ir15  1  0.50000002  0.27996800  0.42737000  1
  Ir  Ir16  1  0.50000002  0.07263000  0.22003200  1
  Ir  Ir17  1  0.50000002  0.00000000  0.50000001  1
  Ir  Ir18  1  0.50000002  0.50000001  0.00000000  1
  Ir  Ir19  1  0.50000002  0.77996801  0.07263000  1
