# generated using pymatgen
data_Ho(FeSi)2
_symmetry_space_group_name_H-M   'P 1'
_cell_length_a   3.87791204
_cell_length_b   3.87791204
_cell_length_c   5.52547884
_cell_angle_alpha   110.54309845
_cell_angle_beta   110.54309845
_cell_angle_gamma   90.00000000
_symmetry_Int_Tables_number   1
_chemical_formula_structural   Ho(FeSi)2
_chemical_formula_sum   'Ho1 Fe2 Si2'
_cell_volume   72.13920464
_cell_formula_units_Z   1
loop_
 _symmetry_equiv_pos_site_id
 _symmetry_equiv_pos_as_xyz
  1  'x, y, z'
loop_
 _atom_site_type_symbol
 _atom_site_label
 _atom_site_symmetry_multiplicity
 _atom_site_fract_x
 _atom_site_fract_y
 _atom_site_fract_z
 _atom_site_occupancy
  Ho  Ho0  1  0.00000000  0.00000000  0.00000000  1
  Fe  Fe1  1  0.74999999  0.25000000  0.49999998  1
  Fe  Fe2  1  0.24999999  0.74999999  0.49999998  1
  Si  Si3  1  0.36937399  0.36937399  0.73874797  1
  Si  Si4  1  0.63062599  0.63062599  0.26125198  1
