# generated using pymatgen
data_Pr6RuBr10
_symmetry_space_group_name_H-M   'P 1'
_cell_length_a   7.75774717
_cell_length_b   9.76353931
_cell_length_c   9.80530357
_cell_angle_alpha   107.58242798
_cell_angle_beta   97.02435303
_cell_angle_gamma   105.00433350
_symmetry_Int_Tables_number   1
_chemical_formula_structural   Pr6RuBr10
_chemical_formula_sum   'Pr6 Ru1 Br10'
_cell_volume   667.44146085
_cell_formula_units_Z   1
loop_
 _symmetry_equiv_pos_site_id
 _symmetry_equiv_pos_as_xyz
  1  'x, y, z'
loop_
 _atom_site_type_symbol
 _atom_site_label
 _atom_site_symmetry_multiplicity
 _atom_site_fract_x
 _atom_site_fract_y
 _atom_site_fract_z
 _atom_site_occupancy
  Pr  Pr0  1  0.34966400  0.12656401  0.16688601  1
  Pr  Pr1  1  0.65033605  0.87343605  0.83311402  1
  Pr  Pr2  1  0.97242300  0.28345802  0.08445703  1
  Pr  Pr3  1  0.02757705  0.71654204  0.91554299  1
  Pr  Pr4  1  0.88613205  0.95984506  0.24342705  1
  Pr  Pr5  1  0.11386800  0.04015500  0.75657297  1
  Ru  Ru6  1  0.00000000  0.00000000  0.00000000  1
  Br  Br7  1  0.35682202  0.45458103  0.27335902  1
  Br  Br8  1  0.64317802  0.54541903  0.72664101  1
  Br  Br9  1  0.78946400  0.26220702  0.34987502  1
  Br  Br10  1  0.21053605  0.73779304  0.65012501  1
  Br  Br11  1  0.54748800  0.18300101  0.90914898  1
  Br  Br12  1  0.45251205  0.81699905  0.09085104  1
  Br  Br13  1  0.73755505  0.91138405  0.53787003  1
  Br  Br14  1  0.26244500  0.08861601  0.46212999  1
  Br  Br15  1  0.91337403  0.63013204  0.17978004  1
  Br  Br16  1  0.08662602  0.36986802  0.82021998  1
