# generated using pymatgen
data_LiLaBe2O6
_symmetry_space_group_name_H-M   'P 1'
_cell_length_a   5.05157804
_cell_length_b   5.47000980
_cell_length_c   7.32920504
_cell_angle_alpha   90.00000000
_cell_angle_beta   90.00000000
_cell_angle_gamma   90.00000000
_symmetry_Int_Tables_number   1
_chemical_formula_structural   LiLaBe2O6
_chemical_formula_sum   'Li2 La2 Be4 O12'
_cell_volume   202.52192330
_cell_formula_units_Z   2
loop_
 _symmetry_equiv_pos_site_id
 _symmetry_equiv_pos_as_xyz
  1  'x, y, z'
loop_
 _atom_site_type_symbol
 _atom_site_label
 _atom_site_symmetry_multiplicity
 _atom_site_fract_x
 _atom_site_fract_y
 _atom_site_fract_z
 _atom_site_occupancy
  La  La0  1  0.50000000  0.70169903  0.50157400  1
  La  La1  1  -0.00000000  0.29830101  0.00157400  1
  Li  Li2  1  0.50000000  0.18173901  0.72334500  1
  Li  Li3  1  -0.00000000  0.81826103  0.22334500  1
  Be  Be4  1  0.50000000  0.55094102  0.12199900  1
  Be  Be5  1  -0.00000000  0.44905902  0.62199900  1
  Be  Be6  1  0.50000000  0.00701900  0.10408800  1
  Be  Be7  1  0.00000000  0.99298104  0.60408800  1
  O  O8  1  0.25595700  0.77131203  0.87904400  1
  O  O9  1  0.74404299  0.77131203  0.87904400  1
  O  O10  1  0.24404300  0.22868801  0.37904400  1
  O  O11  1  0.75595699  0.22868801  0.37904400  1
  O  O12  1  0.24844600  0.49027402  0.25777300  1
  O  O13  1  0.75155399  0.49027402  0.25777300  1
  O  O14  1  0.25155400  0.50972602  0.75777300  1
  O  O15  1  0.74844599  0.50972602  0.75777300  1
  O  O16  1  0.50000000  0.27866201  0.01150000  1
  O  O17  1  -0.00000000  0.72133803  0.51150000  1
  O  O18  1  0.50000000  0.06168400  0.32416200  1
  O  O19  1  -0.00000000  0.93831603  0.82416200  1
