# generated using pymatgen
data_Ho(FeGe)2
_symmetry_space_group_name_H-M   'P 1'
_cell_length_a   4.10652208
_cell_length_b   4.10652208
_cell_length_c   5.72383928
_cell_angle_alpha   111.02166748
_cell_angle_beta   111.02166748
_cell_angle_gamma   90.00000000
_symmetry_Int_Tables_number   1
_chemical_formula_structural   Ho(FeGe)2
_chemical_formula_sum   'Ho1 Fe2 Ge2'
_cell_volume   83.18106823
_cell_formula_units_Z   1
loop_
 _symmetry_equiv_pos_site_id
 _symmetry_equiv_pos_as_xyz
  1  'x, y, z'
loop_
 _atom_site_type_symbol
 _atom_site_label
 _atom_site_symmetry_multiplicity
 _atom_site_fract_x
 _atom_site_fract_y
 _atom_site_fract_z
 _atom_site_occupancy
  Ho  Ho0  1  0.00000000  0.00000000  0.00000000  1
  Fe  Fe1  1  0.75000000  0.25000000  0.50000000  1
  Fe  Fe2  1  0.25000001  0.74999999  0.50000001  1
  Ge  Ge3  1  0.62143901  0.62143900  0.24287802  1
  Ge  Ge4  1  0.37856100  0.37856100  0.75712199  1
