# generated using pymatgen
data_Sr4In3
_symmetry_space_group_name_H-M   'P 1'
_cell_length_a   8.57218647
_cell_length_b   8.57218647
_cell_length_c   8.57218647
_cell_angle_alpha   70.70622253
_cell_angle_beta   70.43998718
_cell_angle_gamma   109.56001282
_symmetry_Int_Tables_number   1
_chemical_formula_structural   Sr4In3
_chemical_formula_sum   'Sr8 In6'
_cell_volume   484.89738142
_cell_formula_units_Z   2
loop_
 _symmetry_equiv_pos_site_id
 _symmetry_equiv_pos_as_xyz
  1  'x, y, z'
loop_
 _atom_site_type_symbol
 _atom_site_label
 _atom_site_symmetry_multiplicity
 _atom_site_fract_x
 _atom_site_fract_y
 _atom_site_fract_z
 _atom_site_occupancy
  Sr  Sr0  1  0.25071292  0.87659592  0.72993103  1
  Sr  Sr1  1  0.74928696  0.01935600  0.37411700  1
  Sr  Sr2  1  0.10652698  0.23064398  0.52006899  1
  Sr  Sr3  1  0.89347292  0.37340397  0.87588301  1
  Sr  Sr4  1  0.75071292  0.52006895  0.37340404  1
  Sr  Sr5  1  0.24928692  0.87588292  0.23064405  1
  Sr  Sr6  1  0.60652691  0.72993093  0.01935606  1
  Sr  Sr7  1  0.39347295  0.37411697  0.87659599  1
  In  In8  1  0.62553696  0.12499999  0.74946299  1
  In  In9  1  0.37446293  0.62499994  0.50053703  1
  In  In10  1  0.87446290  0.74946293  0.62500004  1
  In  In11  1  0.12553696  0.50053695  0.12500003  1
  In  In12  1  0.49999995  0.24999998  0.25000002  1
  In  In13  1  0.00000000  0.00000000  0.00000000  1
