# generated using pymatgen
data_VCuF6
_symmetry_space_group_name_H-M   'P 1'
_cell_length_a   5.24551630
_cell_length_b   5.24551630
_cell_length_c   5.39765739
_cell_angle_alpha   60.92810059
_cell_angle_beta   60.92810059
_cell_angle_gamma   59.99999619
_symmetry_Int_Tables_number   1
_chemical_formula_structural   VCuF6
_chemical_formula_sum   'V1 Cu1 F6'
_cell_volume   106.46793007
_cell_formula_units_Z   1
loop_
 _symmetry_equiv_pos_site_id
 _symmetry_equiv_pos_as_xyz
  1  'x, y, z'
loop_
 _atom_site_type_symbol
 _atom_site_label
 _atom_site_symmetry_multiplicity
 _atom_site_fract_x
 _atom_site_fract_y
 _atom_site_fract_z
 _atom_site_occupancy
  V  V0  1  0.50000001  0.50000000  0.50000000  1
  Cu  Cu1  1  0.00000000  0.00000000  0.00000000  1
  F  F2  1  0.67427001  0.23824100  0.24114600  1
  F  F3  1  0.84634301  0.67427000  0.24114600  1
  F  F4  1  0.76175901  0.15365700  0.75885400  1
  F  F5  1  0.15365700  0.32573000  0.75885400  1
  F  F6  1  0.32573001  0.76175900  0.75885400  1
  F  F7  1  0.23824101  0.84634300  0.24114600  1
