# generated using pymatgen
data_MgZn2CuO6
_symmetry_space_group_name_H-M   'P 1'
_cell_length_a   5.14041424
_cell_length_b   5.14041424
_cell_length_c   5.42687225
_cell_angle_alpha   61.73127747
_cell_angle_beta   61.73127747
_cell_angle_gamma   59.99999237
_symmetry_Int_Tables_number   1
_chemical_formula_structural   MgZn2CuO6
_chemical_formula_sum   'Mg1 Zn2 Cu1 O6'
_cell_volume   103.97121556
_cell_formula_units_Z   1
loop_
 _symmetry_equiv_pos_site_id
 _symmetry_equiv_pos_as_xyz
  1  'x, y, z'
loop_
 _atom_site_type_symbol
 _atom_site_label
 _atom_site_symmetry_multiplicity
 _atom_site_fract_x
 _atom_site_fract_y
 _atom_site_fract_z
 _atom_site_occupancy
  Mg  Mg0  1  0.21785501  0.21785501  0.34643497  1
  Zn  Zn1  1  0.71785504  0.71785505  0.84643492  1
  Zn  Zn2  1  0.50273703  0.50273703  0.49178895  1
  Cu  Cu3  1  0.00273700  0.00273700  0.99178896  1
  O  O4  1  0.64075703  0.86742006  0.23159194  1
  O  O5  1  0.86742005  0.26023102  0.23159195  1
  O  O6  1  0.76023104  0.36742002  0.73159194  1
  O  O7  1  0.36742002  0.14075701  0.73159196  1
  O  O8  1  0.14075700  0.76023105  0.73159195  1
  O  O9  1  0.26023101  0.64075704  0.23159196  1
