# generated using pymatgen
data_Li2FeO4
_symmetry_space_group_name_H-M   'P 1'
_cell_length_a   5.56375217
_cell_length_b   5.76456976
_cell_length_c   8.81328487
_cell_angle_alpha   83.07431030
_cell_angle_beta   73.02047729
_cell_angle_gamma   65.75508881
_symmetry_Int_Tables_number   1
_chemical_formula_structural   Li2FeO4
_chemical_formula_sum   'Li4 Fe2 O8'
_cell_volume   246.49889697
_cell_formula_units_Z   2
loop_
 _symmetry_equiv_pos_site_id
 _symmetry_equiv_pos_as_xyz
  1  'x, y, z'
loop_
 _atom_site_type_symbol
 _atom_site_label
 _atom_site_symmetry_multiplicity
 _atom_site_fract_x
 _atom_site_fract_y
 _atom_site_fract_z
 _atom_site_occupancy
  Li  Li0  1  0.59698004  0.72001698  0.14524700  1
  Li  Li1  1  0.77196699  0.24629499  0.43725101  1
  Li  Li2  1  0.22803305  0.75370498  0.56274898  1
  Li  Li3  1  0.40302001  0.27998299  0.85475299  1
  Fe  Fe4  1  0.29714201  0.29602899  0.25419800  1
  Fe  Fe5  1  0.70285803  0.70397098  0.74580199  1
  O  O6  1  0.54140999  0.18360299  0.08894501  1
  O  O7  1  0.99764500  0.46332799  0.21538101  1
  O  O8  1  0.26942699  0.04900700  0.36797500  1
  O  O9  1  0.38303502  0.47617799  0.34712699  1
  O  O10  1  0.61696502  0.52382198  0.65287299  1
  O  O11  1  0.73057305  0.95099297  0.63202499  1
  O  O12  1  0.00235505  0.53667198  0.78461898  1
  O  O13  1  0.45859005  0.81639697  0.91105498  1
