# generated using pymatgen
data_CsCuS2
_symmetry_space_group_name_H-M   'P 1'
_cell_length_a   5.63660574
_cell_length_b   7.17751884
_cell_length_c   7.17751884
_cell_angle_alpha   116.67070770
_cell_angle_beta   101.26428986
_cell_angle_gamma   101.26428986
_symmetry_Int_Tables_number   1
_chemical_formula_structural   CsCuS2
_chemical_formula_sum   'Cs2 Cu2 S4'
_cell_volume   240.85034773
_cell_formula_units_Z   2
loop_
 _symmetry_equiv_pos_site_id
 _symmetry_equiv_pos_as_xyz
  1  'x, y, z'
loop_
 _atom_site_type_symbol
 _atom_site_label
 _atom_site_symmetry_multiplicity
 _atom_site_fract_x
 _atom_site_fract_y
 _atom_site_fract_z
 _atom_site_occupancy
  Cs  Cs0  1  0.74999997  0.85949002  0.14050999  1
  Cs  Cs1  1  0.25000000  0.14051000  0.85949002  1
  Cu  Cu2  1  0.74999998  0.49834201  0.50165800  1
  Cu  Cu3  1  0.24999998  0.50165801  0.49834201  1
  S  S4  1  0.90528099  0.42131501  0.20443599  1
  S  S5  1  0.59471897  0.79556402  0.57868501  1
  S  S6  1  0.09471898  0.57868501  0.79556402  1
  S  S7  1  0.40528099  0.20443600  0.42131501  1
