# generated using pymatgen
data_Ho10MgNi7Sn2
_symmetry_space_group_name_H-M   'P 1'
_cell_length_a   6.87561798
_cell_length_b   7.58794689
_cell_length_c   7.58794689
_cell_angle_alpha   90.00000000
_cell_angle_beta   90.00000000
_cell_angle_gamma   90.00000000
_symmetry_Int_Tables_number   1
_chemical_formula_structural   Ho10MgNi7Sn2
_chemical_formula_sum   'Ho10 Mg1 Ni7 Sn2'
_cell_volume   395.87703043
_cell_formula_units_Z   1
loop_
 _symmetry_equiv_pos_site_id
 _symmetry_equiv_pos_as_xyz
  1  'x, y, z'
loop_
 _atom_site_type_symbol
 _atom_site_label
 _atom_site_symmetry_multiplicity
 _atom_site_fract_x
 _atom_site_fract_y
 _atom_site_fract_z
 _atom_site_occupancy
  Ho  Ho0  1  0.00000000  0.34485900  0.34485900  1
  Ho  Ho1  1  0.50000000  0.84485901  0.15514100  1
  Ho  Ho2  1  0.50000000  0.15514100  0.84485901  1
  Ho  Ho3  1  0.00000000  0.65514101  0.65514101  1
  Ho  Ho4  1  0.00000000  0.79786701  0.20213300  1
  Ho  Ho5  1  0.50000000  0.70213301  0.70213301  1
  Ho  Ho6  1  0.50000000  0.29786700  0.29786700  1
  Ho  Ho7  1  0.00000000  0.20213300  0.79786701  1
  Ho  Ho8  1  0.25000000  0.50000001  0.00000000  1
  Ho  Ho9  1  0.75000000  0.50000001  -0.00000000  1
  Ni  Ni10  1  0.25000000  0.00000000  0.50000001  1
  Mg  Mg11  1  0.75000000  0.00000000  0.50000001  1
  Ni  Ni12  1  0.20999700  0.12123200  0.12123200  1
  Ni  Ni13  1  0.70999700  0.62123201  0.37876801  1
  Ni  Ni14  1  0.70999700  0.37876801  0.62123201  1
  Ni  Ni15  1  0.20999700  0.87876801  0.87876801  1
  Sn  Sn16  1  0.29000300  0.37876801  0.62123201  1
  Ni  Ni17  1  0.29000300  0.62123201  0.37876801  1
  Ni  Ni18  1  0.79000300  0.12123200  0.12123200  1
  Sn  Sn19  1  0.79000300  0.87876801  0.87876801  1
