# generated using pymatgen
data_Zr3Fe2Si3
_symmetry_space_group_name_H-M   'P 1'
_cell_length_a   5.19658518
_cell_length_b   7.56019592
_cell_length_c   7.56019688
_cell_angle_alpha   119.99999237
_cell_angle_beta   90.00000000
_cell_angle_gamma   90.00000000
_symmetry_Int_Tables_number   1
_chemical_formula_structural   Zr3Fe2Si3
_chemical_formula_sum   'Zr6 Fe4 Si6'
_cell_volume   257.22600397
_cell_formula_units_Z   2
loop_
 _symmetry_equiv_pos_site_id
 _symmetry_equiv_pos_as_xyz
  1  'x, y, z'
loop_
 _atom_site_type_symbol
 _atom_site_label
 _atom_site_symmetry_multiplicity
 _atom_site_fract_x
 _atom_site_fract_y
 _atom_site_fract_z
 _atom_site_occupancy
  Zr  Zr0  1  0.74999997  0.74466898  0.99999998  1
  Zr  Zr1  1  0.24999999  0.25533099  -0.00000002  1
  Zr  Zr2  1  0.74999997  0.25533099  0.25533099  1
  Zr  Zr3  1  0.24999999  0.74466898  0.74466897  1
  Zr  Zr4  1  0.74999997  0.99999998  0.74466895  1
  Zr  Zr5  1  0.24999999  0.99999998  0.25533094  1
  Fe  Fe6  1  -0.00000000  0.33333333  0.66666666  1
  Fe  Fe7  1  -0.00000000  0.66666665  0.33333330  1
  Fe  Fe8  1  0.49999998  0.66666665  0.33333330  1
  Fe  Fe9  1  0.49999998  0.33333333  0.66666666  1
  Si  Si10  1  0.74999997  0.38510699  -0.00000002  1
  Si  Si11  1  0.24999999  0.61489299  -0.00000004  1
  Si  Si12  1  0.74999997  0.61489299  0.61489298  1
  Si  Si13  1  0.24999999  0.38510699  0.38510698  1
  Si  Si14  1  0.74999997  0.99999998  0.38510695  1
  Si  Si15  1  0.24999999  0.99999998  0.61489295  1
