# generated using pymatgen
data_BiF3
_symmetry_space_group_name_H-M   'P 1'
_cell_length_a   5.26246309
_cell_length_b   6.05427504
_cell_length_c   7.55283213
_cell_angle_alpha   90.00000000
_cell_angle_beta   90.00000000
_cell_angle_gamma   90.00000000
_symmetry_Int_Tables_number   1
_chemical_formula_structural   BiF3
_chemical_formula_sum   'Bi4 F12'
_cell_volume   240.63624460
_cell_formula_units_Z   4
loop_
 _symmetry_equiv_pos_site_id
 _symmetry_equiv_pos_as_xyz
  1  'x, y, z'
loop_
 _atom_site_type_symbol
 _atom_site_label
 _atom_site_symmetry_multiplicity
 _atom_site_fract_x
 _atom_site_fract_y
 _atom_site_fract_z
 _atom_site_occupancy
  Bi  Bi0  1  0.45741999  0.88162799  0.25000000  1
  Bi  Bi1  1  0.95741998  0.61837200  0.74999999  1
  Bi  Bi2  1  0.04258000  0.38162800  0.25000000  1
  Bi  Bi3  1  0.54257999  0.11837200  0.74999999  1
  F  F4  1  0.86866998  0.02776600  0.25000000  1
  F  F5  1  0.36866999  0.47223400  0.74999999  1
  F  F6  1  0.63132999  0.52776600  0.25000000  1
  F  F7  1  0.13133000  0.97223399  0.74999999  1
  F  F8  1  0.33695299  0.17479800  0.06313300  1
  F  F9  1  0.83695299  0.32520200  0.93686698  1
  F  F10  1  0.16304700  0.67479800  0.43686699  1
  F  F11  1  0.66304699  0.82520200  0.56313299  1
  F  F12  1  0.66304699  0.82520200  0.93686698  1
  F  F13  1  0.16304700  0.67479800  0.06313300  1
  F  F14  1  0.83695299  0.32520200  0.56313299  1
  F  F15  1  0.33695299  0.17479800  0.43686699  1
