# generated using pymatgen
data_La2TaMoN4
_symmetry_space_group_name_H-M   'P 1'
_cell_length_a   3.65433168
_cell_length_b   3.65433168
_cell_length_c   9.85944653
_cell_angle_alpha   79.32012177
_cell_angle_beta   79.32012177
_cell_angle_gamma   60.00000381
_symmetry_Int_Tables_number   1
_chemical_formula_structural   La2TaMoN4
_chemical_formula_sum   'La2 Ta1 Mo1 N4'
_cell_volume   111.38343764
_cell_formula_units_Z   1
loop_
 _symmetry_equiv_pos_site_id
 _symmetry_equiv_pos_as_xyz
  1  'x, y, z'
loop_
 _atom_site_type_symbol
 _atom_site_label
 _atom_site_symmetry_multiplicity
 _atom_site_fract_x
 _atom_site_fract_y
 _atom_site_fract_z
 _atom_site_occupancy
  La  La0  1  0.50000001  0.50000001  0.50000000  1
  La  La1  1  0.93297703  0.93297703  0.20106901  1
  Ta  Ta2  1  0.06702300  0.06702300  0.79893098  1
  Mo  Mo3  1  0.67453902  0.67453902  0.97638299  1
  N  N4  1  0.32546101  0.32546101  0.02361700  1
  N  N5  1  0.00000000  0.00000000  0.00000000  1
  N  N6  1  0.21816301  0.21816301  0.34551100  1
  N  N7  1  0.78183702  0.78183702  0.65448900  1
