# generated using pymatgen
data_Ho2Ga3Co
_symmetry_space_group_name_H-M   'P 1'
_cell_length_a   5.49280596
_cell_length_b   5.49280548
_cell_length_c   8.51981640
_cell_angle_alpha   90.00000000
_cell_angle_beta   90.00000000
_cell_angle_gamma   120.00000000
_symmetry_Int_Tables_number   1
_chemical_formula_structural   Ho2Ga3Co
_chemical_formula_sum   'Ho4 Ga6 Co2'
_cell_volume   222.61239605
_cell_formula_units_Z   2
loop_
 _symmetry_equiv_pos_site_id
 _symmetry_equiv_pos_as_xyz
  1  'x, y, z'
loop_
 _atom_site_type_symbol
 _atom_site_label
 _atom_site_symmetry_multiplicity
 _atom_site_fract_x
 _atom_site_fract_y
 _atom_site_fract_z
 _atom_site_occupancy
  Ho  Ho0  1  0.66666665  0.33333333  0.55574597  1
  Ho  Ho1  1  0.33333330  0.66666666  0.05574600  1
  Ho  Ho2  1  0.33333330  0.66666666  0.44425398  1
  Ho  Ho3  1  0.66666665  0.33333333  0.94425396  1
  Ga  Ga4  1  0.67717496  0.83858699  0.74999996  1
  Ga  Ga5  1  0.83858797  0.67717599  0.24999999  1
  Ga  Ga6  1  0.83858800  0.16141300  0.24999999  1
  Ga  Ga7  1  0.16141195  0.83858699  0.74999996  1
  Ga  Ga8  1  0.32282499  0.16141300  0.24999999  1
  Ga  Ga9  1  0.16141198  0.32282399  0.74999996  1
  Co  Co10  1  0.00000000  0.00000000  0.00000000  1
  Co  Co11  1  0.00000000  0.00000000  0.49999998  1
