# generated using pymatgen
data_KGdRe2O5
_symmetry_space_group_name_H-M   'P 1'
_cell_length_a   5.51489305
_cell_length_b   5.51491547
_cell_length_c   8.74081135
_cell_angle_alpha   108.28860474
_cell_angle_beta   108.28825378
_cell_angle_gamma   90.24902344
_symmetry_Int_Tables_number   1
_chemical_formula_structural   KGdRe2O5
_chemical_formula_sum   'K2 Gd2 Re4 O10'
_cell_volume   238.10281464
_cell_formula_units_Z   2
loop_
 _symmetry_equiv_pos_site_id
 _symmetry_equiv_pos_as_xyz
  1  'x, y, z'
loop_
 _atom_site_type_symbol
 _atom_site_label
 _atom_site_symmetry_multiplicity
 _atom_site_fract_x
 _atom_site_fract_y
 _atom_site_fract_z
 _atom_site_occupancy
  K  K0  1  0.99480499  0.99482505  0.98967805  1
  K  K1  1  0.49482499  0.49481102  0.98968104  1
  Gd  Gd2  1  0.72971699  0.72972203  0.45935702  1
  Gd  Gd3  1  0.22972100  0.22970801  0.45935702  1
  Re  Re4  1  0.84938799  0.34940402  0.69898302  1
  Re  Re5  1  0.34978099  0.84978704  0.69981504  1
  Re  Re6  1  0.62030199  0.12031301  0.24073000  1
  Re  Re7  1  0.12325000  0.62324503  0.24654602  1
  O  O8  1  0.97582499  0.47582702  0.95111803  1
  O  O9  1  0.47678899  0.97678605  0.95296705  1
  O  O10  1  0.07125200  0.57125203  0.64333703  1
  O  O11  1  0.57210499  0.07210100  0.64338502  1
  O  O12  1  0.57140099  0.56998203  0.64160203  1
  O  O13  1  0.06998200  0.07140400  0.64160202  1
  O  O14  1  0.38891299  0.88890904  0.27999403  1
  O  O15  1  0.89098699  0.39098102  0.28001601  1
  O  O16  1  0.38841399  0.39045802  0.27883401  1
  O  O17  1  0.89046099  0.88841304  0.27883402  1
