# generated using pymatgen
data_CeAu2
_symmetry_space_group_name_H-M   'P 1'
_cell_length_a   4.75247622
_cell_length_b   4.75247669
_cell_length_c   7.59013319
_cell_angle_alpha   90.00000000
_cell_angle_beta   90.00000000
_cell_angle_gamma   119.99999237
_symmetry_Int_Tables_number   1
_chemical_formula_structural   CeAu2
_chemical_formula_sum   'Ce2 Au4'
_cell_volume   148.46360763
_cell_formula_units_Z   2
loop_
 _symmetry_equiv_pos_site_id
 _symmetry_equiv_pos_as_xyz
  1  'x, y, z'
loop_
 _atom_site_type_symbol
 _atom_site_label
 _atom_site_symmetry_multiplicity
 _atom_site_fract_x
 _atom_site_fract_y
 _atom_site_fract_z
 _atom_site_occupancy
  Ce  Ce0  1  0.66666663  0.33333334  0.27582699  1
  Ce  Ce1  1  0.66666663  0.33333334  0.73645798  1
  Au  Au2  1  0.00000000  0.00000000  0.51584499  1
  Au  Au3  1  0.00000000  0.00000000  0.94882098  1
  Au  Au4  1  0.33333330  0.66666669  0.06459300  1
  Au  Au5  1  0.33333330  0.66666669  0.45845599  1
