# generated using pymatgen
data_Li6FeCo3O10
_symmetry_space_group_name_H-M   'P 1'
_cell_length_a   5.01866007
_cell_length_b   5.89205456
_cell_length_c   6.60352135
_cell_angle_alpha   103.49887848
_cell_angle_beta   97.42710876
_cell_angle_gamma   106.84673309
_symmetry_Int_Tables_number   1
_chemical_formula_structural   Li6FeCo3O10
_chemical_formula_sum   'Li6 Fe1 Co3 O10'
_cell_volume   177.60999582
_cell_formula_units_Z   1
loop_
 _symmetry_equiv_pos_site_id
 _symmetry_equiv_pos_as_xyz
  1  'x, y, z'
loop_
 _atom_site_type_symbol
 _atom_site_label
 _atom_site_symmetry_multiplicity
 _atom_site_fract_x
 _atom_site_fract_y
 _atom_site_fract_z
 _atom_site_occupancy
  Li  Li0  1  0.19427805  0.89821003  0.40441002  1
  Li  Li1  1  0.99933701  0.49747202  0.99433100  1
  Li  Li2  1  0.40276201  0.30280601  0.79510801  1
  Li  Li3  1  0.60528403  0.69722703  0.20511100  1
  Li  Li4  1  0.79420199  0.10310300  0.59750599  1
  Li  Li5  1  0.79753902  0.59784902  0.60043100  1
  Fe  Fe6  1  0.99944604  0.99728404  0.99617901  1
  Co  Co7  1  0.39686104  0.79552303  0.79490702  1
  Co  Co8  1  0.61411400  0.21842101  0.21193099  1
  Co  Co9  1  0.21134202  0.40220702  0.41020101  1
  O  O10  1  0.29523504  0.86465603  0.08003401  1
  O  O11  1  0.12456302  0.47265102  0.70352402  1
  O  O12  1  0.48311101  0.25097301  0.48539900  1
  O  O13  1  0.69870603  0.68007703  0.90284301  1
  O  O14  1  0.90085399  0.04954000  0.27943498  1
  O  O15  1  0.11375405  0.94653304  0.72554603  1
  O  O16  1  0.89654001  0.52442502  0.29362399  1
  O  O17  1  0.28677001  0.32633601  0.10115200  1
  O  O18  1  0.48151103  0.75025703  0.51803901  1
  O  O19  1  0.70379099  0.12445000  0.90028800  1
