# generated using pymatgen
data_Mn15Be4
_symmetry_space_group_name_H-M   'P 1'
_cell_length_a   5.56194973
_cell_length_b   5.56194973
_cell_length_c   5.56194925
_cell_angle_alpha   83.13461304
_cell_angle_beta   83.13461304
_cell_angle_gamma   83.13460541
_symmetry_Int_Tables_number   1
_chemical_formula_structural   Mn15Be4
_chemical_formula_sum   'Mn15 Be4'
_cell_volume   168.63233557
_cell_formula_units_Z   1
loop_
 _symmetry_equiv_pos_site_id
 _symmetry_equiv_pos_as_xyz
  1  'x, y, z'
loop_
 _atom_site_type_symbol
 _atom_site_label
 _atom_site_symmetry_multiplicity
 _atom_site_fract_x
 _atom_site_fract_y
 _atom_site_fract_z
 _atom_site_occupancy
  Mn  Mn0  1  0.59891799  0.59891799  0.59891800  1
  Mn  Mn1  1  0.40108200  0.40108199  0.40108200  1
  Mn  Mn2  1  0.50000000  0.49999999  -0.00000001  1
  Mn  Mn3  1  0.00000000  0.49999999  0.50000000  1
  Mn  Mn4  1  0.50000000  0.99999999  0.49999999  1
  Mn  Mn5  1  0.20632900  0.49999999  0.79367100  1
  Mn  Mn6  1  0.79367099  0.20632900  0.50000000  1
  Mn  Mn7  1  0.50000000  0.79367099  0.20632899  1
  Mn  Mn8  1  0.79367099  0.49999999  0.20632899  1
  Mn  Mn9  1  0.20632900  0.79367099  0.50000000  1
  Mn  Mn10  1  0.49999999  0.20632900  0.79367101  1
  Mn  Mn11  1  0.84673299  0.33950900  0.84673300  1
  Mn  Mn12  1  0.84673299  0.84673299  0.33950899  1
  Mn  Mn13  1  0.33950900  0.84673299  0.84673300  1
  Be  Be14  1  0.66049099  0.15326700  0.15326699  1
  Be  Be15  1  0.15326700  0.66049099  0.15326699  1
  Be  Be16  1  0.15326700  0.15326700  0.66049101  1
  Mn  Mn17  1  0.84111699  0.84111699  0.84111700  1
  Be  Be18  1  0.15888300  0.15888300  0.15888300  1
