# generated using pymatgen
data_TlPb2Br7
_symmetry_space_group_name_H-M   'P 1'
_cell_length_a   4.12453985
_cell_length_b   7.17073202
_cell_length_c   9.26082325
_cell_angle_alpha   75.16351318
_cell_angle_beta   77.13306427
_cell_angle_gamma   73.28594971
_symmetry_Int_Tables_number   1
_chemical_formula_structural   TlPb2Br7
_chemical_formula_sum   'Tl1 Pb2 Br7'
_cell_volume   250.27279211
_cell_formula_units_Z   1
loop_
 _symmetry_equiv_pos_site_id
 _symmetry_equiv_pos_as_xyz
  1  'x, y, z'
loop_
 _atom_site_type_symbol
 _atom_site_label
 _atom_site_symmetry_multiplicity
 _atom_site_fract_x
 _atom_site_fract_y
 _atom_site_fract_z
 _atom_site_occupancy
  Tl  Tl0  1  0.00000000  0.00000000  0.00000000  1
  Pb  Pb1  1  0.59963805  0.20307500  0.59764901  1
  Pb  Pb2  1  0.19895406  0.39819800  0.20389400  1
  Br  Br3  1  0.80104611  0.60180201  0.79610601  1
  Br  Br4  1  0.40036212  0.79692501  0.40235100  1
  Br  Br5  1  0.20763413  0.89719101  0.68754101  1
  Br  Br6  1  0.79236605  0.10280900  0.31245900  1
  Br  Br7  1  0.39121706  0.32749100  0.89007503  1
  Br  Br8  1  0.00000007  0.50000001  0.50000001  1
  Br  Br9  1  0.60878311  0.67250901  0.10992499  1
