# generated using pymatgen
data_CrP3
_symmetry_space_group_name_H-M   'P 1'
_cell_length_a   3.32024407
_cell_length_b   5.35205507
_cell_length_c   5.96955681
_cell_angle_alpha   90.00000000
_cell_angle_beta   90.00000000
_cell_angle_gamma   90.00000000
_symmetry_Int_Tables_number   1
_chemical_formula_structural   CrP3
_chemical_formula_sum   'Cr2 P6'
_cell_volume   106.07979539
_cell_formula_units_Z   2
loop_
 _symmetry_equiv_pos_site_id
 _symmetry_equiv_pos_as_xyz
  1  'x, y, z'
loop_
 _atom_site_type_symbol
 _atom_site_label
 _atom_site_symmetry_multiplicity
 _atom_site_fract_x
 _atom_site_fract_y
 _atom_site_fract_z
 _atom_site_occupancy
  Cr  Cr0  1  0.49999999  0.49389699  0.05108900  1
  Cr  Cr1  1  0.49999999  0.99389699  0.94891103  1
  P  P2  1  0.00000000  0.49669999  0.43602301  1
  P  P3  1  0.00000000  0.99669999  0.56397702  1
  P  P4  1  0.49999999  0.31030000  0.67426002  1
  P  P5  1  0.49999999  0.81029999  0.32574001  1
  P  P6  1  0.00000000  0.69910399  0.83224403  1
  P  P7  1  -0.00000000  0.19910400  0.16775601  1
