# generated using pymatgen
data_DyNi12
_symmetry_space_group_name_H-M   'P 1'
_cell_length_a   4.68032598
_cell_length_b   6.35838413
_cell_length_c   6.35838413
_cell_angle_alpha   81.87420654
_cell_angle_beta   68.40498352
_cell_angle_gamma   68.40498352
_symmetry_Int_Tables_number   1
_chemical_formula_structural   DyNi12
_chemical_formula_sum   'Dy1 Ni12'
_cell_volume   163.58616445
_cell_formula_units_Z   1
loop_
 _symmetry_equiv_pos_site_id
 _symmetry_equiv_pos_as_xyz
  1  'x, y, z'
loop_
 _atom_site_type_symbol
 _atom_site_label
 _atom_site_symmetry_multiplicity
 _atom_site_fract_x
 _atom_site_fract_y
 _atom_site_fract_z
 _atom_site_occupancy
  Dy  Dy0  1  0.99999995  0.99298804  0.00701203  1
  Ni  Ni1  1  -0.00000003  0.36935901  0.63064104  1
  Ni  Ni2  1  0.49999995  0.77003703  0.22996304  1
  Ni  Ni3  1  0.49999999  0.22305401  0.77694602  1
  Ni  Ni4  1  0.72292996  0.77855603  0.77558505  1
  Ni  Ni5  1  0.27707099  0.22441501  0.22144401  1
  Ni  Ni6  1  0.00125693  0.99465704  0.49837607  1
  Ni  Ni7  1  0.50570994  0.99465704  0.49837606  1
  Ni  Ni8  1  0.49428997  0.50162402  0.00534302  1
  Ni  Ni9  1  0.99874298  0.50162402  0.00534301  1
  Ni  Ni10  1  -0.00000004  0.64562203  0.35437805  1
  Ni  Ni11  1  0.64024298  0.36146101  0.35805402  1
  Ni  Ni12  1  0.35975796  0.64194603  0.63853905  1
