# generated using pymatgen
data_LaYSb2
_symmetry_space_group_name_H-M   'P 1'
_cell_length_a   6.70867825
_cell_length_b   6.70867825
_cell_length_c   10.72305965
_cell_angle_alpha   90.00000000
_cell_angle_beta   90.00000000
_cell_angle_gamma   102.46769714
_symmetry_Int_Tables_number   1
_chemical_formula_structural   LaYSb2
_chemical_formula_sum   'La4 Y4 Sb8'
_cell_volume   471.22505244
_cell_formula_units_Z   4
loop_
 _symmetry_equiv_pos_site_id
 _symmetry_equiv_pos_as_xyz
  1  'x, y, z'
loop_
 _atom_site_type_symbol
 _atom_site_label
 _atom_site_symmetry_multiplicity
 _atom_site_fract_x
 _atom_site_fract_y
 _atom_site_fract_z
 _atom_site_occupancy
  La  La0  1  0.63614103  0.63614100  0.75000002  1
  La  La1  1  0.36385902  0.36385900  0.25000001  1
  La  La2  1  0.79786301  0.20213700  0.50000002  1
  La  La3  1  0.79786301  0.20213700  1.00000003  1
  Y  Y4  1  0.20213704  0.79786300  0.50000002  1
  Y  Y5  1  0.20213704  0.79786300  1.00000003  1
  Y  Y6  1  0.02633900  0.02633900  0.75000002  1
  Y  Y7  1  0.97366105  0.97366100  0.25000001  1
  Sb  Sb8  1  0.31942701  0.31942700  0.95146303  1
  Sb  Sb9  1  0.68057303  0.68057300  0.04853700  1
  Sb  Sb10  1  0.31942701  0.31942700  0.54853702  1
  Sb  Sb11  1  0.68057303  0.68057300  0.45146301  1
  Sb  Sb12  1  0.07608503  0.49390600  0.75000002  1
  Sb  Sb13  1  0.50609405  0.92391500  0.25000001  1
  Sb  Sb14  1  0.92391502  0.50609400  0.25000001  1
  Sb  Sb15  1  0.49390600  0.07608500  0.75000002  1
