# generated using pymatgen
data_ScIr
_symmetry_space_group_name_H-M   'P 1'
_cell_length_a   4.51476955
_cell_length_b   4.51476955
_cell_length_c   4.51476955
_cell_angle_alpha   60.00000000
_cell_angle_beta   60.00000000
_cell_angle_gamma   60.00000000
_symmetry_Int_Tables_number   1
_chemical_formula_structural   ScIr
_chemical_formula_sum   'Sc2 Ir2'
_cell_volume   65.07164191
_cell_formula_units_Z   2
loop_
 _symmetry_equiv_pos_site_id
 _symmetry_equiv_pos_as_xyz
  1  'x, y, z'
loop_
 _atom_site_type_symbol
 _atom_site_label
 _atom_site_symmetry_multiplicity
 _atom_site_fract_x
 _atom_site_fract_y
 _atom_site_fract_z
 _atom_site_occupancy
  Sc  Sc0  1  0.49999997  0.49999997  0.49999997  1
  Sc  Sc1  1  0.00000000  0.00000000  0.00000000  1
  Ir  Ir2  1  0.74999996  0.74999996  0.74999996  1
  Ir  Ir3  1  0.24999999  0.24999999  0.24999999  1
