# generated using pymatgen
data_KUSe3
_symmetry_space_group_name_H-M   'P 1'
_cell_length_a   5.28738308
_cell_length_b   5.29639339
_cell_length_c   5.30947733
_cell_angle_alpha   89.89144897
_cell_angle_beta   89.91420746
_cell_angle_gamma   89.96131897
_symmetry_Int_Tables_number   1
_chemical_formula_structural   KUSe3
_chemical_formula_sum   'K1 U1 Se3'
_cell_volume   148.68645890
_cell_formula_units_Z   1
loop_
 _symmetry_equiv_pos_site_id
 _symmetry_equiv_pos_as_xyz
  1  'x, y, z'
loop_
 _atom_site_type_symbol
 _atom_site_label
 _atom_site_symmetry_multiplicity
 _atom_site_fract_x
 _atom_site_fract_y
 _atom_site_fract_z
 _atom_site_occupancy
  K  K0  1  0.99864305  0.99847797  0.99867302  1
  U  U1  1  0.47657802  0.49006898  0.47672701  1
  Se  Se2  1  0.48831706  0.99850597  0.50269303  1
  Se  Se3  1  0.98384502  0.51163598  0.51853999  1
  Se  Se4  1  0.49261403  0.50130998  0.99337002  1
