# generated using pymatgen
data_Sm2Al13Cr4
_symmetry_space_group_name_H-M   'P 1'
_cell_length_a   6.77890015
_cell_length_b   6.77890015
_cell_length_c   6.77890015
_cell_angle_alpha   82.45922852
_cell_angle_beta   82.45922852
_cell_angle_gamma   82.45922852
_symmetry_Int_Tables_number   1
_chemical_formula_structural   Sm2Al13Cr4
_chemical_formula_sum   'Sm2 Al13 Cr4'
_cell_volume   304.08225647
_cell_formula_units_Z   1
loop_
 _symmetry_equiv_pos_site_id
 _symmetry_equiv_pos_as_xyz
  1  'x, y, z'
loop_
 _atom_site_type_symbol
 _atom_site_label
 _atom_site_symmetry_multiplicity
 _atom_site_fract_x
 _atom_site_fract_y
 _atom_site_fract_z
 _atom_site_occupancy
  Sm  Sm0  1  0.33475900  0.33475901  0.33475898  1
  Sm  Sm1  1  0.66524100  0.66524102  0.66524095  1
  Al  Al2  1  0.64742800  0.64742802  0.16221296  1
  Al  Al3  1  0.64742801  0.16221301  0.64742796  1
  Al  Al4  1  0.89952800  0.89952803  0.89952793  1
  Al  Al5  1  0.10047200  0.10047200  0.10047199  1
  Cr  Cr6  1  0.00000000  0.00000000  0.49999999  1
  Cr  Cr7  1  0.50000002  0.00000000  -0.00000001  1
  Cr  Cr8  1  -0.00000002  0.50000002  -0.00000001  1
  Al  Al9  1  0.29902899  0.70097102  -0.00000002  1
  Al  Al10  1  -0.00000001  0.29902901  0.70097098  1
  Al  Al11  1  0.70097102  0.00000000  0.29902897  1
  Al  Al12  1  0.70097101  0.29902901  -0.00000002  1
  Al  Al13  1  -0.00000002  0.70097102  0.29902898  1
  Al  Al14  1  0.29902901  0.00000000  0.70097097  1
  Al  Al15  1  0.35257198  0.83778703  0.35257196  1
  Al  Al16  1  0.35257200  0.35257201  0.83778696  1
  Cr  Cr17  1  0.83778701  0.35257201  0.35257196  1
  Al  Al18  1  0.16221298  0.64742802  0.64742796  1
