# generated using pymatgen
data_V2NiO4
_symmetry_space_group_name_H-M   'P 1'
_cell_length_a   5.88510418
_cell_length_b   5.97515345
_cell_length_c   5.97515345
_cell_angle_alpha   61.58140945
_cell_angle_beta   60.49729538
_cell_angle_gamma   60.49729538
_symmetry_Int_Tables_number   1
_chemical_formula_structural   V2NiO4
_chemical_formula_sum   'V4 Ni2 O8'
_cell_volume   151.41294626
_cell_formula_units_Z   2
loop_
 _symmetry_equiv_pos_site_id
 _symmetry_equiv_pos_as_xyz
  1  'x, y, z'
loop_
 _atom_site_type_symbol
 _atom_site_label
 _atom_site_symmetry_multiplicity
 _atom_site_fract_x
 _atom_site_fract_y
 _atom_site_fract_z
 _atom_site_occupancy
  V  V0  1  0.87526697  0.37473300  0.87473305  1
  V  V1  1  0.12473300  0.62526700  0.12526702  1
  V  V2  1  0.99999996  0.00000000  0.50000004  1
  V  V3  1  0.49999998  0.00000000  0.50000002  1
  Ni  Ni4  1  0.49999998  0.50000000  0.50000004  1
  Ni  Ni5  1  0.49999999  1.00000001  1.00000006  1
  O  O6  1  0.25569599  0.21031100  0.27829702  1
  O  O7  1  0.25569700  0.77829700  0.71031004  1
  O  O8  1  0.71221698  0.76896000  0.26895905  1
  O  O9  1  0.24986500  0.76895900  0.26895903  1
  O  O10  1  0.74430398  0.78968900  0.72170306  1
  O  O11  1  0.74430297  0.22170300  0.28969003  1
  O  O12  1  0.28778299  0.23104000  0.73104103  1
  O  O13  1  0.75013497  0.23104100  0.73104104  1
