# generated using pymatgen
data_Zr4Al2Si3
_symmetry_space_group_name_H-M   'P 1'
_cell_length_a   3.96341491
_cell_length_b   6.60834360
_cell_length_c   6.60834312
_cell_angle_alpha   119.85054016
_cell_angle_beta   90.00000000
_cell_angle_gamma   90.00000000
_symmetry_Int_Tables_number   1
_chemical_formula_structural   Zr4Al2Si3
_chemical_formula_sum   'Zr4 Al2 Si3'
_cell_volume   150.11962638
_cell_formula_units_Z   1
loop_
 _symmetry_equiv_pos_site_id
 _symmetry_equiv_pos_as_xyz
  1  'x, y, z'
loop_
 _atom_site_type_symbol
 _atom_site_label
 _atom_site_symmetry_multiplicity
 _atom_site_fract_x
 _atom_site_fract_y
 _atom_site_fract_z
 _atom_site_occupancy
  Zr  Zr0  1  0.50000001  0.42002201  0.42002203  1
  Zr  Zr1  1  0.50000001  0.57904202  0.99912004  1
  Zr  Zr2  1  0.50000001  0.99911903  0.57904106  1
  Zr  Zr3  1  -0.00000000  0.76304902  0.76304905  1
  Al  Al4  1  1.00000002  0.23779601  0.99897102  1
  Al  Al5  1  1.00000002  0.99897103  0.23779605  1
  Si  Si6  1  1.00000002  0.66817202  0.33382204  1
  Si  Si7  1  -0.00000000  0.33382201  0.66817202  1
  Si  Si8  1  0.50000001  0.00010600  0.00010600  1
