# generated using pymatgen
data_Pm
_symmetry_space_group_name_H-M   'P 1'
_cell_length_a   5.99369478
_cell_length_b   7.37960005
_cell_length_c   7.37960005
_cell_angle_alpha   120.00000000
_cell_angle_beta   90.00000000
_cell_angle_gamma   90.00000000
_symmetry_Int_Tables_number   1
_chemical_formula_structural   Pm
_chemical_formula_sum   Pm8
_cell_volume   282.67728098
_cell_formula_units_Z   8
loop_
 _symmetry_equiv_pos_site_id
 _symmetry_equiv_pos_as_xyz
  1  'x, y, z'
loop_
 _atom_site_type_symbol
 _atom_site_label
 _atom_site_symmetry_multiplicity
 _atom_site_fract_x
 _atom_site_fract_y
 _atom_site_fract_z
 _atom_site_occupancy
  Pm  Pm0  1  0.75000003  0.83269799  0.16730099  1
  Pm  Pm1  1  0.75000003  0.33460300  0.16730100  1
  Pm  Pm2  1  0.75000003  0.83269799  0.66539599  1
  Pm  Pm3  1  0.25000001  0.16730200  0.83269899  1
  Pm  Pm4  1  0.25000001  0.66539699  0.83269898  1
  Pm  Pm5  1  0.25000001  0.16730200  0.33460399  1
  Pm  Pm6  1  0.25000001  0.66666666  0.33333332  1
  Pm  Pm7  1  0.75000003  0.33333333  0.66666666  1
