# generated using pymatgen
data_Li6FeO6
_symmetry_space_group_name_H-M   'P 1'
_cell_length_a   5.67326021
_cell_length_b   5.67326021
_cell_length_c   5.67326069
_cell_angle_alpha   61.71245193
_cell_angle_beta   61.71245193
_cell_angle_gamma   61.71244812
_symmetry_Int_Tables_number   1
_chemical_formula_structural   Li6FeO6
_chemical_formula_sum   'Li6 Fe1 O6'
_cell_volume   134.07275025
_cell_formula_units_Z   1
loop_
 _symmetry_equiv_pos_site_id
 _symmetry_equiv_pos_as_xyz
  1  'x, y, z'
loop_
 _atom_site_type_symbol
 _atom_site_label
 _atom_site_symmetry_multiplicity
 _atom_site_fract_x
 _atom_site_fract_y
 _atom_site_fract_z
 _atom_site_occupancy
  Li  Li0  1  0.92119697  0.28300600  0.48518806  1
  Li  Li1  1  0.51481199  0.07880300  0.71699404  1
  Li  Li2  1  0.71699396  0.51481200  0.07880305  1
  Li  Li3  1  0.28300597  0.48518800  0.92119706  1
  Li  Li4  1  0.48518794  0.92119700  0.28300607  1
  Li  Li5  1  0.07880296  0.71699400  0.51481205  1
  Fe  Fe6  1  0.00000000  0.00000000  0.00000000  1
  O  O7  1  0.79761798  0.10312500  0.34697704  1
  O  O8  1  0.65302298  0.20238200  0.89687506  1
  O  O9  1  0.89687495  0.65302300  0.20238207  1
  O  O10  1  0.10312498  0.34697700  0.79761804  1
  O  O11  1  0.34697695  0.79761800  0.10312505  1
  O  O12  1  0.20238195  0.89687500  0.65302307  1
