# generated using pymatgen
data_GdFeO3
_symmetry_space_group_name_H-M   'P 1'
_cell_length_a   5.25865984
_cell_length_b   5.41264820
_cell_length_c   7.47248030
_cell_angle_alpha   90.00000000
_cell_angle_beta   89.85066986
_cell_angle_gamma   90.00000000
_symmetry_Int_Tables_number   1
_chemical_formula_structural   GdFeO3
_chemical_formula_sum   'Gd4 Fe4 O12'
_cell_volume   212.69054463
_cell_formula_units_Z   4
loop_
 _symmetry_equiv_pos_site_id
 _symmetry_equiv_pos_as_xyz
  1  'x, y, z'
loop_
 _atom_site_type_symbol
 _atom_site_label
 _atom_site_symmetry_multiplicity
 _atom_site_fract_x
 _atom_site_fract_y
 _atom_site_fract_z
 _atom_site_occupancy
  Gd  Gd0  1  0.51402402  0.44087398  0.25028303  1
  Gd  Gd1  1  0.98597603  0.94087397  0.24971705  1
  Gd  Gd2  1  0.48597601  0.55912598  0.74971703  1
  Gd  Gd3  1  0.01402400  0.05912600  0.75028301  1
  Fe  Fe4  1  0.00000000  0.49999998  0.50000001  1
  Fe  Fe5  1  0.50000002  0.00000000  0.00000002  1
  Fe  Fe6  1  0.00000000  0.49999998  -0.00000000  1
  Fe  Fe7  1  0.50000002  0.00000000  0.50000003  1
  O  O8  1  0.41902101  0.01650200  0.25103902  1
  O  O9  1  0.08097900  0.51650198  0.24896101  1
  O  O10  1  0.58097902  0.98349796  0.74896103  1
  O  O11  1  0.91902103  0.48349798  0.75103905  1
  O  O12  1  0.79525102  0.20380699  0.04269204  1
  O  O13  1  0.70474902  0.70380697  0.45730804  1
  O  O14  1  0.20162501  0.79334497  0.54201301  1
  O  O15  1  0.29837501  0.29334499  0.95798702  1
  O  O16  1  0.20474901  0.79619297  0.95730802  1
  O  O17  1  0.29525101  0.29619299  0.54269202  1
  O  O18  1  0.79837502  0.20665499  0.45798704  1
  O  O19  1  0.70162502  0.70665497  0.04201303  1
