# generated using pymatgen
data_Li4NiBiO3
_symmetry_space_group_name_H-M   'P 1'
_cell_length_a   2.96113205
_cell_length_b   5.37440586
_cell_length_c   7.12993717
_cell_angle_alpha   112.14118195
_cell_angle_beta   101.98495483
_cell_angle_gamma   90.00000000
_symmetry_Int_Tables_number   1
_chemical_formula_structural   Li4NiBiO3
_chemical_formula_sum   'Li4 Ni1 Bi1 O3'
_cell_volume   102.42555474
_cell_formula_units_Z   1
loop_
 _symmetry_equiv_pos_site_id
 _symmetry_equiv_pos_as_xyz
  1  'x, y, z'
loop_
 _atom_site_type_symbol
 _atom_site_label
 _atom_site_symmetry_multiplicity
 _atom_site_fract_x
 _atom_site_fract_y
 _atom_site_fract_z
 _atom_site_occupancy
  Li  Li0  1  0.70253597  0.70253601  0.40507198  1
  Li  Li1  1  0.29746399  0.29746400  0.59492799  1
  Li  Li2  1  0.60336899  0.10336900  0.20673799  1
  Li  Li3  1  -0.00000001  0.50000001  -0.00000001  1
  Bi  Bi4  1  0.39663098  0.89663101  0.79326198  1
  Ni  Ni5  1  0.88786698  0.12669000  0.77573399  1
  O  O6  1  0.88786597  0.64904301  0.77573298  1
  O  O7  1  0.11213298  0.87331001  0.22426598  1
  O  O8  1  0.11213399  0.35095701  0.22426699  1
