# generated using pymatgen
data_Ba2Sn
_symmetry_space_group_name_H-M   'P 1'
_cell_length_a   5.42553806
_cell_length_b   8.39692593
_cell_length_c   10.17450047
_cell_angle_alpha   90.00000000
_cell_angle_beta   90.00000000
_cell_angle_gamma   90.00000000
_symmetry_Int_Tables_number   1
_chemical_formula_structural   Ba2Sn
_chemical_formula_sum   'Ba8 Sn4'
_cell_volume   463.52827675
_cell_formula_units_Z   4
loop_
 _symmetry_equiv_pos_site_id
 _symmetry_equiv_pos_as_xyz
  1  'x, y, z'
loop_
 _atom_site_type_symbol
 _atom_site_label
 _atom_site_symmetry_multiplicity
 _atom_site_fract_x
 _atom_site_fract_y
 _atom_site_fract_z
 _atom_site_occupancy
  Ba  Ba0  1  0.25000000  0.97973801  0.31785599  1
  Ba  Ba1  1  0.74999999  0.02026200  0.68214397  1
  Ba  Ba2  1  0.25000000  0.47973800  0.18214399  1
  Ba  Ba3  1  0.74999999  0.52026200  0.81785596  1
  Ba  Ba4  1  0.74999999  0.65773101  0.42629498  1
  Ba  Ba5  1  0.25000000  0.34226900  0.57370497  1
  Ba  Ba6  1  0.74999999  0.15773100  0.07370500  1
  Ba  Ba7  1  0.25000000  0.84226901  0.92629496  1
  Sn  Sn8  1  0.25000000  0.25065600  0.89414196  1
  Sn  Sn9  1  0.74999999  0.74934401  0.10585800  1
  Sn  Sn10  1  0.25000000  0.75065601  0.60585797  1
  Sn  Sn11  1  0.74999999  0.24934400  0.39414198  1
