# generated using pymatgen
data_Rb3Ba3I2Cl2O3F2
_symmetry_space_group_name_H-M   'P 1'
_cell_length_a   6.48629284
_cell_length_b   7.29104805
_cell_length_c   10.02622223
_cell_angle_alpha   90.00000000
_cell_angle_beta   90.00000000
_cell_angle_gamma   89.53017426
_symmetry_Int_Tables_number   1
_chemical_formula_structural   Rb3Ba3I2Cl2O3F2
_chemical_formula_sum   'Rb3 Ba3 I2 Cl2 O3 F2'
_cell_volume   474.14288472
_cell_formula_units_Z   1
loop_
 _symmetry_equiv_pos_site_id
 _symmetry_equiv_pos_as_xyz
  1  'x, y, z'
loop_
 _atom_site_type_symbol
 _atom_site_label
 _atom_site_symmetry_multiplicity
 _atom_site_fract_x
 _atom_site_fract_y
 _atom_site_fract_z
 _atom_site_occupancy
  Ba  Ba0  1  0.15584001  0.47515400  -0.00000000  1
  Ba  Ba1  1  0.35198701  0.96070801  0.99999998  1
  Rb  Rb2  1  0.86048902  0.53515001  0.49999999  1
  Ba  Ba3  1  0.65193202  0.03347900  0.49999999  1
  I  I4  1  0.66697902  0.31876000  0.18295300  1
  Rb  Rb5  1  0.84090202  0.82172101  0.81932198  1
  Cl  Cl6  1  0.33775101  0.67775901  0.68618498  1
  Rb  Rb7  1  0.17511701  0.17906700  0.31966699  1
  Cl  Cl8  1  0.33775101  0.67775901  0.31381499  1
  F  F9  1  0.17511701  0.17906700  0.68033298  1
  I  I10  1  0.66697902  0.31876000  0.81704698  1
  F  F11  1  0.84090202  0.82172101  0.18067800  1
  O  O12  1  0.57992302  0.61622801  -0.00000000  1
  O  O13  1  0.07630801  0.88019801  0.49999999  1
  O  O14  1  0.44002301  0.38246900  0.49999999  1
