# generated using pymatgen
data_CsVO2
_symmetry_space_group_name_H-M   'P 1'
_cell_length_a   6.12233639
_cell_length_b   6.12233782
_cell_length_c   6.12233686
_cell_angle_alpha   60.00002670
_cell_angle_beta   60.00001907
_cell_angle_gamma   60.00001526
_symmetry_Int_Tables_number   1
_chemical_formula_structural   CsVO2
_chemical_formula_sum   'Cs2 V2 O4'
_cell_volume   162.26950135
_cell_formula_units_Z   2
loop_
 _symmetry_equiv_pos_site_id
 _symmetry_equiv_pos_as_xyz
  1  'x, y, z'
loop_
 _atom_site_type_symbol
 _atom_site_label
 _atom_site_symmetry_multiplicity
 _atom_site_fract_x
 _atom_site_fract_y
 _atom_site_fract_z
 _atom_site_occupancy
  Cs  Cs0  1  0.12500000  0.62499999  0.62500001  1
  Cs  Cs1  1  0.87499998  0.37499999  0.37500001  1
  V  V2  1  0.62499999  0.12499900  0.12500200  1
  V  V3  1  0.37499899  0.87500198  0.87499902  1
  O  O4  1  0.49999999  0.00000000  1.00000002  1
  O  O5  1  0.49999999  0.99999998  0.50000001  1
  O  O6  1  0.49999999  0.49999999  0.00000000  1
  O  O7  1  0.00000000  0.00000000  0.00000000  1
