# generated using pymatgen
data_Sm4(FeC3)3
_symmetry_space_group_name_H-M   'P 1'
_cell_length_a   3.11367607
_cell_length_b   6.03733301
_cell_length_c   8.18467045
_cell_angle_alpha   90.00000000
_cell_angle_beta   90.00000000
_cell_angle_gamma   90.00000000
_symmetry_Int_Tables_number   1
_chemical_formula_structural   Sm4(FeC3)3
_chemical_formula_sum   'Sm4 Fe3 C9'
_cell_volume   153.85788502
_cell_formula_units_Z   1
loop_
 _symmetry_equiv_pos_site_id
 _symmetry_equiv_pos_as_xyz
  1  'x, y, z'
loop_
 _atom_site_type_symbol
 _atom_site_label
 _atom_site_symmetry_multiplicity
 _atom_site_fract_x
 _atom_site_fract_y
 _atom_site_fract_z
 _atom_site_occupancy
  Sm  Sm0  1  0.24999999  0.13278200  0.86756695  1
  Sm  Sm1  1  0.74999998  0.86721800  0.13243299  1
  Sm  Sm2  1  0.24999999  0.63278200  0.63243297  1
  Sm  Sm3  1  0.74999998  0.36721800  0.36756698  1
  Fe  Fe4  1  0.74999998  0.49885400  0.88375695  1
  Fe  Fe5  1  0.74999998  0.99885400  0.61624297  1
  Fe  Fe6  1  0.24999999  0.50114600  0.11624299  1
  C  C7  1  0.24999999  0.00114600  0.38375698  1
  C  C8  1  0.24999999  0.17206200  0.16786199  1
  C  C9  1  0.74999998  0.82793800  0.83213795  1
  C  C10  1  0.24999999  0.67206200  0.33213798  1
  C  C11  1  0.74999998  0.32793800  0.66786196  1
  C  C12  1  0.24999999  0.24222800  0.57645097  1
  C  C13  1  0.74999998  0.25777200  0.07645100  1
  C  C14  1  0.24999999  0.74222800  0.92354895  1
  C  C15  1  0.74999998  0.75777200  0.42354898  1
