# generated using pymatgen
data_Tc
_symmetry_space_group_name_H-M   'P 1'
_cell_length_a   2.79505754
_cell_length_b   2.79505754
_cell_length_c   9.27285671
_cell_angle_alpha   81.33181000
_cell_angle_beta   81.33181000
_cell_angle_gamma   60.00001144
_symmetry_Int_Tables_number   1
_chemical_formula_structural   Tc
_chemical_formula_sum   Tc4
_cell_volume   61.77996881
_cell_formula_units_Z   4
loop_
 _symmetry_equiv_pos_site_id
 _symmetry_equiv_pos_as_xyz
  1  'x, y, z'
loop_
 _atom_site_type_symbol
 _atom_site_label
 _atom_site_symmetry_multiplicity
 _atom_site_fract_x
 _atom_site_fract_y
 _atom_site_fract_z
 _atom_site_occupancy
  Tc  Tc0  1  0.00000000  0.00000000  0.00000000  1
  Tc  Tc1  1  0.25209601  0.25209600  0.24371200  1
  Tc  Tc2  1  0.50000001  0.50000000  0.49999999  1
  Tc  Tc3  1  0.74790402  0.74790400  0.75628799  1
