# generated using pymatgen
data_Nd2Y2CoSb8
_symmetry_space_group_name_H-M   'P 1'
_cell_length_a   4.40194321
_cell_length_b   4.45376587
_cell_length_c   16.60215187
_cell_angle_alpha   90.00000000
_cell_angle_beta   90.00000000
_cell_angle_gamma   90.00000000
_symmetry_Int_Tables_number   1
_chemical_formula_structural   Nd2Y2CoSb8
_chemical_formula_sum   'Nd2 Y2 Co1 Sb8'
_cell_volume   325.48891315
_cell_formula_units_Z   1
loop_
 _symmetry_equiv_pos_site_id
 _symmetry_equiv_pos_as_xyz
  1  'x, y, z'
loop_
 _atom_site_type_symbol
 _atom_site_label
 _atom_site_symmetry_multiplicity
 _atom_site_fract_x
 _atom_site_fract_y
 _atom_site_fract_z
 _atom_site_occupancy
  Nd  Nd0  1  0.24999999  0.00000000  0.09838400  1
  Nd  Nd1  1  0.24999999  0.50000001  0.60337700  1
  Y  Y2  1  0.74999996  0.50000001  0.39647700  1
  Y  Y3  1  0.74999996  0.00000000  0.90028401  1
  Co  Co4  1  0.24999999  0.00000000  0.30796700  1
  Sb  Sb5  1  0.24999999  0.00000000  0.45644500  1
  Sb  Sb6  1  0.24999999  0.50000001  0.93699101  1
  Sb  Sb7  1  0.74999996  0.50000001  0.06257600  1
  Sb  Sb8  1  0.74999996  0.00000000  0.57514800  1
  Sb  Sb9  1  0.24999999  0.50000001  0.23818700  1
  Sb  Sb10  1  0.24999999  0.00000000  0.74849001  1
  Sb  Sb11  1  0.74999996  0.00000000  0.23829700  1
  Sb  Sb12  1  0.74999996  0.50000001  0.75337801  1
