# generated using pymatgen
data_U2Sb8Pt
_symmetry_space_group_name_H-M   'P 1'
_cell_length_a   4.28192186
_cell_length_b   4.28192186
_cell_length_c   11.08322144
_cell_angle_alpha   90.00000000
_cell_angle_beta   90.00000000
_cell_angle_gamma   90.00000000
_symmetry_Int_Tables_number   1
_chemical_formula_structural   U2Sb8Pt
_chemical_formula_sum   'U2 Sb8 Pt1'
_cell_volume   203.20925624
_cell_formula_units_Z   1
loop_
 _symmetry_equiv_pos_site_id
 _symmetry_equiv_pos_as_xyz
  1  'x, y, z'
loop_
 _atom_site_type_symbol
 _atom_site_label
 _atom_site_symmetry_multiplicity
 _atom_site_fract_x
 _atom_site_fract_y
 _atom_site_fract_z
 _atom_site_occupancy
  U  U0  1  0.00000000  0.00000000  0.69419597  1
  U  U1  1  0.00000000  0.00000000  0.30580399  1
  Sb  Sb2  1  0.50000002  0.00000000  0.88497197  1
  Sb  Sb3  1  0.00000000  0.50000002  0.88497197  1
  Sb  Sb4  1  0.50000002  0.00000000  0.11502800  1
  Sb  Sb5  1  0.00000000  0.50000002  0.11502800  1
  Sb  Sb6  1  0.50000002  0.00000000  0.49999998  1
  Sb  Sb7  1  0.00000000  0.50000002  0.49999998  1
  Sb  Sb8  1  0.50000002  0.50000002  0.70239897  1
  Sb  Sb9  1  0.50000002  0.50000002  0.29760099  1
  Pt  Pt10  1  0.00000000  0.00000000  0.00000000  1
