# generated using pymatgen
data_Na4BCN2
_symmetry_space_group_name_H-M   'P 1'
_cell_length_a   3.72628307
_cell_length_b   3.79453897
_cell_length_c   9.24489594
_cell_angle_alpha   90.00000000
_cell_angle_beta   80.00400543
_cell_angle_gamma   90.00000000
_symmetry_Int_Tables_number   1
_chemical_formula_structural   Na4BCN2
_chemical_formula_sum   'Na4 B1 C1 N2'
_cell_volume   128.73412926
_cell_formula_units_Z   1
loop_
 _symmetry_equiv_pos_site_id
 _symmetry_equiv_pos_as_xyz
  1  'x, y, z'
loop_
 _atom_site_type_symbol
 _atom_site_label
 _atom_site_symmetry_multiplicity
 _atom_site_fract_x
 _atom_site_fract_y
 _atom_site_fract_z
 _atom_site_occupancy
  Na  Na0  1  0.00000000  0.00000000  0.00000000  1
  Na  Na1  1  0.37613199  0.50000000  0.30292399  1
  Na  Na2  1  0.62386799  0.50000000  0.69707598  1
  Na  Na3  1  0.85531398  0.00000000  0.44092699  1
  B  B4  1  0.14468600  0.00000000  0.55907298  1
  C  C5  1  0.49999999  0.50000000  0.00000000  1
  N  N6  1  0.88131998  1.00000001  0.27585700  1
  N  N7  1  0.11868000  0.00000000  0.72414297  1
