# generated using pymatgen
data_Li2Ti2CO
_symmetry_space_group_name_H-M   'P 1'
_cell_length_a   3.18681812
_cell_length_b   3.83698201
_cell_length_c   6.25723124
_cell_angle_alpha   89.99932861
_cell_angle_beta   89.98677063
_cell_angle_gamma   90.00768280
_symmetry_Int_Tables_number   1
_chemical_formula_structural   Li2Ti2CO
_chemical_formula_sum   'Li2 Ti2 C1 O1'
_cell_volume   76.51194293
_cell_formula_units_Z   1
loop_
 _symmetry_equiv_pos_site_id
 _symmetry_equiv_pos_as_xyz
  1  'x, y, z'
loop_
 _atom_site_type_symbol
 _atom_site_label
 _atom_site_symmetry_multiplicity
 _atom_site_fract_x
 _atom_site_fract_y
 _atom_site_fract_z
 _atom_site_occupancy
  Li  Li0  1  0.24332297  0.75000600  0.15085700  1
  Li  Li1  1  0.74352497  0.25000200  0.84911599  1
  Ti  Ti2  1  0.80778696  0.75000600  0.92450999  1
  Ti  Ti3  1  0.30753998  0.25000500  0.07549800  1
  O  O4  1  0.69860296  0.74997900  0.34865100  1
  C  C5  1  0.19922099  0.25000100  0.65136898  1
