# generated using pymatgen
data_Li3NbO6
_symmetry_space_group_name_H-M   'P 1'
_cell_length_a   5.18158960
_cell_length_b   5.20170450
_cell_length_c   5.61024046
_cell_angle_alpha   62.58977127
_cell_angle_beta   63.06253815
_cell_angle_gamma   61.72969437
_symmetry_Int_Tables_number   1
_chemical_formula_structural   Li3NbO6
_chemical_formula_sum   'Li3 Nb1 O6'
_cell_volume   112.75999417
_cell_formula_units_Z   1
loop_
 _symmetry_equiv_pos_site_id
 _symmetry_equiv_pos_as_xyz
  1  'x, y, z'
loop_
 _atom_site_type_symbol
 _atom_site_label
 _atom_site_symmetry_multiplicity
 _atom_site_fract_x
 _atom_site_fract_y
 _atom_site_fract_z
 _atom_site_occupancy
  Li  Li0  1  0.65507299  0.60140799  0.11261801  1
  Li  Li1  1  0.10804800  0.16096400  0.58180598  1
  Nb  Nb2  1  0.85334299  0.87008699  0.44638300  1
  Li  Li3  1  0.33527700  0.33603799  0.97013497  1
  O  O4  1  0.95750898  0.22344500  0.24775200  1
  O  O5  1  0.44296199  0.08105900  0.71231498  1
  O  O6  1  0.73939299  0.47054199  0.72864199  1
  O  O7  1  0.24763700  0.57398199  0.24080700  1
  O  O8  1  0.60112300  0.93346498  0.22208700  1
  O  O9  1  0.05963601  0.74900699  0.73745598  1
