# generated using pymatgen
data_Ce4Sb9Au7
_symmetry_space_group_name_H-M   'P 1'
_cell_length_a   4.39149618
_cell_length_b   7.34041500
_cell_length_c   13.46326160
_cell_angle_alpha   90.00000000
_cell_angle_beta   99.38640594
_cell_angle_gamma   90.00000000
_symmetry_Int_Tables_number   1
_chemical_formula_structural   Ce4Sb9Au7
_chemical_formula_sum   'Ce4 Sb9 Au7'
_cell_volume   428.18289154
_cell_formula_units_Z   1
loop_
 _symmetry_equiv_pos_site_id
 _symmetry_equiv_pos_as_xyz
  1  'x, y, z'
loop_
 _atom_site_type_symbol
 _atom_site_label
 _atom_site_symmetry_multiplicity
 _atom_site_fract_x
 _atom_site_fract_y
 _atom_site_fract_z
 _atom_site_occupancy
  Ce  Ce0  1  0.17263799  0.74455400  0.34527601  1
  Ce  Ce1  1  0.82736197  0.24455400  0.65472404  1
  Ce  Ce2  1  0.47593598  0.76384300  0.95187204  1
  Ce  Ce3  1  0.52406398  0.26384300  0.04812801  1
  Sb  Sb4  1  0.88058897  0.76898900  0.76117804  1
  Sb  Sb5  1  0.11941100  0.26898900  0.23882201  1
  Sb  Sb6  1  0.70466698  0.45030700  0.40933403  1
  Sb  Sb7  1  0.29533299  0.95030700  0.59066602  1
  Sb  Sb8  1  0.59636598  0.88588900  0.19273202  1
  Sb  Sb9  1  0.40363399  0.38588900  0.80726803  1
  Au  Au10  1  0.95241097  0.10232600  0.90482205  1
  Sb  Sb11  1  0.04758900  0.60232600  0.09517800  1
  Sb  Sb12  1  0.29052499  0.52197000  0.58105002  1
  Sb  Sb13  1  0.70947498  0.02197000  0.41895003  1
  Au  Au14  1  0.05015000  0.98125400  0.10030000  1
  Au  Au15  1  0.94984997  0.48125400  0.89970005  1
  Au  Au16  1  0.77661798  0.73479400  0.55323603  1
  Au  Au17  1  0.22338199  0.23479400  0.44676402  1
  Au  Au18  1  0.39401499  0.01807400  0.78803003  1
  Au  Au19  1  0.60598498  0.51807400  0.21197002  1
