# generated using pymatgen
data_Mn5Si3C
_symmetry_space_group_name_H-M   'P 1'
_cell_length_a   5.12748814
_cell_length_b   6.84816980
_cell_length_c   6.84816980
_cell_angle_alpha   120.00000000
_cell_angle_beta   90.00000000
_cell_angle_gamma   90.00000000
_symmetry_Int_Tables_number   1
_chemical_formula_structural   Mn5Si3C
_chemical_formula_sum   'Mn10 Si6 C2'
_cell_volume   208.24967704
_cell_formula_units_Z   2
loop_
 _symmetry_equiv_pos_site_id
 _symmetry_equiv_pos_as_xyz
  1  'x, y, z'
loop_
 _atom_site_type_symbol
 _atom_site_label
 _atom_site_symmetry_multiplicity
 _atom_site_fract_x
 _atom_site_fract_y
 _atom_site_fract_z
 _atom_site_occupancy
  Mn  Mn0  1  0.74999998  0.23131700  -0.00000000  1
  Mn  Mn1  1  0.24999999  0.23131700  0.23131700  1
  Mn  Mn2  1  0.74999998  0.00000000  0.23131700  1
  Mn  Mn3  1  0.24999999  0.00000000  0.76868300  1
  Mn  Mn4  1  0.24999999  0.76868302  0.99999999  1
  Mn  Mn5  1  0.74999998  0.76868302  0.76868299  1
  Mn  Mn6  1  0.49999999  0.66666668  0.33333332  1
  Mn  Mn7  1  0.99999997  0.33333334  0.66666666  1
  Mn  Mn8  1  0.49999999  0.33333334  0.66666666  1
  Mn  Mn9  1  -0.00000000  0.66666668  0.33333332  1
  Si  Si10  1  0.74999998  0.00000000  0.59535700  1
  Si  Si11  1  0.24999999  0.00000000  0.40464300  1
  Si  Si12  1  0.24999999  0.40464301  1.00000000  1
  Si  Si13  1  0.74999998  0.40464301  0.40464300  1
  Si  Si14  1  0.74999998  0.59535701  -0.00000001  1
  Si  Si15  1  0.24999999  0.59535701  0.59535699  1
  C  C16  1  0.00000000  0.00000000  0.00000000  1
  C  C17  1  0.49999999  0.00000000  -0.00000000  1
