# generated using pymatgen
data_TaB7(HBr2)3
_symmetry_space_group_name_H-M   'P 1'
_cell_length_a   7.30469894
_cell_length_b   7.30469894
_cell_length_c   7.30469894
_cell_angle_alpha   60.00000000
_cell_angle_beta   60.00000000
_cell_angle_gamma   60.00000000
_symmetry_Int_Tables_number   1
_chemical_formula_structural   TaB7(HBr2)3
_chemical_formula_sum   'Ta1 B7 H3 Br6'
_cell_volume   275.60809359
_cell_formula_units_Z   1
loop_
 _symmetry_equiv_pos_site_id
 _symmetry_equiv_pos_as_xyz
  1  'x, y, z'
loop_
 _atom_site_type_symbol
 _atom_site_label
 _atom_site_symmetry_multiplicity
 _atom_site_fract_x
 _atom_site_fract_y
 _atom_site_fract_z
 _atom_site_occupancy
  Ta  Ta0  1  0.00000000  0.00000000  0.00000000  1
  B  B1  1  0.19227499  0.42317499  0.19227499  1
  H  H2  1  0.19227499  0.19227499  0.19227499  1
  B  B3  1  0.19227499  0.19227499  0.42317499  1
  B  B4  1  0.42317499  0.19227499  0.19227499  1
  B  B5  1  0.80772498  0.57682498  0.80772498  1
  B  B6  1  0.80772498  0.80772498  0.80772498  1
  B  B7  1  0.80772498  0.80772498  0.57682498  1
  B  B8  1  0.57682498  0.80772498  0.80772498  1
  H  H9  1  0.24999999  0.24999999  0.24999999  1
  H  H10  1  0.74999998  0.74999998  0.74999998  1
  Br  Br11  1  0.76109998  0.76109998  0.23889999  1
  Br  Br12  1  0.23889999  0.76109998  0.76109998  1
  Br  Br13  1  0.23889999  0.76109998  0.23889999  1
  Br  Br14  1  0.23889999  0.23889999  0.76109998  1
  Br  Br15  1  0.76109998  0.23889999  0.23889999  1
  Br  Br16  1  0.76109998  0.23889999  0.76109998  1
