# generated using pymatgen
data_Mg2Fe4CoO7
_symmetry_space_group_name_H-M   'P 1'
_cell_length_a   6.08896589
_cell_length_b   6.08896589
_cell_length_c   6.10448694
_cell_angle_alpha   60.08407211
_cell_angle_beta   60.08407211
_cell_angle_gamma   60.00000000
_symmetry_Int_Tables_number   1
_chemical_formula_structural   Mg2Fe4CoO7
_chemical_formula_sum   'Mg2 Fe4 Co1 O7'
_cell_volume   160.24038003
_cell_formula_units_Z   1
loop_
 _symmetry_equiv_pos_site_id
 _symmetry_equiv_pos_as_xyz
  1  'x, y, z'
loop_
 _atom_site_type_symbol
 _atom_site_label
 _atom_site_symmetry_multiplicity
 _atom_site_fract_x
 _atom_site_fract_y
 _atom_site_fract_z
 _atom_site_occupancy
  Mg  Mg0  1  0.62471204  0.62471202  0.12586396  1
  Mg  Mg1  1  0.37528803  0.37528801  0.87413599  1
  Fe  Fe2  1  0.00000000  0.00000000  0.00000000  1
  Fe  Fe3  1  0.50000005  1.00000003  0.49999995  1
  Fe  Fe4  1  0.00000002  0.50000001  0.49999999  1
  Fe  Fe5  1  0.00000000  0.00000000  0.50000001  1
  Co  Co6  1  0.23630802  0.23630801  0.29107599  1
  O  O7  1  0.78850904  0.24009901  0.73129298  1
  O  O8  1  0.24009903  0.78850902  0.73129297  1
  O  O9  1  0.24009902  0.24009901  0.73129299  1
  O  O10  1  0.76369205  0.76369202  0.70892396  1
  O  O11  1  0.21149103  0.75990102  0.26870697  1
  O  O12  1  0.75990104  0.21149101  0.26870697  1
  O  O13  1  0.75990105  0.75990102  0.26870695  1
