# generated using pymatgen
data_Mn2CoO3
_symmetry_space_group_name_H-M   'P 1'
_cell_length_a   3.79244590
_cell_length_b   3.91569805
_cell_length_c   10.08251667
_cell_angle_alpha   90.00000000
_cell_angle_beta   90.00000000
_cell_angle_gamma   90.00000000
_symmetry_Int_Tables_number   1
_chemical_formula_structural   Mn2CoO3
_chemical_formula_sum   'Mn4 Co2 O6'
_cell_volume   149.72610871
_cell_formula_units_Z   2
loop_
 _symmetry_equiv_pos_site_id
 _symmetry_equiv_pos_as_xyz
  1  'x, y, z'
loop_
 _atom_site_type_symbol
 _atom_site_label
 _atom_site_symmetry_multiplicity
 _atom_site_fract_x
 _atom_site_fract_y
 _atom_site_fract_z
 _atom_site_occupancy
  Mn  Mn0  1  0.00000000  0.30428300  0.00000000  1
  Mn  Mn1  1  0.50000001  0.69571699  0.50000002  1
  Mn  Mn2  1  0.00000000  0.15665400  0.34140801  1
  Mn  Mn3  1  0.00000000  0.15665400  0.65859202  1
  Co  Co4  1  0.50000001  0.84334599  0.84140803  1
  Co  Co5  1  0.50000001  0.84334599  0.15859201  1
  O  O6  1  0.00000000  0.90946699  0.82005303  1
  O  O7  1  0.00000000  0.39224399  0.50000002  1
  O  O8  1  0.00000000  0.90946699  0.17994701  1
  O  O9  1  0.50000001  0.60775599  0.00000000  1
  O  O10  1  0.50000001  0.09053300  0.32005301  1
  O  O11  1  0.50000001  0.09053300  0.67994702  1
