# generated using pymatgen
data_NaLiTeBrF7
_symmetry_space_group_name_H-M   'P 1'
_cell_length_a   5.30437183
_cell_length_b   5.30437183
_cell_length_c   6.65871286
_cell_angle_alpha   113.47213745
_cell_angle_beta   113.47213745
_cell_angle_gamma   90.00000000
_symmetry_Int_Tables_number   1
_chemical_formula_structural   NaLiTeBrF7
_chemical_formula_sum   'Na1 Li1 Te1 Br1 F7'
_cell_volume   154.80184452
_cell_formula_units_Z   1
loop_
 _symmetry_equiv_pos_site_id
 _symmetry_equiv_pos_as_xyz
  1  'x, y, z'
loop_
 _atom_site_type_symbol
 _atom_site_label
 _atom_site_symmetry_multiplicity
 _atom_site_fract_x
 _atom_site_fract_y
 _atom_site_fract_z
 _atom_site_occupancy
  Na  Na0  1  0.00000000  0.00000000  0.00000000  1
  Li  Li1  1  0.24999997  0.75000000  0.49999995  1
  Te  Te2  1  0.49999998  0.50000000  -0.00000005  1
  Br  Br3  1  0.20357800  0.09798100  0.84618699  1
  F  F4  1  0.64260797  0.74820500  0.84618594  1
  F  F5  1  0.90201900  0.35739200  0.15381395  1
  F  F6  1  0.25179397  0.79642100  0.15381295  1
  F  F7  1  0.14076098  0.51313000  0.69649797  1
  F  F8  1  0.55573700  0.18336800  0.69649797  1
  F  F9  1  0.48686999  0.44426200  0.30350096  1
  F  F10  1  0.81663197  0.85924000  0.30350292  1
