# generated using pymatgen
data_KIn3Sb
_symmetry_space_group_name_H-M   'P 1'
_cell_length_a   4.83121204
_cell_length_b   4.83121204
_cell_length_c   6.99016762
_cell_angle_alpha   110.21671295
_cell_angle_beta   110.21671295
_cell_angle_gamma   90.00000000
_symmetry_Int_Tables_number   1
_chemical_formula_structural   KIn3Sb
_chemical_formula_sum   'K1 In3 Sb1'
_cell_volume   142.34354812
_cell_formula_units_Z   1
loop_
 _symmetry_equiv_pos_site_id
 _symmetry_equiv_pos_as_xyz
  1  'x, y, z'
loop_
 _atom_site_type_symbol
 _atom_site_label
 _atom_site_symmetry_multiplicity
 _atom_site_fract_x
 _atom_site_fract_y
 _atom_site_fract_z
 _atom_site_occupancy
  K  K0  1  0.00360100  0.00360100  0.00720200  1
  In  In1  1  0.61559098  0.61559099  0.23118198  1
  In  In2  1  0.74364698  0.24364699  0.48729399  1
  In  In3  1  0.24364698  0.74364698  0.48729399  1
  Sb  Sb4  1  0.39351398  0.39351399  0.78702801  1
