# generated using pymatgen
data_Cs4Cr2CoPSe8
_symmetry_space_group_name_H-M   'P 1'
_cell_length_a   5.85069180
_cell_length_b   7.46734381
_cell_length_c   12.22083855
_cell_angle_alpha   84.61917877
_cell_angle_beta   76.15042877
_cell_angle_gamma   66.93644714
_symmetry_Int_Tables_number   1
_chemical_formula_structural   Cs4Cr2CoPSe8
_chemical_formula_sum   'Cs4 Cr2 Co1 P1 Se8'
_cell_volume   476.96057656
_cell_formula_units_Z   1
loop_
 _symmetry_equiv_pos_site_id
 _symmetry_equiv_pos_as_xyz
  1  'x, y, z'
loop_
 _atom_site_type_symbol
 _atom_site_label
 _atom_site_symmetry_multiplicity
 _atom_site_fract_x
 _atom_site_fract_y
 _atom_site_fract_z
 _atom_site_occupancy
  Cs  Cs0  1  0.17919801  0.00000000  0.64160402  1
  Cs  Cs1  1  0.92919799  0.50000003  0.14160401  1
  Cs  Cs2  1  0.82080203  0.00000000  0.35839601  1
  Cs  Cs3  1  0.57080198  0.50000003  0.85839602  1
  Cr  Cr4  1  0.00000000  0.00000000  0.00000000  1
  Cr  Cr5  1  0.74999999  0.50000003  0.50000002  1
  P  P6  1  0.50000002  0.00000000  0.00000000  1
  Co  Co7  1  0.24999997  0.50000003  0.50000001  1
  Se  Se8  1  0.16173999  0.19065701  0.89150502  1
  Se  Se9  1  0.94675497  0.80934304  0.89150503  1
  Se  Se10  1  0.64760301  0.19065701  0.10849501  1
  Se  Se11  1  0.24390195  0.80934304  0.10849500  1
  Se  Se12  1  0.10239698  0.30934302  0.39150501  1
  Se  Se13  1  0.50609797  0.69065704  0.39150501  1
  Se  Se14  1  0.80324498  0.69065704  0.60849502  1
  Se  Se15  1  0.58826000  0.30934302  0.60849502  1
