# generated using pymatgen
data_Hf5ScTl2
_symmetry_space_group_name_H-M   'P 1'
_cell_length_a   5.21191406
_cell_length_b   6.32175589
_cell_length_c   6.32175589
_cell_angle_alpha   120.00000000
_cell_angle_beta   90.00000000
_cell_angle_gamma   90.00000000
_symmetry_Int_Tables_number   1
_chemical_formula_structural   Hf5ScTl2
_chemical_formula_sum   'Hf5 Sc1 Tl2'
_cell_volume   180.38620465
_cell_formula_units_Z   1
loop_
 _symmetry_equiv_pos_site_id
 _symmetry_equiv_pos_as_xyz
  1  'x, y, z'
loop_
 _atom_site_type_symbol
 _atom_site_label
 _atom_site_symmetry_multiplicity
 _atom_site_fract_x
 _atom_site_fract_y
 _atom_site_fract_z
 _atom_site_occupancy
  Hf  Hf0  1  0.74999999  0.83236500  0.16763597  1
  Hf  Hf1  1  0.74999999  0.33527100  0.16763599  1
  Hf  Hf2  1  0.74999999  0.83236500  0.66472996  1
  Hf  Hf3  1  0.25000000  0.16763500  0.83236398  1
  Hf  Hf4  1  0.25000000  0.66472900  0.83236396  1
  Sc  Sc5  1  0.25000000  0.16763500  0.33526999  1
  Tl  Tl6  1  0.25000000  0.66666667  0.33333331  1
  Tl  Tl7  1  0.74999999  0.33333334  0.66666664  1
