# generated using pymatgen
data_Cr2CuS4
_symmetry_space_group_name_H-M   'P 1'
_cell_length_a   6.70609617
_cell_length_b   6.73750162
_cell_length_c   6.73750162
_cell_angle_alpha   60.26257706
_cell_angle_beta   60.15407562
_cell_angle_gamma   60.15407562
_symmetry_Int_Tables_number   1
_chemical_formula_structural   Cr2CuS4
_chemical_formula_sum   'Cr4 Cu2 S8'
_cell_volume   216.18147072
_cell_formula_units_Z   2
loop_
 _symmetry_equiv_pos_site_id
 _symmetry_equiv_pos_as_xyz
  1  'x, y, z'
loop_
 _atom_site_type_symbol
 _atom_site_label
 _atom_site_symmetry_multiplicity
 _atom_site_fract_x
 _atom_site_fract_y
 _atom_site_fract_z
 _atom_site_occupancy
  Cr  Cr0  1  0.87375897  0.87624100  0.37624101  1
  Cr  Cr1  1  0.12624100  0.12375900  0.62375900  1
  Cr  Cr2  1  0.49999998  0.50000000  0.00000001  1
  Cr  Cr3  1  0.99999997  0.50000000  1.00000001  1
  Cu  Cu4  1  0.49999999  0.00000000  1.00000000  1
  Cu  Cu5  1  0.49999998  0.50000000  0.50000001  1
  S  S6  1  0.73767198  0.25998200  0.75998200  1
  S  S7  1  0.24933799  0.26703600  0.23428800  1
  S  S8  1  0.24236399  0.25998200  0.75998201  1
  S  S9  1  0.24933899  0.73428800  0.76703501  1
  S  S10  1  0.75066098  0.26571200  0.23296500  1
  S  S11  1  0.75763598  0.74001800  0.24001801  1
  S  S12  1  0.75066198  0.73296400  0.76571201  1
  S  S13  1  0.26232799  0.74001800  0.24001801  1
