# generated using pymatgen
data_Ba3LaBiTeSe4
_symmetry_space_group_name_H-M   'P 1'
_cell_length_a   4.56607199
_cell_length_b   4.56607199
_cell_length_c   18.85235405
_cell_angle_alpha   83.04435730
_cell_angle_beta   83.04435730
_cell_angle_gamma   60.00000000
_symmetry_Int_Tables_number   1
_chemical_formula_structural   Ba3LaBiTeSe4
_chemical_formula_sum   'Ba3 La1 Bi1 Te1 Se4'
_cell_volume   337.04942322
_cell_formula_units_Z   1
loop_
 _symmetry_equiv_pos_site_id
 _symmetry_equiv_pos_as_xyz
  1  'x, y, z'
loop_
 _atom_site_type_symbol
 _atom_site_label
 _atom_site_symmetry_multiplicity
 _atom_site_fract_x
 _atom_site_fract_y
 _atom_site_fract_z
 _atom_site_occupancy
  Ba  Ba0  1  0.10008500  0.10008500  0.69974503  1
  Ba  Ba1  1  0.89991499  0.89991500  0.30025504  1
  Ba  Ba2  1  0.49999999  0.50000000  0.50000003  1
  La  La3  1  0.70176999  0.70177000  0.89469006  1
  Bi  Bi4  1  0.29823000  0.29823000  0.10531001  1
  Te  Te5  1  0.00000000  0.00000000  0.00000000  1
  Se  Se6  1  0.59948599  0.59948600  0.20154202  1
  Se  Se7  1  0.19999900  0.19999900  0.40000302  1
  Se  Se8  1  0.80000099  0.80000100  0.59999705  1
  Se  Se9  1  0.40051399  0.40051400  0.79845804  1
