# generated using pymatgen
data_Ba4CuSe5
_symmetry_space_group_name_H-M   'P 1'
_cell_length_a   4.81892586
_cell_length_b   11.35666561
_cell_length_c   11.35666561
_cell_angle_alpha   69.62253571
_cell_angle_beta   77.75086975
_cell_angle_gamma   77.75086975
_symmetry_Int_Tables_number   1
_chemical_formula_structural   Ba4CuSe5
_chemical_formula_sum   'Ba8 Cu2 Se10'
_cell_volume   562.83213816
_cell_formula_units_Z   2
loop_
 _symmetry_equiv_pos_site_id
 _symmetry_equiv_pos_as_xyz
  1  'x, y, z'
loop_
 _atom_site_type_symbol
 _atom_site_label
 _atom_site_symmetry_multiplicity
 _atom_site_fract_x
 _atom_site_fract_y
 _atom_site_fract_z
 _atom_site_occupancy
  Ba  Ba0  1  0.81170302  0.02255600  0.35403901  1
  Ba  Ba1  1  0.18829807  0.64595999  0.97744396  1
  Ba  Ba2  1  0.18829711  0.97744399  0.64596096  1
  Ba  Ba3  1  0.00000008  0.70864999  0.29134997  1
  Ba  Ba4  1  0.81170205  0.35403999  0.02255601  1
  Ba  Ba5  1  0.00000000  0.00000000  0.00000000  1
  Ba  Ba6  1  0.83104709  0.66895299  0.66895298  1
  Ba  Ba7  1  1.00000005  0.29135000  0.70865000  1
  Cu  Cu8  1  0.50000006  0.49999999  0.49999998  1
  Se  Se9  1  0.16895304  0.33104699  0.33104699  1
  Se  Se10  1  0.37110009  0.80882699  0.44897397  1
  Cu  Cu11  1  0.56807402  0.08686800  0.77698500  1
  Se  Se12  1  0.56807309  0.77698599  0.08686798  1
  Se  Se13  1  0.64199110  0.85800899  0.85800897  1
  Se  Se14  1  0.62890107  0.55102499  0.19117299  1
  Se  Se15  1  0.43192703  0.22301400  0.91313199  1
  Se  Se16  1  0.37109905  0.44897499  0.80882698  1
  Se  Se17  1  0.62890003  0.19117300  0.55102600  1
  Se  Se18  1  0.35800902  0.14199100  0.14199100  1
  Se  Se19  1  0.43192611  0.91313199  0.22301497  1
