# generated using pymatgen
data_Cs2ClF7
_symmetry_space_group_name_H-M   'P 1'
_cell_length_a   3.82752609
_cell_length_b   12.24912739
_cell_length_c   12.24912739
_cell_angle_alpha   90.00000000
_cell_angle_beta   90.00000000
_cell_angle_gamma   90.00000000
_symmetry_Int_Tables_number   1
_chemical_formula_structural   Cs2ClF7
_chemical_formula_sum   'Cs4 Cl2 F14'
_cell_volume   574.28630852
_cell_formula_units_Z   2
loop_
 _symmetry_equiv_pos_site_id
 _symmetry_equiv_pos_as_xyz
  1  'x, y, z'
loop_
 _atom_site_type_symbol
 _atom_site_label
 _atom_site_symmetry_multiplicity
 _atom_site_fract_x
 _atom_site_fract_y
 _atom_site_fract_z
 _atom_site_occupancy
  Cs  Cs0  1  0.00000000  0.10893500  0.10893500  1
  Cs  Cs1  1  0.49999999  0.60893498  0.39106499  1
  Cs  Cs2  1  0.00000000  0.89106497  0.89106497  1
  Cs  Cs3  1  0.49999999  0.39106499  0.60893498  1
  Cl  Cl4  1  0.00000000  0.90000397  0.70230498  1
  F  F5  1  0.49999999  0.59821198  0.59821198  1
  F  F6  1  0.49999999  0.79769497  0.40000399  1
  Cl  Cl7  1  0.00000000  0.09821200  0.90178797  1
  F  F8  1  0.49999999  0.40178799  0.40178799  1
  F  F9  1  -0.00000000  0.29769499  0.09999600  1
  F  F10  1  -0.00000000  0.09999600  0.29769499  1
  F  F11  1  0.49999999  0.40000399  0.79769497  1
  F  F12  1  0.49999999  0.20230499  0.59999598  1
  F  F13  1  0.49999999  0.59999598  0.20230499  1
  F  F14  1  0.00000000  0.70230498  0.90000397  1
  F  F15  1  0.00000000  0.90178797  0.09821200  1
  F  F16  1  -0.00000000  0.59899698  0.40100299  1
  F  F17  1  0.49999999  0.09899700  0.09899700  1
  F  F18  1  0.49999999  0.90100297  0.90100297  1
  F  F19  1  0.00000000  0.40100299  0.59899698  1
