# generated using pymatgen
data_Sr2ICl
_symmetry_space_group_name_H-M   'P 1'
_cell_length_a   4.55804205
_cell_length_b   4.55804205
_cell_length_c   11.08196640
_cell_angle_alpha   90.00000000
_cell_angle_beta   90.00000000
_cell_angle_gamma   90.00000000
_symmetry_Int_Tables_number   1
_chemical_formula_structural   Sr2ICl
_chemical_formula_sum   'Sr4 I2 Cl2'
_cell_volume   230.23613378
_cell_formula_units_Z   2
loop_
 _symmetry_equiv_pos_site_id
 _symmetry_equiv_pos_as_xyz
  1  'x, y, z'
loop_
 _atom_site_type_symbol
 _atom_site_label
 _atom_site_symmetry_multiplicity
 _atom_site_fract_x
 _atom_site_fract_y
 _atom_site_fract_z
 _atom_site_occupancy
  Sr  Sr0  1  0.00000000  0.00000000  0.00000000  1
  Sr  Sr1  1  0.49999999  0.49999999  -0.00000000  1
  Sr  Sr2  1  -0.00000000  0.49999999  0.25915599  1
  Sr  Sr3  1  0.49999999  0.00000000  0.74084397  1
  Cl  Cl4  1  -0.00000000  0.49999999  0.83780497  1
  Cl  Cl5  1  0.49999999  0.00000000  0.16219499  1
  I  I6  1  0.00000000  0.00000000  0.49999998  1
  I  I7  1  0.49999999  0.49999999  0.49999998  1
