# generated using pymatgen
data_TiNiAs
_symmetry_space_group_name_H-M   'P 1'
_cell_length_a   3.66119909
_cell_length_b   6.06062317
_cell_length_c   6.99009609
_cell_angle_alpha   90.00000000
_cell_angle_beta   90.00000000
_cell_angle_gamma   90.00000000
_symmetry_Int_Tables_number   1
_chemical_formula_structural   TiNiAs
_chemical_formula_sum   'Ti4 Ni4 As4'
_cell_volume   155.10427706
_cell_formula_units_Z   4
loop_
 _symmetry_equiv_pos_site_id
 _symmetry_equiv_pos_as_xyz
  1  'x, y, z'
loop_
 _atom_site_type_symbol
 _atom_site_label
 _atom_site_symmetry_multiplicity
 _atom_site_fract_x
 _atom_site_fract_y
 _atom_site_fract_z
 _atom_site_occupancy
  Ti  Ti0  1  0.74999998  0.47222799  0.17941600  1
  Ti  Ti1  1  0.74999998  0.97222797  0.32058400  1
  Ti  Ti2  1  0.24999999  0.52777199  0.82058399  1
  Ti  Ti3  1  0.24999999  0.02777200  0.67941599  1
  Ni  Ni4  1  0.74999998  0.35839299  0.55793199  1
  Ni  Ni5  1  0.74999998  0.85839298  0.94206799  1
  Ni  Ni6  1  0.24999999  0.64160698  0.44206799  1
  Ni  Ni7  1  0.24999999  0.14160700  0.05793200  1
  As  As8  1  0.74999998  0.23819199  0.87389599  1
  As  As9  1  0.74999998  0.73819198  0.62610399  1
  As  As10  1  0.24999999  0.76180798  0.12610400  1
  As  As11  1  0.24999999  0.26180799  0.37389600  1
