# generated using pymatgen
data_Er3Fe2Si3
_symmetry_space_group_name_H-M   'P 1'
_cell_length_a   4.05174780
_cell_length_b   5.57269621
_cell_length_c   13.44610310
_cell_angle_alpha   90.00000000
_cell_angle_beta   90.00000000
_cell_angle_gamma   111.31749725
_symmetry_Int_Tables_number   1
_chemical_formula_structural   Er3Fe2Si3
_chemical_formula_sum   'Er6 Fe4 Si6'
_cell_volume   282.82935568
_cell_formula_units_Z   2
loop_
 _symmetry_equiv_pos_site_id
 _symmetry_equiv_pos_as_xyz
  1  'x, y, z'
loop_
 _atom_site_type_symbol
 _atom_site_label
 _atom_site_symmetry_multiplicity
 _atom_site_fract_x
 _atom_site_fract_y
 _atom_site_fract_z
 _atom_site_occupancy
  Er  Er0  1  0.36251108  0.72502204  0.74999999  1
  Er  Er1  1  0.63748905  0.27497801  0.25000000  1
  Er  Er2  1  0.07903302  0.15806601  0.88760499  1
  Er  Er3  1  0.92096711  0.84193404  0.11239500  1
  Er  Er4  1  0.92096711  0.84193404  0.38760500  1
  Er  Er5  1  0.07903302  0.15806601  0.61239500  1
  Fe  Fe6  1  0.21432305  0.42864602  0.41903200  1
  Fe  Fe7  1  0.78567709  0.57135403  0.58096800  1
  Fe  Fe8  1  0.78567709  0.57135403  0.91903199  1
  Fe  Fe9  1  0.21432305  0.42864602  0.08096800  1
  Si  Si10  1  0.67251406  0.34502802  0.74999999  1
  Si  Si11  1  0.32748607  0.65497203  0.25000000  1
  Si  Si12  1  0.37607008  0.75214004  0.96035899  1
  Si  Si13  1  0.62393005  0.24786001  0.03964100  1
  Si  Si14  1  0.62393005  0.24786001  0.46035900  1
  Si  Si15  1  0.37607008  0.75214004  0.53964100  1
