# generated using pymatgen
data_Li5CoO8
_symmetry_space_group_name_H-M   'P 1'
_cell_length_a   5.97314453
_cell_length_b   5.98290491
_cell_length_c   6.00694084
_cell_angle_alpha   119.84432983
_cell_angle_beta   119.77324677
_cell_angle_gamma   90.04211426
_symmetry_Int_Tables_number   1
_chemical_formula_structural   Li5CoO8
_chemical_formula_sum   'Li5 Co1 O8'
_cell_volume   152.61183743
_cell_formula_units_Z   1
loop_
 _symmetry_equiv_pos_site_id
 _symmetry_equiv_pos_as_xyz
  1  'x, y, z'
loop_
 _atom_site_type_symbol
 _atom_site_label
 _atom_site_symmetry_multiplicity
 _atom_site_fract_x
 _atom_site_fract_y
 _atom_site_fract_z
 _atom_site_occupancy
  Li  Li0  1  0.64334603  0.88150505  0.76324303  1
  Li  Li1  1  0.49714201  0.49887703  0.99755100  1
  Li  Li2  1  0.99586003  0.99409506  0.49608005  1
  Li  Li3  1  0.99664200  0.50242603  0.00533905  1
  Li  Li4  1  0.99578900  0.50116603  0.49610003  1
  Co  Co5  1  0.35170000  0.11744801  0.23582201  1
  O  O6  1  0.22008003  0.73898904  0.47744102  1
  O  O7  1  0.79299102  0.75100104  0.04305805  1
  O  O8  1  0.79232800  0.29216202  0.04264903  1
  O  O9  1  0.78925702  0.74909304  0.49787404  1
  O  O10  1  0.21859401  0.25629201  0.51122900  1
  O  O11  1  0.21515203  0.70747304  0.95659000  1
  O  O12  1  0.21484601  0.24955001  0.95706498  1
  O  O13  1  0.77626999  0.25992302  0.51995802  1
