# generated using pymatgen
data_Li8SbO11
_symmetry_space_group_name_H-M   'P 1'
_cell_length_a   3.00318146
_cell_length_b   6.55202913
_cell_length_c   12.02542591
_cell_angle_alpha   102.04241943
_cell_angle_beta   90.01152039
_cell_angle_gamma   103.24029541
_symmetry_Int_Tables_number   1
_chemical_formula_structural   Li8SbO11
_chemical_formula_sum   'Li8 Sb1 O11'
_cell_volume   224.97837305
_cell_formula_units_Z   1
loop_
 _symmetry_equiv_pos_site_id
 _symmetry_equiv_pos_as_xyz
  1  'x, y, z'
loop_
 _atom_site_type_symbol
 _atom_site_label
 _atom_site_symmetry_multiplicity
 _atom_site_fract_x
 _atom_site_fract_y
 _atom_site_fract_z
 _atom_site_occupancy
  Li  Li0  1  0.33337206  0.66683699  0.08335201  1
  Li  Li1  1  0.33337706  0.66684899  0.58338202  1
  Li  Li2  1  0.01537400  0.03084700  0.48389401  1
  Li  Li3  1  0.01535000  0.03079800  0.98389502  1
  Li  Li4  1  0.65122603  0.30251600  0.18275401  1
  Li  Li5  1  0.65123703  0.30253600  0.68275902  1
  Li  Li6  1  0.33333339  0.66679799  0.83341502  1
  Li  Li7  1  0.33322106  0.66681099  0.33349701  1
  O  O8  1  0.81449706  0.62894399  0.21542901  1
  Sb  Sb9  1  0.81453706  0.62897199  0.71540402  1
  O  O10  1  0.85235907  0.70437099  0.45124902  1
  O  O11  1  0.85237107  0.70432799  0.95122802  1
  O  O12  1  0.16126803  0.32257500  0.06400500  1
  O  O13  1  0.16129203  0.32262500  0.56402701  1
  O  O14  1  0.50530501  0.01050200  0.10256200  1
  O  O15  1  0.50532101  0.01053800  0.60258201  1
  O  O16  1  0.16481203  0.32944700  0.28294401  1
  O  O17  1  0.16485403  0.32951800  0.78294902  1
  O  O18  1  0.50180801  0.00380800  0.38368601  1
  O  O19  1  0.50177101  0.00371700  0.88365602  1
