# generated using pymatgen
data_Sr3AlN3
_symmetry_space_group_name_H-M   'P 1'
_cell_length_a   6.59231472
_cell_length_b   6.68843269
_cell_length_c   6.68843269
_cell_angle_alpha   64.87429047
_cell_angle_beta   83.70783997
_cell_angle_gamma   96.29216003
_symmetry_Int_Tables_number   1
_chemical_formula_structural   Sr3AlN3
_chemical_formula_sum   'Sr6 Al2 N6'
_cell_volume   261.37006104
_cell_formula_units_Z   2
loop_
 _symmetry_equiv_pos_site_id
 _symmetry_equiv_pos_as_xyz
  1  'x, y, z'
loop_
 _atom_site_type_symbol
 _atom_site_label
 _atom_site_symmetry_multiplicity
 _atom_site_fract_x
 _atom_site_fract_y
 _atom_site_fract_z
 _atom_site_occupancy
  Sr  Sr0  1  0.35059599  0.62670902  0.37329100  1
  Sr  Sr1  1  1.00000000  0.74206303  0.74206302  1
  Sr  Sr2  1  0.49999999  0.80459203  0.80459201  1
  Sr  Sr3  1  -0.00000000  0.25793701  0.25793700  1
  Sr  Sr4  1  0.64940400  0.37329101  0.62670902  1
  Sr  Sr5  1  0.50000000  0.19540801  0.19540801  1
  Al  Al6  1  0.85183700  0.82986303  0.17013700  1
  Al  Al7  1  0.14816300  0.17013701  0.82986302  1
  N  N8  1  0.73419799  0.84390003  0.42780000  1
  N  N9  1  0.15451099  0.89957403  0.10042598  1
  N  N10  1  0.84548901  0.10042600  0.89957403  1
  N  N11  1  0.26580200  0.15610001  0.57220002  1
  N  N12  1  0.26580200  0.42780002  0.84390002  1
  N  N13  1  0.73419800  0.57220002  0.15610000  1
