# generated using pymatgen
data_Nb4Mo3
_symmetry_space_group_name_H-M   'P 1'
_cell_length_a   4.46259594
_cell_length_b   9.52286243
_cell_length_c   9.52286243
_cell_angle_alpha   120.00000000
_cell_angle_beta   90.00000000
_cell_angle_gamma   90.00000000
_symmetry_Int_Tables_number   1
_chemical_formula_structural   Nb4Mo3
_chemical_formula_sum   'Nb8 Mo6'
_cell_volume   350.47191284
_cell_formula_units_Z   2
loop_
 _symmetry_equiv_pos_site_id
 _symmetry_equiv_pos_as_xyz
  1  'x, y, z'
loop_
 _atom_site_type_symbol
 _atom_site_label
 _atom_site_symmetry_multiplicity
 _atom_site_fract_x
 _atom_site_fract_y
 _atom_site_fract_z
 _atom_site_occupancy
  Nb  Nb0  1  0.25000000  0.66666665  0.33333336  1
  Nb  Nb1  1  0.75000001  0.33333332  0.66666668  1
  Nb  Nb2  1  0.25000000  0.85015598  0.82787104  1
  Nb  Nb3  1  0.75000001  0.02228500  0.85015601  1
  Nb  Nb4  1  0.75000001  0.82787098  0.97771504  1
  Nb  Nb5  1  0.75000001  0.14984400  0.17212901  1
  Nb  Nb6  1  0.25000000  0.97771497  0.14984404  1
  Nb  Nb7  1  0.25000000  0.17212900  0.02228501  1
  Mo  Mo8  1  0.25000000  0.67763998  0.95643303  1
  Mo  Mo9  1  0.75000001  0.72120698  0.67764103  1
  Mo  Mo10  1  0.75000001  0.95643397  0.27879404  1
  Mo  Mo11  1  0.75000001  0.32235999  0.04356701  1
  Mo  Mo12  1  0.25000000  0.04356600  0.72120601  1
  Mo  Mo13  1  0.25000000  0.27879299  0.32235901  1
