# generated using pymatgen
data_ZrSnPt
_symmetry_space_group_name_H-M   'P 1'
_cell_length_a   4.46480989
_cell_length_b   4.46480989
_cell_length_c   7.23805189
_cell_angle_alpha   90.00000000
_cell_angle_beta   90.00000000
_cell_angle_gamma   120.00000000
_symmetry_Int_Tables_number   1
_chemical_formula_structural   ZrSnPt
_chemical_formula_sum   'Zr2 Sn2 Pt2'
_cell_volume   124.95633189
_cell_formula_units_Z   2
loop_
 _symmetry_equiv_pos_site_id
 _symmetry_equiv_pos_as_xyz
  1  'x, y, z'
loop_
 _atom_site_type_symbol
 _atom_site_label
 _atom_site_symmetry_multiplicity
 _atom_site_fract_x
 _atom_site_fract_y
 _atom_site_fract_z
 _atom_site_occupancy
  Zr  Zr0  1  0.00000000  0.00000000  0.32539200  1
  Zr  Zr1  1  0.00000000  0.00000000  0.82539201  1
  Sn  Sn2  1  0.66666669  0.33333335  0.98811401  1
  Sn  Sn3  1  0.33333335  0.66666670  0.48811401  1
  Pt  Pt4  1  0.33333335  0.66666670  0.10549400  1
  Pt  Pt5  1  0.66666669  0.33333335  0.60549401  1
