# generated using pymatgen
data_CeFeSi3
_symmetry_space_group_name_H-M   'P 1'
_cell_length_a   3.97759295
_cell_length_b   3.97759295
_cell_length_c   5.21260118
_cell_angle_alpha   90.00000000
_cell_angle_beta   90.00000000
_cell_angle_gamma   90.00000000
_symmetry_Int_Tables_number   1
_chemical_formula_structural   CeFeSi3
_chemical_formula_sum   'Ce1 Fe1 Si3'
_cell_volume   82.46984375
_cell_formula_units_Z   1
loop_
 _symmetry_equiv_pos_site_id
 _symmetry_equiv_pos_as_xyz
  1  'x, y, z'
loop_
 _atom_site_type_symbol
 _atom_site_label
 _atom_site_symmetry_multiplicity
 _atom_site_fract_x
 _atom_site_fract_y
 _atom_site_fract_z
 _atom_site_occupancy
  Ce  Ce0  1  0.00000000  0.00000000  0.97930397  1
  Fe  Fe1  1  0.50000001  0.50000001  0.71192797  1
  Si  Si2  1  0.00000000  0.50000001  0.51464598  1
  Si  Si3  1  0.50000001  0.50000001  0.12137500  1
  Si  Si4  1  0.50000001  0.00000000  0.51464598  1
