# generated using pymatgen
data_Ti3CuSe6
_symmetry_space_group_name_H-M   'P 1'
_cell_length_a   6.01072407
_cell_length_b   6.01072407
_cell_length_c   12.79807854
_cell_angle_alpha   90.00000000
_cell_angle_beta   90.00000000
_cell_angle_gamma   120.00000000
_symmetry_Int_Tables_number   1
_chemical_formula_structural   Ti3CuSe6
_chemical_formula_sum   'Ti6 Cu2 Se12'
_cell_volume   400.43219288
_cell_formula_units_Z   2
loop_
 _symmetry_equiv_pos_site_id
 _symmetry_equiv_pos_as_xyz
  1  'x, y, z'
loop_
 _atom_site_type_symbol
 _atom_site_label
 _atom_site_symmetry_multiplicity
 _atom_site_fract_x
 _atom_site_fract_y
 _atom_site_fract_z
 _atom_site_occupancy
  Ti  Ti0  1  0.00000000  0.00000000  0.50000002  1
  Ti  Ti1  1  0.00000000  0.00000000  0.00000000  1
  Ti  Ti2  1  0.66666667  0.33333335  0.00058200  1
  Ti  Ti3  1  0.33333335  0.66666670  0.99941804  1
  Ti  Ti4  1  0.33333335  0.66666670  0.50058202  1
  Ti  Ti5  1  0.66666667  0.33333335  0.49941802  1
  Cu  Cu6  1  0.66666667  0.33333335  0.75000003  1
  Cu  Cu7  1  0.33333335  0.66666670  0.25000001  1
  Se  Se8  1  0.66649502  0.99849505  0.63172802  1
  Se  Se9  1  0.33200001  0.33350502  0.63172802  1
  Se  Se10  1  0.00150502  0.66800003  0.63172802  1
  Se  Se11  1  0.66799999  0.00150500  0.36827201  1
  Se  Se12  1  0.99849501  0.66649503  0.36827201  1
  Se  Se13  1  0.33350501  0.33200002  0.36827201  1
  Se  Se14  1  0.33350500  0.00150500  0.13172800  1
  Se  Se15  1  0.66800001  0.66649503  0.13172800  1
  Se  Se16  1  0.99849500  0.33200002  0.13172800  1
  Se  Se17  1  0.33200003  0.99849505  0.86827203  1
  Se  Se18  1  0.00150501  0.33350502  0.86827203  1
  Se  Se19  1  0.66649501  0.66800003  0.86827203  1
