# generated using pymatgen
data_FeP4
_symmetry_space_group_name_H-M   'P 1'
_cell_length_a   5.26481009
_cell_length_b   5.84911823
_cell_length_c   6.09746981
_cell_angle_alpha   81.28100586
_cell_angle_beta   64.42317963
_cell_angle_gamma   69.44377899
_symmetry_Int_Tables_number   1
_chemical_formula_structural   FeP4
_chemical_formula_sum   'Fe2 P8'
_cell_volume   158.58454392
_cell_formula_units_Z   2
loop_
 _symmetry_equiv_pos_site_id
 _symmetry_equiv_pos_as_xyz
  1  'x, y, z'
loop_
 _atom_site_type_symbol
 _atom_site_label
 _atom_site_symmetry_multiplicity
 _atom_site_fract_x
 _atom_site_fract_y
 _atom_site_fract_z
 _atom_site_occupancy
  Fe  Fe0  1  0.93776790  0.75000003  0.12446405  1
  Fe  Fe1  1  0.06223197  0.25000001  0.87553602  1
  P  P2  1  0.50366491  0.68978603  0.44446105  1
  P  P3  1  0.05187391  0.81021404  0.44446105  1
  P  P4  1  0.81540191  0.67666103  0.81978905  1
  P  P5  1  0.36480890  0.82333904  0.81978905  1
  P  P6  1  0.18459796  0.32333901  0.18021102  1
  P  P7  1  0.63519097  0.17666101  0.18021102  1
  P  P8  1  0.94812596  0.18978601  0.55553902  1
  P  P9  1  0.49633496  0.31021401  0.55553902  1
