# generated using pymatgen
data_CeB2Os3
_symmetry_space_group_name_H-M   'P 1'
_cell_length_a   5.01905012
_cell_length_b   5.01905012
_cell_length_c   6.82378101
_cell_angle_alpha   90.00000000
_cell_angle_beta   90.00000000
_cell_angle_gamma   120.00000000
_symmetry_Int_Tables_number   1
_chemical_formula_structural   CeB2Os3
_chemical_formula_sum   'Ce2 B4 Os6'
_cell_volume   148.86711713
_cell_formula_units_Z   2
loop_
 _symmetry_equiv_pos_site_id
 _symmetry_equiv_pos_as_xyz
  1  'x, y, z'
loop_
 _atom_site_type_symbol
 _atom_site_label
 _atom_site_symmetry_multiplicity
 _atom_site_fract_x
 _atom_site_fract_y
 _atom_site_fract_z
 _atom_site_occupancy
  Ce  Ce0  1  0.00000000  0.00000000  0.50000000  1
  Ce  Ce1  1  0.00000000  0.00000000  0.00000000  1
  B  B2  1  0.66666666  0.33333334  1.00000000  1
  B  B3  1  0.33333334  0.66666668  1.00000000  1
  B  B4  1  0.50000000  0.50000001  0.71174400  1
  B  B5  1  0.50000001  1.00000002  0.71174400  1
  Os  Os6  1  0.00000001  0.50000001  0.71174400  1
  Os  Os7  1  0.50000000  0.50000001  0.28825600  1
  Os  Os8  1  0.50000001  1.00000002  0.28825600  1
  Os  Os9  1  0.00000001  0.50000001  0.28825600  1
  Os  Os10  1  0.33333334  0.66666668  0.50000000  1
  Os  Os11  1  0.66666666  0.33333334  0.50000000  1
