# generated using pymatgen
data_CaCoO3
_symmetry_space_group_name_H-M   'P 1'
_cell_length_a   5.23800564
_cell_length_b   5.42460585
_cell_length_c   7.93438816
_cell_angle_alpha   90.00026703
_cell_angle_beta   90.42929077
_cell_angle_gamma   89.99982452
_symmetry_Int_Tables_number   1
_chemical_formula_structural   CaCoO3
_chemical_formula_sum   'Ca4 Co4 O12'
_cell_volume   225.44229755
_cell_formula_units_Z   4
loop_
 _symmetry_equiv_pos_site_id
 _symmetry_equiv_pos_as_xyz
  1  'x, y, z'
loop_
 _atom_site_type_symbol
 _atom_site_label
 _atom_site_symmetry_multiplicity
 _atom_site_fract_x
 _atom_site_fract_y
 _atom_site_fract_z
 _atom_site_occupancy
  Ca  Ca0  1  0.48592599  0.55146002  0.75124698  1
  Ca  Ca1  1  0.98590798  0.94853903  0.25127897  1
  Ca  Ca2  1  0.01838700  0.05938500  0.74799700  1
  Ca  Ca3  1  0.51841199  0.44061801  0.24796498  1
  Co  Co4  1  0.49986097  0.99901403  0.49983999  1
  Co  Co5  1  0.49885397  0.99610503  0.00020599  1
  Co  Co6  1  0.99989301  0.50098301  0.99977296  1
  Co  Co7  1  0.99895001  0.50384601  0.50003497  1
  O  O8  1  0.59964297  0.97596703  0.73656298  1
  O  O9  1  0.09969098  0.52406201  0.23655300  1
  O  O10  1  0.91716300  0.47028501  0.76350597  1
  O  O11  1  0.41712701  0.02972800  0.26351498  1
  O  O12  1  0.19475697  0.79837202  0.94702499  1
  O  O13  1  0.69854799  0.69754102  0.04926698  1
  O  O14  1  0.69468999  0.70161702  0.44701898  1
  O  O15  1  0.19848797  0.80248502  0.54925099  1
  O  O16  1  0.29423999  0.28964301  0.55131499  1
  O  O17  1  0.79254901  0.20880501  0.45316397  1
  O  O18  1  0.79430601  0.21033901  0.05129997  1
  O  O19  1  0.29260899  0.29120501  0.95317899  1
