# generated using pymatgen
data_Ho3Sc
_symmetry_space_group_name_H-M   'P 1'
_cell_length_a   5.62089109
_cell_length_b   7.03755617
_cell_length_c   7.03755569
_cell_angle_alpha   120.00000000
_cell_angle_beta   90.00000000
_cell_angle_gamma   90.00000000
_symmetry_Int_Tables_number   1
_chemical_formula_structural   Ho3Sc
_chemical_formula_sum   'Ho6 Sc2'
_cell_volume   241.09018024
_cell_formula_units_Z   2
loop_
 _symmetry_equiv_pos_site_id
 _symmetry_equiv_pos_as_xyz
  1  'x, y, z'
loop_
 _atom_site_type_symbol
 _atom_site_label
 _atom_site_symmetry_multiplicity
 _atom_site_fract_x
 _atom_site_fract_y
 _atom_site_fract_z
 _atom_site_occupancy
  Ho  Ho0  1  0.25000000  0.34000899  0.17000499  1
  Ho  Ho1  1  0.25000000  0.82999597  0.17000498  1
  Ho  Ho2  1  0.25000000  0.82999597  0.65999199  1
  Ho  Ho3  1  0.74999999  0.17000399  0.82999500  1
  Ho  Ho4  1  0.74999999  0.17000399  0.34000800  1
  Ho  Ho5  1  0.74999999  0.65999098  0.82999499  1
  Sc  Sc6  1  0.25000000  0.33333332  0.66666667  1
  Sc  Sc7  1  0.74999999  0.66666664  0.33333332  1
