# generated using pymatgen
data_YScSi
_symmetry_space_group_name_H-M   'P 1'
_cell_length_a   4.38299894
_cell_length_b   4.38391018
_cell_length_c   7.23250008
_cell_angle_alpha   90.00053406
_cell_angle_beta   90.00005341
_cell_angle_gamma   60.00779343
_symmetry_Int_Tables_number   1
_chemical_formula_structural   YScSi
_chemical_formula_sum   'Y2 Sc2 Si2'
_cell_volume   120.36111228
_cell_formula_units_Z   2
loop_
 _symmetry_equiv_pos_site_id
 _symmetry_equiv_pos_as_xyz
  1  'x, y, z'
loop_
 _atom_site_type_symbol
 _atom_site_label
 _atom_site_symmetry_multiplicity
 _atom_site_fract_x
 _atom_site_fract_y
 _atom_site_fract_z
 _atom_site_occupancy
  Y  Y0  1  0.99999501  0.00001100  0.26839203  1
  Y  Y1  1  0.99999401  0.00001400  0.73956103  1
  Sc  Sc2  1  0.33333335  0.33329265  0.52444601  1
  Sc  Sc3  1  0.33333335  0.33333332  0.95413800  1
  Si  Si4  1  0.66666670  0.66666663  0.04932202  1
  Si  Si5  1  0.66666670  0.66666663  0.46414202  1
