# generated using pymatgen
data_TeI5
_symmetry_space_group_name_H-M   'P 1'
_cell_length_a   7.48030376
_cell_length_b   7.75886011
_cell_length_c   16.68692589
_cell_angle_alpha   102.11783600
_cell_angle_beta   90.00000000
_cell_angle_gamma   90.00000000
_symmetry_Int_Tables_number   1
_chemical_formula_structural   TeI5
_chemical_formula_sum   'Te3 I15'
_cell_volume   946.90645124
_cell_formula_units_Z   3
loop_
 _symmetry_equiv_pos_site_id
 _symmetry_equiv_pos_as_xyz
  1  'x, y, z'
loop_
 _atom_site_type_symbol
 _atom_site_label
 _atom_site_symmetry_multiplicity
 _atom_site_fract_x
 _atom_site_fract_y
 _atom_site_fract_z
 _atom_site_occupancy
  Te  Te0  1  0.99556403  0.36608899  0.65435697  1
  Te  Te1  1  0.00443600  0.86608898  0.15435698  1
  Te  Te2  1  0.59767802  0.49993999  0.50169397  1
  I  I3  1  0.40232201  0.99993998  0.00169398  1
  I  I4  1  0.38436801  0.28049899  0.38868798  1
  I  I5  1  0.39333201  0.80458798  0.53290696  1
  I  I6  1  0.16949701  0.10582400  0.89032497  1
  I  I7  1  0.83050303  0.60582399  0.39032497  1
  I  I8  1  0.11981100  0.18025300  0.15478199  1
  I  I9  1  0.60666802  0.30458799  0.03290699  1
  I  I10  1  0.12601700  0.66834398  0.02112199  1
  I  I11  1  0.87398303  0.16834400  0.52112198  1
  I  I12  1  0.66477002  0.84805598  0.16184798  1
  I  I13  1  0.33523001  0.34805599  0.66184797  1
  I  I14  1  0.14304900  0.76882698  0.27879797  1
  I  I15  1  0.85695103  0.26882699  0.77879797  1
  I  I16  1  0.61563202  0.78049898  0.88868795  1
  I  I17  1  0.88018903  0.68025298  0.65478196  1
