# generated using pymatgen
data_Mn5(SiMo)2
_symmetry_space_group_name_H-M   'P 1'
_cell_length_a   6.63095903
_cell_length_b   6.63777018
_cell_length_c   9.43766403
_cell_angle_alpha   77.85182953
_cell_angle_beta   77.81578064
_cell_angle_gamma   61.41310883
_symmetry_Int_Tables_number   1
_chemical_formula_structural   Mn5(SiMo)2
_chemical_formula_sum   'Mn10 Si4 Mo4'
_cell_volume   353.62943828
_cell_formula_units_Z   2
loop_
 _symmetry_equiv_pos_site_id
 _symmetry_equiv_pos_as_xyz
  1  'x, y, z'
loop_
 _atom_site_type_symbol
 _atom_site_label
 _atom_site_symmetry_multiplicity
 _atom_site_fract_x
 _atom_site_fract_y
 _atom_site_fract_z
 _atom_site_occupancy
  Mn  Mn0  1  0.39693599  0.40390400  0.19387903  1
  Mn  Mn1  1  0.80805497  0.79989599  0.39882205  1
  Mn  Mn2  1  0.19194499  0.20010400  0.60117803  1
  Mn  Mn3  1  0.60306398  0.59609599  0.80612105  1
  Mn  Mn4  1  0.80464897  0.81389499  0.89714106  1
  Mn  Mn5  1  0.19535099  0.18610500  0.10285901  1
  Mn  Mn6  1  0.59388198  0.60143799  0.30684804  1
  Mn  Mn7  1  0.40611799  0.39856200  0.69315204  1
  Si  Si8  1  0.56127499  0.22612900  0.44598603  1
  Mn  Mn9  1  0.96266498  0.62863299  0.64681406  1
  Mn  Mn10  1  0.36587500  0.02954200  0.84967403  1
  Si  Si11  1  0.76432098  0.43739800  0.05236203  1
  Si  Si12  1  0.16503498  0.82613799  0.25181603  1
  Mo  Mo13  1  0.03733499  0.37136700  0.35318602  1
  Mo  Mo14  1  0.43872498  0.77387099  0.55401405  1
  Mo  Mo15  1  0.83496499  0.17386200  0.74818404  1
  Si  Si16  1  0.23567899  0.56260199  0.94763805  1
  Mo  Mo17  1  0.63412497  0.97045799  0.15032605  1
