# generated using pymatgen
data_Ce(CuTe)3
_symmetry_space_group_name_H-M   'P 1'
_cell_length_a   7.46716166
_cell_length_b   7.46716166
_cell_length_c   8.21067619
_cell_angle_alpha   62.95290375
_cell_angle_beta   62.95290375
_cell_angle_gamma   60.00000381
_symmetry_Int_Tables_number   1
_chemical_formula_structural   Ce(CuTe)3
_chemical_formula_sum   'Ce2 Cu6 Te6'
_cell_volume   337.42776164
_cell_formula_units_Z   2
loop_
 _symmetry_equiv_pos_site_id
 _symmetry_equiv_pos_as_xyz
  1  'x, y, z'
loop_
 _atom_site_type_symbol
 _atom_site_label
 _atom_site_symmetry_multiplicity
 _atom_site_fract_x
 _atom_site_fract_y
 _atom_site_fract_z
 _atom_site_occupancy
  Ce  Ce0  1  0.66594896  0.66594899  0.00215301  1
  Ce  Ce1  1  0.33405098  0.33405099  0.99784697  1
  Cu  Cu2  1  0.52808696  0.87359498  0.36727600  1
  Cu  Cu3  1  0.23104198  0.52808699  0.36727599  1
  Cu  Cu4  1  0.87359497  0.23104200  0.36727599  1
  Cu  Cu5  1  0.12640498  0.76895799  0.63272399  1
  Cu  Cu6  1  0.76895797  0.47191299  0.63272398  1
  Cu  Cu7  1  0.47191298  0.12640500  0.63272398  1
  Te  Te8  1  0.76385798  0.08186500  0.74966798  1
  Te  Te9  1  0.08186499  0.40460899  0.74966798  1
  Te  Te10  1  0.40460897  0.76385799  0.74966798  1
  Te  Te11  1  0.59539098  0.23614200  0.25033200  1
  Te  Te12  1  0.91813496  0.59539099  0.25033200  1
  Te  Te13  1  0.23614197  0.91813498  0.25033200  1
