# generated using pymatgen
data_Er(SiNi5)2
_symmetry_space_group_name_H-M   'P 1'
_cell_length_a   4.70587921
_cell_length_b   6.41431570
_cell_length_c   6.41431618
_cell_angle_alpha   82.17312622
_cell_angle_beta   68.47998047
_cell_angle_gamma   68.47998810
_symmetry_Int_Tables_number   1
_chemical_formula_structural   Er(SiNi5)2
_chemical_formula_sum   'Er1 Si2 Ni10'
_cell_volume   167.56253741
_cell_formula_units_Z   1
loop_
 _symmetry_equiv_pos_site_id
 _symmetry_equiv_pos_as_xyz
  1  'x, y, z'
loop_
 _atom_site_type_symbol
 _atom_site_label
 _atom_site_symmetry_multiplicity
 _atom_site_fract_x
 _atom_site_fract_y
 _atom_site_fract_z
 _atom_site_occupancy
  Er  Er0  1  0.99579195  0.00420800  0.00420802  1
  Ni  Ni1  1  0.99599795  0.00396100  0.50153202  1
  Si  Si2  1  0.49850897  0.00396100  0.50153201  1
  Ni  Ni3  1  0.49850899  0.50153201  0.00396098  1
  Si  Si4  1  0.99599797  0.50153201  0.00396099  1
  Ni  Ni5  1  0.72603899  0.77396101  0.77396097  1
  Ni  Ni6  1  0.26937099  0.23062900  0.23062899  1
  Ni  Ni7  1  0.99936996  0.36065001  0.64061000  1
  Ni  Ni8  1  0.99936997  0.64061001  0.36064998  1
  Ni  Ni9  1  0.64941798  0.35058201  0.35058199  1
  Ni  Ni10  1  0.50065800  0.77619001  0.22249497  1
  Ni  Ni11  1  0.50065698  0.22249500  0.77619000  1
  Ni  Ni12  1  0.37030901  0.62969101  0.62969098  1
