# generated using pymatgen
data_Sr3CuPd5
_symmetry_space_group_name_H-M   'P 1'
_cell_length_a   4.22848797
_cell_length_b   4.22848797
_cell_length_c   22.37882042
_cell_angle_alpha   95.42111969
_cell_angle_beta   95.42111969
_cell_angle_gamma   90.00000000
_symmetry_Int_Tables_number   1
_chemical_formula_structural   Sr3CuPd5
_chemical_formula_sum   'Sr6 Cu2 Pd10'
_cell_volume   396.54825619
_cell_formula_units_Z   2
loop_
 _symmetry_equiv_pos_site_id
 _symmetry_equiv_pos_as_xyz
  1  'x, y, z'
loop_
 _atom_site_type_symbol
 _atom_site_label
 _atom_site_symmetry_multiplicity
 _atom_site_fract_x
 _atom_site_fract_y
 _atom_site_fract_z
 _atom_site_occupancy
  Sr  Sr0  1  0.50044001  0.00044000  0.00088001  1
  Sr  Sr1  1  0.75044002  0.75044001  0.50088003  1
  Sr  Sr2  1  0.33416401  0.83416401  0.66832803  1
  Sr  Sr3  1  0.58416401  0.58416401  0.16832802  1
  Sr  Sr4  1  0.66695301  0.16695300  0.33390602  1
  Sr  Sr5  1  0.91695302  0.91695301  0.83390605  1
  Cu  Cu6  1  0.80632801  0.30632800  0.61265603  1
  Cu  Cu7  1  0.22286001  0.22286000  0.44572002  1
  Pd  Pd8  1  0.97286002  0.47286001  0.94572005  1
  Pd  Pd9  1  0.05632800  0.05632800  0.11265600  1
  Pd  Pd10  1  0.39001001  0.39001001  0.78002003  1
  Pd  Pd11  1  0.14001001  0.64001001  0.28002002  1
  Pd  Pd12  1  0.11179500  0.11179500  0.22359001  1
  Pd  Pd13  1  0.86179502  0.36179500  0.72359004  1
  Pd  Pd14  1  0.02795501  0.52795501  0.05591001  1
  Pd  Pd15  1  0.44549501  0.44549501  0.89099004  1
  Pd  Pd16  1  0.19549501  0.69549501  0.39099002  1
  Pd  Pd17  1  0.27795501  0.27795500  0.55591002  1
