# generated using pymatgen
data_Cs2AgSCl6
_symmetry_space_group_name_H-M   'P 1'
_cell_length_a   6.41336012
_cell_length_b   7.15319586
_cell_length_c   11.94679356
_cell_angle_alpha   90.00000000
_cell_angle_beta   90.00000000
_cell_angle_gamma   90.00000000
_symmetry_Int_Tables_number   1
_chemical_formula_structural   Cs2AgSCl6
_chemical_formula_sum   'Cs4 Ag2 S2 Cl12'
_cell_volume   548.07135252
_cell_formula_units_Z   2
loop_
 _symmetry_equiv_pos_site_id
 _symmetry_equiv_pos_as_xyz
  1  'x, y, z'
loop_
 _atom_site_type_symbol
 _atom_site_label
 _atom_site_symmetry_multiplicity
 _atom_site_fract_x
 _atom_site_fract_y
 _atom_site_fract_z
 _atom_site_occupancy
  Cs  Cs0  1  0.25000000  0.50000001  0.83823803  1
  Cs  Cs1  1  0.74999999  0.00000000  0.66176202  1
  Cs  Cs2  1  0.74999999  0.50000001  0.16176201  1
  Cs  Cs3  1  0.25000000  0.00000000  0.33823801  1
  Ag  Ag4  1  0.49999999  0.00000000  -0.00000000  1
  Ag  Ag5  1  0.00000000  0.50000001  0.50000002  1
  S  S6  1  0.49999999  0.50000001  0.50000002  1
  S  S7  1  0.00000000  0.00000000  0.00000000  1
  Cl  Cl8  1  0.74999999  0.50000001  0.64422702  1
  Cl  Cl9  1  0.25000000  0.00000000  0.85577303  1
  Cl  Cl10  1  0.25000000  0.50000001  0.35577301  1
  Cl  Cl11  1  0.74999999  0.00000000  0.14422701  1
  Cl  Cl12  1  0.67489899  0.75927702  0.91404903  1
  Cl  Cl13  1  0.17489900  0.74072301  0.58595102  1
  Cl  Cl14  1  0.32510099  0.25927701  0.58595102  1
  Cl  Cl15  1  0.82510098  0.24072300  0.91404903  1
  Cl  Cl16  1  0.17489900  0.75927702  0.08595100  1
  Cl  Cl17  1  0.67489899  0.74072301  0.41404902  1
  Cl  Cl18  1  0.82510098  0.25927701  0.41404902  1
  Cl  Cl19  1  0.32510099  0.24072300  0.08595100  1
