# generated using pymatgen
data_Er3Ga8NiIr2
_symmetry_space_group_name_H-M   'P 1'
_cell_length_a   4.19172001
_cell_length_b   8.08708858
_cell_length_c   8.08708858
_cell_angle_alpha   75.48538208
_cell_angle_beta   74.97969818
_cell_angle_gamma   74.97969818
_symmetry_Int_Tables_number   1
_chemical_formula_structural   Er3Ga8NiIr2
_chemical_formula_sum   'Er3 Ga8 Ni1 Ir2'
_cell_volume   250.73544486
_cell_formula_units_Z   1
loop_
 _symmetry_equiv_pos_site_id
 _symmetry_equiv_pos_as_xyz
  1  'x, y, z'
loop_
 _atom_site_type_symbol
 _atom_site_label
 _atom_site_symmetry_multiplicity
 _atom_site_fract_x
 _atom_site_fract_y
 _atom_site_fract_z
 _atom_site_occupancy
  Er  Er0  1  0.49999997  0.50000004  0.50000001  1
  Er  Er1  1  0.17478694  0.82521306  0.82521303  1
  Er  Er2  1  0.82521300  0.17478701  0.17478698  1
  Ga  Ga3  1  0.37304593  0.91439407  0.33951400  1
  Ga  Ga4  1  0.62695400  0.08560601  0.66048602  1
  Ga  Ga5  1  0.37304698  0.33951402  0.91439304  1
  Ga  Ga6  1  0.62695295  0.66048605  0.08560698  1
  Ga  Ga7  1  0.16052398  0.21216902  0.46678202  1
  Ga  Ga8  1  0.83947595  0.78783106  0.53321800  1
  Ga  Ga9  1  0.16052496  0.46678103  0.21216900  1
  Ga  Ga10  1  0.83947497  0.53321904  0.78783101  1
  Ir  Ir11  1  0.49999992  1.00000007  -0.00000003  1
  Ni  Ni12  1  -0.00000002  0.20597002  0.79403004  1
  Ir  Ir13  1  0.99999995  0.79403006  0.20596997  1
