# generated using pymatgen
data_Al5CdS8
_symmetry_space_group_name_H-M   'P 1'
_cell_length_a   7.36059284
_cell_length_b   7.36059284
_cell_length_c   7.36059284
_cell_angle_alpha   60.00000000
_cell_angle_beta   60.00000000
_cell_angle_gamma   60.00000000
_symmetry_Int_Tables_number   1
_chemical_formula_structural   Al5CdS8
_chemical_formula_sum   'Al5 Cd1 S8'
_cell_volume   281.98329901
_cell_formula_units_Z   1
loop_
 _symmetry_equiv_pos_site_id
 _symmetry_equiv_pos_as_xyz
  1  'x, y, z'
loop_
 _atom_site_type_symbol
 _atom_site_label
 _atom_site_symmetry_multiplicity
 _atom_site_fract_x
 _atom_site_fract_y
 _atom_site_fract_z
 _atom_site_occupancy
  Al  Al0  1  0.49999999  0.49999999  0.49999999  1
  Al  Al1  1  0.24999999  0.24999999  0.24999999  1
  Al  Al2  1  0.87584498  0.87584498  0.37246499  1
  Al  Al3  1  0.87584498  0.87584498  0.87584498  1
  Al  Al4  1  0.87584498  0.37246499  0.87584498  1
  Cd  Cd5  1  0.37246499  0.87584498  0.87584498  1
  S  S6  1  0.11442500  0.11442600  0.65672299  1
  S  S7  1  0.11442500  0.11442600  0.11442600  1
  S  S8  1  0.11442500  0.65672299  0.11442600  1
  S  S9  1  0.65672199  0.11442600  0.11442600  1
  S  S10  1  0.63308499  0.63308599  0.10074300  1
  S  S11  1  0.63308499  0.63308599  0.63308599  1
  S  S12  1  0.63308499  0.10074300  0.63308599  1
  S  S13  1  0.10074200  0.63308599  0.63308599  1
