# generated using pymatgen
data_CeB3Rh5
_symmetry_space_group_name_H-M   'P 1'
_cell_length_a   5.37367392
_cell_length_b   5.37367392
_cell_length_c   7.45069313
_cell_angle_alpha   90.00000000
_cell_angle_beta   90.00000000
_cell_angle_gamma   90.00000000
_symmetry_Int_Tables_number   1
_chemical_formula_structural   CeB3Rh5
_chemical_formula_sum   'Ce2 B6 Rh10'
_cell_volume   215.14898168
_cell_formula_units_Z   2
loop_
 _symmetry_equiv_pos_site_id
 _symmetry_equiv_pos_as_xyz
  1  'x, y, z'
loop_
 _atom_site_type_symbol
 _atom_site_label
 _atom_site_symmetry_multiplicity
 _atom_site_fract_x
 _atom_site_fract_y
 _atom_site_fract_z
 _atom_site_occupancy
  Ce  Ce0  1  0.50000001  0.00000000  0.24804900  1
  Ce  Ce1  1  0.00000000  0.50000001  0.74804899  1
  B  B2  1  0.32857801  0.50000001  0.40358699  1
  B  B3  1  0.67142201  0.50000001  0.40358699  1
  B  B4  1  0.50000001  0.32857801  0.90358698  1
  B  B5  1  0.50000001  0.67142201  0.90358698  1
  B  B6  1  0.17008500  0.00000000  0.59836099  1
  B  B7  1  0.82991501  0.00000000  0.59836099  1
  Rh  Rh8  1  0.00000000  0.17008500  0.09836100  1
  Rh  Rh9  1  0.00000000  0.82991501  0.09836100  1
  Rh  Rh10  1  0.75161701  0.50000001  0.10512200  1
  Rh  Rh11  1  0.24838300  0.50000001  0.10512200  1
  Rh  Rh12  1  0.50000001  0.75161701  0.60512199  1
  Rh  Rh13  1  0.50000001  0.24838300  0.60512199  1
  Rh  Rh14  1  0.74940801  0.00000000  0.89390598  1
  Rh  Rh15  1  0.25059200  0.00000000  0.89390598  1
  Rh  Rh16  1  0.00000000  0.74940801  0.39390599  1
  Rh  Rh17  1  0.00000000  0.25059200  0.39390599  1
