# generated using pymatgen
data_SrGe3Rh
_symmetry_space_group_name_H-M   'P 1'
_cell_length_a   4.23877811
_cell_length_b   4.23877811
_cell_length_c   5.82355356
_cell_angle_alpha   111.34199524
_cell_angle_beta   111.34199524
_cell_angle_gamma   90.00000000
_symmetry_Int_Tables_number   1
_chemical_formula_structural   SrGe3Rh
_chemical_formula_sum   'Sr1 Ge3 Rh1'
_cell_volume   89.71061846
_cell_formula_units_Z   1
loop_
 _symmetry_equiv_pos_site_id
 _symmetry_equiv_pos_as_xyz
  1  'x, y, z'
loop_
 _atom_site_type_symbol
 _atom_site_label
 _atom_site_symmetry_multiplicity
 _atom_site_fract_x
 _atom_site_fract_y
 _atom_site_fract_z
 _atom_site_occupancy
  Sr  Sr0  1  0.00115800  0.00115800  0.00231600  1
  Ge  Ge1  1  0.40326302  0.40326300  0.80652607  1
  Ge  Ge2  1  0.26173104  0.76173100  0.52346208  1
  Ge  Ge3  1  0.76173101  0.26173100  0.52346207  1
  Rh  Rh4  1  0.64351803  0.64351800  0.28703608  1
