# generated using pymatgen
data_Zr4(AlSi3)3
_symmetry_space_group_name_H-M   'P 1'
_cell_length_a   5.67771101
_cell_length_b   5.67771101
_cell_length_c   8.16627979
_cell_angle_alpha   90.00000000
_cell_angle_beta   90.00000000
_cell_angle_gamma   90.00000000
_symmetry_Int_Tables_number   1
_chemical_formula_structural   Zr4(AlSi3)3
_chemical_formula_sum   'Zr4 Al3 Si9'
_cell_volume   263.25148080
_cell_formula_units_Z   1
loop_
 _symmetry_equiv_pos_site_id
 _symmetry_equiv_pos_as_xyz
  1  'x, y, z'
loop_
 _atom_site_type_symbol
 _atom_site_label
 _atom_site_symmetry_multiplicity
 _atom_site_fract_x
 _atom_site_fract_y
 _atom_site_fract_z
 _atom_site_occupancy
  Zr  Zr0  1  0.50000000  0.50000000  0.00000000  1
  Zr  Zr1  1  0.00000000  0.00000000  0.00000000  1
  Zr  Zr2  1  0.00000000  0.50000000  0.50000001  1
  Zr  Zr3  1  0.50000000  0.00000000  0.50000001  1
  Al  Al4  1  0.00000000  0.00000000  0.50000001  1
  Si  Si5  1  0.00000000  0.50000000  0.00000000  1
  Si  Si6  1  0.50000000  0.00000000  0.00000000  1
  Al  Al7  1  0.50000000  0.50000000  0.50000001  1
  Al  Al8  1  0.24940600  0.24940600  0.24995201  1
  Si  Si9  1  0.75059400  0.75059400  0.75004802  1
  Si  Si10  1  0.75059400  0.75059400  0.24995201  1
  Si  Si11  1  0.75059400  0.24940600  0.24995201  1
  Si  Si12  1  0.75059400  0.24940600  0.75004802  1
  Si  Si13  1  0.24940600  0.24940600  0.75004802  1
  Si  Si14  1  0.24940600  0.75059400  0.75004802  1
  Si  Si15  1  0.24940600  0.75059400  0.24995201  1
