# generated using pymatgen
data_Cs4YIn2S9
_symmetry_space_group_name_H-M   'P 1'
_cell_length_a   7.18810701
_cell_length_b   7.99826908
_cell_length_c   9.95510960
_cell_angle_alpha   90.00000000
_cell_angle_beta   90.00000000
_cell_angle_gamma   102.28645325
_symmetry_Int_Tables_number   1
_chemical_formula_structural   Cs4YIn2S9
_chemical_formula_sum   'Cs4 Y1 In2 S9'
_cell_volume   559.23428394
_cell_formula_units_Z   1
loop_
 _symmetry_equiv_pos_site_id
 _symmetry_equiv_pos_as_xyz
  1  'x, y, z'
loop_
 _atom_site_type_symbol
 _atom_site_label
 _atom_site_symmetry_multiplicity
 _atom_site_fract_x
 _atom_site_fract_y
 _atom_site_fract_z
 _atom_site_occupancy
  Cs  Cs0  1  0.21241398  0.34618100  0.42816402  1
  Cs  Cs1  1  0.71241398  0.34618100  0.07183600  1
  Cs  Cs2  1  0.78758596  0.65381900  0.57183602  1
  Cs  Cs3  1  0.28758597  0.65381900  0.92816404  1
  Y  Y4  1  0.85473095  0.89873799  0.16342801  1
  In  In5  1  0.14526899  0.10126200  0.83657203  1
  S  S6  1  0.35473095  0.89873799  0.33657201  1
  In  In7  1  0.64526899  0.10126200  0.66342803  1
  S  S8  1  0.45503398  0.30798900  0.74538303  1
  S  S9  1  0.04496596  0.69201100  0.24538301  1
  S  S10  1  0.30491696  0.81324499  0.56745302  1
  S  S11  1  0.19508299  0.18675500  0.06745300  1
  S  S12  1  0.95503398  0.30798900  0.75461703  1
  S  S13  1  0.54496596  0.69201100  0.25461701  1
  S  S14  1  0.80491696  0.81324499  0.93254704  1
  S  S15  1  0.69508299  0.18675500  0.43254702  1
