# generated using pymatgen
data_CaNd(FeO3)2
_symmetry_space_group_name_H-M   'P 1'
_cell_length_a   5.38807297
_cell_length_b   5.41459131
_cell_length_c   7.62199402
_cell_angle_alpha   90.00000000
_cell_angle_beta   90.00000000
_cell_angle_gamma   89.83111572
_symmetry_Int_Tables_number   1
_chemical_formula_structural   CaNd(FeO3)2
_chemical_formula_sum   'Ca2 Nd2 Fe4 O12'
_cell_volume   222.36471161
_cell_formula_units_Z   2
loop_
 _symmetry_equiv_pos_site_id
 _symmetry_equiv_pos_as_xyz
  1  'x, y, z'
loop_
 _atom_site_type_symbol
 _atom_site_label
 _atom_site_symmetry_multiplicity
 _atom_site_fract_x
 _atom_site_fract_y
 _atom_site_fract_z
 _atom_site_occupancy
  Ca  Ca0  1  0.50605101  0.47200002  -0.00000000  1
  Ca  Ca1  1  0.00670600  0.03665200  0.50000000  1
  Nd  Nd2  1  0.49242501  0.53936402  0.50000000  1
  Nd  Nd3  1  0.99198601  0.96159404  -0.00000000  1
  Fe  Fe4  1  0.50065200  0.00139600  0.25213700  1
  Fe  Fe5  1  0.99931501  0.50035502  0.25238900  1
  Fe  Fe6  1  0.99931501  0.50035502  0.74761100  1
  Fe  Fe7  1  0.50065200  0.00139600  0.74786300  1
  O  O8  1  0.28970700  0.28777201  0.29056600  1
  O  O9  1  0.79326201  0.20827901  0.21593900  1
  O  O10  1  0.21216801  0.78699603  0.71142100  1
  O  O11  1  0.71682401  0.71801503  0.77841500  1
  O  O12  1  0.71682401  0.71801503  0.22158500  1
  O  O13  1  0.21216801  0.78699603  0.28857900  1
  O  O14  1  0.79326201  0.20827901  0.78406100  1
  O  O15  1  0.28970700  0.28777201  0.70943400  1
  O  O16  1  0.92446301  0.47643602  0.50000000  1
  O  O17  1  0.42629600  0.00681800  -0.00000000  1
  O  O18  1  0.57416801  0.97911704  0.50000000  1
  O  O19  1  0.05404700  0.52239202  -0.00000000  1
