# generated using pymatgen
data_Rb19Ba
_symmetry_space_group_name_H-M   'P 1'
_cell_length_a   11.43513107
_cell_length_b   11.43513107
_cell_length_c   11.43513107
_cell_angle_alpha   90.00000000
_cell_angle_beta   90.00000000
_cell_angle_gamma   90.00000000
_symmetry_Int_Tables_number   1
_chemical_formula_structural   Rb19Ba
_chemical_formula_sum   'Rb19 Ba1'
_cell_volume   1495.28315548
_cell_formula_units_Z   1
loop_
 _symmetry_equiv_pos_site_id
 _symmetry_equiv_pos_as_xyz
  1  'x, y, z'
loop_
 _atom_site_type_symbol
 _atom_site_label
 _atom_site_symmetry_multiplicity
 _atom_site_fract_x
 _atom_site_fract_y
 _atom_site_fract_z
 _atom_site_occupancy
  Rb  Rb0  1  0.87499999  0.70274200  0.04725800  1
  Rb  Rb1  1  0.06213300  0.06213300  0.06213300  1
  Rb  Rb2  1  0.20274200  0.45274200  0.12500000  1
  Rb  Rb3  1  0.81213299  0.31213300  0.18786700  1
  Rb  Rb4  1  0.45274200  0.12500000  0.20274200  1
  Rb  Rb5  1  0.54725800  0.62500000  0.29725800  1
  Rb  Rb6  1  0.18786700  0.81213299  0.31213300  1
  Rb  Rb7  1  0.79725799  0.95274199  0.37500000  1
  Rb  Rb8  1  0.93786699  0.56213300  0.43786700  1
  Rb  Rb9  1  0.12500000  0.20274200  0.45274200  1
  Rb  Rb10  1  0.62500000  0.29725800  0.54725800  1
  Rb  Rb11  1  0.43786700  0.93786699  0.56213300  1
  Rb  Rb12  1  0.29725800  0.54725800  0.62500000  1
  Rb  Rb13  1  0.68786700  0.68786700  0.68786700  1
  Rb  Rb14  1  0.04725800  0.87499999  0.70274200  1
  Rb  Rb15  1  0.95274199  0.37500000  0.79725799  1
  Rb  Rb16  1  0.31213300  0.18786700  0.81213299  1
  Rb  Rb17  1  0.70274200  0.04725800  0.87499999  1
  Rb  Rb18  1  0.56213300  0.43786700  0.93786699  1
  Ba  Ba19  1  0.37500000  0.79725799  0.95274199  1
