# generated using pymatgen
data_LiGePt3Rh2
_symmetry_space_group_name_H-M   'P 1'
_cell_length_a   5.20407391
_cell_length_b   5.28612566
_cell_length_c   5.28612566
_cell_angle_alpha   75.97772217
_cell_angle_beta   60.51215363
_cell_angle_gamma   60.51215363
_symmetry_Int_Tables_number   1
_chemical_formula_structural   LiGePt3Rh2
_chemical_formula_sum   'Li1 Ge1 Pt3 Rh2'
_cell_volume   110.18340478
_cell_formula_units_Z   1
loop_
 _symmetry_equiv_pos_site_id
 _symmetry_equiv_pos_as_xyz
  1  'x, y, z'
loop_
 _atom_site_type_symbol
 _atom_site_label
 _atom_site_symmetry_multiplicity
 _atom_site_fract_x
 _atom_site_fract_y
 _atom_site_fract_z
 _atom_site_occupancy
  Li  Li0  1  0.00000000  0.00000000  0.00000000  1
  Ge  Ge1  1  0.25000001  0.50000000  0.50000003  1
  Pt  Pt2  1  0.75000001  0.50000000  0.50000005  1
  Rh  Rh3  1  0.70003501  0.59992900  1.00000006  1
  Rh  Rh4  1  0.29996501  0.40007100  1.00000004  1
  Pt  Pt5  1  0.29996400  0.00000000  0.40007202  1
  Pt  Pt6  1  0.70003600  0.00000000  0.59992803  1
