# generated using pymatgen
data_Sc2In7Ni4
_symmetry_space_group_name_H-M   'P 1'
_cell_length_a   7.62143993
_cell_length_b   7.62143993
_cell_length_c   7.62143993
_cell_angle_alpha   60.00000000
_cell_angle_beta   60.00000000
_cell_angle_gamma   60.00000000
_symmetry_Int_Tables_number   1
_chemical_formula_structural   Sc2In7Ni4
_chemical_formula_sum   'Sc2 In7 Ni4'
_cell_volume   313.03730487
_cell_formula_units_Z   1
loop_
 _symmetry_equiv_pos_site_id
 _symmetry_equiv_pos_as_xyz
  1  'x, y, z'
loop_
 _atom_site_type_symbol
 _atom_site_label
 _atom_site_symmetry_multiplicity
 _atom_site_fract_x
 _atom_site_fract_y
 _atom_site_fract_z
 _atom_site_occupancy
  Sc  Sc0  1  0.00000000  0.00000000  0.00000000  1
  Sc  Sc1  1  0.41521501  0.86159502  0.86159502  1
  In  In2  1  0.86159602  0.86159502  0.86159502  1
  In  In3  1  0.86159602  0.41521401  0.86159502  1
  In  In4  1  0.86159602  0.86159502  0.41521401  1
  In  In5  1  0.59562702  0.21312101  0.59562602  1
  In  In6  1  0.21312201  0.59562602  0.59562602  1
  In  In7  1  0.59562702  0.59562602  0.21312101  1
  In  In8  1  0.59562702  0.59562602  0.59562602  1
  Ni  Ni9  1  0.36911801  0.89264402  0.36911901  1
  Ni  Ni10  1  0.89264302  0.36911901  0.36911901  1
  Ni  Ni11  1  0.36911801  0.36911901  0.89264402  1
  Ni  Ni12  1  0.36911801  0.36911901  0.36911901  1
