# generated using pymatgen
data_Sr3(FeO2)2
_symmetry_space_group_name_H-M   'P 1'
_cell_length_a   6.76663733
_cell_length_b   6.88677454
_cell_length_c   8.57643795
_cell_angle_alpha   82.30194855
_cell_angle_beta   74.15569305
_cell_angle_gamma   60.70788574
_symmetry_Int_Tables_number   1
_chemical_formula_structural   Sr3(FeO2)2
_chemical_formula_sum   'Sr6 Fe4 O8'
_cell_volume   335.31925658
_cell_formula_units_Z   2
loop_
 _symmetry_equiv_pos_site_id
 _symmetry_equiv_pos_as_xyz
  1  'x, y, z'
loop_
 _atom_site_type_symbol
 _atom_site_label
 _atom_site_symmetry_multiplicity
 _atom_site_fract_x
 _atom_site_fract_y
 _atom_site_fract_z
 _atom_site_occupancy
  Sr  Sr0  1  0.38253999  0.20529600  0.86676799  1
  Sr  Sr1  1  0.61745996  0.79470398  0.13323204  1
  Sr  Sr2  1  0.76265398  0.27407799  0.05618302  1
  Sr  Sr3  1  0.23734597  0.72592199  0.94381701  1
  Sr  Sr4  1  0.46428299  0.27345599  0.44341500  1
  Sr  Sr5  1  0.53571697  0.72654399  0.55658502  1
  Fe  Fe6  1  0.08772997  0.79299898  0.36708003  1
  Fe  Fe7  1  0.91226999  0.20700100  0.63292000  1
  Fe  Fe8  1  0.12419699  0.25204999  0.25005601  1
  Fe  Fe9  1  0.87580296  0.74794998  0.74994402  1
  O  O10  1  0.27680700  0.03973000  0.40840399  1
  O  O11  1  0.72319296  0.96026998  0.59159604  1
  O  O12  1  0.18232100  0.03988400  0.09222700  1
  O  O13  1  0.81767896  0.96011598  0.90777303  1
  O  O14  1  0.28877198  0.41971899  0.16001002  1
  O  O15  1  0.71122797  0.58028099  0.83999001  1
  O  O16  1  0.20723098  0.57708799  0.66036201  1
  O  O17  1  0.79276898  0.42291199  0.33963802  1
