# generated using pymatgen
data_KWF6
_symmetry_space_group_name_H-M   'P 1'
_cell_length_a   5.45525694
_cell_length_b   5.45525694
_cell_length_c   5.45525646
_cell_angle_alpha   96.11116028
_cell_angle_beta   96.11116028
_cell_angle_gamma   96.11116028
_symmetry_Int_Tables_number   1
_chemical_formula_structural   KWF6
_chemical_formula_sum   'K1 W1 F6'
_cell_volume   159.36432524
_cell_formula_units_Z   1
loop_
 _symmetry_equiv_pos_site_id
 _symmetry_equiv_pos_as_xyz
  1  'x, y, z'
loop_
 _atom_site_type_symbol
 _atom_site_label
 _atom_site_symmetry_multiplicity
 _atom_site_fract_x
 _atom_site_fract_y
 _atom_site_fract_z
 _atom_site_occupancy
  K  K0  1  0.00000000  0.00000000  0.00000000  1
  W  W1  1  0.50000000  0.50000000  0.50000000  1
  F  F2  1  0.79075900  0.69847500  0.41887701  1
  F  F3  1  0.41887701  0.79075900  0.69847500  1
  F  F4  1  0.30152500  0.58112300  0.20924101  1
  F  F5  1  0.58112300  0.20924100  0.30152500  1
  F  F6  1  0.20924100  0.30152500  0.58112299  1
  F  F7  1  0.69847500  0.41887700  0.79075899  1
