# generated using pymatgen
data_Ce2Co7
_symmetry_space_group_name_H-M   'P 1'
_cell_length_a   4.92392778
_cell_length_b   4.92392778
_cell_length_c   12.30667114
_cell_angle_alpha   78.46004486
_cell_angle_beta   78.46004486
_cell_angle_gamma   60.00000763
_symmetry_Int_Tables_number   1
_chemical_formula_structural   Ce2Co7
_chemical_formula_sum   'Ce4 Co14'
_cell_volume   251.41250958
_cell_formula_units_Z   2
loop_
 _symmetry_equiv_pos_site_id
 _symmetry_equiv_pos_as_xyz
  1  'x, y, z'
loop_
 _atom_site_type_symbol
 _atom_site_label
 _atom_site_symmetry_multiplicity
 _atom_site_fract_x
 _atom_site_fract_y
 _atom_site_fract_z
 _atom_site_occupancy
  Ce  Ce0  1  0.50000001  0.49999997  0.49999996  1
  Ce  Ce1  1  0.95736102  0.95736095  0.12791695  1
  Ce  Ce2  1  0.04263900  0.04263900  0.87208298  1
  Ce  Ce3  1  0.59271901  0.59271897  0.22184296  1
  Co  Co4  1  0.40728101  0.40728098  0.77815696  1
  Co  Co5  1  0.83402502  0.83402495  0.49792495  1
  Co  Co6  1  0.16597500  0.16597499  0.50207498  1
  Co  Co7  1  0.55274099  0.05575200  0.33575498  1
  Co  Co8  1  0.05575200  0.05575200  0.33575499  1
  Co  Co9  1  0.05575203  0.55274097  0.33575498  1
  Co  Co10  1  0.44725904  0.94424795  0.66424495  1
  Co  Co11  1  0.94424802  0.94424795  0.66424494  1
  Co  Co12  1  0.94424800  0.44725897  0.66424495  1
  Co  Co13  1  0.72263402  0.72263396  0.83209795  1
  Co  Co14  1  0.27736601  0.27736598  0.16790198  1
  Co  Co15  1  0.50000001  0.49999997  -0.00000003  1
  Co  Co16  1  0.49999998  0.00000000  -0.00000001  1
  Co  Co17  1  0.00000003  0.49999997  -0.00000001  1
