# generated using pymatgen
data_ErB3Rh5
_symmetry_space_group_name_H-M   'P 1'
_cell_length_a   5.33443689
_cell_length_b   5.33443689
_cell_length_c   7.44251490
_cell_angle_alpha   90.00000000
_cell_angle_beta   90.00000000
_cell_angle_gamma   90.00000000
_symmetry_Int_Tables_number   1
_chemical_formula_structural   ErB3Rh5
_chemical_formula_sum   'Er2 B6 Rh10'
_cell_volume   211.78581870
_cell_formula_units_Z   2
loop_
 _symmetry_equiv_pos_site_id
 _symmetry_equiv_pos_as_xyz
  1  'x, y, z'
loop_
 _atom_site_type_symbol
 _atom_site_label
 _atom_site_symmetry_multiplicity
 _atom_site_fract_x
 _atom_site_fract_y
 _atom_site_fract_z
 _atom_site_occupancy
  Er  Er0  1  0.00000000  0.00000000  0.00000000  1
  Er  Er1  1  0.50000001  0.50000001  0.50000001  1
  B  B2  1  0.83058802  0.50000001  0.15086700  1
  B  B3  1  0.16941200  0.50000001  0.15086700  1
  B  B4  1  0.00000000  0.33058801  0.65086701  1
  B  B5  1  0.00000000  0.66941201  0.65086701  1
  B  B6  1  0.66941201  0.00000000  0.34913300  1
  B  B7  1  0.33058801  0.00000000  0.34913300  1
  Rh  Rh8  1  0.50000001  0.16941200  0.84913301  1
  Rh  Rh9  1  0.50000001  0.83058802  0.84913301  1
  Rh  Rh10  1  0.25111601  0.50000001  0.85538401  1
  Rh  Rh11  1  0.74888401  0.50000001  0.85538401  1
  Rh  Rh12  1  -0.00000000  0.75111602  0.35538400  1
  Rh  Rh13  1  0.00000000  0.24888400  0.35538400  1
  Rh  Rh14  1  0.24888400  0.00000000  0.64461601  1
  Rh  Rh15  1  0.75111602  0.00000000  0.64461601  1
  Rh  Rh16  1  0.50000001  0.74888401  0.14461600  1
  Rh  Rh17  1  0.50000001  0.25111601  0.14461600  1
