# generated using pymatgen
data_LiNbO3
_symmetry_space_group_name_H-M   'P 1'
_cell_length_a   5.33421087
_cell_length_b   5.74310017
_cell_length_c   7.63590384
_cell_angle_alpha   90.00000000
_cell_angle_beta   90.00000000
_cell_angle_gamma   90.00000000
_symmetry_Int_Tables_number   1
_chemical_formula_structural   LiNbO3
_chemical_formula_sum   'Li4 Nb4 O12'
_cell_volume   233.92520653
_cell_formula_units_Z   4
loop_
 _symmetry_equiv_pos_site_id
 _symmetry_equiv_pos_as_xyz
  1  'x, y, z'
loop_
 _atom_site_type_symbol
 _atom_site_label
 _atom_site_symmetry_multiplicity
 _atom_site_fract_x
 _atom_site_fract_y
 _atom_site_fract_z
 _atom_site_occupancy
  Li  Li0  1  0.02019300  0.07038900  0.75000002  1
  Li  Li1  1  0.52019301  0.42961099  0.25000001  1
  Li  Li2  1  0.47980701  0.57038898  0.75000002  1
  Li  Li3  1  0.97980702  0.92961097  0.25000001  1
  Nb  Nb4  1  0.50000001  0.00000000  0.50000001  1
  Nb  Nb5  1  -0.00000000  0.49999999  0.50000001  1
  Nb  Nb6  1  -0.00000000  0.49999999  0.00000000  1
  Nb  Nb7  1  0.50000001  0.00000000  0.00000000  1
  O  O8  1  0.69482302  0.68911898  0.44060601  1
  O  O9  1  0.19482300  0.81088098  0.55939401  1
  O  O10  1  0.80517702  0.18911899  0.05939400  1
  O  O11  1  0.30517701  0.31088099  0.94060602  1
  O  O12  1  0.30517701  0.31088099  0.55939401  1
  O  O13  1  0.80517702  0.18911899  0.44060601  1
  O  O14  1  0.19482300  0.81088098  0.94060602  1
  O  O15  1  0.69482302  0.68911898  0.05939400  1
  O  O16  1  0.11877400  0.54623598  0.25000001  1
  O  O17  1  0.61877401  0.95376397  0.75000002  1
  O  O18  1  0.38122601  0.04623600  0.25000001  1
  O  O19  1  0.88122602  0.45376399  0.75000002  1
