# generated using pymatgen
data_NaZrO3
_symmetry_space_group_name_H-M   'P 1'
_cell_length_a   5.60945797
_cell_length_b   5.84031677
_cell_length_c   8.08413315
_cell_angle_alpha   90.00000000
_cell_angle_beta   90.00000000
_cell_angle_gamma   90.00000000
_symmetry_Int_Tables_number   1
_chemical_formula_structural   NaZrO3
_chemical_formula_sum   'Na4 Zr4 O12'
_cell_volume   264.84437875
_cell_formula_units_Z   4
loop_
 _symmetry_equiv_pos_site_id
 _symmetry_equiv_pos_as_xyz
  1  'x, y, z'
loop_
 _atom_site_type_symbol
 _atom_site_label
 _atom_site_symmetry_multiplicity
 _atom_site_fract_x
 _atom_site_fract_y
 _atom_site_fract_z
 _atom_site_occupancy
  Na  Na0  1  0.98447901  0.05635800  0.74999999  1
  Na  Na1  1  0.48447900  0.44364202  0.25000000  1
  Na  Na2  1  0.51552100  0.55635802  0.74999999  1
  Na  Na3  1  0.01552100  0.94364204  0.25000000  1
  Zr  Zr4  1  0.00000000  0.50000002  0.49999999  1
  Zr  Zr5  1  0.50000000  0.00000000  0.49999999  1
  Zr  Zr6  1  0.50000000  0.00000000  0.00000000  1
  Zr  Zr7  1  0.00000000  0.50000002  0.00000000  1
  O  O8  1  0.69777900  0.30115501  0.55836799  1
  O  O9  1  0.19777900  0.19884501  0.44163199  1
  O  O10  1  0.80222100  0.80115503  0.94163198  1
  O  O11  1  0.30222100  0.69884503  0.05836800  1
  O  O12  1  0.30222100  0.69884503  0.44163199  1
  O  O13  1  0.80222100  0.80115503  0.55836799  1
  O  O14  1  0.19777900  0.19884501  0.05836800  1
  O  O15  1  0.69777900  0.30115501  0.94163198  1
  O  O16  1  0.88934400  0.54238802  0.25000000  1
  O  O17  1  0.38934400  0.95761204  0.74999999  1
  O  O18  1  0.61065600  0.04238800  0.25000000  1
  O  O19  1  0.11065600  0.45761202  0.74999999  1
