# generated using pymatgen
data_Li5Cu(OF5)2
_symmetry_space_group_name_H-M   'P 1'
_cell_length_a   4.59672880
_cell_length_b   4.59672880
_cell_length_c   9.24909878
_cell_angle_alpha   89.68908691
_cell_angle_beta   89.68908691
_cell_angle_gamma   89.99340820
_symmetry_Int_Tables_number   1
_chemical_formula_structural   Li5Cu(OF5)2
_chemical_formula_sum   'Li5 Cu1 O2 F10'
_cell_volume   195.42692180
_cell_formula_units_Z   1
loop_
 _symmetry_equiv_pos_site_id
 _symmetry_equiv_pos_as_xyz
  1  'x, y, z'
loop_
 _atom_site_type_symbol
 _atom_site_label
 _atom_site_symmetry_multiplicity
 _atom_site_fract_x
 _atom_site_fract_y
 _atom_site_fract_z
 _atom_site_occupancy
  Li  Li0  1  0.01119600  0.03849100  0.15948599  1
  Li  Li1  1  0.96150899  0.98880397  0.84051391  1
  Li  Li2  1  0.98807697  0.01192300  0.49999995  1
  Li  Li3  1  0.51236399  0.47678199  0.33968096  1
  Cu  Cu4  1  0.48813999  0.51185998  -0.00000003  1
  Li  Li5  1  0.52321799  0.48763599  0.66031894  1
  O  O6  1  0.79351398  0.20648599  0.99999992  1
  O  O7  1  0.80115998  0.18413199  0.67223794  1
  F  F8  1  0.81586798  0.19883999  0.32776196  1
  F  F9  1  0.68126799  0.68358498  0.82946992  1
  F  F10  1  0.70090199  0.68571998  0.49989894  1
  F  F11  1  0.31641500  0.31873199  0.17052997  1
  F  F12  1  0.31428000  0.29909799  0.50010096  1
  F  F13  1  0.18195301  0.81804698  -0.00000003  1
  F  F14  1  0.71209499  0.71087398  0.18099595  1
  F  F15  1  0.28912600  0.28790499  0.81900394  1
  F  F16  1  0.19845601  0.78954098  0.66991794  1
  F  F17  1  0.21045901  0.80154398  0.33008196  1
