# generated using pymatgen
data_Zr2Fe2Mo3(PC)2
_symmetry_space_group_name_H-M   'P 1'
_cell_length_a   3.16796803
_cell_length_b   3.32028198
_cell_length_c   11.57300568
_cell_angle_alpha   90.00000000
_cell_angle_beta   97.86669922
_cell_angle_gamma   90.00000000
_symmetry_Int_Tables_number   1
_chemical_formula_structural   Zr2Fe2Mo3(PC)2
_chemical_formula_sum   'Zr2 Fe2 Mo3 P2 C2'
_cell_volume   120.58561581
_cell_formula_units_Z   1
loop_
 _symmetry_equiv_pos_site_id
 _symmetry_equiv_pos_as_xyz
  1  'x, y, z'
loop_
 _atom_site_type_symbol
 _atom_site_label
 _atom_site_symmetry_multiplicity
 _atom_site_fract_x
 _atom_site_fract_y
 _atom_site_fract_z
 _atom_site_occupancy
  Zr  Zr0  1  0.00000000  0.00000000  0.00000000  1
  Zr  Zr1  1  0.61420599  1.00000001  0.22841199  1
  Fe  Fe2  1  0.38579399  0.00000000  0.77158799  1
  Fe  Fe3  1  0.80565899  0.50000000  0.61131799  1
  Mo  Mo4  1  0.19434100  0.50000000  0.38868199  1
  Mo  Mo5  1  0.91842099  0.50000000  0.83684198  1
  Mo  Mo6  1  0.08157900  0.50000000  0.16315800  1
  P  P7  1  0.72778799  1.00000001  0.45557599  1
  P  P8  1  0.27221200  0.00000000  0.54442399  1
  C  C9  1  0.53975699  0.50000000  0.07951400  1
  C  C10  1  0.46024299  0.50000000  0.92048598  1
