# generated using pymatgen
data_Eu2Pb
_symmetry_space_group_name_H-M   'P 1'
_cell_length_a   3.73866606
_cell_length_b   5.91677809
_cell_length_c   9.63275623
_cell_angle_alpha   90.00000000
_cell_angle_beta   101.18981934
_cell_angle_gamma   90.00000000
_symmetry_Int_Tables_number   1
_chemical_formula_structural   Eu2Pb
_chemical_formula_sum   'Eu4 Pb2'
_cell_volume   209.03401048
_cell_formula_units_Z   2
loop_
 _symmetry_equiv_pos_site_id
 _symmetry_equiv_pos_as_xyz
  1  'x, y, z'
loop_
 _atom_site_type_symbol
 _atom_site_label
 _atom_site_symmetry_multiplicity
 _atom_site_fract_x
 _atom_site_fract_y
 _atom_site_fract_z
 _atom_site_occupancy
  Eu  Eu0  1  0.09243800  0.25000000  0.18487600  1
  Eu  Eu1  1  0.78625899  0.25000000  0.57251799  1
  Eu  Eu2  1  0.21374100  0.74999999  0.42748199  1
  Eu  Eu3  1  0.90756199  0.74999999  0.81512398  1
  Pb  Pb4  1  0.44176799  0.25000000  0.88353598  1
  Pb  Pb5  1  0.55823199  0.74999999  0.11646400  1
