# generated using pymatgen
data_Lu4Ge6Ru7
_symmetry_space_group_name_H-M   'P 1'
_cell_length_a   7.10990238
_cell_length_b   7.10990238
_cell_length_c   7.10990238
_cell_angle_alpha   109.47122192
_cell_angle_beta   109.47122192
_cell_angle_gamma   109.47122192
_symmetry_Int_Tables_number   1
_chemical_formula_structural   Lu4Ge6Ru7
_chemical_formula_sum   'Lu4 Ge6 Ru7'
_cell_volume   276.67441630
_cell_formula_units_Z   1
loop_
 _symmetry_equiv_pos_site_id
 _symmetry_equiv_pos_as_xyz
  1  'x, y, z'
loop_
 _atom_site_type_symbol
 _atom_site_label
 _atom_site_symmetry_multiplicity
 _atom_site_fract_x
 _atom_site_fract_y
 _atom_site_fract_z
 _atom_site_occupancy
  Lu  Lu0  1  0.50000006  1.00000003  1.00000005  1
  Lu  Lu1  1  0.50000003  0.50000001  0.50000003  1
  Lu  Lu2  1  1.00000003  0.50000001  0.00000005  1
  Lu  Lu3  1  0.00000000  0.00000000  0.49999999  1
  Ge  Ge4  1  0.68824206  1.00000003  0.68824206  1
  Ge  Ge5  1  0.31175806  1.00000003  0.31175806  1
  Ge  Ge6  1  0.68824204  0.68824202  1.00000004  1
  Ge  Ge7  1  0.31175802  0.31175801  1.00000001  1
  Ge  Ge8  1  0.00000002  0.31175801  0.31175801  1
  Ge  Ge9  1  0.00000004  0.68824202  0.68824203  1
  Ru  Ru10  1  0.75000003  0.50000001  0.25000004  1
  Ru  Ru11  1  0.25000003  0.50000001  0.75000002  1
  Ru  Ru12  1  0.25000005  0.75000002  0.50000004  1
  Ru  Ru13  1  0.75000001  0.25000001  0.50000003  1
  Ru  Ru14  1  0.50000005  0.75000002  0.25000005  1
  Ru  Ru15  1  0.50000001  0.25000001  0.75000002  1
  Ru  Ru16  1  0.00000000  0.00000000  0.00000000  1
