# generated using pymatgen
data_Y2AsS4NO
_symmetry_space_group_name_H-M   'P 1'
_cell_length_a   4.11401606
_cell_length_b   6.55089903
_cell_length_c   6.55089903
_cell_angle_alpha   101.81581879
_cell_angle_beta   108.27932739
_cell_angle_gamma   108.27932739
_symmetry_Int_Tables_number   1
_chemical_formula_structural   Y2AsS4NO
_chemical_formula_sum   'Y2 As1 S4 N1 O1'
_cell_volume   149.91478220
_cell_formula_units_Z   1
loop_
 _symmetry_equiv_pos_site_id
 _symmetry_equiv_pos_as_xyz
  1  'x, y, z'
loop_
 _atom_site_type_symbol
 _atom_site_label
 _atom_site_symmetry_multiplicity
 _atom_site_fract_x
 _atom_site_fract_y
 _atom_site_fract_z
 _atom_site_occupancy
  Y  Y0  1  0.99848501  0.24342701  0.75342805  1
  Y  Y1  1  0.00256912  0.75665703  0.24838201  1
  As  As2  1  0.99848498  0.00342800  0.99342705  1
  S  S3  1  0.00256908  0.49838202  0.50665701  1
  S  S4  1  0.33986414  0.96523304  0.71523303  1
  S  S5  1  0.33194503  0.21372401  0.45014002  1
  N  N6  1  0.33194510  0.70014003  0.96372403  1
  S  S7  1  0.63475210  0.75957103  0.50957104  1
  O  O8  1  0.69277903  0.31778601  0.06778604  1
