# generated using pymatgen
data_Th5Ge4
_symmetry_space_group_name_H-M   'P 1'
_cell_length_a   6.56448698
_cell_length_b   8.99922180
_cell_length_c   8.99922180
_cell_angle_alpha   120.00000000
_cell_angle_beta   90.00000000
_cell_angle_gamma   90.00000000
_symmetry_Int_Tables_number   1
_chemical_formula_structural   Th5Ge4
_chemical_formula_sum   'Th10 Ge8'
_cell_volume   460.40638176
_cell_formula_units_Z   2
loop_
 _symmetry_equiv_pos_site_id
 _symmetry_equiv_pos_as_xyz
  1  'x, y, z'
loop_
 _atom_site_type_symbol
 _atom_site_label
 _atom_site_symmetry_multiplicity
 _atom_site_fract_x
 _atom_site_fract_y
 _atom_site_fract_z
 _atom_site_occupancy
  Th  Th0  1  0.75000000  0.76433202  0.76433203  1
  Th  Th1  1  0.25000000  0.23566801  0.23566801  1
  Th  Th2  1  0.75000000  0.00000000  0.23566801  1
  Th  Th3  1  0.50000000  0.66666668  0.33333335  1
  Th  Th4  1  0.50000000  0.33333334  0.66666669  1
  Th  Th5  1  -0.00000000  0.33333334  0.66666669  1
  Th  Th6  1  0.25000000  0.00000000  0.76433203  1
  Th  Th7  1  0.25000000  0.76433202  1.00000004  1
  Th  Th8  1  -0.00000000  0.66666668  0.33333335  1
  Th  Th9  1  0.75000000  0.23566801  0.00000000  1
  Ge  Ge10  1  0.00000000  0.00000000  0.00000000  1
  Ge  Ge11  1  0.50000000  0.00000000  -0.00000000  1
  Ge  Ge12  1  0.25000000  0.59971302  0.59971303  1
  Ge  Ge13  1  0.25000000  0.00000000  0.40028701  1
  Ge  Ge14  1  0.75000000  0.59971302  0.00000001  1
  Ge  Ge15  1  0.75000000  0.40028701  0.40028702  1
  Ge  Ge16  1  0.75000000  0.00000000  0.59971302  1
  Ge  Ge17  1  0.25000000  0.40028701  1.00000004  1
