# generated using pymatgen
data_K6BiTeO6
_symmetry_space_group_name_H-M   'P 1'
_cell_length_a   7.30328941
_cell_length_b   7.35998821
_cell_length_c   7.35998821
_cell_angle_alpha   63.81601334
_cell_angle_beta   85.21899414
_cell_angle_gamma   94.78100586
_symmetry_Int_Tables_number   1
_chemical_formula_structural   K6BiTeO6
_chemical_formula_sum   'K6 Bi1 Te1 O6'
_cell_volume   350.57599739
_cell_formula_units_Z   1
loop_
 _symmetry_equiv_pos_site_id
 _symmetry_equiv_pos_as_xyz
  1  'x, y, z'
loop_
 _atom_site_type_symbol
 _atom_site_label
 _atom_site_symmetry_multiplicity
 _atom_site_fract_x
 _atom_site_fract_y
 _atom_site_fract_z
 _atom_site_occupancy
  K  K0  1  0.64289702  0.36312000  0.63687996  1
  K  K1  1  0.50000001  0.20498500  0.20498497  1
  K  K2  1  0.50000005  0.79501500  0.79501497  1
  K  K3  1  0.00000005  0.73949700  0.73949699  1
  K  K4  1  0.00000002  0.26050300  0.26050300  1
  K  K5  1  0.35710304  0.63688000  0.36311998  1
  Te  Te6  1  0.14984801  0.17831100  0.82168898  1
  Bi  Bi7  1  0.85015205  0.82168900  0.17831096  1
  O  O8  1  0.84368000  0.10286900  0.89713095  1
  O  O9  1  0.26934603  0.44830800  0.83047198  1
  O  O10  1  0.26934601  0.16952800  0.55169198  1
  O  O11  1  0.73065403  0.55169200  0.16952796  1
  O  O12  1  0.73065405  0.83047200  0.44830796  1
  O  O13  1  0.15632006  0.89713100  0.10286899  1
