# generated using pymatgen
data_RbPbSeO2
_symmetry_space_group_name_H-M   'P 1'
_cell_length_a   3.85234404
_cell_length_b   3.85234404
_cell_length_c   6.67372131
_cell_angle_alpha   106.77537537
_cell_angle_beta   106.77537537
_cell_angle_gamma   90.00000000
_symmetry_Int_Tables_number   1
_chemical_formula_structural   RbPbSeO2
_chemical_formula_sum   'Rb1 Pb1 Se1 O2'
_cell_volume   90.41574423
_cell_formula_units_Z   1
loop_
 _symmetry_equiv_pos_site_id
 _symmetry_equiv_pos_as_xyz
  1  'x, y, z'
loop_
 _atom_site_type_symbol
 _atom_site_label
 _atom_site_symmetry_multiplicity
 _atom_site_fract_x
 _atom_site_fract_y
 _atom_site_fract_z
 _atom_site_occupancy
  Rb  Rb0  1  0.34319598  0.34319599  0.68639195  1
  Pb  Pb1  1  0.65680395  0.65680398  0.31360793  1
  Se  Se2  1  0.00000000  0.00000000  0.00000000  1
  O  O3  1  0.74999997  0.24999999  0.49999994  1
  O  O4  1  0.24999996  0.74999998  0.49999994  1
