# generated using pymatgen
data_Zr(SiRu)2
_symmetry_space_group_name_H-M   'P 1'
_cell_length_a   6.23899603
_cell_length_b   6.94585514
_cell_length_c   6.94585514
_cell_angle_alpha   90.00000000
_cell_angle_beta   90.00000000
_cell_angle_gamma   90.00000000
_symmetry_Int_Tables_number   1
_chemical_formula_structural   Zr(SiRu)2
_chemical_formula_sum   'Zr4 Si8 Ru8'
_cell_volume   300.99976220
_cell_formula_units_Z   4
loop_
 _symmetry_equiv_pos_site_id
 _symmetry_equiv_pos_as_xyz
  1  'x, y, z'
loop_
 _atom_site_type_symbol
 _atom_site_label
 _atom_site_symmetry_multiplicity
 _atom_site_fract_x
 _atom_site_fract_y
 _atom_site_fract_z
 _atom_site_occupancy
  Zr  Zr0  1  0.00000000  0.17626200  0.17626200  1
  Zr  Zr1  1  0.50000000  0.67626199  0.32373799  1
  Zr  Zr2  1  0.50000000  0.32373799  0.67626199  1
  Zr  Zr3  1  0.00000000  0.82373798  0.82373798  1
  Si  Si4  1  0.00000000  0.65147799  0.34852199  1
  Si  Si5  1  0.50000000  0.84852198  0.84852198  1
  Si  Si6  1  0.50000000  0.15147800  0.15147800  1
  Si  Si7  1  0.00000000  0.34852199  0.65147799  1
  Si  Si8  1  0.25000000  0.49999999  -0.00000000  1
  Si  Si9  1  0.75000000  0.49999999  -0.00000000  1
  Si  Si10  1  0.25000000  0.00000000  0.49999999  1
  Si  Si11  1  0.75000000  0.00000000  0.49999999  1
  Ru  Ru12  1  0.27985700  0.37349599  0.37349599  1
  Ru  Ru13  1  0.77985700  0.87349598  0.12650400  1
  Ru  Ru14  1  0.77985700  0.12650400  0.87349598  1
  Ru  Ru15  1  0.27985700  0.62650399  0.62650399  1
  Ru  Ru16  1  0.22014300  0.12650400  0.87349598  1
  Ru  Ru17  1  0.22014300  0.87349598  0.12650400  1
  Ru  Ru18  1  0.72014300  0.37349599  0.37349599  1
  Ru  Ru19  1  0.72014300  0.62650399  0.62650399  1
