# generated using pymatgen
data_UCo2
_symmetry_space_group_name_H-M   'P 1'
_cell_length_a   5.10036421
_cell_length_b   5.10036421
_cell_length_c   8.59143353
_cell_angle_alpha   72.73278809
_cell_angle_beta   72.73278809
_cell_angle_gamma   60.00000000
_symmetry_Int_Tables_number   1
_chemical_formula_structural   UCo2
_chemical_formula_sum   'U4 Co8'
_cell_volume   181.82846150
_cell_formula_units_Z   4
loop_
 _symmetry_equiv_pos_site_id
 _symmetry_equiv_pos_as_xyz
  1  'x, y, z'
loop_
 _atom_site_type_symbol
 _atom_site_label
 _atom_site_symmetry_multiplicity
 _atom_site_fract_x
 _atom_site_fract_y
 _atom_site_fract_z
 _atom_site_occupancy
  U  U0  1  0.18064799  0.18064799  0.95805603  1
  U  U1  1  0.69681598  0.69681698  0.40955101  1
  U  U2  1  0.30972699  0.30972699  0.57081902  1
  U  U3  1  0.82086397  0.82086397  0.03740800  1
  Co  Co4  1  0.49911398  0.49911298  0.00266000  1
  Co  Co5  1  0.99888497  0.99888597  0.50334402  1
  Co  Co6  1  0.24641399  0.74916898  0.75524802  1
  Co  Co7  1  0.74692897  0.25113199  0.25080601  1
  Co  Co8  1  0.74916897  0.24641399  0.75524802  1
  Co  Co9  1  0.25113299  0.74692798  0.25080601  1
  Co  Co10  1  0.74916897  0.74916898  0.75524803  1
  Co  Co11  1  0.25113299  0.25113199  0.25080601  1
