# generated using pymatgen
data_CeCo4(CuS4)2
_symmetry_space_group_name_H-M   'P 1'
_cell_length_a   6.22846651
_cell_length_b   6.22846651
_cell_length_c   6.22846603
_cell_angle_alpha   89.51853943
_cell_angle_beta   89.51853943
_cell_angle_gamma   89.51854706
_symmetry_Int_Tables_number   1
_chemical_formula_structural   CeCo4(CuS4)2
_chemical_formula_sum   'Ce1 Co4 Cu2 S8'
_cell_volume   241.60038546
_cell_formula_units_Z   1
loop_
 _symmetry_equiv_pos_site_id
 _symmetry_equiv_pos_as_xyz
  1  'x, y, z'
loop_
 _atom_site_type_symbol
 _atom_site_label
 _atom_site_symmetry_multiplicity
 _atom_site_fract_x
 _atom_site_fract_y
 _atom_site_fract_z
 _atom_site_occupancy
  Ce  Ce0  1  0.00000000  0.00000000  0.00000000  1
  Co  Co1  1  0.19255300  0.40710400  0.56875097  1
  Cu  Cu2  1  0.40710399  0.56875100  0.19255294  1
  Co  Co3  1  0.80744699  0.59289600  0.43124892  1
  Co  Co4  1  0.43124899  0.80744699  0.59289593  1
  Co  Co5  1  0.56875099  0.19255300  0.40710396  1
  Cu  Cu6  1  0.59289599  0.43124900  0.80744695  1
  S  S7  1  0.38325600  0.14730500  0.72927898  1
  S  S8  1  0.85269499  0.27072100  0.61674394  1
  S  S9  1  0.74447099  0.74447099  0.74447092  1
  S  S10  1  0.25552900  0.25552900  0.25552897  1
  S  S11  1  0.61674399  0.85269499  0.27072091  1
  S  S12  1  0.72927899  0.38325600  0.14730493  1
  S  S13  1  0.14730499  0.72927899  0.38325595  1
  S  S14  1  0.27072099  0.61674400  0.85269496  1
