# generated using pymatgen
data_CsRb3BrCl11
_symmetry_space_group_name_H-M   'P 1'
_cell_length_a   6.49001217
_cell_length_b   6.96613741
_cell_length_c   12.51991844
_cell_angle_alpha   100.59906769
_cell_angle_beta   90.00000000
_cell_angle_gamma   117.76367188
_symmetry_Int_Tables_number   1
_chemical_formula_structural   CsRb3BrCl11
_chemical_formula_sum   'Cs1 Rb3 Br1 Cl11'
_cell_volume   489.92596806
_cell_formula_units_Z   1
loop_
 _symmetry_equiv_pos_site_id
 _symmetry_equiv_pos_as_xyz
  1  'x, y, z'
loop_
 _atom_site_type_symbol
 _atom_site_label
 _atom_site_symmetry_multiplicity
 _atom_site_fract_x
 _atom_site_fract_y
 _atom_site_fract_z
 _atom_site_occupancy
  Cs  Cs0  1  0.49999995  0.49999996  0.49999999  1
  Rb  Rb1  1  -0.00000004  0.49999996  -0.00000002  1
  Rb  Rb2  1  0.11852900  0.00000000  0.75000002  1
  Rb  Rb3  1  0.88147098  0.00000000  0.25000001  1
  Br  Br4  1  0.53710292  0.83677894  0.60341098  1
  Cl  Cl5  1  0.46289697  0.16322099  0.39658900  1
  Cl  Cl6  1  0.70032397  0.16322099  0.89658901  1
  Cl  Cl7  1  0.29967592  0.83677894  0.10341097  1
  Cl  Cl8  1  0.62927695  0.42842997  0.65902700  1
  Cl  Cl9  1  0.37072294  0.57156996  0.34097298  1
  Cl  Cl10  1  0.20084795  0.57157096  0.84097300  1
  Cl  Cl11  1  0.79915294  0.42842997  0.15902699  1
  Cl  Cl12  1  0.20416697  0.31008998  0.04020399  1
  Cl  Cl13  1  0.79583292  0.68990995  0.95979599  1
  Cl  Cl14  1  0.89407692  0.68990995  0.45979598  1
  Cl  Cl15  1  0.10592297  0.31008998  0.54020400  1
