# generated using pymatgen
data_Li2MgBiO8
_symmetry_space_group_name_H-M   'P 1'
_cell_length_a   5.36754990
_cell_length_b   5.36754990
_cell_length_c   6.55949163
_cell_angle_alpha   114.15105438
_cell_angle_beta   114.15105438
_cell_angle_gamma   90.00000000
_symmetry_Int_Tables_number   1
_chemical_formula_structural   Li2MgBiO8
_chemical_formula_sum   'Li2 Mg1 Bi1 O8'
_cell_volume   154.13434515
_cell_formula_units_Z   1
loop_
 _symmetry_equiv_pos_site_id
 _symmetry_equiv_pos_as_xyz
  1  'x, y, z'
loop_
 _atom_site_type_symbol
 _atom_site_label
 _atom_site_symmetry_multiplicity
 _atom_site_fract_x
 _atom_site_fract_y
 _atom_site_fract_z
 _atom_site_occupancy
  Li  Li0  1  0.74999998  0.24999999  0.49999993  1
  Li  Li1  1  0.00000000  0.00000000  0.00000000  1
  Mg  Mg2  1  0.24999994  0.74999998  0.49999992  1
  Bi  Bi3  1  0.49999996  0.49999999  -0.00000007  1
  O  O4  1  0.61238599  0.12500000  0.74999995  1
  O  O5  1  0.13761395  0.62499999  0.74999993  1
  O  O6  1  0.61238595  0.62499999  0.74999991  1
  O  O7  1  0.13761399  0.12500000  0.74999998  1
  O  O8  1  0.37499997  0.38761399  0.24999994  1
  O  O9  1  0.87499993  0.86238598  0.24999987  1
  O  O10  1  0.37499994  0.86238598  0.24999990  1
  O  O11  1  0.87499996  0.38761399  0.24999992  1
