# generated using pymatgen
data_ZrGa
_symmetry_space_group_name_H-M   'P 1'
_cell_length_a   4.11740017
_cell_length_b   4.21098089
_cell_length_c   8.10017204
_cell_angle_alpha   90.00000000
_cell_angle_beta   90.00000000
_cell_angle_gamma   90.00000000
_symmetry_Int_Tables_number   1
_chemical_formula_structural   ZrGa
_chemical_formula_sum   'Zr4 Ga4'
_cell_volume   140.44315978
_cell_formula_units_Z   4
loop_
 _symmetry_equiv_pos_site_id
 _symmetry_equiv_pos_as_xyz
  1  'x, y, z'
loop_
 _atom_site_type_symbol
 _atom_site_label
 _atom_site_symmetry_multiplicity
 _atom_site_fract_x
 _atom_site_fract_y
 _atom_site_fract_z
 _atom_site_occupancy
  Zr  Zr0  1  0.00000000  0.00000000  0.24470800  1
  Zr  Zr1  1  0.00000000  0.00000000  0.75529200  1
  Zr  Zr2  1  0.49999998  0.50000001  0.25025600  1
  Zr  Zr3  1  0.49999998  0.50000001  0.74974400  1
  Ga  Ga4  1  0.00000000  0.50000001  0.50000000  1
  Ga  Ga5  1  0.00000000  0.50000001  0.00000000  1
  Ga  Ga6  1  0.49999998  0.00000000  0.50000000  1
  Ga  Ga7  1  0.49999998  0.00000000  -0.00000000  1
