# generated using pymatgen
data_LiNiSn2F6
_symmetry_space_group_name_H-M   'P 1'
_cell_length_a   5.67377424
_cell_length_b   5.67377424
_cell_length_c   5.76721668
_cell_angle_alpha   60.53453827
_cell_angle_beta   60.53453827
_cell_angle_gamma   59.99999619
_symmetry_Int_Tables_number   1
_chemical_formula_structural   LiNiSn2F6
_chemical_formula_sum   'Li1 Ni1 Sn2 F6'
_cell_volume   132.32972595
_cell_formula_units_Z   1
loop_
 _symmetry_equiv_pos_site_id
 _symmetry_equiv_pos_as_xyz
  1  'x, y, z'
loop_
 _atom_site_type_symbol
 _atom_site_label
 _atom_site_symmetry_multiplicity
 _atom_site_fract_x
 _atom_site_fract_y
 _atom_site_fract_z
 _atom_site_occupancy
  Ni  Ni0  1  0.00000000  0.00000000  0.00000000  1
  Li  Li1  1  0.49999998  0.50000000  0.49999999  1
  Sn  Sn2  1  0.24999999  0.25000000  0.25000000  1
  Sn  Sn3  1  0.74999998  0.75000000  0.74999999  1
  F  F4  1  0.64648899  0.25000000  0.24999999  1
  F  F5  1  0.24999998  0.85351101  0.24999999  1
  F  F6  1  0.85351098  0.64648900  0.24999999  1
  F  F7  1  0.35351098  0.75000000  0.74999999  1
  F  F8  1  0.14648899  0.35351100  0.74999999  1
  F  F9  1  0.74999999  0.14648900  0.74999999  1
