# generated using pymatgen
data_SrZrO3
_symmetry_space_group_name_H-M   'P 1'
_cell_length_a   5.95823622
_cell_length_b   6.01089954
_cell_length_c   8.48060417
_cell_angle_alpha   89.81691742
_cell_angle_beta   90.27667999
_cell_angle_gamma   89.79343414
_symmetry_Int_Tables_number   1
_chemical_formula_structural   SrZrO3
_chemical_formula_sum   'Sr4 Zr4 O12'
_cell_volume   303.72032265
_cell_formula_units_Z   4
loop_
 _symmetry_equiv_pos_site_id
 _symmetry_equiv_pos_as_xyz
  1  'x, y, z'
loop_
 _atom_site_type_symbol
 _atom_site_label
 _atom_site_symmetry_multiplicity
 _atom_site_fract_x
 _atom_site_fract_y
 _atom_site_fract_z
 _atom_site_occupancy
  Sr  Sr0  1  0.49413523  0.53010567  0.75000775  1
  Sr  Sr1  1  0.50586481  0.46989435  0.24999227  1
  Sr  Sr2  1  0.00703861  0.03726150  0.74675411  1
  Sr  Sr3  1  0.99296143  0.96273852  0.25324590  1
  Zr  Zr4  1  0.00000002  0.50000001  -0.00000000  1
  Zr  Zr5  1  0.50000001  0.00000000  0.50000001  1
  Zr  Zr6  1  0.50000001  0.00000000  0.00000001  1
  Zr  Zr7  1  0.00000002  0.50000001  0.50000000  1
  O  O8  1  0.78477331  0.19757571  0.05915437  1
  O  O9  1  0.72135877  0.70768383  0.46969706  1
  O  O10  1  0.21522674  0.80242431  0.94084564  1
  O  O11  1  0.27864127  0.29231620  0.53030295  1
  O  O12  1  0.70497351  0.72182814  0.03355527  1
  O  O13  1  0.80628282  0.21131598  0.44565950  1
  O  O14  1  0.29502653  0.27817189  0.96644475  1
  O  O15  1  0.19371723  0.78868404  0.55434051  1
  O  O16  1  0.60512785  0.00051872  0.75918482  1
  O  O17  1  0.93761415  0.44222411  0.74118655  1
  O  O18  1  0.39487220  0.99948130  0.24081519  1
  O  O19  1  0.06238590  0.55777591  0.25881346  1
