# generated using pymatgen
data_Li4B3HN8
_symmetry_space_group_name_H-M   'P 1'
_cell_length_a   5.38300896
_cell_length_b   5.83349800
_cell_length_c   5.83955145
_cell_angle_alpha   108.69130707
_cell_angle_beta   90.00000000
_cell_angle_gamma   90.00000000
_symmetry_Int_Tables_number   1
_chemical_formula_structural   Li4B3HN8
_chemical_formula_sum   'Li4 B3 H1 N8'
_cell_volume   173.70101015
_cell_formula_units_Z   1
loop_
 _symmetry_equiv_pos_site_id
 _symmetry_equiv_pos_as_xyz
  1  'x, y, z'
loop_
 _atom_site_type_symbol
 _atom_site_label
 _atom_site_symmetry_multiplicity
 _atom_site_fract_x
 _atom_site_fract_y
 _atom_site_fract_z
 _atom_site_occupancy
  Li  Li0  1  0.51531200  0.76585599  0.25367097  1
  Li  Li1  1  0.98468801  0.76585599  0.75367096  1
  Li  Li2  1  0.01531200  0.23414400  0.24632899  1
  Li  Li3  1  0.48468800  0.23414400  0.74632898  1
  B  B4  1  0.02822400  0.72242199  0.26779697  1
  B  B5  1  0.52822400  0.27757800  0.23220299  1
  B  B6  1  0.47177600  0.72242199  0.76779696  1
  H  H7  1  0.97177601  0.27757800  0.73220298  1
  N  N8  1  0.86221301  0.86740399  0.12696197  1
  N  N9  1  0.63778701  0.86740399  0.62696196  1
  N  N10  1  0.13516800  0.63356299  0.35858897  1
  N  N11  1  0.63516801  0.36643700  0.14141098  1
  N  N12  1  0.36483200  0.63356299  0.85858896  1
  N  N13  1  0.86483201  0.36643700  0.64141098  1
  N  N14  1  0.36221300  0.13259600  0.37303799  1
  N  N15  1  0.13778700  0.13259600  0.87303798  1
