# generated using pymatgen
data_CeGe3
_symmetry_space_group_name_H-M   'P 1'
_cell_length_a   4.08193588
_cell_length_b   4.08193588
_cell_length_c   20.68530273
_cell_angle_alpha   90.00000000
_cell_angle_beta   90.00000000
_cell_angle_gamma   89.88446808
_symmetry_Int_Tables_number   1
_chemical_formula_structural   CeGe3
_chemical_formula_sum   'Ce4 Ge12'
_cell_volume   344.66196190
_cell_formula_units_Z   4
loop_
 _symmetry_equiv_pos_site_id
 _symmetry_equiv_pos_as_xyz
  1  'x, y, z'
loop_
 _atom_site_type_symbol
 _atom_site_label
 _atom_site_symmetry_multiplicity
 _atom_site_fract_x
 _atom_site_fract_y
 _atom_site_fract_z
 _atom_site_occupancy
  Ce  Ce0  1  0.73473696  0.73473698  0.38272400  1
  Ce  Ce1  1  0.26526298  0.26526299  0.61727601  1
  Ce  Ce2  1  0.23473699  0.23473699  0.11727600  1
  Ce  Ce3  1  0.76526295  0.76526298  0.88272401  1
  Ge  Ge4  1  0.23443499  0.23443499  0.34309600  1
  Ge  Ge5  1  0.76556495  0.76556498  0.65690401  1
  Ge  Ge6  1  0.73443496  0.73443498  0.15690400  1
  Ge  Ge7  1  0.26556498  0.26556499  0.84309601  1
  Ge  Ge8  1  0.22418297  0.77581698  0.50000001  1
  Ge  Ge9  1  0.27581697  0.72418298  -0.00000000  1
  Ge  Ge10  1  0.77581697  0.22418299  0.50000001  1
  Ge  Ge11  1  0.72418297  0.27581699  -0.00000000  1
  Ge  Ge12  1  0.23137597  0.73137598  0.25000000  1
  Ge  Ge13  1  0.26862397  0.76862398  0.75000001  1
  Ge  Ge14  1  0.76862397  0.26862399  0.75000001  1
  Ge  Ge15  1  0.73137597  0.23137599  0.25000000  1
