# generated using pymatgen
data_YSc5
_symmetry_space_group_name_H-M   'P 1'
_cell_length_a   5.34347153
_cell_length_b   5.34347153
_cell_length_c   6.32170105
_cell_angle_alpha   64.99930573
_cell_angle_beta   64.99930573
_cell_angle_gamma   60.00000381
_symmetry_Int_Tables_number   1
_chemical_formula_structural   YSc5
_chemical_formula_sum   'Y1 Sc5'
_cell_volume   136.44109736
_cell_formula_units_Z   1
loop_
 _symmetry_equiv_pos_site_id
 _symmetry_equiv_pos_as_xyz
  1  'x, y, z'
loop_
 _atom_site_type_symbol
 _atom_site_label
 _atom_site_symmetry_multiplicity
 _atom_site_fract_x
 _atom_site_fract_y
 _atom_site_fract_z
 _atom_site_occupancy
  Sc  Sc0  1  0.66455899  0.00000000  0.00000003  1
  Y  Y1  1  0.16733498  0.16733500  0.49799500  1
  Sc  Sc2  1  -0.00000003  0.33544100  0.00000002  1
  Sc  Sc3  1  0.33544094  0.66455901  0.00000006  1
  Sc  Sc4  1  0.83266492  0.83266501  0.50200508  1
  Sc  Sc5  1  0.49999995  0.50000000  0.50000004  1
