# generated using pymatgen
data_Li3RuS6
_symmetry_space_group_name_H-M   'P 1'
_cell_length_a   5.94232988
_cell_length_b   5.94232988
_cell_length_c   7.31396103
_cell_angle_alpha   66.03164673
_cell_angle_beta   66.03164673
_cell_angle_gamma   60.00000000
_symmetry_Int_Tables_number   1
_chemical_formula_structural   Li3RuS6
_chemical_formula_sum   'Li3 Ru1 S6'
_cell_volume   197.53089016
_cell_formula_units_Z   1
loop_
 _symmetry_equiv_pos_site_id
 _symmetry_equiv_pos_as_xyz
  1  'x, y, z'
loop_
 _atom_site_type_symbol
 _atom_site_label
 _atom_site_symmetry_multiplicity
 _atom_site_fract_x
 _atom_site_fract_y
 _atom_site_fract_z
 _atom_site_occupancy
  Li  Li0  1  0.50000002  0.50000001  0.50000002  1
  Li  Li1  1  0.16726401  0.16726400  0.49820801  1
  Li  Li2  1  0.83273603  0.83273602  0.50179203  1
  Ru  Ru3  1  0.00000000  0.00000000  0.00000000  1
  S  S4  1  0.24536401  0.57005701  0.27705901  1
  S  S5  1  0.57005703  0.90752002  0.27705902  1
  S  S6  1  0.90752003  0.24536401  0.27705902  1
  S  S7  1  0.09248001  0.75463602  0.72294102  1
  S  S8  1  0.42994301  0.09248000  0.72294101  1
  S  S9  1  0.75463603  0.42994301  0.72294102  1
