# generated using pymatgen
data_Li2TiO2
_symmetry_space_group_name_H-M   'P 1'
_cell_length_a   5.59940624
_cell_length_b   5.83082199
_cell_length_c   8.91894722
_cell_angle_alpha   89.98592377
_cell_angle_beta   89.99994659
_cell_angle_gamma   89.99074554
_symmetry_Int_Tables_number   1
_chemical_formula_structural   Li2TiO2
_chemical_formula_sum   'Li8 Ti4 O8'
_cell_volume   291.19595325
_cell_formula_units_Z   4
loop_
 _symmetry_equiv_pos_site_id
 _symmetry_equiv_pos_as_xyz
  1  'x, y, z'
loop_
 _atom_site_type_symbol
 _atom_site_label
 _atom_site_symmetry_multiplicity
 _atom_site_fract_x
 _atom_site_fract_y
 _atom_site_fract_z
 _atom_site_occupancy
  Li  Li0  1  0.50002397  0.39554800  0.15306900  1
  Li  Li1  1  0.99998894  0.89551701  0.65306999  1
  Li  Li2  1  0.99998895  0.60448801  0.15307599  1
  Li  Li3  1  0.50001398  0.10447100  0.65308598  1
  Li  Li4  1  0.50002696  0.89554301  0.34692602  1
  Li  Li5  1  0.99998595  0.39555700  0.84691997  1
  Li  Li6  1  0.99998396  0.10447700  0.34695497  1
  Li  Li7  1  0.50001497  0.60450101  0.84695399  1
  Ti  Ti8  1  0.25001198  0.50004201  0.49996500  1
  Ti  Ti9  1  0.24974997  0.99996001  0.00003403  1
  Ti  Ti10  1  0.75026595  0.99969801  0.99994100  1
  Ti  Ti11  1  0.74995996  0.49996301  0.49996999  1
  O  O12  1  0.99995596  0.21773100  0.10035898  1
  O  O13  1  0.50005197  0.71767101  0.60033300  1
  O  O14  1  0.00000198  0.71762801  0.39968402  1
  O  O15  1  0.49996098  0.21764500  0.89970198  1
  O  O16  1  0.49997896  0.78243501  0.10030601  1
  O  O17  1  0.00004599  0.28242700  0.60029600  1
  O  O18  1  0.50002397  0.28232800  0.39966299  1
  O  O19  1  0.99996294  0.78237001  0.89969099  1
