# generated using pymatgen
data_SrLaMg
_symmetry_space_group_name_H-M   'P 1'
_cell_length_a   3.79357791
_cell_length_b   6.08778715
_cell_length_c   9.80766010
_cell_angle_alpha   90.00000000
_cell_angle_beta   101.15119934
_cell_angle_gamma   90.00000000
_symmetry_Int_Tables_number   1
_chemical_formula_structural   SrLaMg
_chemical_formula_sum   'Sr2 La2 Mg2'
_cell_volume   222.22663324
_cell_formula_units_Z   2
loop_
 _symmetry_equiv_pos_site_id
 _symmetry_equiv_pos_as_xyz
  1  'x, y, z'
loop_
 _atom_site_type_symbol
 _atom_site_label
 _atom_site_symmetry_multiplicity
 _atom_site_fract_x
 _atom_site_fract_y
 _atom_site_fract_z
 _atom_site_occupancy
  Sr  Sr0  1  0.99838303  0.00000000  0.99676603  1
  Sr  Sr1  1  0.32758601  0.00000000  0.65517201  1
  La  La2  1  0.66754402  0.00000000  0.33508802  1
  La  La3  1  0.43804201  0.49999999  0.87608402  1
  Mg  Mg4  1  0.12112300  0.49999999  0.24224601  1
  Mg  Mg5  1  0.78065403  0.49999999  0.56130802  1
