# generated using pymatgen
data_TiO2
_symmetry_space_group_name_H-M   'P 1'
_cell_length_a   4.78268623
_cell_length_b   4.78268623
_cell_length_c   9.31713581
_cell_angle_alpha   90.00000000
_cell_angle_beta   90.00000000
_cell_angle_gamma   90.00000000
_symmetry_Int_Tables_number   1
_chemical_formula_structural   TiO2
_chemical_formula_sum   'Ti6 O12'
_cell_volume   213.12098080
_cell_formula_units_Z   6
loop_
 _symmetry_equiv_pos_site_id
 _symmetry_equiv_pos_as_xyz
  1  'x, y, z'
loop_
 _atom_site_type_symbol
 _atom_site_label
 _atom_site_symmetry_multiplicity
 _atom_site_fract_x
 _atom_site_fract_y
 _atom_site_fract_z
 _atom_site_occupancy
  Ti  Ti0  1  0.00000000  0.00000000  0.33672801  1
  Ti  Ti1  1  0.00000000  0.00000000  0.66327201  1
  Ti  Ti2  1  0.49999998  0.49999998  0.16327200  1
  Ti  Ti3  1  0.49999998  0.49999998  0.83672802  1
  Ti  Ti4  1  0.00000000  0.00000000  0.00000000  1
  Ti  Ti5  1  0.49999998  0.49999998  0.50000001  1
  O  O6  1  0.19244899  0.80755096  0.16482000  1
  O  O7  1  0.19244899  0.80755096  0.83518002  1
  O  O8  1  0.19533399  0.80466596  0.50000001  1
  O  O9  1  0.30466599  0.30466599  0.00000000  1
  O  O10  1  0.30755098  0.30755098  0.33518001  1
  O  O11  1  0.30755098  0.30755098  0.66482001  1
  O  O12  1  0.69244897  0.69244897  0.33518001  1
  O  O13  1  0.69244897  0.69244897  0.66482001  1
  O  O14  1  0.69533397  0.69533397  0.00000000  1
  O  O15  1  0.80466596  0.19533399  0.50000001  1
  O  O16  1  0.80755096  0.19244899  0.16482000  1
  O  O17  1  0.80755096  0.19244899  0.83518002  1
