# generated using pymatgen
data_LiCaBiSbO6
_symmetry_space_group_name_H-M   'P 1'
_cell_length_a   5.45711184
_cell_length_b   7.16708708
_cell_length_c   7.16708708
_cell_angle_alpha   102.88229370
_cell_angle_beta   90.00000000
_cell_angle_gamma   90.00000000
_symmetry_Int_Tables_number   1
_chemical_formula_structural   LiCaBiSbO6
_chemical_formula_sum   'Li2 Ca2 Bi2 Sb2 O12'
_cell_volume   273.26069228
_cell_formula_units_Z   2
loop_
 _symmetry_equiv_pos_site_id
 _symmetry_equiv_pos_as_xyz
  1  'x, y, z'
loop_
 _atom_site_type_symbol
 _atom_site_label
 _atom_site_symmetry_multiplicity
 _atom_site_fract_x
 _atom_site_fract_y
 _atom_site_fract_z
 _atom_site_occupancy
  Li  Li0  1  0.53153102  0.29846801  0.08822202  1
  Li  Li1  1  0.53153102  0.91177804  0.70153207  1
  Ca  Ca2  1  0.07781800  0.60198902  0.39801104  1
  Ca  Ca3  1  0.57781802  0.39801102  0.60198904  1
  Bi  Bi4  1  0.03153100  0.70153203  0.91177806  1
  Bi  Bi5  1  0.03153100  0.08822200  0.29846801  1
  Sb  Sb6  1  0.50096402  0.80548503  0.19451505  1
  Sb  Sb7  1  0.00096400  0.19451501  0.80548503  1
  O  O8  1  0.80306202  0.35629401  0.32316703  1
  O  O9  1  0.33863801  0.21485101  0.78514903  1
  O  O10  1  0.82178302  0.10684000  0.57760502  1
  O  O11  1  0.30306201  0.64370602  0.67683305  1
  O  O12  1  0.32178301  0.89316003  0.42239506  1
  O  O13  1  0.30306201  0.32316701  0.35629403  1
  O  O14  1  0.82178302  0.42239502  0.89316005  1
  O  O15  1  0.86061003  0.04035800  0.95964203  1
  O  O16  1  0.32178301  0.57760502  0.10684003  1
  O  O17  1  0.36061001  0.95964204  0.04035805  1
  O  O18  1  0.80306202  0.67683303  0.64370605  1
  O  O19  1  0.83863803  0.78514903  0.21485105  1
