# generated using pymatgen
data_Li2CdSn3
_symmetry_space_group_name_H-M   'P 1'
_cell_length_a   4.31799603
_cell_length_b   4.31799603
_cell_length_c   10.58972645
_cell_angle_alpha   90.00000000
_cell_angle_beta   90.00000000
_cell_angle_gamma   120.00000000
_symmetry_Int_Tables_number   1
_chemical_formula_structural   Li2CdSn3
_chemical_formula_sum   'Li2 Cd1 Sn3'
_cell_volume   170.99359762
_cell_formula_units_Z   1
loop_
 _symmetry_equiv_pos_site_id
 _symmetry_equiv_pos_as_xyz
  1  'x, y, z'
loop_
 _atom_site_type_symbol
 _atom_site_label
 _atom_site_symmetry_multiplicity
 _atom_site_fract_x
 _atom_site_fract_y
 _atom_site_fract_z
 _atom_site_occupancy
  Li  Li0  1  0.66666665  0.33333331  0.33525999  1
  Li  Li1  1  0.33333331  0.66666662  0.66473997  1
  Sn  Sn2  1  0.00000000  0.00000000  0.00000000  1
  Cd  Cd3  1  0.66666665  0.33333331  0.82700997  1
  Sn  Sn4  1  0.33333331  0.66666662  0.17298999  1
  Sn  Sn5  1  0.00000000  0.00000000  0.49999998  1
