# generated using pymatgen
data_Sb2TeSe5
_symmetry_space_group_name_H-M   'P 1'
_cell_length_a   6.09821320
_cell_length_b   6.96368599
_cell_length_c   6.96368504
_cell_angle_alpha   120.00000763
_cell_angle_beta   90.00000000
_cell_angle_gamma   90.00000000
_symmetry_Int_Tables_number   1
_chemical_formula_structural   Sb2TeSe5
_chemical_formula_sum   'Sb2 Te1 Se5'
_cell_volume   256.10113375
_cell_formula_units_Z   1
loop_
 _symmetry_equiv_pos_site_id
 _symmetry_equiv_pos_as_xyz
  1  'x, y, z'
loop_
 _atom_site_type_symbol
 _atom_site_label
 _atom_site_symmetry_multiplicity
 _atom_site_fract_x
 _atom_site_fract_y
 _atom_site_fract_z
 _atom_site_occupancy
  Sb  Sb0  1  0.49999998  0.00000000  -0.00000000  1
  Te  Te1  1  0.00000000  0.00000000  0.00000000  1
  Sb  Sb2  1  0.24999999  0.29634101  0.29634103  1
  Se  Se3  1  0.74999998  0.29634101  0.00000002  1
  Se  Se4  1  0.74999998  0.70365903  0.70365906  1
  Se  Se5  1  0.24999999  0.70365903  0.00000005  1
  Se  Se6  1  0.24999999  0.00000000  0.70365901  1
  Se  Se7  1  0.74999998  0.00000000  0.29634100  1
