# generated using pymatgen
data_Sr2NdMn(AgO4)2
_symmetry_space_group_name_H-M   'P 1'
_cell_length_a   3.94372201
_cell_length_b   3.94372201
_cell_length_c   11.78166103
_cell_angle_alpha   90.00000000
_cell_angle_beta   90.00000000
_cell_angle_gamma   90.00000000
_symmetry_Int_Tables_number   1
_chemical_formula_structural   Sr2NdMn(AgO4)2
_chemical_formula_sum   'Sr2 Nd1 Mn1 Ag2 O8'
_cell_volume   183.23950591
_cell_formula_units_Z   1
loop_
 _symmetry_equiv_pos_site_id
 _symmetry_equiv_pos_as_xyz
  1  'x, y, z'
loop_
 _atom_site_type_symbol
 _atom_site_label
 _atom_site_symmetry_multiplicity
 _atom_site_fract_x
 _atom_site_fract_y
 _atom_site_fract_z
 _atom_site_occupancy
  Sr  Sr0  1  0.50000000  0.50000000  0.20023200  1
  Sr  Sr1  1  0.50000000  0.50000000  0.79976800  1
  Nd  Nd2  1  0.50000000  0.50000000  0.50000000  1
  Mn  Mn3  1  0.00000000  0.00000000  0.00000000  1
  Ag  Ag4  1  0.00000000  0.00000000  0.35571100  1
  Ag  Ag5  1  0.00000000  0.00000000  0.64428900  1
  O  O6  1  0.00000000  0.00000000  0.16836900  1
  O  O7  1  0.00000000  0.00000000  0.83163100  1
  O  O8  1  -0.00000000  0.50000000  0.00000000  1
  O  O9  1  0.50000000  0.00000000  0.00000000  1
  O  O10  1  -0.00000000  0.50000000  0.36741100  1
  O  O11  1  -0.00000000  0.50000000  0.63258900  1
  O  O12  1  0.50000000  0.00000000  0.36741100  1
  O  O13  1  0.50000000  0.00000000  0.63258900  1
