# generated using pymatgen
data_Zr7Co2P5
_symmetry_space_group_name_H-M   'P 1'
_cell_length_a   4.05269384
_cell_length_b   4.05269384
_cell_length_c   20.09313774
_cell_angle_alpha   90.00000000
_cell_angle_beta   90.00000000
_cell_angle_gamma   120.00000000
_symmetry_Int_Tables_number   1
_chemical_formula_structural   Zr7Co2P5
_chemical_formula_sum   'Zr7 Co2 P5'
_cell_volume   285.80247573
_cell_formula_units_Z   1
loop_
 _symmetry_equiv_pos_site_id
 _symmetry_equiv_pos_as_xyz
  1  'x, y, z'
loop_
 _atom_site_type_symbol
 _atom_site_label
 _atom_site_symmetry_multiplicity
 _atom_site_fract_x
 _atom_site_fract_y
 _atom_site_fract_z
 _atom_site_occupancy
  Zr  Zr0  1  0.00000000  0.00000000  0.00000000  1
  Zr  Zr1  1  0.00000000  0.00000000  0.49999998  1
  Zr  Zr2  1  0.66666669  0.33333335  0.24999999  1
  Zr  Zr3  1  0.33333335  0.66666670  0.74999997  1
  Zr  Zr4  1  0.66666669  0.33333335  0.87062797  1
  Co  Co5  1  0.33333335  0.66666670  0.12937200  1
  Zr  Zr6  1  0.33333335  0.66666670  0.37062799  1
  Zr  Zr7  1  0.66666669  0.33333335  0.62937198  1
  Co  Co8  1  0.66666669  0.33333335  0.41251398  1
  P  P9  1  0.33333335  0.66666670  0.58748598  1
  P  P10  1  0.33333335  0.66666670  0.91251397  1
  P  P11  1  0.66666669  0.33333335  0.08748600  1
  P  P12  1  0.66666669  0.33333335  0.74999997  1
  P  P13  1  0.33333335  0.66666670  0.24999999  1
