# generated using pymatgen
data_Ce(BRh3)2
_symmetry_space_group_name_H-M   'P 1'
_cell_length_a   5.35058308
_cell_length_b   5.35058308
_cell_length_c   7.51426601
_cell_angle_alpha   90.00000000
_cell_angle_beta   90.00000000
_cell_angle_gamma   90.00000000
_symmetry_Int_Tables_number   1
_chemical_formula_structural   Ce(BRh3)2
_chemical_formula_sum   'Ce2 B4 Rh12'
_cell_volume   215.12396244
_cell_formula_units_Z   2
loop_
 _symmetry_equiv_pos_site_id
 _symmetry_equiv_pos_as_xyz
  1  'x, y, z'
loop_
 _atom_site_type_symbol
 _atom_site_label
 _atom_site_symmetry_multiplicity
 _atom_site_fract_x
 _atom_site_fract_y
 _atom_site_fract_z
 _atom_site_occupancy
  Ce  Ce0  1  0.00000000  0.00000000  0.50000000  1
  Ce  Ce1  1  0.49999999  0.49999999  0.00000000  1
  B  B2  1  0.32928300  0.00000000  0.14819800  1
  B  B3  1  0.67071699  0.00000000  0.14819800  1
  Rh  Rh4  1  0.49999999  0.83327699  0.65066100  1
  B  B5  1  0.49999999  0.16672300  0.65066100  1
  B  B6  1  0.16672300  0.49999999  0.34933900  1
  Rh  Rh7  1  0.83327699  0.49999999  0.34933900  1
  Rh  Rh8  1  0.00000000  0.67071699  0.85180200  1
  Rh  Rh9  1  0.00000000  0.32928300  0.85180200  1
  Rh  Rh10  1  0.74900999  0.00000000  0.85878500  1
  Rh  Rh11  1  0.25099000  0.00000000  0.85878500  1
  Rh  Rh12  1  0.49999999  0.25176100  0.34751300  1
  Rh  Rh13  1  0.49999999  0.74823899  0.34751300  1
  Rh  Rh14  1  0.74823899  0.49999999  0.65248700  1
  Rh  Rh15  1  0.25176100  0.49999999  0.65248700  1
  Rh  Rh16  1  0.00000000  0.25099000  0.14121500  1
  Rh  Rh17  1  0.00000000  0.74900999  0.14121500  1
