# generated using pymatgen
data_Cr(Cu2Se5)2
_symmetry_space_group_name_H-M   'P 1'
_cell_length_a   5.79806280
_cell_length_b   7.75886393
_cell_length_c   9.25785637
_cell_angle_alpha   113.64211273
_cell_angle_beta   106.90686035
_cell_angle_gamma   90.18652344
_symmetry_Int_Tables_number   1
_chemical_formula_structural   Cr(Cu2Se5)2
_chemical_formula_sum   'Cr1 Cu4 Se10'
_cell_volume   361.60141545
_cell_formula_units_Z   1
loop_
 _symmetry_equiv_pos_site_id
 _symmetry_equiv_pos_as_xyz
  1  'x, y, z'
loop_
 _atom_site_type_symbol
 _atom_site_label
 _atom_site_symmetry_multiplicity
 _atom_site_fract_x
 _atom_site_fract_y
 _atom_site_fract_z
 _atom_site_occupancy
  Cr  Cr0  1  0.33558393  0.64287200  0.64829195  1
  Cu  Cu1  1  0.50000001  0.00000000  -0.00000001  1
  Cu  Cu2  1  0.66441597  0.35712800  0.35170796  1
  Cu  Cu3  1  0.88788893  0.79302900  0.79295593  1
  Cu  Cu4  1  0.11211098  0.20697100  0.20704399  1
  Se  Se5  1  0.26941593  0.65897800  0.91081995  1
  Se  Se6  1  0.46522301  0.03608900  0.29254998  1
  Se  Se7  1  0.68962196  0.45693500  0.68287995  1
  Se  Se8  1  0.89671492  0.86691800  0.09052694  1
  Se  Se9  1  0.08938797  0.27955100  0.49323598  1
  Se  Se10  1  0.10328499  0.13308200  0.90947297  1
  Se  Se11  1  0.31037794  0.54306500  0.31711997  1
  Se  Se12  1  0.53477690  0.96391101  0.70744994  1
  Se  Se13  1  0.73058398  0.34102200  0.08917997  1
  Se  Se14  1  0.91061194  0.72044900  0.50676394  1
