# generated using pymatgen
data_Li2Fe2O7
_symmetry_space_group_name_H-M   'P 1'
_cell_length_a   3.94205999
_cell_length_b   6.20886898
_cell_length_c   6.20886850
_cell_angle_alpha   114.75402069
_cell_angle_beta   90.00000000
_cell_angle_gamma   90.00000000
_symmetry_Int_Tables_number   1
_chemical_formula_structural   Li2Fe2O7
_chemical_formula_sum   'Li2 Fe2 O7'
_cell_volume   138.00297818
_cell_formula_units_Z   1
loop_
 _symmetry_equiv_pos_site_id
 _symmetry_equiv_pos_as_xyz
  1  'x, y, z'
loop_
 _atom_site_type_symbol
 _atom_site_label
 _atom_site_symmetry_multiplicity
 _atom_site_fract_x
 _atom_site_fract_y
 _atom_site_fract_z
 _atom_site_occupancy
  Li  Li0  1  0.00000000  0.00000000  0.00000000  1
  Li  Li1  1  0.00000000  0.31648800  0.68351203  1
  Fe  Fe2  1  0.00000000  0.68351201  0.31648803  1
  Fe  Fe3  1  0.00000000  0.33085100  0.04828001  1
  O  O4  1  0.00000000  0.50000000  0.50000003  1
  O  O5  1  0.50000000  0.30149900  0.69850103  1
  O  O6  1  0.50000000  0.69850101  0.30149903  1
  O  O7  1  0.00000000  0.04828000  0.33085101  1
  O  O8  1  0.00000000  0.66914901  0.95172005  1
  O  O9  1  0.00000000  0.95172001  0.66914905  1
  O  O10  1  0.50000000  0.00000000  0.00000000  1
