# generated using pymatgen
data_Sr5Fe3O10
_symmetry_space_group_name_H-M   'P 1'
_cell_length_a   5.34475422
_cell_length_b   5.34475422
_cell_length_c   9.81936741
_cell_angle_alpha   105.79246521
_cell_angle_beta   105.79246521
_cell_angle_gamma   90.00000000
_symmetry_Int_Tables_number   1
_chemical_formula_structural   Sr5Fe3O10
_chemical_formula_sum   'Sr5 Fe3 O10'
_cell_volume   258.89538207
_cell_formula_units_Z   1
loop_
 _symmetry_equiv_pos_site_id
 _symmetry_equiv_pos_as_xyz
  1  'x, y, z'
loop_
 _atom_site_type_symbol
 _atom_site_label
 _atom_site_symmetry_multiplicity
 _atom_site_fract_x
 _atom_site_fract_y
 _atom_site_fract_z
 _atom_site_occupancy
  Sr  Sr0  1  0.00000000  0.00000000  0.00000000  1
  Sr  Sr1  1  0.34946500  0.84946497  0.69892999  1
  Sr  Sr2  1  0.84946497  0.34946499  0.69892999  1
  Sr  Sr3  1  0.65053498  0.15053499  0.30107000  1
  Sr  Sr4  1  0.15053500  0.65053498  0.30107000  1
  Fe  Fe5  1  0.24379199  0.24379199  0.48758399  1
  Fe  Fe6  1  0.75620798  0.75620797  0.51241600  1
  Fe  Fe7  1  0.49999999  0.49999998  0.00000001  1
  O  O8  1  0.00000000  0.49999998  0.49999999  1
  O  O9  1  0.49999998  0.00000000  0.49999999  1
  O  O10  1  0.00000000  0.00000000  0.49999998  1
  O  O11  1  0.49999999  0.49999998  0.49999999  1
  O  O12  1  0.86739698  0.86739697  0.73479399  1
  O  O13  1  0.13260300  0.13260300  0.26520599  1
  O  O14  1  0.37854099  0.37854099  0.75708198  1
  O  O15  1  0.62145898  0.62145898  0.24291800  1
  O  O16  1  0.00000000  0.49999998  0.00000001  1
  O  O17  1  0.49999998  0.00000000  0.00000000  1
