# generated using pymatgen
data_Ba2CuP7
_symmetry_space_group_name_H-M   'P 1'
_cell_length_a   4.52563810
_cell_length_b   8.99836159
_cell_length_c   10.09417915
_cell_angle_alpha   90.79373169
_cell_angle_beta   90.00000000
_cell_angle_gamma   90.00000000
_symmetry_Int_Tables_number   1
_chemical_formula_structural   Ba2CuP7
_chemical_formula_sum   'Ba4 Cu2 P14'
_cell_volume   411.02912539
_cell_formula_units_Z   2
loop_
 _symmetry_equiv_pos_site_id
 _symmetry_equiv_pos_as_xyz
  1  'x, y, z'
loop_
 _atom_site_type_symbol
 _atom_site_label
 _atom_site_symmetry_multiplicity
 _atom_site_fract_x
 _atom_site_fract_y
 _atom_site_fract_z
 _atom_site_occupancy
  Ba  Ba0  1  0.23959199  0.37372502  0.75146805  1
  Ba  Ba1  1  0.26040799  0.87372504  0.75146807  1
  Ba  Ba2  1  0.73959198  0.12627501  0.24853202  1
  Ba  Ba3  1  0.76040798  0.62627503  0.24853204  1
  Cu  Cu4  1  0.74564698  0.37641302  0.99941506  1
  Cu  Cu5  1  0.75435298  0.87641304  0.99941508  1
  P  P6  1  0.79460398  0.61369703  0.62859305  1
  P  P7  1  0.25435299  0.62358703  0.00058503  1
  P  P8  1  0.20539600  0.38630302  0.37140703  1
  P  P9  1  0.24564699  0.12358701  0.00058501  1
  P  P10  1  0.70539598  0.11369701  0.62859303  1
  P  P11  1  0.29460399  0.88630304  0.37140706  1
  P  P12  1  0.32273199  0.64131503  0.49784505  1
  P  P13  1  0.17726800  0.14131501  0.49784503  1
  P  P14  1  0.25338899  0.87426404  0.12039005  1
  P  P15  1  0.67726798  0.35868502  0.50215504  1
  P  P16  1  0.24661099  0.37426402  0.12039002  1
  P  P17  1  0.74661098  0.12573601  0.87961004  1
  P  P18  1  0.75338898  0.62573603  0.87961007  1
  P  P19  1  0.82273198  0.85868504  0.50215506  1
