# generated using pymatgen
data_Zr3OsW3C10
_symmetry_space_group_name_H-M   'P 1'
_cell_length_a   5.58842230
_cell_length_b   5.58842230
_cell_length_c   7.94300604
_cell_angle_alpha   90.00000000
_cell_angle_beta   90.00000000
_cell_angle_gamma   89.94939423
_symmetry_Int_Tables_number   1
_chemical_formula_structural   Zr3OsW3C10
_chemical_formula_sum   'Zr3 Os1 W3 C10'
_cell_volume   248.06366568
_cell_formula_units_Z   1
loop_
 _symmetry_equiv_pos_site_id
 _symmetry_equiv_pos_as_xyz
  1  'x, y, z'
loop_
 _atom_site_type_symbol
 _atom_site_label
 _atom_site_symmetry_multiplicity
 _atom_site_fract_x
 _atom_site_fract_y
 _atom_site_fract_z
 _atom_site_occupancy
  Zr  Zr0  1  0.71347398  0.71347401  1.00000000  1
  Zr  Zr1  1  0.24209696  0.74760901  0.25725300  1
  Zr  Zr2  1  0.74760900  0.24209700  0.25725300  1
  Os  Os3  1  0.24209696  0.74760901  0.74274700  1
  W  W4  1  0.74760900  0.24209700  0.74274700  1
  W  W5  1  0.99816697  0.99816702  0.23619300  1
  W  W6  1  0.99816697  0.99816702  0.76380700  1
  C  C7  1  0.98892199  0.51396601  0.22834500  1
  C  C8  1  0.51396596  0.98892202  0.77165500  1
  C  C9  1  0.98892199  0.51396601  0.77165500  1
  C  C10  1  0.51396596  0.98892202  0.22834500  1
  C  C11  1  0.27026697  0.75212602  -0.00000000  1
  C  C12  1  0.75212600  0.27026701  -0.00000000  1
  C  C13  1  0.26054497  0.74049101  0.50000000  1
  C  C14  1  0.74049100  0.26054501  0.50000000  1
  C  C15  1  0.51323698  0.51323701  0.22646700  1
  C  C16  1  0.51323698  0.51323701  0.77353300  1
