# generated using pymatgen
data_LuSnAu
_symmetry_space_group_name_H-M   'P 1'
_cell_length_a   4.10603189
_cell_length_b   4.10603189
_cell_length_c   8.95204544
_cell_angle_alpha   90.00000000
_cell_angle_beta   90.00000000
_cell_angle_gamma   90.00000000
_symmetry_Int_Tables_number   1
_chemical_formula_structural   LuSnAu
_chemical_formula_sum   'Lu2 Sn2 Au2'
_cell_volume   150.92699149
_cell_formula_units_Z   2
loop_
 _symmetry_equiv_pos_site_id
 _symmetry_equiv_pos_as_xyz
  1  'x, y, z'
loop_
 _atom_site_type_symbol
 _atom_site_label
 _atom_site_symmetry_multiplicity
 _atom_site_fract_x
 _atom_site_fract_y
 _atom_site_fract_z
 _atom_site_occupancy
  Lu  Lu0  1  0.00000000  0.50000001  0.71595096  1
  Lu  Lu1  1  0.50000001  0.00000000  0.28404899  1
  Sn  Sn2  1  0.00000000  0.00000000  0.00000000  1
  Sn  Sn3  1  0.50000001  0.50000001  -0.00000000  1
  Au  Au4  1  0.00000000  0.50000001  0.36607598  1
  Au  Au5  1  0.50000001  0.00000000  0.63392397  1
