# generated using pymatgen
data_YFe11Mo
_symmetry_space_group_name_H-M   'P 1'
_cell_length_a   4.75724983
_cell_length_b   6.35246563
_cell_length_c   6.35246563
_cell_angle_alpha   81.26451874
_cell_angle_beta   68.01021576
_cell_angle_gamma   68.01021576
_symmetry_Int_Tables_number   1
_chemical_formula_structural   YFe11Mo
_chemical_formula_sum   'Y1 Fe11 Mo1'
_cell_volume   165.04215963
_cell_formula_units_Z   1
loop_
 _symmetry_equiv_pos_site_id
 _symmetry_equiv_pos_as_xyz
  1  'x, y, z'
loop_
 _atom_site_type_symbol
 _atom_site_label
 _atom_site_symmetry_multiplicity
 _atom_site_fract_x
 _atom_site_fract_y
 _atom_site_fract_z
 _atom_site_occupancy
  Y  Y0  1  0.00000000  0.00000000  0.00000000  1
  Fe  Fe1  1  0.36093098  0.63906902  0.63906897  1
  Fe  Fe2  1  0.63906901  0.36093101  0.36093097  1
  Fe  Fe3  1  -0.00000004  0.64564202  0.35435799  1
  Fe  Fe4  1  -0.00000002  0.35435801  0.64564200  1
  Fe  Fe5  1  0.50000002  0.20759501  0.79240498  1
  Fe  Fe6  1  0.49999997  0.79240503  0.20759496  1
  Fe  Fe7  1  0.50000003  0.00000000  0.49999998  1
  Fe  Fe8  1  0.00000000  0.00000000  0.50000001  1
  Fe  Fe9  1  0.49999999  0.50000002  -0.00000004  1
  Fe  Fe10  1  -0.00000003  0.50000002  -0.00000001  1
  Fe  Fe11  1  0.26520200  0.23479801  0.23479798  1
  Mo  Mo12  1  0.73479799  0.76520203  0.76520196  1
