# generated using pymatgen
data_Li2Fe2O5
_symmetry_space_group_name_H-M   'P 1'
_cell_length_a   5.65480566
_cell_length_b   6.17970610
_cell_length_c   6.18814850
_cell_angle_alpha   84.74773407
_cell_angle_beta   87.32850647
_cell_angle_gamma   87.28922272
_symmetry_Int_Tables_number   1
_chemical_formula_structural   Li2Fe2O5
_chemical_formula_sum   'Li4 Fe4 O10'
_cell_volume   214.90176812
_cell_formula_units_Z   2
loop_
 _symmetry_equiv_pos_site_id
 _symmetry_equiv_pos_as_xyz
  1  'x, y, z'
loop_
 _atom_site_type_symbol
 _atom_site_label
 _atom_site_symmetry_multiplicity
 _atom_site_fract_x
 _atom_site_fract_y
 _atom_site_fract_z
 _atom_site_occupancy
  Li  Li0  1  0.75131101  0.05592000  0.42067397  1
  Li  Li1  1  0.24904002  0.57985802  0.94381696  1
  Li  Li2  1  0.75088002  0.42654701  0.04978297  1
  Li  Li3  1  0.24876303  0.95047703  0.57292495  1
  Fe  Fe4  1  0.00000500  0.00321900  0.99678398  1
  Fe  Fe5  1  0.49999702  0.50316001  0.49683896  1
  Fe  Fe6  1  0.30515603  0.88970303  0.88309295  1
  O  O7  1  0.78574002  0.38732101  0.38074896  1
  Fe  Fe8  1  0.21426202  0.61897802  0.61295496  1
  O  O9  1  0.69484201  0.11666900  0.11054398  1
  O  O10  1  0.93801703  0.69392902  0.02293595  1
  O  O11  1  0.41641001  0.19165001  0.52556197  1
  O  O12  1  0.93844901  0.02954400  0.68669197  1
  O  O13  1  0.41635202  0.53178002  0.18495597  1
  O  O14  1  0.58352903  0.81478102  0.46810595  1
  O  O15  1  0.06190301  0.31252401  0.97062497  1
  O  O16  1  0.58371102  0.47455101  0.80860696  1
  O  O17  1  0.06163303  0.97688603  0.30685696  1
