# generated using pymatgen
data_YMn3PRu2
_symmetry_space_group_name_H-M   'P 1'
_cell_length_a   3.86161900
_cell_length_b   7.11346006
_cell_length_c   7.29565811
_cell_angle_alpha   89.98383331
_cell_angle_beta   90.00017548
_cell_angle_gamma   89.99979401
_symmetry_Int_Tables_number   1
_chemical_formula_structural   YMn3PRu2
_chemical_formula_sum   'Y2 Mn6 P2 Ru4'
_cell_volume   200.40787194
_cell_formula_units_Z   2
loop_
 _symmetry_equiv_pos_site_id
 _symmetry_equiv_pos_as_xyz
  1  'x, y, z'
loop_
 _atom_site_type_symbol
 _atom_site_label
 _atom_site_symmetry_multiplicity
 _atom_site_fract_x
 _atom_site_fract_y
 _atom_site_fract_z
 _atom_site_occupancy
  Y  Y0  1  0.49998208  0.99997200  0.00001003  1
  Y  Y1  1  0.00001604  0.50007400  0.50006201  1
  Mn  Mn2  1  0.00000308  0.91286400  0.35429103  1
  Mn  Mn3  1  0.00000103  0.35634500  0.90509801  1
  Mn  Mn4  1  0.50000005  0.58720100  0.85440101  1
  Mn  Mn5  1  0.99999901  0.08714700  0.64562500  1
  Mn  Mn6  1  0.50000001  0.14368400  0.40514200  1
  Mn  Mn7  1  0.50000003  0.41285800  0.14559301  1
  Ru  Ru8  1  0.00000105  0.64361800  0.09487502  1
  Ru  Ru9  1  0.50000007  0.85621500  0.59487102  1
  P  P10  1  0.50000406  0.72028000  0.28880402  1
  P  P11  1  0.50000202  0.27981800  0.71124001  1
  Ru  Ru12  1  0.99999702  0.22016600  0.21124201  1
  Ru  Ru13  1  0.99999607  0.77975800  0.78874602  1
