# generated using pymatgen
data_CeSnRh
_symmetry_space_group_name_H-M   'P 1'
_cell_length_a   3.97729802
_cell_length_b   7.46303988
_cell_length_c   7.46304083
_cell_angle_alpha   120.00000000
_cell_angle_beta   90.00000000
_cell_angle_gamma   90.00000000
_symmetry_Int_Tables_number   1
_chemical_formula_structural   CeSnRh
_chemical_formula_sum   'Ce3 Sn3 Rh3'
_cell_volume   191.84493846
_cell_formula_units_Z   3
loop_
 _symmetry_equiv_pos_site_id
 _symmetry_equiv_pos_as_xyz
  1  'x, y, z'
loop_
 _atom_site_type_symbol
 _atom_site_label
 _atom_site_symmetry_multiplicity
 _atom_site_fract_x
 _atom_site_fract_y
 _atom_site_fract_z
 _atom_site_occupancy
  Ce  Ce0  1  0.50000000  1.00000005  0.58946305  1
  Ce  Ce1  1  0.50000000  0.58946303  0.00000004  1
  Ce  Ce2  1  0.50000000  0.41053702  0.41053702  1
  Sn  Sn3  1  -0.00000000  0.25340301  0.00000002  1
  Sn  Sn4  1  0.99999999  1.00000005  0.25340305  1
  Sn  Sn5  1  0.99999999  0.74659703  0.74659703  1
  Rh  Rh6  1  -0.00000000  0.66666670  0.33333337  1
  Rh  Rh7  1  0.50000000  0.00000000  -0.00000000  1
  Rh  Rh8  1  -0.00000000  0.33333335  0.66666667  1
