# generated using pymatgen
data_Zr5Sn3C
_symmetry_space_group_name_H-M   'P 1'
_cell_length_a   5.68971491
_cell_length_b   8.24559212
_cell_length_c   8.24559116
_cell_angle_alpha   120.00000763
_cell_angle_beta   90.00000000
_cell_angle_gamma   90.00000000
_symmetry_Int_Tables_number   1
_chemical_formula_structural   Zr5Sn3C
_chemical_formula_sum   'Zr10 Sn6 C2'
_cell_volume   335.01538351
_cell_formula_units_Z   2
loop_
 _symmetry_equiv_pos_site_id
 _symmetry_equiv_pos_as_xyz
  1  'x, y, z'
loop_
 _atom_site_type_symbol
 _atom_site_label
 _atom_site_symmetry_multiplicity
 _atom_site_fract_x
 _atom_site_fract_y
 _atom_site_fract_z
 _atom_site_occupancy
  Zr  Zr0  1  0.75000001  0.77680602  0.77680604  1
  Zr  Zr1  1  0.25000000  0.22319401  0.22319401  1
  Zr  Zr2  1  0.75000001  0.00000000  0.22319400  1
  Zr  Zr3  1  0.25000000  0.00000000  0.77680599  1
  Zr  Zr4  1  0.75000001  0.22319401  1.00000000  1
  Zr  Zr5  1  0.25000000  0.77680602  0.00000006  1
  Zr  Zr6  1  -0.00000000  0.66666668  0.33333338  1
  Zr  Zr7  1  -0.00000000  0.33333334  0.66666668  1
  Zr  Zr8  1  0.50000001  0.33333334  0.66666668  1
  Zr  Zr9  1  0.50000001  0.66666668  0.33333338  1
  Sn  Sn10  1  0.75000001  0.40319801  0.40319802  1
  Sn  Sn11  1  0.25000000  0.59680201  0.59680203  1
  Sn  Sn12  1  0.75000001  0.00000000  0.59680199  1
  Sn  Sn13  1  0.25000000  0.00000000  0.40319799  1
  Sn  Sn14  1  0.75000001  0.59680201  0.00000004  1
  Sn  Sn15  1  0.25000000  0.40319801  0.00000003  1
  C  C16  1  0.00000000  0.00000000  0.00000000  1
  C  C17  1  0.50000001  0.00000000  -0.00000000  1
