# generated using pymatgen
data_Zr7Ru8C5
_symmetry_space_group_name_H-M   'P 1'
_cell_length_a   6.39556122
_cell_length_b   6.43668747
_cell_length_c   6.43668747
_cell_angle_alpha   83.52545929
_cell_angle_beta   83.16880035
_cell_angle_gamma   83.16880035
_symmetry_Int_Tables_number   1
_chemical_formula_structural   Zr7Ru8C5
_chemical_formula_sum   'Zr7 Ru8 C5'
_cell_volume   259.91516736
_cell_formula_units_Z   1
loop_
 _symmetry_equiv_pos_site_id
 _symmetry_equiv_pos_as_xyz
  1  'x, y, z'
loop_
 _atom_site_type_symbol
 _atom_site_label
 _atom_site_symmetry_multiplicity
 _atom_site_fract_x
 _atom_site_fract_y
 _atom_site_fract_z
 _atom_site_occupancy
  Zr  Zr0  1  0.34919299  0.33984600  0.33984600  1
  Zr  Zr1  1  0.65080698  0.66015401  0.66015399  1
  Zr  Zr2  1  0.09671300  0.09661000  0.09661000  1
  Zr  Zr3  1  0.90328697  0.90339001  0.90338999  1
  Zr  Zr4  1  0.15230698  0.65657301  0.65657301  1
  Zr  Zr5  1  0.65548499  0.15009300  0.65708799  1
  Ru  Ru6  1  0.65548498  0.65708801  0.15009299  1
  Zr  Zr7  1  0.84769299  0.34342700  0.34342698  1
  C  C8  1  0.34451498  0.84990701  0.34291200  1
  C  C9  1  0.34451499  0.34291200  0.84990700  1
  Ru  Ru10  1  -0.00000001  0.28538300  0.71461701  1
  C  C11  1  0.70789397  0.99953201  0.29137999  1
  C  C12  1  0.29210598  0.70862001  0.00046800  1
  Ru  Ru13  1  0.29210600  0.00046800  0.70862000  1
  Ru  Ru14  1  0.70789399  0.29138000  0.99953199  1
  Ru  Ru15  1  -0.00000002  0.71461701  0.28538301  1
  Ru  Ru16  1  0.50000000  0.00000000  -0.00000001  1
  Ru  Ru17  1  -0.00000001  0.50000000  1.00000001  1
  Ru  Ru18  1  0.00000000  0.00000000  0.50000000  1
  C  C19  1  -0.00000001  0.50000000  0.50000001  1
