# generated using pymatgen
data_Zr2AlSi3
_symmetry_space_group_name_H-M   'P 1'
_cell_length_a   3.90850401
_cell_length_b   6.59483385
_cell_length_c   7.57696676
_cell_angle_alpha   90.00000000
_cell_angle_beta   90.00000000
_cell_angle_gamma   90.00000000
_symmetry_Int_Tables_number   1
_chemical_formula_structural   Zr2AlSi3
_chemical_formula_sum   'Zr4 Al2 Si6'
_cell_volume   195.30339933
_cell_formula_units_Z   2
loop_
 _symmetry_equiv_pos_site_id
 _symmetry_equiv_pos_as_xyz
  1  'x, y, z'
loop_
 _atom_site_type_symbol
 _atom_site_label
 _atom_site_symmetry_multiplicity
 _atom_site_fract_x
 _atom_site_fract_y
 _atom_site_fract_z
 _atom_site_occupancy
  Zr  Zr0  1  0.75000000  0.47433101  0.32288501  1
  Zr  Zr1  1  0.25000000  0.02566900  0.82288503  1
  Zr  Zr2  1  0.75000000  0.97433102  0.17711501  1
  Zr  Zr3  1  0.25000000  0.52566901  0.67711502  1
  Al  Al4  1  0.25000000  0.26041801  0.12245800  1
  Si  Si5  1  0.25000000  0.76041802  0.37754201  1
  Al  Al6  1  0.75000000  0.73958202  0.87754203  1
  Si  Si7  1  0.75000000  0.23958201  0.62245802  1
  Si  Si8  1  0.25000000  0.64571901  0.06552300  1
  Si  Si9  1  0.25000000  0.14571900  0.43447701  1
  Si  Si10  1  0.75000000  0.85428102  0.56552302  1
  Si  Si11  1  0.75000000  0.35428101  0.93447703  1
