# generated using pymatgen
data_NiS2
_symmetry_space_group_name_H-M   'P 1'
_cell_length_a   6.69472837
_cell_length_b   6.69472837
_cell_length_c   6.69472837
_cell_angle_alpha   60.00000000
_cell_angle_beta   60.00000000
_cell_angle_gamma   60.00000000
_symmetry_Int_Tables_number   1
_chemical_formula_structural   NiS2
_chemical_formula_sum   'Ni4 S8'
_cell_volume   212.16995552
_cell_formula_units_Z   4
loop_
 _symmetry_equiv_pos_site_id
 _symmetry_equiv_pos_as_xyz
  1  'x, y, z'
loop_
 _atom_site_type_symbol
 _atom_site_label
 _atom_site_symmetry_multiplicity
 _atom_site_fract_x
 _atom_site_fract_y
 _atom_site_fract_z
 _atom_site_occupancy
  Ni  Ni0  1  0.37500001  0.87500003  0.87500003  1
  Ni  Ni1  1  0.87500003  0.87500003  0.87500003  1
  Ni  Ni2  1  0.87500003  0.87500003  0.37500001  1
  Ni  Ni3  1  0.87500003  0.37500001  0.87500003  1
  S  S4  1  0.63708402  0.63708302  0.63708302  1
  S  S5  1  0.08875100  0.63708302  0.63708302  1
  S  S6  1  0.63708402  0.08875000  0.63708302  1
  S  S7  1  0.63708402  0.63708302  0.08875000  1
  S  S8  1  0.66124902  0.11291700  0.11291700  1
  S  S9  1  0.11291600  0.11291700  0.11291700  1
  S  S10  1  0.11291600  0.11291700  0.66125002  1
  S  S11  1  0.11291600  0.66125002  0.11291700  1
