# generated using pymatgen
data_Mn5AlCuGe2
_symmetry_space_group_name_H-M   'P 1'
_cell_length_a   4.22795391
_cell_length_b   4.22795439
_cell_length_c   8.05607224
_cell_angle_alpha   90.00000000
_cell_angle_beta   90.00000000
_cell_angle_gamma   120.00000000
_symmetry_Int_Tables_number   1
_chemical_formula_structural   Mn5AlCuGe2
_chemical_formula_sum   'Mn5 Al1 Cu1 Ge2'
_cell_volume   124.71380255
_cell_formula_units_Z   1
loop_
 _symmetry_equiv_pos_site_id
 _symmetry_equiv_pos_as_xyz
  1  'x, y, z'
loop_
 _atom_site_type_symbol
 _atom_site_label
 _atom_site_symmetry_multiplicity
 _atom_site_fract_x
 _atom_site_fract_y
 _atom_site_fract_z
 _atom_site_occupancy
  Mn  Mn0  1  0.66666670  0.33333334  0.88585997  1
  Mn  Mn1  1  0.33333338  0.66666668  0.11414000  1
  Mn  Mn2  1  0.66666670  0.33333334  0.56866898  1
  Al  Al3  1  0.33333338  0.66666668  0.43133099  1
  Mn  Mn4  1  0.00000000  0.00000000  0.00000000  1
  Mn  Mn5  1  0.00000000  0.00000000  0.69191698  1
  Cu  Cu6  1  0.00000000  0.00000000  0.30808299  1
  Ge  Ge7  1  0.66666670  0.33333334  0.24107099  1
  Ge  Ge8  1  0.33333338  0.66666668  0.75892898  1
