# generated using pymatgen
data_CeCoPd9
_symmetry_space_group_name_H-M   'P 1'
_cell_length_a   3.88624096
_cell_length_b   7.22828388
_cell_length_c   7.22828436
_cell_angle_alpha   120.00000000
_cell_angle_beta   90.00000000
_cell_angle_gamma   90.00000000
_symmetry_Int_Tables_number   1
_chemical_formula_structural   CeCoPd9
_chemical_formula_sum   'Ce1 Co1 Pd9'
_cell_volume   175.84530864
_cell_formula_units_Z   1
loop_
 _symmetry_equiv_pos_site_id
 _symmetry_equiv_pos_as_xyz
  1  'x, y, z'
loop_
 _atom_site_type_symbol
 _atom_site_label
 _atom_site_symmetry_multiplicity
 _atom_site_fract_x
 _atom_site_fract_y
 _atom_site_fract_z
 _atom_site_occupancy
  Ce  Ce0  1  0.00000000  0.00000000  0.00000000  1
  Co  Co1  1  -0.00000000  0.33333334  0.66666668  1
  Pd  Pd2  1  0.50000001  0.80182203  0.60364403  1
  Pd  Pd3  1  0.50000001  0.80182203  0.19817803  1
  Pd  Pd4  1  0.50000001  0.39635601  0.19817801  1
  Pd  Pd5  1  -0.00000000  0.53321602  0.06643202  1
  Pd  Pd6  1  -0.00000000  0.53321602  0.46678302  1
  Pd  Pd7  1  1.00000001  0.93356703  0.46678303  1
  Pd  Pd8  1  0.50000001  0.19951801  0.39903601  1
  Pd  Pd9  1  0.50000001  0.19951801  0.80048201  1
  Pd  Pd10  1  0.50000001  0.60096402  0.80048202  1
