# generated using pymatgen
data_TbS
_symmetry_space_group_name_H-M   'P 1'
_cell_length_a   5.71613979
_cell_length_b   5.71613979
_cell_length_c   7.20774412
_cell_angle_alpha   113.36128235
_cell_angle_beta   113.36128235
_cell_angle_gamma   90.00000000
_symmetry_Int_Tables_number   1
_chemical_formula_structural   TbS
_chemical_formula_sum   'Tb4 S4'
_cell_volume   194.99290462
_cell_formula_units_Z   4
loop_
 _symmetry_equiv_pos_site_id
 _symmetry_equiv_pos_as_xyz
  1  'x, y, z'
loop_
 _atom_site_type_symbol
 _atom_site_label
 _atom_site_symmetry_multiplicity
 _atom_site_fract_x
 _atom_site_fract_y
 _atom_site_fract_z
 _atom_site_occupancy
  Tb  Tb0  1  0.00000000  0.00000000  0.00000000  1
  Tb  Tb1  1  0.75000000  0.25000000  0.49999994  1
  Tb  Tb2  1  0.24999996  0.75000000  0.49999993  1
  Tb  Tb3  1  0.49999998  0.50000000  -0.00000006  1
  S  S4  1  0.73642897  0.73642900  0.47285791  1
  S  S5  1  0.48642895  0.98642900  0.97285790  1
  S  S6  1  0.26357099  0.26357100  0.52714196  1
  S  S7  1  0.01357097  0.51357100  0.02714196  1
