# generated using pymatgen
data_Mg2ZrZn2NiSn2
_symmetry_space_group_name_H-M   'P 1'
_cell_length_a   4.68210411
_cell_length_b   4.68210411
_cell_length_c   8.32967758
_cell_angle_alpha   90.00000000
_cell_angle_beta   90.00000000
_cell_angle_gamma   120.00000000
_symmetry_Int_Tables_number   1
_chemical_formula_structural   Mg2ZrZn2NiSn2
_chemical_formula_sum   'Mg2 Zr1 Zn2 Ni1 Sn2'
_cell_volume   158.13971650
_cell_formula_units_Z   1
loop_
 _symmetry_equiv_pos_site_id
 _symmetry_equiv_pos_as_xyz
  1  'x, y, z'
loop_
 _atom_site_type_symbol
 _atom_site_label
 _atom_site_symmetry_multiplicity
 _atom_site_fract_x
 _atom_site_fract_y
 _atom_site_fract_z
 _atom_site_occupancy
  Zr  Zr0  1  0.00000000  0.00000000  0.75000004  1
  Mg  Mg1  1  0.00000000  0.00000000  0.25000001  1
  Mg  Mg2  1  0.66666665  0.33333332  0.07631900  1
  Zn  Zn3  1  0.33333332  0.66666665  0.92368105  1
  Sn  Sn4  1  0.33333332  0.66666665  0.57631903  1
  Zn  Zn5  1  0.66666665  0.33333332  0.42368102  1
  Ni  Ni6  1  0.66666665  0.33333332  0.75000004  1
  Sn  Sn7  1  0.33333332  0.66666665  0.25000001  1
