# generated using pymatgen
data_LaSnPd
_symmetry_space_group_name_H-M   'P 1'
_cell_length_a   4.62199783
_cell_length_b   7.55841017
_cell_length_c   7.75019407
_cell_angle_alpha   90.00000000
_cell_angle_beta   90.00000000
_cell_angle_gamma   90.00000000
_symmetry_Int_Tables_number   1
_chemical_formula_structural   LaSnPd
_chemical_formula_sum   'La4 Sn4 Pd4'
_cell_volume   270.75268441
_cell_formula_units_Z   4
loop_
 _symmetry_equiv_pos_site_id
 _symmetry_equiv_pos_as_xyz
  1  'x, y, z'
loop_
 _atom_site_type_symbol
 _atom_site_label
 _atom_site_symmetry_multiplicity
 _atom_site_fract_x
 _atom_site_fract_y
 _atom_site_fract_z
 _atom_site_occupancy
  La  La0  1  0.25000001  0.00859400  0.30686500  1
  La  La1  1  0.25000001  0.50859399  0.19313500  1
  La  La2  1  0.75000003  0.99140598  0.69313499  1
  La  La3  1  0.75000003  0.49140599  0.80686499  1
  Sn  Sn4  1  0.25000001  0.16969200  0.91911399  1
  Sn  Sn5  1  0.25000001  0.66969199  0.58088599  1
  Sn  Sn6  1  0.75000003  0.83030798  0.08088600  1
  Sn  Sn7  1  0.75000003  0.33030799  0.41911400  1
  Pd  Pd8  1  0.25000001  0.29780999  0.59215999  1
  Pd  Pd9  1  0.25000001  0.79780998  0.90783999  1
  Pd  Pd10  1  0.75000003  0.70218998  0.40784000  1
  Pd  Pd11  1  0.75000003  0.20219000  0.09216000  1
