# generated using pymatgen
data_LuGa2
_symmetry_space_group_name_H-M   'P 1'
_cell_length_a   3.90018511
_cell_length_b   4.04503202
_cell_length_c   8.14246178
_cell_angle_alpha   75.61766815
_cell_angle_beta   90.00000000
_cell_angle_gamma   90.00000000
_symmetry_Int_Tables_number   1
_chemical_formula_structural   LuGa2
_chemical_formula_sum   'Lu2 Ga4'
_cell_volume   124.43260421
_cell_formula_units_Z   2
loop_
 _symmetry_equiv_pos_site_id
 _symmetry_equiv_pos_as_xyz
  1  'x, y, z'
loop_
 _atom_site_type_symbol
 _atom_site_label
 _atom_site_symmetry_multiplicity
 _atom_site_fract_x
 _atom_site_fract_y
 _atom_site_fract_z
 _atom_site_occupancy
  Lu  Lu0  1  0.74999998  0.10288600  0.79422797  1
  Lu  Lu1  1  0.24999999  0.89711399  0.20577201  1
  Ga  Ga2  1  0.74999998  0.44586699  0.10826600  1
  Ga  Ga3  1  0.24999999  0.55413299  0.89173397  1
  Ga  Ga4  1  0.24999999  0.25355300  0.49289398  1
  Ga  Ga5  1  0.74999998  0.74644699  0.50710599  1
