# generated using pymatgen
data_LiCuF3
_symmetry_space_group_name_H-M   'P 1'
_cell_length_a   5.82166481
_cell_length_b   6.06974077
_cell_length_c   7.20050383
_cell_angle_alpha   90.00000000
_cell_angle_beta   90.00000000
_cell_angle_gamma   90.00000000
_symmetry_Int_Tables_number   1
_chemical_formula_structural   LiCuF3
_chemical_formula_sum   'Li4 Cu4 F12'
_cell_volume   254.43697628
_cell_formula_units_Z   4
loop_
 _symmetry_equiv_pos_site_id
 _symmetry_equiv_pos_as_xyz
  1  'x, y, z'
loop_
 _atom_site_type_symbol
 _atom_site_label
 _atom_site_symmetry_multiplicity
 _atom_site_fract_x
 _atom_site_fract_y
 _atom_site_fract_z
 _atom_site_occupancy
  Li  Li0  1  0.00000000  0.50000002  -0.00000000  1
  Li  Li1  1  0.50000002  0.00000000  0.00000000  1
  Li  Li2  1  0.50000002  0.00000000  0.50000001  1
  Li  Li3  1  0.00000000  0.50000002  0.50000001  1
  Cu  Cu4  1  0.99307403  0.99241104  0.25000001  1
  Cu  Cu5  1  0.49307402  0.50758902  0.75000002  1
  Cu  Cu6  1  0.50692602  0.49241102  0.25000001  1
  Cu  Cu7  1  0.00692600  0.00758900  0.75000002  1
  F  F8  1  0.41197301  0.69963203  0.44290201  1
  F  F9  1  0.91197303  0.80036803  0.55709801  1
  F  F10  1  0.08802700  0.19963201  0.05709800  1
  F  F11  1  0.58802702  0.30036801  0.94290202  1
  F  F12  1  0.58802702  0.30036801  0.55709801  1
  F  F13  1  0.08802700  0.19963201  0.44290201  1
  F  F14  1  0.91197303  0.80036803  0.94290202  1
  F  F15  1  0.41197301  0.69963203  0.05709800  1
  F  F16  1  0.66241802  0.05078800  0.25000001  1
  F  F17  1  0.16241801  0.44921202  0.75000002  1
  F  F18  1  0.83758203  0.55078802  0.25000001  1
  F  F19  1  0.33758201  0.94921204  0.75000002  1
