# generated using pymatgen
data_Ce2Sb5
_symmetry_space_group_name_H-M   'P 1'
_cell_length_a   4.37668991
_cell_length_b   4.45981121
_cell_length_c   19.16614532
_cell_angle_alpha   90.00000000
_cell_angle_beta   90.00000000
_cell_angle_gamma   90.00000000
_symmetry_Int_Tables_number   1
_chemical_formula_structural   Ce2Sb5
_chemical_formula_sum   'Ce4 Sb10'
_cell_volume   374.10802948
_cell_formula_units_Z   2
loop_
 _symmetry_equiv_pos_site_id
 _symmetry_equiv_pos_as_xyz
  1  'x, y, z'
loop_
 _atom_site_type_symbol
 _atom_site_label
 _atom_site_symmetry_multiplicity
 _atom_site_fract_x
 _atom_site_fract_y
 _atom_site_fract_z
 _atom_site_occupancy
  Ce  Ce0  1  0.00000000  0.49999998  0.87082103  1
  Ce  Ce1  1  0.00000000  0.00000000  0.30108101  1
  Ce  Ce2  1  0.50000001  0.49999998  0.69891902  1
  Ce  Ce3  1  0.50000001  0.00000000  0.12917900  1
  Sb  Sb4  1  0.00000000  0.00000000  0.73517003  1
  Sb  Sb5  1  0.50000001  0.00000000  0.42464401  1
  Sb  Sb6  1  0.50000001  0.00000000  0.84353803  1
  Sb  Sb7  1  0.50000001  0.00000000  0.57668202  1
  Sb  Sb8  1  0.50000001  0.49999998  0.26483001  1
  Sb  Sb9  1  0.00000000  0.49999998  0.42331801  1
  Sb  Sb10  1  0.00000000  0.49999998  0.57535602  1
  Sb  Sb11  1  0.00000000  0.49999998  0.15646201  1
  Sb  Sb12  1  0.00000000  0.00000000  0.99843404  1
  Sb  Sb13  1  0.50000001  0.49999998  0.00156600  1
