# generated using pymatgen
data_Y5Pd3
_symmetry_space_group_name_H-M   'P 1'
_cell_length_a   6.24880600
_cell_length_b   8.35000801
_cell_length_c   8.35000801
_cell_angle_alpha   120.00000000
_cell_angle_beta   90.00000000
_cell_angle_gamma   90.00000000
_symmetry_Int_Tables_number   1
_chemical_formula_structural   Y5Pd3
_chemical_formula_sum   'Y10 Pd6'
_cell_volume   377.31272985
_cell_formula_units_Z   2
loop_
 _symmetry_equiv_pos_site_id
 _symmetry_equiv_pos_as_xyz
  1  'x, y, z'
loop_
 _atom_site_type_symbol
 _atom_site_label
 _atom_site_symmetry_multiplicity
 _atom_site_fract_x
 _atom_site_fract_y
 _atom_site_fract_z
 _atom_site_occupancy
  Y  Y0  1  0.50000000  0.33333333  0.66666666  1
  Y  Y1  1  0.50000000  0.66666666  0.33333334  1
  Y  Y2  1  -0.00000000  0.66666666  0.33333334  1
  Y  Y3  1  1.00000000  0.33333333  0.66666666  1
  Y  Y4  1  0.75000000  0.25854300  1.00000000  1
  Y  Y5  1  0.75000000  0.74145700  0.74145700  1
  Y  Y6  1  0.75000000  0.00000000  0.25854300  1
  Y  Y7  1  0.25000000  0.74145700  1.00000000  1
  Y  Y8  1  0.25000000  0.25854300  0.25854300  1
  Y  Y9  1  0.25000000  0.00000000  0.74145700  1
  Pd  Pd10  1  0.75000000  0.60902400  1.00000000  1
  Pd  Pd11  1  0.75000000  0.39097600  0.39097600  1
  Pd  Pd12  1  0.75000000  1.00000000  0.60902400  1
  Pd  Pd13  1  0.25000000  0.39097600  1.00000000  1
  Pd  Pd14  1  0.25000000  0.60902400  0.60902400  1
  Pd  Pd15  1  0.25000000  0.00000000  0.39097600  1
