# generated using pymatgen
data_Ce5Ni2Sn
_symmetry_space_group_name_H-M   'P 1'
_cell_length_a   7.63075209
_cell_length_b   8.70719528
_cell_length_c   7.63075209
_cell_angle_alpha   115.98823547
_cell_angle_beta   90.00000000
_cell_angle_gamma   115.98823547
_symmetry_Int_Tables_number   1
_chemical_formula_structural   Ce5Ni2Sn
_chemical_formula_sum   'Ce10 Ni4 Sn2'
_cell_volume   397.92209188
_cell_formula_units_Z   2
loop_
 _symmetry_equiv_pos_site_id
 _symmetry_equiv_pos_as_xyz
  1  'x, y, z'
loop_
 _atom_site_type_symbol
 _atom_site_label
 _atom_site_symmetry_multiplicity
 _atom_site_fract_x
 _atom_site_fract_y
 _atom_site_fract_z
 _atom_site_occupancy
  Ce  Ce0  1  0.00000000  0.00000000  0.00000000  1
  Ce  Ce1  1  0.49999999  0.00000000  0.49999999  1
  Ce  Ce2  1  0.20308605  0.72346608  0.02038006  1
  Ce  Ce3  1  0.79691401  0.27653403  0.97962001  1
  Ce  Ce4  1  0.52038105  0.72346808  0.70308705  1
  Ce  Ce5  1  0.70308605  0.72346708  0.20308605  1
  Ce  Ce6  1  0.97961901  0.27653303  0.47961902  1
  Ce  Ce7  1  0.47961902  0.27653203  0.29691302  1
  Ce  Ce8  1  0.29691402  0.27653303  0.79691401  1
  Ce  Ce9  1  0.02038106  0.72346708  0.52038105  1
  Ni  Ni10  1  0.75000003  0.50000005  0.75000003  1
  Ni  Ni11  1  0.25000004  0.50000005  0.25000004  1
  Ni  Ni12  1  0.86185699  0.00000100  0.63814399  1
  Ni  Ni13  1  0.13814308  0.99999910  0.36185607  1
  Sn  Sn14  1  0.36185700  0.00000000  0.86185699  1
  Sn  Sn15  1  0.63814299  0.00000000  0.13814300  1
