# generated using pymatgen
data_Sm3(GePd)4
_symmetry_space_group_name_H-M   'P 1'
_cell_length_a   4.49227190
_cell_length_b   6.97950602
_cell_length_c   8.45167446
_cell_angle_alpha   114.38755798
_cell_angle_beta   105.41224670
_cell_angle_gamma   90.00000000
_symmetry_Int_Tables_number   1
_chemical_formula_structural   Sm3(GePd)4
_chemical_formula_sum   'Sm3 Ge4 Pd4'
_cell_volume   230.84454713
_cell_formula_units_Z   1
loop_
 _symmetry_equiv_pos_site_id
 _symmetry_equiv_pos_as_xyz
  1  'x, y, z'
loop_
 _atom_site_type_symbol
 _atom_site_label
 _atom_site_symmetry_multiplicity
 _atom_site_fract_x
 _atom_site_fract_y
 _atom_site_fract_z
 _atom_site_occupancy
  Sm  Sm0  1  -0.00000003  0.49999999  -0.00000001  1
  Sm  Sm1  1  0.13051799  0.13051800  0.26103600  1
  Sm  Sm2  1  0.86948196  0.86948199  0.73896398  1
  Ge  Ge3  1  0.32825798  0.51611399  0.65651700  1
  Ge  Ge4  1  0.32825900  0.14040300  0.65651801  1
  Ge  Ge5  1  0.67174096  0.85959699  0.34348197  1
  Ge  Ge6  1  0.67174198  0.48388599  0.34348298  1
  Pd  Pd7  1  0.21612397  0.71612399  0.43224799  1
  Pd  Pd8  1  0.78387599  0.28387600  0.56775199  1
  Pd  Pd9  1  0.49999999  0.20352800  -0.00000002  1
  Pd  Pd10  1  0.49999996  0.79647199  -0.00000004  1
