# generated using pymatgen
data_Ba2SrLi3BiPbO7
_symmetry_space_group_name_H-M   'P 1'
_cell_length_a   3.95020390
_cell_length_b   3.95020390
_cell_length_c   15.57564449
_cell_angle_alpha   97.28512573
_cell_angle_beta   97.28512573
_cell_angle_gamma   90.00000000
_symmetry_Int_Tables_number   1
_chemical_formula_structural   Ba2SrLi3BiPbO7
_chemical_formula_sum   'Ba2 Sr1 Li3 Bi1 Pb1 O7'
_cell_volume   239.10398644
_cell_formula_units_Z   1
loop_
 _symmetry_equiv_pos_site_id
 _symmetry_equiv_pos_as_xyz
  1  'x, y, z'
loop_
 _atom_site_type_symbol
 _atom_site_label
 _atom_site_symmetry_multiplicity
 _atom_site_fract_x
 _atom_site_fract_y
 _atom_site_fract_z
 _atom_site_occupancy
  Ba  Ba0  1  0.11526400  0.11526400  0.23052800  1
  Ba  Ba1  1  0.88473603  0.88473603  0.76947202  1
  Sr  Sr2  1  0.00000000  0.00000000  0.00000000  1
  Li  Li3  1  0.71297403  0.71297402  0.42594801  1
  Li  Li4  1  0.28702601  0.28702601  0.57405201  1
  Li  Li5  1  0.55026102  0.55026102  0.10052201  1
  Bi  Bi6  1  0.44973902  0.44973901  0.89947801  1
  O  O7  1  0.05150201  0.55150202  0.10300400  1
  Pb  Pb8  1  0.35592101  0.35592101  0.71184201  1
  O  O9  1  0.55150202  0.05150200  0.10300400  1
  O  O10  1  0.75000002  0.25000001  0.50000001  1
  O  O11  1  0.94849803  0.44849801  0.89699602  1
  O  O12  1  0.25000001  0.75000002  0.50000001  1
  O  O13  1  0.44849802  0.94849803  0.89699602  1
  O  O14  1  0.64407902  0.64407902  0.28815801  1
