# generated using pymatgen
data_HfS2
_symmetry_space_group_name_H-M   'P 1'
_cell_length_a   3.52736807
_cell_length_b   3.52736783
_cell_length_c   6.82378387
_cell_angle_alpha   90.00000000
_cell_angle_beta   90.00000000
_cell_angle_gamma   120.00000000
_symmetry_Int_Tables_number   1
_chemical_formula_structural   HfS2
_chemical_formula_sum   'Hf1 S2'
_cell_volume   73.52879079
_cell_formula_units_Z   1
loop_
 _symmetry_equiv_pos_site_id
 _symmetry_equiv_pos_as_xyz
  1  'x, y, z'
loop_
 _atom_site_type_symbol
 _atom_site_label
 _atom_site_symmetry_multiplicity
 _atom_site_fract_x
 _atom_site_fract_y
 _atom_site_fract_z
 _atom_site_occupancy
  Hf  Hf0  1  0.00000000  0.00000000  0.00000000  1
  S  S1  1  0.33333329  0.66666663  0.21948300  1
  S  S2  1  0.66666664  0.33333332  0.78051701  1
