# generated using pymatgen
data_ZrCuGe
_symmetry_space_group_name_H-M   'P 1'
_cell_length_a   3.79978609
_cell_length_b   6.74313688
_cell_length_c   7.83990288
_cell_angle_alpha   90.00000000
_cell_angle_beta   90.00000000
_cell_angle_gamma   90.00000000
_symmetry_Int_Tables_number   1
_chemical_formula_structural   ZrCuGe
_chemical_formula_sum   'Zr4 Cu4 Ge4'
_cell_volume   200.87773694
_cell_formula_units_Z   4
loop_
 _symmetry_equiv_pos_site_id
 _symmetry_equiv_pos_as_xyz
  1  'x, y, z'
loop_
 _atom_site_type_symbol
 _atom_site_label
 _atom_site_symmetry_multiplicity
 _atom_site_fract_x
 _atom_site_fract_y
 _atom_site_fract_z
 _atom_site_occupancy
  Zr  Zr0  1  0.24999999  0.53306901  0.67896901  1
  Zr  Zr1  1  0.24999999  0.03306900  0.82103101  1
  Zr  Zr2  1  0.74999998  0.96693102  0.17896900  1
  Zr  Zr3  1  0.74999998  0.46693101  0.32103101  1
  Cu  Cu4  1  0.74999998  0.86627502  0.56178101  1
  Cu  Cu5  1  0.24999999  0.13372500  0.43821901  1
  Cu  Cu6  1  0.74999998  0.36627501  0.93821901  1
  Cu  Cu7  1  0.24999999  0.63372501  0.06178100  1
  Ge  Ge8  1  0.74999998  0.73799201  0.87581901  1
  Ge  Ge9  1  0.24999999  0.76200801  0.37581901  1
  Ge  Ge10  1  0.24999999  0.26200800  0.12418100  1
  Ge  Ge11  1  0.74999998  0.23799200  0.62418101  1
