# generated using pymatgen
data_Pr2Ni17
_symmetry_space_group_name_H-M   'P 1'
_cell_length_a   6.48915720
_cell_length_b   6.48915720
_cell_length_c   6.48915720
_cell_angle_alpha   82.26606750
_cell_angle_beta   82.26606750
_cell_angle_gamma   82.26606750
_symmetry_Int_Tables_number   1
_chemical_formula_structural   Pr2Ni17
_chemical_formula_sum   'Pr2 Ni17'
_cell_volume   266.41036000
_cell_formula_units_Z   1
loop_
 _symmetry_equiv_pos_site_id
 _symmetry_equiv_pos_as_xyz
  1  'x, y, z'
loop_
 _atom_site_type_symbol
 _atom_site_label
 _atom_site_symmetry_multiplicity
 _atom_site_fract_x
 _atom_site_fract_y
 _atom_site_fract_z
 _atom_site_occupancy
  Pr  Pr0  1  0.34823899  0.34823900  0.34823903  1
  Pr  Pr1  1  0.65176097  0.65176100  0.65176105  1
  Ni  Ni2  1  0.10167700  0.10167700  0.10167701  1
  Ni  Ni3  1  0.89832296  0.89832300  0.89832307  1
  Ni  Ni4  1  0.00000000  0.00000000  0.50000000  1
  Ni  Ni5  1  -0.00000002  0.50000000  0.00000002  1
  Ni  Ni6  1  0.50000000  0.00000000  0.00000002  1
  Ni  Ni7  1  0.71253999  0.28746000  0.00000003  1
  Ni  Ni8  1  0.28746000  0.00000000  0.71254002  1
  Ni  Ni9  1  -0.00000003  0.71254000  0.28746003  1
  Ni  Ni10  1  0.71254000  0.00000000  0.28746002  1
  Ni  Ni11  1  -0.00000001  0.28746000  0.71254002  1
  Ni  Ni12  1  0.28745997  0.71254000  0.00000003  1
  Ni  Ni13  1  0.66004997  0.66005000  0.15539205  1
  Ni  Ni14  1  0.66004999  0.15539200  0.66005003  1
  Ni  Ni15  1  0.15539197  0.66005000  0.66005003  1
  Ni  Ni16  1  0.33994999  0.33995000  0.84460803  1
  Ni  Ni17  1  0.33994997  0.84460800  0.33995004  1
  Ni  Ni18  1  0.84460798  0.33995000  0.33995004  1
