# generated using pymatgen
data_SCl4O9
_symmetry_space_group_name_H-M   'P 1'
_cell_length_a   5.70008183
_cell_length_b   5.70008183
_cell_length_c   10.31505299
_cell_angle_alpha   98.27715302
_cell_angle_beta   98.27715302
_cell_angle_gamma   118.61782837
_symmetry_Int_Tables_number   1
_chemical_formula_structural   SCl4O9
_chemical_formula_sum   'S1 Cl4 O9'
_cell_volume   282.25745864
_cell_formula_units_Z   1
loop_
 _symmetry_equiv_pos_site_id
 _symmetry_equiv_pos_as_xyz
  1  'x, y, z'
loop_
 _atom_site_type_symbol
 _atom_site_label
 _atom_site_symmetry_multiplicity
 _atom_site_fract_x
 _atom_site_fract_y
 _atom_site_fract_z
 _atom_site_occupancy
  Cl  Cl0  1  0.73320305  0.38899303  0.65284504  1
  Cl  Cl1  1  0.33035805  0.48614803  0.84715504  1
  Cl  Cl2  1  0.63899306  0.48320303  0.15284504  1
  Cl  Cl3  1  0.73614802  0.08035801  0.34715503  1
  O  O4  1  0.62280502  0.12280501  0.50000003  1
  S  S5  1  0.88074908  0.68566705  0.61735406  1
  O  O6  1  0.44912304  0.34753502  0.72507103  1
  O  O7  1  0.97405206  0.37246403  0.77492905  1
  O  O8  1  0.51339509  0.81831306  0.88264606  1
  O  O9  1  0.37280504  0.37280503  0.00000003  1
  O  O10  1  0.93566708  0.63074904  0.11735405  1
  O  O11  1  0.59753503  0.19912301  0.22507103  1
  O  O12  1  0.62246408  0.72405205  0.27492905  1
  O  O13  1  0.06831303  0.26339502  0.38264602  1
