# generated using pymatgen
data_Li4TaO6
_symmetry_space_group_name_H-M   'P 1'
_cell_length_a   5.09515333
_cell_length_b   5.09515333
_cell_length_c   5.27457094
_cell_angle_alpha   99.18221283
_cell_angle_beta   99.18221283
_cell_angle_gamma   119.90631866
_symmetry_Int_Tables_number   1
_chemical_formula_structural   Li4TaO6
_chemical_formula_sum   'Li4 Ta1 O6'
_cell_volume   112.50814005
_cell_formula_units_Z   1
loop_
 _symmetry_equiv_pos_site_id
 _symmetry_equiv_pos_as_xyz
  1  'x, y, z'
loop_
 _atom_site_type_symbol
 _atom_site_label
 _atom_site_symmetry_multiplicity
 _atom_site_fract_x
 _atom_site_fract_y
 _atom_site_fract_z
 _atom_site_occupancy
  Li  Li0  1  0.16737294  0.83262695  0.50000000  1
  Li  Li1  1  0.83262697  0.16737299  0.50000001  1
  Li  Li2  1  0.33747395  0.66252596  1.00000002  1
  Li  Li3  1  0.66252596  0.33747398  1.00000003  1
  Ta  Ta4  1  0.00000000  0.00000000  0.00000000  1
  O  O5  1  0.75168093  0.75168095  0.22656398  1
  O  O6  1  0.06440997  0.40710997  0.22122500  1
  O  O7  1  0.40710999  0.06441000  0.22122500  1
  O  O8  1  0.59288992  0.93558994  0.77877500  1
  O  O9  1  0.93558994  0.59288996  0.77877501  1
  O  O10  1  0.24831898  0.24831898  0.77343603  1
