# generated using pymatgen
data_SrSnPd
_symmetry_space_group_name_H-M   'P 1'
_cell_length_a   4.73940897
_cell_length_b   7.60183716
_cell_length_c   8.06903458
_cell_angle_alpha   90.00000000
_cell_angle_beta   90.00000000
_cell_angle_gamma   90.00000000
_symmetry_Int_Tables_number   1
_chemical_formula_structural   SrSnPd
_chemical_formula_sum   'Sr4 Sn4 Pd4'
_cell_volume   290.71291430
_cell_formula_units_Z   4
loop_
 _symmetry_equiv_pos_site_id
 _symmetry_equiv_pos_as_xyz
  1  'x, y, z'
loop_
 _atom_site_type_symbol
 _atom_site_label
 _atom_site_symmetry_multiplicity
 _atom_site_fract_x
 _atom_site_fract_y
 _atom_site_fract_z
 _atom_site_occupancy
  Sr  Sr0  1  0.25000000  0.48691399  0.70058404  1
  Sr  Sr1  1  0.75000000  0.51308599  0.29941602  1
  Sr  Sr2  1  0.25000000  0.98691398  0.79941604  1
  Sr  Sr3  1  0.75000000  0.01308600  0.20058401  1
  Sn  Sn4  1  0.25000000  0.81377498  0.41320002  1
  Sn  Sn5  1  0.75000000  0.68622499  0.91320005  1
  Sn  Sn6  1  0.25000000  0.31377499  0.08680000  1
  Sn  Sn7  1  0.75000000  0.18622500  0.58680003  1
  Pd  Pd8  1  0.75000000  0.30005099  0.91393605  1
  Pd  Pd9  1  0.25000000  0.19994900  0.41393602  1
  Pd  Pd10  1  0.75000000  0.80005098  0.58606403  1
  Pd  Pd11  1  0.25000000  0.69994899  0.08606400  1
