# generated using pymatgen
data_BiO
_symmetry_space_group_name_H-M   'P 1'
_cell_length_a   3.73060608
_cell_length_b   3.73060560
_cell_length_c   14.39714718
_cell_angle_alpha   90.00000000
_cell_angle_beta   90.00000000
_cell_angle_gamma   120.00000763
_symmetry_Int_Tables_number   1
_chemical_formula_structural   BiO
_chemical_formula_sum   'Bi4 O4'
_cell_volume   173.52648686
_cell_formula_units_Z   4
loop_
 _symmetry_equiv_pos_site_id
 _symmetry_equiv_pos_as_xyz
  1  'x, y, z'
loop_
 _atom_site_type_symbol
 _atom_site_label
 _atom_site_symmetry_multiplicity
 _atom_site_fract_x
 _atom_site_fract_y
 _atom_site_fract_z
 _atom_site_occupancy
  Bi  Bi0  1  0.66666667  0.33333334  0.90983199  1
  Bi  Bi1  1  0.33333337  0.66666667  0.40983199  1
  Bi  Bi2  1  0.33333337  0.66666667  0.09016800  1
  Bi  Bi3  1  0.66666667  0.33333334  0.59016799  1
  O  O4  1  0.00000000  0.00000000  0.00000000  1
  O  O5  1  0.00000000  0.00000000  0.49999999  1
  O  O6  1  0.66666667  0.33333334  0.25000000  1
  O  O7  1  0.33333337  0.66666667  0.74999999  1
