# generated using pymatgen
data_ZrPd2
_symmetry_space_group_name_H-M   'P 1'
_cell_length_a   6.84333992
_cell_length_b   7.47260427
_cell_length_c   6.84333992
_cell_angle_alpha   62.74862671
_cell_angle_beta   90.00000000
_cell_angle_gamma   117.25137329
_symmetry_Int_Tables_number   1
_chemical_formula_structural   ZrPd2
_chemical_formula_sum   'Zr4 Pd8'
_cell_volume   266.66783405
_cell_formula_units_Z   4
loop_
 _symmetry_equiv_pos_site_id
 _symmetry_equiv_pos_as_xyz
  1  'x, y, z'
loop_
 _atom_site_type_symbol
 _atom_site_label
 _atom_site_symmetry_multiplicity
 _atom_site_fract_x
 _atom_site_fract_y
 _atom_site_fract_z
 _atom_site_occupancy
  Zr  Zr0  1  0.50000001  0.00000000  0.50000001  1
  Zr  Zr1  1  0.00000000  0.00000000  0.00000000  1
  Zr  Zr2  1  0.70504098  0.72028698  0.79495904  1
  Zr  Zr3  1  0.51524597  0.72028698  0.29495904  1
  Pd  Pd4  1  0.20504097  0.72028698  0.98475404  1
  Pd  Pd5  1  0.79495900  0.27971299  0.01524601  1
  Pd  Pd6  1  0.48475399  0.27971299  0.70504102  1
  Pd  Pd7  1  0.29495899  0.27971299  0.20504101  1
  Pd  Pd8  1  0.98475400  0.27971299  0.51524602  1
  Pd  Pd9  1  0.01524597  0.72028698  0.48475404  1
  Pd  Pd10  1  0.74999999  0.49999998  0.25000002  1
  Pd  Pd11  1  0.24999998  0.49999998  0.75000003  1
