# generated using pymatgen
data_Ba2Tl
_symmetry_space_group_name_H-M   'P 1'
_cell_length_a   7.31184006
_cell_length_b   7.31184006
_cell_length_c   11.85739517
_cell_angle_alpha   90.00000000
_cell_angle_beta   90.00000000
_cell_angle_gamma   120.00000000
_symmetry_Int_Tables_number   1
_chemical_formula_structural   Ba2Tl
_chemical_formula_sum   'Ba8 Tl4'
_cell_volume   549.00119693
_cell_formula_units_Z   4
loop_
 _symmetry_equiv_pos_site_id
 _symmetry_equiv_pos_as_xyz
  1  'x, y, z'
loop_
 _atom_site_type_symbol
 _atom_site_label
 _atom_site_symmetry_multiplicity
 _atom_site_fract_x
 _atom_site_fract_y
 _atom_site_fract_z
 _atom_site_occupancy
  Ba  Ba0  1  0.66666666  0.33333332  0.56137199  1
  Ba  Ba1  1  0.33333332  0.66666664  0.06137200  1
  Ba  Ba2  1  0.33333332  0.66666664  0.43862799  1
  Ba  Ba3  1  0.66666666  0.33333332  0.93862799  1
  Ba  Ba4  1  0.83091699  0.16908399  0.25000000  1
  Ba  Ba5  1  0.16908299  0.33816599  0.74999999  1
  Ba  Ba6  1  0.66183298  0.83091597  0.74999999  1
  Ba  Ba7  1  0.33816699  0.16908399  0.25000000  1
  Tl  Tl8  1  0.00000000  0.00000000  0.00000000  1
  Tl  Tl9  1  0.00000000  0.00000000  0.49999999  1
  Tl  Tl10  1  0.16908299  0.83091597  0.74999999  1
  Tl  Tl11  1  0.83091698  0.66183398  0.25000000  1
