# generated using pymatgen
data_Li6FeO8
_symmetry_space_group_name_H-M   'P 1'
_cell_length_a   5.74921465
_cell_length_b   5.74921465
_cell_length_c   6.07721758
_cell_angle_alpha   61.76989365
_cell_angle_beta   61.76989365
_cell_angle_gamma   59.99999237
_symmetry_Int_Tables_number   1
_chemical_formula_structural   Li6FeO8
_chemical_formula_sum   'Li6 Fe1 O8'
_cell_volume   145.72066509
_cell_formula_units_Z   1
loop_
 _symmetry_equiv_pos_site_id
 _symmetry_equiv_pos_as_xyz
  1  'x, y, z'
loop_
 _atom_site_type_symbol
 _atom_site_label
 _atom_site_symmetry_multiplicity
 _atom_site_fract_x
 _atom_site_fract_y
 _atom_site_fract_z
 _atom_site_occupancy
  Li  Li0  1  0.00000000  0.00000000  0.00000000  1
  Li  Li1  1  0.35796500  0.35796500  0.92610501  1
  Li  Li2  1  0.50000000  0.50000000  0.50000002  1
  Li  Li3  1  0.64203500  0.64203500  0.07389502  1
  Li  Li4  1  -0.00000000  0.50000000  0.50000001  1
  Li  Li5  1  0.00000000  0.00000000  0.50000000  1
  Fe  Fe6  1  0.50000000  0.00000000  0.50000001  1
  O  O7  1  0.23297800  0.23297800  0.30106601  1
  O  O8  1  0.74411900  0.21922900  0.29253302  1
  O  O9  1  0.74411900  0.74411900  0.29253303  1
  O  O10  1  0.21922900  0.74411900  0.29253302  1
  O  O11  1  0.76702200  0.76702200  0.69893403  1
  O  O12  1  0.25588100  0.78077100  0.70746702  1
  O  O13  1  0.25588100  0.25588100  0.70746701  1
  O  O14  1  0.78077100  0.25588100  0.70746702  1
