# generated using pymatgen
data_Ce(GaPd2)2
_symmetry_space_group_name_H-M   'P 1'
_cell_length_a   5.98257685
_cell_length_b   5.98257685
_cell_length_c   7.61682081
_cell_angle_alpha   90.00000000
_cell_angle_beta   90.00000000
_cell_angle_gamma   90.00000000
_symmetry_Int_Tables_number   1
_chemical_formula_structural   Ce(GaPd2)2
_chemical_formula_sum   'Ce2 Ga4 Pd8'
_cell_volume   272.61535304
_cell_formula_units_Z   2
loop_
 _symmetry_equiv_pos_site_id
 _symmetry_equiv_pos_as_xyz
  1  'x, y, z'
loop_
 _atom_site_type_symbol
 _atom_site_label
 _atom_site_symmetry_multiplicity
 _atom_site_fract_x
 _atom_site_fract_y
 _atom_site_fract_z
 _atom_site_occupancy
  Ce  Ce0  1  -0.00000000  0.50000001  -0.00000000  1
  Ce  Ce1  1  0.50000001  0.00000000  0.00000000  1
  Ga  Ga2  1  0.00000000  0.00000000  0.16025900  1
  Pd  Pd3  1  0.00000000  0.00000000  0.83974102  1
  Ga  Ga4  1  0.50000001  0.50000001  0.83974102  1
  Ga  Ga5  1  0.50000001  0.50000001  0.16025900  1
  Ga  Ga6  1  0.68301202  0.18301200  0.34954801  1
  Pd  Pd7  1  0.81698802  0.68301202  0.34954801  1
  Pd  Pd8  1  0.18301200  0.31698801  0.34954801  1
  Pd  Pd9  1  0.68301202  0.81698802  0.65045202  1
  Pd  Pd10  1  0.31698801  0.18301200  0.65045202  1
  Pd  Pd11  1  0.31698801  0.81698802  0.34954801  1
  Pd  Pd12  1  0.18301200  0.68301202  0.65045202  1
  Pd  Pd13  1  0.81698802  0.31698801  0.65045202  1
