# generated using pymatgen
data_ZrGaCu5
_symmetry_space_group_name_H-M   'P 1'
_cell_length_a   4.05780983
_cell_length_b   4.05780983
_cell_length_c   7.10075092
_cell_angle_alpha   90.00000000
_cell_angle_beta   90.00000000
_cell_angle_gamma   90.00000000
_symmetry_Int_Tables_number   1
_chemical_formula_structural   ZrGaCu5
_chemical_formula_sum   'Zr1 Ga1 Cu5'
_cell_volume   116.91969093
_cell_formula_units_Z   1
loop_
 _symmetry_equiv_pos_site_id
 _symmetry_equiv_pos_as_xyz
  1  'x, y, z'
loop_
 _atom_site_type_symbol
 _atom_site_label
 _atom_site_symmetry_multiplicity
 _atom_site_fract_x
 _atom_site_fract_y
 _atom_site_fract_z
 _atom_site_occupancy
  Zr  Zr0  1  0.50000002  0.50000002  0.00000000  1
  Ga  Ga1  1  0.00000000  0.00000000  0.50000001  1
  Cu  Cu2  1  0.00000000  0.00000000  0.00000000  1
  Cu  Cu3  1  0.50000002  0.00000000  0.71128001  1
  Cu  Cu4  1  0.00000000  0.50000002  0.71128001  1
  Cu  Cu5  1  0.50000002  0.00000000  0.28872000  1
  Cu  Cu6  1  0.00000000  0.50000002  0.28872000  1
