# generated using pymatgen
data_BaPd4
_symmetry_space_group_name_H-M   'P 1'
_cell_length_a   5.59534407
_cell_length_b   6.39065886
_cell_length_c   6.39065886
_cell_angle_alpha   90.00000000
_cell_angle_beta   90.00000000
_cell_angle_gamma   90.00000000
_symmetry_Int_Tables_number   1
_chemical_formula_structural   BaPd4
_chemical_formula_sum   'Ba2 Pd8'
_cell_volume   228.51676465
_cell_formula_units_Z   2
loop_
 _symmetry_equiv_pos_site_id
 _symmetry_equiv_pos_as_xyz
  1  'x, y, z'
loop_
 _atom_site_type_symbol
 _atom_site_label
 _atom_site_symmetry_multiplicity
 _atom_site_fract_x
 _atom_site_fract_y
 _atom_site_fract_z
 _atom_site_occupancy
  Ba  Ba0  1  0.00000000  0.50000001  0.50000001  1
  Ba  Ba1  1  0.00000000  0.00000000  0.00000000  1
  Pd  Pd2  1  0.73239699  0.50000001  0.00000000  1
  Pd  Pd3  1  0.26760300  0.00000000  0.50000001  1
  Pd  Pd4  1  0.49999999  0.25000001  0.25000001  1
  Pd  Pd5  1  0.49999999  0.25000001  0.75000002  1
  Pd  Pd6  1  0.49999999  0.75000002  0.25000001  1
  Pd  Pd7  1  0.49999999  0.75000002  0.75000002  1
  Pd  Pd8  1  0.17808200  0.50000001  0.00000000  1
  Pd  Pd9  1  0.82191799  0.00000000  0.50000001  1
