# generated using pymatgen
data_SrInSb
_symmetry_space_group_name_H-M   'P 1'
_cell_length_a   4.56631804
_cell_length_b   4.56631804
_cell_length_c   7.77802992
_cell_angle_alpha   90.00000000
_cell_angle_beta   90.00000000
_cell_angle_gamma   90.00000000
_symmetry_Int_Tables_number   1
_chemical_formula_structural   SrInSb
_chemical_formula_sum   'Sr2 In2 Sb2'
_cell_volume   162.18172722
_cell_formula_units_Z   2
loop_
 _symmetry_equiv_pos_site_id
 _symmetry_equiv_pos_as_xyz
  1  'x, y, z'
loop_
 _atom_site_type_symbol
 _atom_site_label
 _atom_site_symmetry_multiplicity
 _atom_site_fract_x
 _atom_site_fract_y
 _atom_site_fract_z
 _atom_site_occupancy
  Sr  Sr0  1  0.00000000  0.50000000  0.33671800  1
  Sr  Sr1  1  0.50000000  0.00000000  0.66328201  1
  In  In2  1  0.00000000  0.00000000  0.00000000  1
  In  In3  1  0.50000000  0.50000000  -0.00000000  1
  Sb  Sb4  1  0.50000000  0.00000000  0.21539000  1
  Sb  Sb5  1  0.00000000  0.50000000  0.78461001  1
