# generated using pymatgen
data_Rb2UCl6
_symmetry_space_group_name_H-M   'P 1'
_cell_length_a   7.76597500
_cell_length_b   7.76597500
_cell_length_c   10.72351837
_cell_angle_alpha   90.00000000
_cell_angle_beta   90.00000000
_cell_angle_gamma   90.00000000
_symmetry_Int_Tables_number   1
_chemical_formula_structural   Rb2UCl6
_chemical_formula_sum   'Rb4 U2 Cl12'
_cell_volume   646.73933578
_cell_formula_units_Z   2
loop_
 _symmetry_equiv_pos_site_id
 _symmetry_equiv_pos_as_xyz
  1  'x, y, z'
loop_
 _atom_site_type_symbol
 _atom_site_label
 _atom_site_symmetry_multiplicity
 _atom_site_fract_x
 _atom_site_fract_y
 _atom_site_fract_z
 _atom_site_occupancy
  Rb  Rb0  1  0.50000000  0.00000000  0.77930897  1
  Rb  Rb1  1  0.00000000  0.50000000  0.22069099  1
  Rb  Rb2  1  0.50000000  0.00000000  0.22069099  1
  Rb  Rb3  1  0.00000000  0.50000000  0.77930897  1
  U  U4  1  0.00000000  0.00000000  0.00000000  1
  U  U5  1  0.50000000  0.50000000  0.49999998  1
  Cl  Cl6  1  0.00000000  0.00000000  0.74553897  1
  Cl  Cl7  1  0.50000000  0.50000000  0.27407199  1
  Cl  Cl8  1  0.72020500  0.72020500  0.49999998  1
  Cl  Cl9  1  0.24785300  0.24785300  -0.00000000  1
  Cl  Cl10  1  0.72020500  0.27979500  0.49999998  1
  Cl  Cl11  1  0.24785300  0.75214700  0.00000000  1
  Cl  Cl12  1  0.00000000  0.00000000  0.25446099  1
  Cl  Cl13  1  0.50000000  0.50000000  0.72592797  1
  Cl  Cl14  1  0.27979500  0.27979500  0.49999998  1
  Cl  Cl15  1  0.75214700  0.75214700  0.00000000  1
  Cl  Cl16  1  0.27979500  0.72020500  0.49999998  1
  Cl  Cl17  1  0.75214700  0.24785300  0.00000000  1
