# generated using pymatgen
data_CeRhPb
_symmetry_space_group_name_H-M   'P 1'
_cell_length_a   3.96209407
_cell_length_b   7.65574217
_cell_length_c   7.65574121
_cell_angle_alpha   120.00000763
_cell_angle_beta   90.00000000
_cell_angle_gamma   90.00000000
_symmetry_Int_Tables_number   1
_chemical_formula_structural   CeRhPb
_chemical_formula_sum   'Ce3 Rh3 Pb3'
_cell_volume   201.10826725
_cell_formula_units_Z   3
loop_
 _symmetry_equiv_pos_site_id
 _symmetry_equiv_pos_as_xyz
  1  'x, y, z'
loop_
 _atom_site_type_symbol
 _atom_site_label
 _atom_site_symmetry_multiplicity
 _atom_site_fract_x
 _atom_site_fract_y
 _atom_site_fract_z
 _atom_site_occupancy
  Ce  Ce0  1  0.99999998  0.40651201  0.40651202  1
  Ce  Ce1  1  0.99999998  0.59348801  1.00000003  1
  Ce  Ce2  1  -0.00000000  1.00000001  0.59348806  1
  Pb  Pb3  1  0.49999999  0.74584201  0.74584204  1
  Pb  Pb4  1  0.49999999  0.25415800  0.00000002  1
  Pb  Pb5  1  0.49999999  1.00000001  0.25415807  1
  Rh  Rh6  1  0.49999999  0.33333334  0.66666668  1
  Rh  Rh7  1  0.49999999  0.66666668  0.33333338  1
  Rh  Rh8  1  0.00000000  0.00000000  0.00000000  1
