# generated using pymatgen
data_La2BiPd2
_symmetry_space_group_name_H-M   'P 1'
_cell_length_a   3.88779402
_cell_length_b   8.09176540
_cell_length_c   8.09176540
_cell_angle_alpha   90.00000000
_cell_angle_beta   90.00000000
_cell_angle_gamma   90.00000000
_symmetry_Int_Tables_number   1
_chemical_formula_structural   La2BiPd2
_chemical_formula_sum   'La4 Bi2 Pd4'
_cell_volume   254.55979563
_cell_formula_units_Z   2
loop_
 _symmetry_equiv_pos_site_id
 _symmetry_equiv_pos_as_xyz
  1  'x, y, z'
loop_
 _atom_site_type_symbol
 _atom_site_label
 _atom_site_symmetry_multiplicity
 _atom_site_fract_x
 _atom_site_fract_y
 _atom_site_fract_z
 _atom_site_occupancy
  La  La0  1  0.50000000  0.67461597  0.17461599  1
  La  La1  1  0.50000000  0.32538398  0.82538396  1
  La  La2  1  0.50000000  0.17461599  0.32538398  1
  La  La3  1  0.50000000  0.82538396  0.67461597  1
  Bi  Bi4  1  0.00000000  0.00000000  0.00000000  1
  Bi  Bi5  1  0.00000000  0.49999998  0.49999998  1
  Pd  Pd6  1  0.00000000  0.12720799  0.62720797  1
  Pd  Pd7  1  0.00000000  0.87279196  0.37279198  1
  Pd  Pd8  1  0.00000000  0.62720797  0.87279196  1
  Pd  Pd9  1  0.00000000  0.37279198  0.12720799  1
