# generated using pymatgen
data_Zr8FeSb5
_symmetry_space_group_name_H-M   'P 1'
_cell_length_a   4.35223818
_cell_length_b   10.19194984
_cell_length_c   11.37922764
_cell_angle_alpha   70.43826294
_cell_angle_beta   78.97506714
_cell_angle_gamma   77.67166901
_symmetry_Int_Tables_number   1
_chemical_formula_structural   Zr8FeSb5
_chemical_formula_sum   'Zr8 Fe1 Sb5'
_cell_volume   460.70759209
_cell_formula_units_Z   1
loop_
 _symmetry_equiv_pos_site_id
 _symmetry_equiv_pos_as_xyz
  1  'x, y, z'
loop_
 _atom_site_type_symbol
 _atom_site_label
 _atom_site_symmetry_multiplicity
 _atom_site_fract_x
 _atom_site_fract_y
 _atom_site_fract_z
 _atom_site_occupancy
  Zr  Zr0  1  0.83074805  0.94655901  0.39194502  1
  Zr  Zr1  1  0.16925200  0.05344100  0.60805498  1
  Zr  Zr2  1  0.75481003  0.68855301  0.80182700  1
  Zr  Zr3  1  0.24519002  0.31144700  0.19817301  1
  Zr  Zr4  1  0.53458403  0.62168001  0.30915201  1
  Zr  Zr5  1  0.46541602  0.37832000  0.69084799  1
  Zr  Zr6  1  0.92697702  0.61266901  0.53337700  1
  Zr  Zr7  1  0.07302303  0.38733100  0.46662301  1
  Sb  Sb8  1  0.34089205  0.73351401  0.58470202  1
  Sb  Sb9  1  0.65910800  0.26648600  0.41529799  1
  Sb  Sb10  1  0.42332906  0.98310001  0.17024204  1
  Fe  Fe11  1  0.57667098  0.01690000  0.82975797  1
  Sb  Sb12  1  0.85845200  0.34253900  0.94055698  1
  Sb  Sb13  1  0.14154805  0.65746101  0.05944303  1
