# generated using pymatgen
data_HoIrPb
_symmetry_space_group_name_H-M   'P 1'
_cell_length_a   4.08413792
_cell_length_b   7.63531017
_cell_length_c   7.63531065
_cell_angle_alpha   120.00000000
_cell_angle_beta   90.00000000
_cell_angle_gamma   90.00000000
_symmetry_Int_Tables_number   1
_chemical_formula_structural   HoIrPb
_chemical_formula_sum   'Ho3 Ir3 Pb3'
_cell_volume   206.19798963
_cell_formula_units_Z   3
loop_
 _symmetry_equiv_pos_site_id
 _symmetry_equiv_pos_as_xyz
  1  'x, y, z'
loop_
 _atom_site_type_symbol
 _atom_site_label
 _atom_site_symmetry_multiplicity
 _atom_site_fract_x
 _atom_site_fract_y
 _atom_site_fract_z
 _atom_site_occupancy
  Ho  Ho0  1  0.50000001  0.41436600  0.41436601  1
  Ho  Ho1  1  0.50000001  0.58563400  0.00000003  1
  Ho  Ho2  1  0.50000001  0.00000000  0.58563399  1
  Pb  Pb3  1  -0.00000000  0.75216700  0.75216702  1
  Pb  Pb4  1  -0.00000000  0.24783300  0.00000001  1
  Pb  Pb5  1  -0.00000000  0.00000000  0.24783300  1
  Ir  Ir6  1  0.50000001  0.00000000  -0.00000000  1
  Ir  Ir7  1  1.00000002  0.66666667  0.33333336  1
  Ir  Ir8  1  1.00000002  0.33333333  0.66666667  1
