# generated using pymatgen
data_LiZrO2
_symmetry_space_group_name_H-M   'P 1'
_cell_length_a   3.85788298
_cell_length_b   3.85788298
_cell_length_c   6.09448671
_cell_angle_alpha   71.54824066
_cell_angle_beta   71.54824066
_cell_angle_gamma   59.99998474
_symmetry_Int_Tables_number   1
_chemical_formula_structural   LiZrO2
_chemical_formula_sum   'Li1 Zr1 O2'
_cell_volume   73.11946582
_cell_formula_units_Z   1
loop_
 _symmetry_equiv_pos_site_id
 _symmetry_equiv_pos_as_xyz
  1  'x, y, z'
loop_
 _atom_site_type_symbol
 _atom_site_label
 _atom_site_symmetry_multiplicity
 _atom_site_fract_x
 _atom_site_fract_y
 _atom_site_fract_z
 _atom_site_occupancy
  Li  Li0  1  0.50000000  0.49999999  0.49999999  1
  Zr  Zr1  1  0.00000000  0.00000000  0.00000000  1
  O  O2  1  0.89332100  0.89332098  0.32003699  1
  O  O3  1  0.10667900  0.10667900  0.67996300  1
