# generated using pymatgen
data_Sr2LaZrWO5
_symmetry_space_group_name_H-M   'P 1'
_cell_length_a   5.16647291
_cell_length_b   6.71507406
_cell_length_c   10.02502728
_cell_angle_alpha   90.00000000
_cell_angle_beta   90.00000000
_cell_angle_gamma   90.00000000
_symmetry_Int_Tables_number   1
_chemical_formula_structural   Sr2LaZrWO5
_chemical_formula_sum   'Sr4 La2 Zr2 W2 O10'
_cell_volume   347.80075991
_cell_formula_units_Z   2
loop_
 _symmetry_equiv_pos_site_id
 _symmetry_equiv_pos_as_xyz
  1  'x, y, z'
loop_
 _atom_site_type_symbol
 _atom_site_label
 _atom_site_symmetry_multiplicity
 _atom_site_fract_x
 _atom_site_fract_y
 _atom_site_fract_z
 _atom_site_occupancy
  Sr  Sr0  1  0.25000000  0.69373199  0.54396699  1
  Sr  Sr1  1  0.75000001  0.30626800  0.45603299  1
  Sr  Sr2  1  0.75000001  0.80626799  0.04396700  1
  Sr  Sr3  1  0.25000000  0.19373200  0.95603297  1
  La  La4  1  0.25000000  0.53043800  0.22337399  1
  La  La5  1  0.75000001  0.46956200  0.77662598  1
  Zr  Zr6  1  0.75000001  0.96956199  0.72337398  1
  Zr  Zr7  1  0.25000000  0.03043800  0.27662599  1
  W  W8  1  0.25000000  0.74450799  0.85105398  1
  O  O9  1  0.75000001  0.25549200  0.14894600  1
  W  W10  1  0.75000001  0.75549199  0.35105399  1
  O  O11  1  0.25000000  0.24450800  0.64894598  1
  O  O12  1  0.25000000  0.47720400  0.76609098  1
  O  O13  1  0.75000001  0.52279600  0.23390899  1
  O  O14  1  0.75000001  0.02279600  0.26609099  1
  O  O15  1  0.25000000  0.97720399  0.73390898  1
  O  O16  1  0.25000000  0.80290099  0.03208000  1
  O  O17  1  0.75000001  0.19709900  0.96791997  1
  O  O18  1  0.75000001  0.69709899  0.53207999  1
  O  O19  1  0.25000000  0.30290100  0.46791999  1
