# generated using pymatgen
data_Ni3P4
_symmetry_space_group_name_H-M   'P 1'
_cell_length_a   5.89896488
_cell_length_b   5.89896488
_cell_length_c   5.89896488
_cell_angle_alpha   109.47122192
_cell_angle_beta   109.47122192
_cell_angle_gamma   109.47122192
_symmetry_Int_Tables_number   1
_chemical_formula_structural   Ni3P4
_chemical_formula_sum   'Ni6 P8'
_cell_volume   158.01762157
_cell_formula_units_Z   2
loop_
 _symmetry_equiv_pos_site_id
 _symmetry_equiv_pos_as_xyz
  1  'x, y, z'
loop_
 _atom_site_type_symbol
 _atom_site_label
 _atom_site_symmetry_multiplicity
 _atom_site_fract_x
 _atom_site_fract_y
 _atom_site_fract_z
 _atom_site_occupancy
  Ni  Ni0  1  0.25000003  0.37500002  0.12500003  1
  Ni  Ni1  1  0.37500005  0.62500003  0.75000005  1
  Ni  Ni2  1  0.12500006  0.87500004  0.25000005  1
  Ni  Ni3  1  0.87500006  0.75000004  0.62500007  1
  Ni  Ni4  1  0.62500003  0.25000001  0.87500004  1
  Ni  Ni5  1  0.75000002  0.12500001  0.37500003  1
  P  P6  1  0.36309907  1.00000005  1.00000008  1
  P  P7  1  0.63690105  0.63690103  0.13690105  1
  P  P8  1  0.50000006  0.86309904  0.50000007  1
  P  P9  1  1.00000005  0.50000003  0.36309906  1
  P  P10  1  0.50000003  0.36309902  0.50000004  1
  P  P11  1  1.00000005  0.50000003  0.86309906  1
  P  P12  1  0.86309908  1.00000005  1.00000009  1
  P  P13  1  0.13690101  0.13690101  0.63690102  1
