# generated using pymatgen
data_Sr2Fe7C3
_symmetry_space_group_name_H-M   'P 1'
_cell_length_a   5.22539377
_cell_length_b   5.22778749
_cell_length_c   7.24930811
_cell_angle_alpha   90.00000000
_cell_angle_beta   90.00000000
_cell_angle_gamma   119.92258453
_symmetry_Int_Tables_number   1
_chemical_formula_structural   Sr2Fe7C3
_chemical_formula_sum   'Sr2 Fe7 C3'
_cell_volume   171.63363457
_cell_formula_units_Z   1
loop_
 _symmetry_equiv_pos_site_id
 _symmetry_equiv_pos_as_xyz
  1  'x, y, z'
loop_
 _atom_site_type_symbol
 _atom_site_label
 _atom_site_symmetry_multiplicity
 _atom_site_fract_x
 _atom_site_fract_y
 _atom_site_fract_z
 _atom_site_occupancy
  Sr  Sr0  1  0.99964910  0.99996907  -0.00000000  1
  Sr  Sr1  1  0.99983110  0.99993907  0.49999999  1
  Fe  Fe2  1  0.33368605  0.66659705  -0.00000000  1
  Fe  Fe3  1  0.50508102  0.01015800  0.68534199  1
  Fe  Fe4  1  0.98998506  0.49499804  0.68538999  1
  Fe  Fe5  1  0.50508605  0.49492004  0.68547199  1
  Fe  Fe6  1  0.50508102  0.01015800  0.31465800  1
  Fe  Fe7  1  0.98998506  0.49499804  0.31461000  1
  C  C8  1  0.50508605  0.49492004  0.31452800  1
  Fe  Fe9  1  0.66682804  0.33337402  -0.00000000  1
  C  C10  1  0.33322272  0.66666671  0.49999999  1
  C  C11  1  0.66661938  0.33328602  0.49999999  1
