# generated using pymatgen
data_La2BiSb7Pt2
_symmetry_space_group_name_H-M   'P 1'
_cell_length_a   4.38844585
_cell_length_b   4.38844585
_cell_length_c   14.57332802
_cell_angle_alpha   90.00000000
_cell_angle_beta   90.00000000
_cell_angle_gamma   90.00000000
_symmetry_Int_Tables_number   1
_chemical_formula_structural   La2BiSb7Pt2
_chemical_formula_sum   'La2 Bi1 Sb7 Pt2'
_cell_volume   280.65981121
_cell_formula_units_Z   1
loop_
 _symmetry_equiv_pos_site_id
 _symmetry_equiv_pos_as_xyz
  1  'x, y, z'
loop_
 _atom_site_type_symbol
 _atom_site_label
 _atom_site_symmetry_multiplicity
 _atom_site_fract_x
 _atom_site_fract_y
 _atom_site_fract_z
 _atom_site_occupancy
  La  La0  1  0.50000002  0.50000002  0.89644700  1
  La  La1  1  0.00000000  0.00000000  0.10792100  1
  Bi  Bi2  1  0.00000000  0.00000000  0.59804400  1
  Sb  Sb3  1  0.50000002  0.50000002  0.40077600  1
  Sb  Sb4  1  0.50000002  0.50000002  0.18618800  1
  Sb  Sb5  1  0.50000002  0.50000002  0.67235800  1
  Sb  Sb6  1  0.00000000  0.00000000  0.32864000  1
  Sb  Sb7  1  0.00000000  0.00000000  0.82023700  1
  Sb  Sb8  1  0.50000002  0.00000000  0.00177400  1
  Pt  Pt9  1  0.50000002  0.00000000  0.49292000  1
  Sb  Sb10  1  0.00000000  0.50000002  0.00177400  1
  Pt  Pt11  1  0.00000000  0.50000002  0.49292000  1
