# generated using pymatgen
data_Li7Nb(NiO5)2
_symmetry_space_group_name_H-M   'P 1'
_cell_length_a   5.08320093
_cell_length_b   5.09981298
_cell_length_c   7.71509266
_cell_angle_alpha   70.97136688
_cell_angle_beta   71.49269104
_cell_angle_gamma   81.26228333
_symmetry_Int_Tables_number   1
_chemical_formula_structural   Li7Nb(NiO5)2
_chemical_formula_sum   'Li7 Nb1 Ni2 O10'
_cell_volume   179.03240046
_cell_formula_units_Z   1
loop_
 _symmetry_equiv_pos_site_id
 _symmetry_equiv_pos_as_xyz
  1  'x, y, z'
loop_
 _atom_site_type_symbol
 _atom_site_label
 _atom_site_symmetry_multiplicity
 _atom_site_fract_x
 _atom_site_fract_y
 _atom_site_fract_z
 _atom_site_occupancy
  Li  Li0  1  0.50344397  0.78731097  0.40848503  1
  Li  Li1  1  0.50097698  0.60043298  0.79119001  1
  Li  Li2  1  -0.00000003  0.49999998  0.50000002  1
  Li  Li3  1  0.49902299  0.39956699  0.20881001  1
  Li  Li4  1  0.49655600  0.21268899  0.59151500  1
  Li  Li5  1  0.00602595  0.89899497  0.69246404  1
  Li  Li6  1  0.99397401  0.10100500  0.30753599  1
  Nb  Nb7  1  0.50000001  0.00000000  -0.00000000  1
  Ni  Ni8  1  0.99897600  0.30206099  0.89884399  1
  Ni  Ni9  1  0.00102396  0.69793898  0.10115603  1
  O  O10  1  0.23317195  0.93902297  0.86492003  1
  O  O11  1  0.76638698  0.66086198  0.95550701  1
  O  O12  1  0.75763097  0.86746897  0.55101403  1
  O  O13  1  0.22867196  0.76465197  0.23716503  1
  O  O14  1  0.22456397  0.54450098  0.66960002  1
  O  O15  1  0.77543599  0.45549898  0.33040001  1
  O  O16  1  0.77132800  0.23534799  0.76283499  1
  O  O17  1  0.24236900  0.13253100  0.44898600  1
  O  O18  1  0.23361299  0.33913799  0.04449301  1
  O  O19  1  0.76682801  0.06097700  0.13507999  1
