# generated using pymatgen
data_Sb
_symmetry_space_group_name_H-M   'P 1'
_cell_length_a   4.35154581
_cell_length_b   4.35154676
_cell_length_c   24.49222755
_cell_angle_alpha   90.00000000
_cell_angle_beta   90.00000000
_cell_angle_gamma   119.99999237
_symmetry_Int_Tables_number   1
_chemical_formula_structural   Sb
_chemical_formula_sum   Sb12
_cell_volume   401.64851520
_cell_formula_units_Z   12
loop_
 _symmetry_equiv_pos_site_id
 _symmetry_equiv_pos_as_xyz
  1  'x, y, z'
loop_
 _atom_site_type_symbol
 _atom_site_label
 _atom_site_symmetry_multiplicity
 _atom_site_fract_x
 _atom_site_fract_y
 _atom_site_fract_z
 _atom_site_occupancy
  Sb  Sb0  1  0.00000000  0.00000000  0.86868402  1
  Sb  Sb1  1  0.00000000  0.00000000  0.13131600  1
  Sb  Sb2  1  0.66666667  0.33333330  0.70723301  1
  Sb  Sb3  1  0.33333330  0.66666661  0.29276701  1
  Sb  Sb4  1  0.66666667  0.33333330  0.46824501  1
  Sb  Sb5  1  0.33333330  0.66666661  0.53175501  1
  Sb  Sb6  1  0.66666667  0.33333330  0.93784702  1
  Sb  Sb7  1  0.33333330  0.66666661  0.06215300  1
  Sb  Sb8  1  0.66666667  0.33333330  0.21233300  1
  Sb  Sb9  1  0.33333330  0.66666661  0.78766701  1
  Sb  Sb10  1  0.00000000  0.00000000  0.63729201  1
  Sb  Sb11  1  0.00000000  0.00000000  0.36270801  1
