# generated using pymatgen
data_Cs2La(CO3)2
_symmetry_space_group_name_H-M   'P 1'
_cell_length_a   5.44321632
_cell_length_b   5.44321632
_cell_length_c   6.94497919
_cell_angle_alpha   66.92838287
_cell_angle_beta   66.92838287
_cell_angle_gamma   59.99999619
_symmetry_Int_Tables_number   1
_chemical_formula_structural   Cs2La(CO3)2
_chemical_formula_sum   'Cs2 La1 C2 O6'
_cell_volume   158.91375283
_cell_formula_units_Z   1
loop_
 _symmetry_equiv_pos_site_id
 _symmetry_equiv_pos_as_xyz
  1  'x, y, z'
loop_
 _atom_site_type_symbol
 _atom_site_label
 _atom_site_symmetry_multiplicity
 _atom_site_fract_x
 _atom_site_fract_y
 _atom_site_fract_z
 _atom_site_occupancy
  Cs  Cs0  1  0.21002199  0.21002200  0.36993399  1
  Cs  Cs1  1  0.78997795  0.78997799  0.63006599  1
  La  La2  1  0.00000000  0.00000000  0.00000000  1
  C  C3  1  0.58911296  0.58911299  0.23266100  1
  C  C4  1  0.41088697  0.41088699  0.76733898  1
  O  O5  1  0.68755597  0.27337100  0.76570198  1
  O  O6  1  0.27337098  0.27337100  0.76570198  1
  O  O7  1  0.27337097  0.68755599  0.76570199  1
  O  O8  1  0.72662897  0.31244400  0.23429800  1
  O  O9  1  0.72662895  0.72662899  0.23429800  1
  O  O10  1  0.31244396  0.72662899  0.23429800  1
