# generated using pymatgen
data_Pr(GePt)2
_symmetry_space_group_name_H-M   'P 1'
_cell_length_a   4.31499290
_cell_length_b   4.33115005
_cell_length_c   10.19292641
_cell_angle_alpha   90.00000000
_cell_angle_beta   90.00000000
_cell_angle_gamma   90.00000000
_symmetry_Int_Tables_number   1
_chemical_formula_structural   Pr(GePt)2
_chemical_formula_sum   'Pr2 Ge4 Pt4'
_cell_volume   190.49439637
_cell_formula_units_Z   2
loop_
 _symmetry_equiv_pos_site_id
 _symmetry_equiv_pos_as_xyz
  1  'x, y, z'
loop_
 _atom_site_type_symbol
 _atom_site_label
 _atom_site_symmetry_multiplicity
 _atom_site_fract_x
 _atom_site_fract_y
 _atom_site_fract_z
 _atom_site_occupancy
  Pr  Pr0  1  0.25624701  0.00000000  0.75027997  1
  Pr  Pr1  1  0.75624702  0.49999999  0.24971999  1
  Ge  Ge2  1  0.23202301  0.00000000  0.13470399  1
  Ge  Ge3  1  0.73202302  0.49999999  0.86529597  1
  Ge  Ge4  1  0.27622201  0.49999999  0.49943598  1
  Ge  Ge5  1  0.77622202  0.00000000  0.50056398  1
  Pt  Pt6  1  0.27690901  0.00000000  0.37256099  1
  Pt  Pt7  1  0.77690902  0.49999999  0.62743897  1
  Pt  Pt8  1  0.23059801  0.49999999  0.99994796  1
  Pt  Pt9  1  0.73059802  0.00000000  0.00005200  1
