# generated using pymatgen
data_BaCoSe3
_symmetry_space_group_name_H-M   'P 1'
_cell_length_a   5.90338802
_cell_length_b   6.98362589
_cell_length_c   6.98362541
_cell_angle_alpha   120.00000000
_cell_angle_beta   90.00000000
_cell_angle_gamma   90.00000000
_symmetry_Int_Tables_number   1
_chemical_formula_structural   BaCoSe3
_chemical_formula_sum   'Ba2 Co2 Se6'
_cell_volume   249.34109619
_cell_formula_units_Z   2
loop_
 _symmetry_equiv_pos_site_id
 _symmetry_equiv_pos_as_xyz
  1  'x, y, z'
loop_
 _atom_site_type_symbol
 _atom_site_label
 _atom_site_symmetry_multiplicity
 _atom_site_fract_x
 _atom_site_fract_y
 _atom_site_fract_z
 _atom_site_occupancy
  Ba  Ba0  1  0.25000000  0.66666666  0.33333331  1
  Ba  Ba1  1  0.75000000  0.33333333  0.66666666  1
  Co  Co2  1  0.00000000  0.00000000  0.00000000  1
  Co  Co3  1  0.50000000  0.00000000  -0.00000000  1
  Se  Se4  1  0.75000000  0.84349099  0.15650797  1
  Se  Se5  1  0.25000000  0.15650900  0.84349201  1
  Se  Se6  1  0.75000000  0.31301700  0.15650799  1
  Se  Se7  1  0.25000000  0.68698300  0.84349199  1
  Se  Se8  1  0.75000000  0.84349099  0.68698198  1
  Se  Se9  1  0.25000000  0.15650900  0.31301800  1
