# generated using pymatgen
data_U4CSeN2
_symmetry_space_group_name_H-M   'P 1'
_cell_length_a   3.17442203
_cell_length_b   3.17442274
_cell_length_c   13.80043793
_cell_angle_alpha   90.00000000
_cell_angle_beta   90.00000000
_cell_angle_gamma   119.99999237
_symmetry_Int_Tables_number   1
_chemical_formula_structural   U4CSeN2
_chemical_formula_sum   'U4 Se1 C1 N2'
_cell_volume   120.43506701
_cell_formula_units_Z   1
loop_
 _symmetry_equiv_pos_site_id
 _symmetry_equiv_pos_as_xyz
  1  'x, y, z'
loop_
 _atom_site_type_symbol
 _atom_site_label
 _atom_site_symmetry_multiplicity
 _atom_site_fract_x
 _atom_site_fract_y
 _atom_site_fract_z
 _atom_site_occupancy
  U  U0  1  0.66666666  0.33333334  0.91916400  1
  U  U1  1  0.66666666  0.33333334  0.58083600  1
  U  U2  1  0.33333334  0.66666668  0.41916400  1
  U  U3  1  0.33333334  0.66666668  0.08083600  1
  N  N4  1  0.66666666  0.33333334  0.25000000  1
  Se  Se5  1  0.33333334  0.66666668  0.75000000  1
  C  C6  1  0.00000000  0.00000000  0.00000000  1
  N  N7  1  0.00000000  0.00000000  0.50000000  1
