# generated using pymatgen
data_Tb(NiGe)6
_symmetry_space_group_name_H-M   'P 1'
_cell_length_a   5.09890890
_cell_length_b   5.09890938
_cell_length_c   7.87833786
_cell_angle_alpha   90.00000000
_cell_angle_beta   90.00000000
_cell_angle_gamma   120.00000000
_symmetry_Int_Tables_number   1
_chemical_formula_structural   Tb(NiGe)6
_chemical_formula_sum   'Tb1 Ni6 Ge6'
_cell_volume   177.38617920
_cell_formula_units_Z   1
loop_
 _symmetry_equiv_pos_site_id
 _symmetry_equiv_pos_as_xyz
  1  'x, y, z'
loop_
 _atom_site_type_symbol
 _atom_site_label
 _atom_site_symmetry_multiplicity
 _atom_site_fract_x
 _atom_site_fract_y
 _atom_site_fract_z
 _atom_site_occupancy
  Tb  Tb0  1  0.00000000  0.00000000  0.00000000  1
  Ni  Ni1  1  0.50000001  0.00000000  0.25091400  1
  Ni  Ni2  1  0.49999998  0.50000000  0.25091400  1
  Ni  Ni3  1  -0.00000003  0.50000000  0.25091400  1
  Ni  Ni4  1  0.50000001  0.00000000  0.74908601  1
  Ni  Ni5  1  0.49999998  0.50000000  0.74908601  1
  Ni  Ni6  1  -0.00000003  0.50000000  0.74908601  1
  Ge  Ge7  1  0.33333330  0.66666666  1.00000002  1
  Ge  Ge8  1  0.66666666  0.33333333  -0.00000000  1
  Ge  Ge9  1  0.33333330  0.66666666  0.50000001  1
  Ge  Ge10  1  0.66666666  0.33333333  0.50000001  1
  Ge  Ge11  1  0.00000000  0.00000000  0.34488801  1
  Ge  Ge12  1  0.00000000  0.00000000  0.65511201  1
