# generated using pymatgen
data_Zr4Co2C13
_symmetry_space_group_name_H-M   'P 1'
_cell_length_a   6.32156801
_cell_length_b   6.32156801
_cell_length_c   6.32156801
_cell_angle_alpha   109.47122192
_cell_angle_beta   109.47122192
_cell_angle_gamma   109.47122192
_symmetry_Int_Tables_number   1
_chemical_formula_structural   Zr4Co2C13
_chemical_formula_sum   'Zr4 Co2 C13'
_cell_volume   194.46996356
_cell_formula_units_Z   1
loop_
 _symmetry_equiv_pos_site_id
 _symmetry_equiv_pos_as_xyz
  1  'x, y, z'
loop_
 _atom_site_type_symbol
 _atom_site_label
 _atom_site_symmetry_multiplicity
 _atom_site_fract_x
 _atom_site_fract_y
 _atom_site_fract_z
 _atom_site_occupancy
  Zr  Zr0  1  0.50000004  0.50000002  0.50000004  1
  Zr  Zr1  1  0.00000003  0.50000002  0.00000003  1
  Zr  Zr2  1  0.00000000  0.00000000  0.50000000  1
  Zr  Zr3  1  0.50000000  0.00000000  0.00000001  1
  Co  Co4  1  1.00000006  0.73428803  0.73428807  1
  Co  Co5  1  0.73428805  0.73428803  0.00000006  1
  C  C6  1  0.73428801  0.00000000  0.73428802  1
  C  C7  1  1.00000003  0.26571201  0.26571204  1
  C  C8  1  0.26571202  0.26571201  0.00000002  1
  C  C9  1  0.26571200  0.00000000  0.26571201  1
  C  C10  1  0.50000005  0.75000003  0.25000005  1
  C  C11  1  0.75000002  0.25000001  0.50000003  1
  C  C12  1  0.25000003  0.50000002  0.75000003  1
  C  C13  1  0.25000005  0.75000003  0.50000005  1
  C  C14  1  0.50000002  0.25000001  0.75000003  1
  C  C15  1  0.75000004  0.50000002  0.25000005  1
  C  C16  1  0.50000000  0.00000000  0.50000001  1
  C  C17  1  0.00000003  0.50000002  0.50000003  1
  C  C18  1  0.50000004  0.50000002  1.00000004  1
