# generated using pymatgen
data_Ba2I3ClO6
_symmetry_space_group_name_H-M   'P 1'
_cell_length_a   5.31308889
_cell_length_b   7.17891598
_cell_length_c   7.17891598
_cell_angle_alpha   104.29431152
_cell_angle_beta   90.00000000
_cell_angle_gamma   90.00000000
_symmetry_Int_Tables_number   1
_chemical_formula_structural   Ba2I3ClO6
_chemical_formula_sum   'Ba2 I3 Cl1 O6'
_cell_volume   265.34239138
_cell_formula_units_Z   1
loop_
 _symmetry_equiv_pos_site_id
 _symmetry_equiv_pos_as_xyz
  1  'x, y, z'
loop_
 _atom_site_type_symbol
 _atom_site_label
 _atom_site_symmetry_multiplicity
 _atom_site_fract_x
 _atom_site_fract_y
 _atom_site_fract_z
 _atom_site_occupancy
  Ba  Ba0  1  0.25000000  0.10874300  0.89125700  1
  Ba  Ba1  1  0.75000001  0.89125699  0.10874296  1
  I  I2  1  0.25000000  0.59207500  0.81472998  1
  I  I3  1  0.75000001  0.40792500  0.18526998  1
  Cl  Cl4  1  0.25000000  0.18527000  0.40792499  1
  I  I5  1  0.75000001  0.81472999  0.59207497  1
  O  O6  1  0.50000001  0.15083600  0.15083599  1
  O  O7  1  0.50000001  0.84916399  0.84916396  1
  O  O8  1  -0.00000000  0.84916399  0.84916396  1
  O  O9  1  -0.00000000  0.15083600  0.15083599  1
  O  O10  1  0.25000000  0.69232200  0.30767797  1
  O  O11  1  0.75000001  0.30767800  0.69232199  1
