# generated using pymatgen
data_Zr4Si3
_symmetry_space_group_name_H-M   'P 1'
_cell_length_a   4.85752583
_cell_length_b   6.20142841
_cell_length_c   8.69489765
_cell_angle_alpha   89.52880859
_cell_angle_beta   73.77966309
_cell_angle_gamma   88.31291199
_symmetry_Int_Tables_number   1
_chemical_formula_structural   Zr4Si3
_chemical_formula_sum   'Zr8 Si6'
_cell_volume   251.38669428
_cell_formula_units_Z   2
loop_
 _symmetry_equiv_pos_site_id
 _symmetry_equiv_pos_as_xyz
  1  'x, y, z'
loop_
 _atom_site_type_symbol
 _atom_site_label
 _atom_site_symmetry_multiplicity
 _atom_site_fract_x
 _atom_site_fract_y
 _atom_site_fract_z
 _atom_site_occupancy
  Zr  Zr0  1  0.74644799  0.58936998  0.07524104  1
  Zr  Zr1  1  0.18440498  0.49479698  0.61794505  1
  Zr  Zr2  1  0.36423500  0.24999999  0.27153003  1
  Zr  Zr3  1  0.19765000  0.00520300  0.61794503  1
  Zr  Zr4  1  0.82168902  0.08937000  0.92475905  1
  Zr  Zr5  1  0.17831095  0.91062997  0.07524105  1
  Zr  Zr6  1  0.80234997  0.99479696  0.38205508  1
  Zr  Zr7  1  0.63576497  0.74999997  0.72847007  1
  Si  Si8  1  0.81559499  0.50520298  0.38205505  1
  Si  Si9  1  0.25355198  0.41062999  0.92475906  1
  Si  Si10  1  0.33308997  0.74999997  0.33382005  1
  Si  Si11  1  0.66691000  0.24999999  0.66618005  1
  Si  Si12  1  0.07495996  0.74999997  0.85008007  1
  Si  Si13  1  0.92504001  0.24999999  0.14992003  1
