# generated using pymatgen
data_Th8(SbPd3)3
_symmetry_space_group_name_H-M   'P 1'
_cell_length_a   8.78591061
_cell_length_b   8.78591061
_cell_length_c   8.78591061
_cell_angle_alpha   109.47122192
_cell_angle_beta   109.47122192
_cell_angle_gamma   109.47122192
_symmetry_Int_Tables_number   1
_chemical_formula_structural   Th8(SbPd3)3
_chemical_formula_sum   'Th8 Sb3 Pd9'
_cell_volume   522.08164998
_cell_formula_units_Z   1
loop_
 _symmetry_equiv_pos_site_id
 _symmetry_equiv_pos_as_xyz
  1  'x, y, z'
loop_
 _atom_site_type_symbol
 _atom_site_label
 _atom_site_symmetry_multiplicity
 _atom_site_fract_x
 _atom_site_fract_y
 _atom_site_fract_z
 _atom_site_occupancy
  Th  Th0  1  0.87500004  0.12500001  0.75000005  1
  Th  Th1  1  0.62500005  0.37500003  0.25000004  1
  Th  Th2  1  0.12500002  0.25000002  0.37500003  1
  Th  Th3  1  0.37500006  0.75000005  0.12500005  1
  Th  Th4  1  0.75000007  0.62500004  0.87500008  1
  Th  Th5  1  0.25000006  0.87500006  0.62500007  1
  Th  Th6  1  0.37500005  0.62500004  0.75000007  1
  Th  Th7  1  0.12500006  0.87500006  0.25000006  1
  Sb  Sb8  1  0.62500004  0.25000002  0.87500005  1
  Sb  Sb9  1  0.87500008  0.75000005  0.62500008  1
  Pd  Pd10  1  0.75000004  0.12500001  0.37500004  1
  Pd  Pd11  1  0.25000003  0.37500003  0.12500003  1
  Sb  Sb12  1  0.00000003  0.50000003  0.65797205  1
  Pd  Pd13  1  0.34202803  0.34202802  0.84202805  1
  Pd  Pd14  1  0.50000003  0.15797201  0.50000004  1
  Pd  Pd15  1  0.15797207  1.00000007  1.00000009  1
  Pd  Pd16  1  0.84202808  0.84202806  0.34202808  1
  Pd  Pd17  1  0.00000003  0.50000003  0.15797203  1
  Pd  Pd18  1  0.50000006  0.65797205  0.50000006  1
  Pd  Pd19  1  0.65797209  1.00000007  1.00000010  1
