# generated using pymatgen
data_Zr2Al
_symmetry_space_group_name_H-M   'P 1'
_cell_length_a   5.72137308
_cell_length_b   7.66208220
_cell_length_c   7.66208220
_cell_angle_alpha   120.00000000
_cell_angle_beta   90.00000000
_cell_angle_gamma   90.00000000
_symmetry_Int_Tables_number   1
_chemical_formula_structural   Zr2Al
_chemical_formula_sum   'Zr8 Al4'
_cell_volume   290.88713429
_cell_formula_units_Z   4
loop_
 _symmetry_equiv_pos_site_id
 _symmetry_equiv_pos_as_xyz
  1  'x, y, z'
loop_
 _atom_site_type_symbol
 _atom_site_label
 _atom_site_symmetry_multiplicity
 _atom_site_fract_x
 _atom_site_fract_y
 _atom_site_fract_z
 _atom_site_occupancy
  Zr  Zr0  1  0.49999999  0.00000000  0.64326601  1
  Zr  Zr1  1  0.49999999  0.64326599  1.00000003  1
  Zr  Zr2  1  0.49999999  0.35673400  0.35673401  1
  Zr  Zr3  1  -0.00000000  0.00000000  0.30878600  1
  Zr  Zr4  1  -0.00000000  0.30878600  1.00000002  1
  Zr  Zr5  1  -0.00000000  0.69121399  0.69121403  1
  Al  Al6  1  0.79833299  0.33333333  0.66666668  1
  Al  Al7  1  0.20166700  0.33333333  0.66666668  1
  Zr  Zr8  1  0.20166700  0.66666666  0.33333336  1
  Zr  Zr9  1  0.79833299  0.66666666  0.33333336  1
  Al  Al10  1  0.30326500  0.00000000  -0.00000000  1
  Al  Al11  1  0.69673499  0.00000000  -0.00000000  1
