# generated using pymatgen
data_Ce3Ge2As
_symmetry_space_group_name_H-M   'P 1'
_cell_length_a   4.35860395
_cell_length_b   6.14806604
_cell_length_c   7.55471897
_cell_angle_alpha   114.01039124
_cell_angle_beta   106.76631927
_cell_angle_gamma   90.00000000
_symmetry_Int_Tables_number   1
_chemical_formula_structural   Ce3Ge2As
_chemical_formula_sum   'Ce3 Ge2 As1'
_cell_volume   175.46346515
_cell_formula_units_Z   1
loop_
 _symmetry_equiv_pos_site_id
 _symmetry_equiv_pos_as_xyz
  1  'x, y, z'
loop_
 _atom_site_type_symbol
 _atom_site_label
 _atom_site_symmetry_multiplicity
 _atom_site_fract_x
 _atom_site_fract_y
 _atom_site_fract_z
 _atom_site_occupancy
  Ce  Ce0  1  0.00095300  0.00095300  0.00190600  1
  Ce  Ce1  1  0.32878801  0.32878799  0.65757601  1
  Ce  Ce2  1  0.66791902  0.66791898  0.33583800  1
  Ge  Ge3  1  0.67095202  0.17095200  0.34190402  1
  As  As4  1  0.99255602  0.49255599  0.98511203  1
  Ge  Ge5  1  0.33883101  0.83883098  0.67766200  1
