# generated using pymatgen
data_Sr4V3O13
_symmetry_space_group_name_H-M   'P 1'
_cell_length_a   5.54780245
_cell_length_b   5.55835295
_cell_length_c   9.40183258
_cell_angle_alpha   72.89826202
_cell_angle_beta   89.88014221
_cell_angle_gamma   119.31452179
_symmetry_Int_Tables_number   1
_chemical_formula_structural   Sr4V3O13
_chemical_formula_sum   'Sr4 V3 O13'
_cell_volume   237.87744555
_cell_formula_units_Z   1
loop_
 _symmetry_equiv_pos_site_id
 _symmetry_equiv_pos_as_xyz
  1  'x, y, z'
loop_
 _atom_site_type_symbol
 _atom_site_label
 _atom_site_symmetry_multiplicity
 _atom_site_fract_x
 _atom_site_fract_y
 _atom_site_fract_z
 _atom_site_occupancy
  Sr  Sr0  1  0.11864600  0.74771798  0.12443803  1
  Sr  Sr1  1  0.63244698  0.75123398  0.62695402  1
  Sr  Sr2  1  0.37255399  0.24752999  0.37460500  1
  Sr  Sr3  1  0.87366497  0.25108399  0.87280600  1
  V  V4  1  0.49523898  0.49513399  0.00047702  1
  V  V5  1  0.74554397  0.99889297  0.24944404  1
  V  V6  1  0.00446600  0.50498099  0.49666901  1
  O  O7  1  0.25487699  0.99969597  0.75153103  1
  O  O8  1  0.36527799  0.68076398  0.38126502  1
  O  O9  1  0.85342797  0.67108998  0.88052001  1
  O  O10  1  0.13486900  0.32164499  0.11832901  1
  O  O11  1  0.65163598  0.32614799  0.62593600  1
  O  O12  1  0.80983797  0.25643299  0.37068000  1
  O  O13  1  0.30545199  0.25068299  0.87320400  1
  O  O14  1  0.67706998  0.73632998  0.12480903  1
  O  O15  1  0.19584999  0.75620498  0.63196402  1
  O  O16  1  0.44341298  0.81641298  0.87693802  1
  O  O17  1  0.94486197  0.82345498  0.37283003  1
  O  O18  1  0.06964500  0.17740800  0.62555500  1
  O  O19  1  0.55121298  0.18715700  0.12104401  1
