# generated using pymatgen
data_TmNiGe
_symmetry_space_group_name_H-M   'P 1'
_cell_length_a   4.25063896
_cell_length_b   6.68706179
_cell_length_c   7.16482401
_cell_angle_alpha   90.00000000
_cell_angle_beta   90.00000000
_cell_angle_gamma   90.00000000
_symmetry_Int_Tables_number   1
_chemical_formula_structural   TmNiGe
_chemical_formula_sum   'Tm4 Ni4 Ge4'
_cell_volume   203.65500226
_cell_formula_units_Z   4
loop_
 _symmetry_equiv_pos_site_id
 _symmetry_equiv_pos_as_xyz
  1  'x, y, z'
loop_
 _atom_site_type_symbol
 _atom_site_label
 _atom_site_symmetry_multiplicity
 _atom_site_fract_x
 _atom_site_fract_y
 _atom_site_fract_z
 _atom_site_occupancy
  Tm  Tm0  1  0.25000000  0.01810000  0.80242500  1
  Tm  Tm1  1  0.25000000  0.51810002  0.69757500  1
  Tm  Tm2  1  0.75000001  0.98190003  0.19757500  1
  Tm  Tm3  1  0.75000001  0.48190002  0.30242500  1
  Ni  Ni4  1  0.25000000  0.18340401  0.41975400  1
  Ni  Ni5  1  0.25000000  0.68340402  0.08024600  1
  Ni  Ni6  1  0.75000001  0.81659603  0.58024600  1
  Ni  Ni7  1  0.75000001  0.31659601  0.91975400  1
  Ge  Ge8  1  0.25000000  0.79323203  0.40914000  1
  Ge  Ge9  1  0.25000000  0.29323201  0.09086000  1
  Ge  Ge10  1  0.75000001  0.20676801  0.59086000  1
  Ge  Ge11  1  0.75000001  0.70676802  0.90914000  1
