# generated using pymatgen
data_Ce(SiNi)2
_symmetry_space_group_name_H-M   'P 1'
_cell_length_a   4.11002779
_cell_length_b   4.11002779
_cell_length_c   5.57097292
_cell_angle_alpha   111.64649200
_cell_angle_beta   111.64649200
_cell_angle_gamma   90.00000000
_symmetry_Int_Tables_number   1
_chemical_formula_structural   Ce(SiNi)2
_chemical_formula_sum   'Ce1 Si2 Ni2'
_cell_volume   80.28668302
_cell_formula_units_Z   1
loop_
 _symmetry_equiv_pos_site_id
 _symmetry_equiv_pos_as_xyz
  1  'x, y, z'
loop_
 _atom_site_type_symbol
 _atom_site_label
 _atom_site_symmetry_multiplicity
 _atom_site_fract_x
 _atom_site_fract_y
 _atom_site_fract_z
 _atom_site_occupancy
  Ce  Ce0  1  0.00090100  0.00090100  0.00180200  1
  Si  Si1  1  0.66177208  0.66177205  0.32354406  1
  Si  Si2  1  0.42478505  0.42478503  0.84957004  1
  Ni  Ni3  1  0.26077106  0.76077106  0.52154205  1
  Ni  Ni4  1  0.76077107  0.26077102  0.52154204  1
