# generated using pymatgen
data_CeNi2C
_symmetry_space_group_name_H-M   'P 1'
_cell_length_a   3.60761690
_cell_length_b   3.60761690
_cell_length_c   8.96856117
_cell_angle_alpha   90.00000000
_cell_angle_beta   90.00000000
_cell_angle_gamma   90.00000000
_symmetry_Int_Tables_number   1
_chemical_formula_structural   CeNi2C
_chemical_formula_sum   'Ce2 Ni4 C2'
_cell_volume   116.72492418
_cell_formula_units_Z   2
loop_
 _symmetry_equiv_pos_site_id
 _symmetry_equiv_pos_as_xyz
  1  'x, y, z'
loop_
 _atom_site_type_symbol
 _atom_site_label
 _atom_site_symmetry_multiplicity
 _atom_site_fract_x
 _atom_site_fract_y
 _atom_site_fract_z
 _atom_site_occupancy
  Ce  Ce0  1  0.00000000  0.50000001  0.77036499  1
  Ce  Ce1  1  0.50000001  0.00000000  0.22963500  1
  Ni  Ni2  1  0.50000001  0.50000001  0.49999999  1
  Ni  Ni3  1  0.00000000  0.00000000  0.49999999  1
  Ni  Ni4  1  0.50000001  0.50000001  -0.00000000  1
  Ni  Ni5  1  0.00000000  0.00000000  0.00000000  1
  C  C6  1  0.00000000  0.50000001  0.34493299  1
  C  C7  1  0.50000001  0.00000000  0.65506699  1
