# generated using pymatgen
data_SrTi3(CuO3)4
_symmetry_space_group_name_H-M   'P 1'
_cell_length_a   6.46526289
_cell_length_b   6.50739765
_cell_length_c   6.50817013
_cell_angle_alpha   109.60768127
_cell_angle_beta   109.34649658
_cell_angle_gamma   109.32211304
_symmetry_Int_Tables_number   1
_chemical_formula_structural   SrTi3(CuO3)4
_chemical_formula_sum   'Sr1 Ti3 Cu4 O12'
_cell_volume   211.13593273
_cell_formula_units_Z   1
loop_
 _symmetry_equiv_pos_site_id
 _symmetry_equiv_pos_as_xyz
  1  'x, y, z'
loop_
 _atom_site_type_symbol
 _atom_site_label
 _atom_site_symmetry_multiplicity
 _atom_site_fract_x
 _atom_site_fract_y
 _atom_site_fract_z
 _atom_site_occupancy
  Sr  Sr0  1  0.00000000  0.00000000  0.00000000  1
  Ti  Ti1  1  0.99999896  0.49999796  0.49999893  1
  Ti  Ti2  1  0.49999995  0.49999996  -0.00000007  1
  Ti  Ti3  1  0.49999990  0.99999892  0.49999890  1
  Cu  Cu4  1  0.49999995  0.49999996  0.49999995  1
  Cu  Cu5  1  -0.00000006  0.49999896  0.00000095  1
  Cu  Cu6  1  0.00000100  0.00000100  0.50000001  1
  Cu  Cu7  1  0.49999890  0.99999792  0.99999591  1
  O  O8  1  0.81010194  0.67948195  0.50476792  1
  O  O9  1  0.30552195  0.49523496  0.17495695  1
  O  O10  1  0.13064791  0.82534093  0.32054892  1
  O  O11  1  0.18989897  0.32051897  0.49523398  1
  O  O12  1  0.69447796  0.50476496  0.82504295  1
  O  O13  1  0.86935300  0.17465999  0.67945197  1
  O  O14  1  0.82113998  0.30049498  0.13257095  1
  O  O15  1  0.68852591  0.86739493  0.16787190  1
  O  O16  1  0.52067992  0.83183493  0.69933192  1
  O  O17  1  0.17885992  0.69950594  0.86742995  1
  O  O18  1  0.31147399  0.13260499  0.83212800  1
  O  O19  1  0.47932099  0.16816599  0.30066898  1
