# generated using pymatgen
data_LaPbF4
_symmetry_space_group_name_H-M   'P 1'
_cell_length_a   4.36847115
_cell_length_b   4.36847115
_cell_length_c   11.08537388
_cell_angle_alpha   90.00000000
_cell_angle_beta   90.00000000
_cell_angle_gamma   90.00000000
_symmetry_Int_Tables_number   1
_chemical_formula_structural   LaPbF4
_chemical_formula_sum   'La2 Pb2 F8'
_cell_volume   211.54817749
_cell_formula_units_Z   2
loop_
 _symmetry_equiv_pos_site_id
 _symmetry_equiv_pos_as_xyz
  1  'x, y, z'
loop_
 _atom_site_type_symbol
 _atom_site_label
 _atom_site_symmetry_multiplicity
 _atom_site_fract_x
 _atom_site_fract_y
 _atom_site_fract_z
 _atom_site_occupancy
  La  La0  1  0.00000000  0.49999998  0.14284400  1
  La  La1  1  0.49999998  0.00000000  0.85715601  1
  Pb  Pb2  1  0.00000000  0.49999998  0.61891801  1
  Pb  Pb3  1  0.49999998  0.00000000  0.38108200  1
  F  F4  1  0.00000000  0.49999998  0.33424300  1
  F  F5  1  0.49999998  0.00000000  0.66575701  1
  F  F6  1  0.49999998  0.49999998  0.50000001  1
  F  F7  1  0.00000000  0.00000000  0.50000001  1
  F  F8  1  0.00000000  0.00000000  0.20140000  1
  F  F9  1  0.49999998  0.49999998  0.20140000  1
  F  F10  1  0.49999998  0.49999998  0.79860001  1
  F  F11  1  0.00000000  0.00000000  0.79860001  1
