# generated using pymatgen
data_Sr2LiP3(HO6)2
_symmetry_space_group_name_H-M   'P 1'
_cell_length_a   6.42453384
_cell_length_b   6.58036089
_cell_length_c   6.72956419
_cell_angle_alpha   74.47614288
_cell_angle_beta   61.56876755
_cell_angle_gamma   60.88488388
_symmetry_Int_Tables_number   1
_chemical_formula_structural   Sr2LiP3(HO6)2
_chemical_formula_sum   'Sr2 Li1 P3 H2 O12'
_cell_volume   218.33177467
_cell_formula_units_Z   1
loop_
 _symmetry_equiv_pos_site_id
 _symmetry_equiv_pos_as_xyz
  1  'x, y, z'
loop_
 _atom_site_type_symbol
 _atom_site_label
 _atom_site_symmetry_multiplicity
 _atom_site_fract_x
 _atom_site_fract_y
 _atom_site_fract_z
 _atom_site_occupancy
  Sr  Sr0  1  0.67552599  0.37656400  0.29274203  1
  Sr  Sr1  1  0.56460496  0.83171199  0.74470606  1
  Li  Li2  1  0.26737498  0.38984700  0.16810403  1
  P  P3  1  0.02922498  0.35488200  0.61967102  1
  P  P4  1  0.16733097  0.50249299  0.83193103  1
  P  P5  1  0.62888500  0.27659400  0.77904001  1
  H  H6  1  0.05044295  0.94751799  0.73897206  1
  H  H7  1  0.69779996  0.89888299  0.24707508  1
  O  O8  1  0.95673397  0.83355399  0.27234007  1
  O  O9  1  0.34280396  0.86451099  0.20374707  1
  O  O10  1  0.52648999  0.33582000  0.01672003  1
  O  O11  1  0.76602196  0.92670499  0.33584408  1
  O  O12  1  0.22030298  0.38680000  0.38969303  1
  O  O13  1  0.15085900  0.10541900  0.69808399  1
  O  O14  1  0.77854199  0.41048299  0.61681303  1
  O  O15  1  0.97020399  0.51594599  0.77462204  1
  O  O16  1  0.20886296  0.72148999  0.77321405  1
  O  O17  1  0.07772797  0.46275199  0.08923504  1
  O  O18  1  0.42292899  0.31354800  0.72079101  1
  O  O19  1  0.80231201  0.02014800  0.75675499  1
