# generated using pymatgen
data_CeFe3Si4C
_symmetry_space_group_name_H-M   'P 1'
_cell_length_a   5.07253790
_cell_length_b   5.07253742
_cell_length_c   10.77609825
_cell_angle_alpha   90.00000000
_cell_angle_beta   90.00000000
_cell_angle_gamma   120.00000763
_symmetry_Int_Tables_number   1
_chemical_formula_structural   CeFe3Si4C
_chemical_formula_sum   'Ce2 Fe6 Si8 C2'
_cell_volume   240.12794318
_cell_formula_units_Z   2
loop_
 _symmetry_equiv_pos_site_id
 _symmetry_equiv_pos_as_xyz
  1  'x, y, z'
loop_
 _atom_site_type_symbol
 _atom_site_label
 _atom_site_symmetry_multiplicity
 _atom_site_fract_x
 _atom_site_fract_y
 _atom_site_fract_z
 _atom_site_occupancy
  Ce  Ce0  1  0.00000000  0.00000000  0.32277499  1
  Ce  Ce1  1  0.00000000  0.00000000  0.67722498  1
  Fe  Fe2  1  0.00000000  0.00000000  0.00000000  1
  Fe  Fe3  1  1.00000005  0.50000001  0.13451500  1
  Fe  Fe4  1  0.50000004  0.50000001  0.49999999  1
  Fe  Fe5  1  0.50000001  0.00000000  0.49999999  1
  Fe  Fe6  1  1.00000005  0.50000001  0.49999999  1
  Fe  Fe7  1  0.66666670  0.33333334  0.68180698  1
  Si  Si8  1  0.33333338  0.66666668  0.68180698  1
  Si  Si9  1  0.33333338  0.66666668  0.31819299  1
  Si  Si10  1  0.66666670  0.33333334  0.31819299  1
  Si  Si11  1  0.50000004  0.50000001  0.86548498  1
  Si  Si12  1  0.50000001  0.00000000  0.86548498  1
  Si  Si13  1  1.00000005  0.50000001  0.86548498  1
  Si  Si14  1  0.50000004  0.50000001  0.13451500  1
  Si  Si15  1  0.50000001  0.00000000  0.13451500  1
  C  C16  1  0.33333338  0.66666668  -0.00000000  1
  C  C17  1  0.66666670  0.33333334  -0.00000000  1
