# generated using pymatgen
data_Ta4NbO13
_symmetry_space_group_name_H-M   'P 1'
_cell_length_a   5.88540316
_cell_length_b   6.35311079
_cell_length_c   8.55117798
_cell_angle_alpha   101.46527863
_cell_angle_beta   90.00000000
_cell_angle_gamma   90.00000000
_symmetry_Int_Tables_number   1
_chemical_formula_structural   Ta4NbO13
_chemical_formula_sum   'Ta4 Nb1 O13'
_cell_volume   313.35365256
_cell_formula_units_Z   1
loop_
 _symmetry_equiv_pos_site_id
 _symmetry_equiv_pos_as_xyz
  1  'x, y, z'
loop_
 _atom_site_type_symbol
 _atom_site_label
 _atom_site_symmetry_multiplicity
 _atom_site_fract_x
 _atom_site_fract_y
 _atom_site_fract_z
 _atom_site_occupancy
  Ta  Ta0  1  0.80039598  0.34261601  0.31255400  1
  Ta  Ta1  1  0.30039599  0.65738403  0.68744600  1
  Ta  Ta2  1  0.79165798  0.18848801  0.77577199  1
  Ta  Ta3  1  0.29165799  0.81151203  0.22422802  1
  O  O4  1  0.61531498  0.55111402  0.52622500  1
  O  O5  1  0.11531500  0.44888602  0.47377500  1
  O  O6  1  0.07944600  0.06763300  0.23086100  1
  Nb  Nb7  1  0.57944598  0.93236704  0.76913901  1
  O  O8  1  0.55191299  0.02945700  0.23873399  1
  O  O9  1  0.05191300  0.97054304  0.76126601  1
  O  O10  1  0.49971399  0.55176902  0.21386001  1
  O  O11  1  0.99971397  0.44823102  0.78613999  1
  O  O12  1  0.79440998  0.24323201  0.01904101  1
  O  O13  1  0.29440999  0.75676803  0.98095900  1
  O  O14  1  0.78648998  0.14203101  0.53226899  1
  O  O15  1  0.28648999  0.85796904  0.46773101  1
  O  O16  1  0.00430000  0.62633003  0.21691501  1
  O  O17  1  0.50429999  0.37367002  0.78308499  1
