# generated using pymatgen
data_TiCuSe2
_symmetry_space_group_name_H-M   'P 1'
_cell_length_a   4.28129482
_cell_length_b   4.28129482
_cell_length_c   11.89428139
_cell_angle_alpha   90.00000000
_cell_angle_beta   90.00000000
_cell_angle_gamma   90.00000000
_symmetry_Int_Tables_number   1
_chemical_formula_structural   TiCuSe2
_chemical_formula_sum   'Ti2 Cu2 Se4'
_cell_volume   218.01605654
_cell_formula_units_Z   2
loop_
 _symmetry_equiv_pos_site_id
 _symmetry_equiv_pos_as_xyz
  1  'x, y, z'
loop_
 _atom_site_type_symbol
 _atom_site_label
 _atom_site_symmetry_multiplicity
 _atom_site_fract_x
 _atom_site_fract_y
 _atom_site_fract_z
 _atom_site_occupancy
  Cu  Cu0  1  0.50000002  0.50000002  0.76146398  1
  Ti  Ti1  1  0.00000000  0.00000000  0.49999998  1
  Ti  Ti2  1  0.50000002  0.50000002  0.23853599  1
  Cu  Cu3  1  0.00000000  0.00000000  0.00000000  1
  Se  Se4  1  0.00000000  0.50000002  0.62997698  1
  Se  Se5  1  0.50000002  0.00000000  0.37002299  1
  Se  Se6  1  0.00000000  0.50000002  0.10342300  1
  Se  Se7  1  0.50000002  0.00000000  0.89657697  1
