# generated using pymatgen
data_Yb2GaIr2
_symmetry_space_group_name_H-M   'P 1'
_cell_length_a   5.78174400
_cell_length_b   5.78790569
_cell_length_c   7.80425787
_cell_angle_alpha   101.00671387
_cell_angle_beta   90.00000000
_cell_angle_gamma   119.96479034
_symmetry_Int_Tables_number   1
_chemical_formula_structural   Yb2GaIr2
_chemical_formula_sum   'Yb4 Ga2 Ir4'
_cell_volume   220.69137355
_cell_formula_units_Z   2
loop_
 _symmetry_equiv_pos_site_id
 _symmetry_equiv_pos_as_xyz
  1  'x, y, z'
loop_
 _atom_site_type_symbol
 _atom_site_label
 _atom_site_symmetry_multiplicity
 _atom_site_fract_x
 _atom_site_fract_y
 _atom_site_fract_z
 _atom_site_occupancy
  Yb  Yb0  1  0.21999102  0.69995003  0.35081603  1
  Yb  Yb1  1  0.52004101  0.30005001  0.14918401  1
  Yb  Yb2  1  0.78000901  0.30005001  0.64918402  1
  Yb  Yb3  1  0.47995902  0.69995003  0.85081604  1
  Ga  Ga4  1  0.87938600  0.00000000  0.25000001  1
  Ga  Ga5  1  0.12061403  1.00000005  0.75000005  1
  Ir  Ir6  1  0.99558401  0.25475501  0.00344201  1
  Ir  Ir7  1  0.74082902  0.74524503  0.49655804  1
  Ir  Ir8  1  0.00441602  0.74524503  0.99655805  1
  Ir  Ir9  1  0.25917101  0.25475501  0.50344202  1
