# generated using pymatgen
data_Ce3Sb5
_symmetry_space_group_name_H-M   'P 1'
_cell_length_a   6.41273785
_cell_length_b   6.41273785
_cell_length_c   10.52783012
_cell_angle_alpha   90.00000000
_cell_angle_beta   90.00000000
_cell_angle_gamma   120.00000000
_symmetry_Int_Tables_number   1
_chemical_formula_structural   Ce3Sb5
_chemical_formula_sum   'Ce6 Sb10'
_cell_volume   374.93542244
_cell_formula_units_Z   2
loop_
 _symmetry_equiv_pos_site_id
 _symmetry_equiv_pos_as_xyz
  1  'x, y, z'
loop_
 _atom_site_type_symbol
 _atom_site_label
 _atom_site_symmetry_multiplicity
 _atom_site_fract_x
 _atom_site_fract_y
 _atom_site_fract_z
 _atom_site_occupancy
  Ce  Ce0  1  0.33333334  0.66666668  0.49999999  1
  Ce  Ce1  1  0.83421002  0.16579000  0.99999999  1
  Ce  Ce2  1  0.83325602  0.16674400  0.49999999  1
  Ce  Ce3  1  0.83421002  0.66842001  0.99999999  1
  Ce  Ce4  1  0.83325602  0.66651201  0.49999999  1
  Ce  Ce5  1  0.33158001  0.16579000  -0.00000000  1
  Sb  Sb6  1  0.33348801  0.16674400  0.49999999  1
  Sb  Sb7  1  0.99630002  0.49815001  0.74729699  1
  Sb  Sb8  1  0.99630002  0.49815001  0.25270300  1
  Sb  Sb9  1  0.50185001  0.00370000  0.74729699  1
  Sb  Sb10  1  0.50185001  0.00370000  0.25270300  1
  Sb  Sb11  1  0.50185001  0.49815001  0.74729699  1
  Sb  Sb12  1  0.50185001  0.49815001  0.25270300  1
  Sb  Sb13  1  0.00000000  0.00000000  0.74976999  1
  Sb  Sb14  1  0.00000000  0.00000000  0.25023000  1
  Sb  Sb15  1  0.33333334  0.66666668  -0.00000000  1
