# generated using pymatgen
data_Nd(BOs)4
_symmetry_space_group_name_H-M   'P 1'
_cell_length_a   4.02117777
_cell_length_b   7.58260202
_cell_length_c   7.58260202
_cell_angle_alpha   90.00000000
_cell_angle_beta   90.00000000
_cell_angle_gamma   90.00000000
_symmetry_Int_Tables_number   1
_chemical_formula_structural   Nd(BOs)4
_chemical_formula_sum   'Nd2 B8 Os8'
_cell_volume   231.20104771
_cell_formula_units_Z   2
loop_
 _symmetry_equiv_pos_site_id
 _symmetry_equiv_pos_as_xyz
  1  'x, y, z'
loop_
 _atom_site_type_symbol
 _atom_site_label
 _atom_site_symmetry_multiplicity
 _atom_site_fract_x
 _atom_site_fract_y
 _atom_site_fract_z
 _atom_site_occupancy
  Nd  Nd0  1  0.25000001  0.25000000  0.25000000  1
  Nd  Nd1  1  0.75000004  0.75000000  0.75000000  1
  B  B2  1  0.36234302  0.91275400  0.03059800  1
  B  B3  1  0.36234302  0.58724600  0.46940200  1
  B  B4  1  0.86234305  0.53059800  0.08724600  1
  B  B5  1  0.86234305  0.96940200  0.41275400  1
  B  B6  1  0.63765704  0.08724600  0.96940200  1
  B  B7  1  0.63765704  0.41275400  0.53059800  1
  B  B8  1  0.13765701  0.46940200  0.91275400  1
  B  B9  1  0.13765701  0.03059800  0.58724600  1
  Os  Os10  1  0.13846101  0.39474000  0.64137300  1
  Os  Os11  1  0.13846101  0.10526000  0.85862700  1
  Os  Os12  1  0.63846104  0.14137300  0.60526000  1
  Os  Os13  1  0.63846104  0.35862700  0.89474000  1
  Os  Os14  1  0.86153905  0.60526000  0.35862700  1
  Os  Os15  1  0.86153905  0.89474000  0.14137300  1
  Os  Os16  1  0.36153902  0.85862700  0.39474000  1
  Os  Os17  1  0.36153902  0.64137300  0.10526000  1
