# generated using pymatgen
data_Zr11Ga5
_symmetry_space_group_name_H-M   'P 1'
_cell_length_a   6.41440201
_cell_length_b   8.49305820
_cell_length_c   8.49305820
_cell_angle_alpha   60.00000000
_cell_angle_beta   90.00000000
_cell_angle_gamma   90.00000000
_symmetry_Int_Tables_number   1
_chemical_formula_structural   Zr11Ga5
_chemical_formula_sum   'Zr11 Ga5'
_cell_volume   400.69600029
_cell_formula_units_Z   1
loop_
 _symmetry_equiv_pos_site_id
 _symmetry_equiv_pos_as_xyz
  1  'x, y, z'
loop_
 _atom_site_type_symbol
 _atom_site_label
 _atom_site_symmetry_multiplicity
 _atom_site_fract_x
 _atom_site_fract_y
 _atom_site_fract_z
 _atom_site_occupancy
  Zr  Zr0  1  0.25000000  0.24340299  0.75659698  1
  Zr  Zr1  1  0.75000000  0.75659698  0.24340299  1
  Zr  Zr2  1  0.75000000  0.24340299  -0.00000000  1
  Zr  Zr3  1  0.25000000  0.00000000  0.24340299  1
  Zr  Zr4  1  0.25000000  0.75659698  -0.00000000  1
  Zr  Zr5  1  0.75000000  0.00000000  0.75659698  1
  Zr  Zr6  1  0.50000000  0.33333333  0.33333333  1
  Zr  Zr7  1  -0.00000000  0.66666665  0.66666665  1
  Zr  Zr8  1  0.50000000  0.66666665  0.66666665  1
  Zr  Zr9  1  1.00000000  0.33333333  0.33333333  1
  Ga  Ga10  1  0.25000000  0.00000000  0.60559599  1
  Zr  Zr11  1  0.75000000  0.60559599  -0.00000000  1
  Ga  Ga12  1  0.75000000  0.39440399  0.60559599  1
  Ga  Ga13  1  0.25000000  0.60559599  0.39440399  1
  Ga  Ga14  1  0.25000000  0.39440399  -0.00000000  1
  Ga  Ga15  1  0.75000000  0.00000000  0.39440399  1
