# generated using pymatgen
data_Tb(CuGe)2
_symmetry_space_group_name_H-M   'P 1'
_cell_length_a   4.03286409
_cell_length_b   4.03286409
_cell_length_c   6.09589195
_cell_angle_alpha   109.31645203
_cell_angle_beta   109.31645203
_cell_angle_gamma   90.00000000
_symmetry_Int_Tables_number   1
_chemical_formula_structural   Tb(CuGe)2
_chemical_formula_sum   'Tb1 Cu2 Ge2'
_cell_volume   87.62640710
_cell_formula_units_Z   1
loop_
 _symmetry_equiv_pos_site_id
 _symmetry_equiv_pos_as_xyz
  1  'x, y, z'
loop_
 _atom_site_type_symbol
 _atom_site_label
 _atom_site_symmetry_multiplicity
 _atom_site_fract_x
 _atom_site_fract_y
 _atom_site_fract_z
 _atom_site_occupancy
  Tb  Tb0  1  0.00000000  0.00000000  0.00000000  1
  Cu  Cu1  1  0.74999998  0.24999999  0.50000001  1
  Cu  Cu2  1  0.24999999  0.74999998  0.50000001  1
  Ge  Ge3  1  0.62159199  0.62159199  0.24318400  1
  Ge  Ge4  1  0.37840799  0.37840799  0.75681601  1
