# generated using pymatgen
data_TbNi2
_symmetry_space_group_name_H-M   'P 1'
_cell_length_a   5.02838612
_cell_length_b   5.06296444
_cell_length_c   5.05828810
_cell_angle_alpha   119.96945190
_cell_angle_beta   90.00000000
_cell_angle_gamma   119.77433014
_symmetry_Int_Tables_number   1
_chemical_formula_structural   TbNi2
_chemical_formula_sum   'Tb2 Ni4'
_cell_volume   91.41007519
_cell_formula_units_Z   2
loop_
 _symmetry_equiv_pos_site_id
 _symmetry_equiv_pos_as_xyz
  1  'x, y, z'
loop_
 _atom_site_type_symbol
 _atom_site_label
 _atom_site_symmetry_multiplicity
 _atom_site_fract_x
 _atom_site_fract_y
 _atom_site_fract_z
 _atom_site_occupancy
  Tb  Tb0  1  0.87600595  0.75201199  0.12600601  1
  Tb  Tb1  1  0.12399399  0.24798800  0.87399399  1
  Ni  Ni2  1  0.49999997  0.49999999  0.50000000  1
  Ni  Ni3  1  -0.00000002  0.49999999  0.50000000  1
  Ni  Ni4  1  0.49999999  0.00000000  -0.00000000  1
  Ni  Ni5  1  0.49999999  0.00000000  0.49999999  1
