# generated using pymatgen
data_CeCuAu
_symmetry_space_group_name_H-M   'P 1'
_cell_length_a   4.51420784
_cell_length_b   4.51420736
_cell_length_c   15.32209969
_cell_angle_alpha   90.00000000
_cell_angle_beta   90.00000000
_cell_angle_gamma   120.00000763
_symmetry_Int_Tables_number   1
_chemical_formula_structural   CeCuAu
_chemical_formula_sum   'Ce4 Cu4 Au4'
_cell_volume   270.40326881
_cell_formula_units_Z   4
loop_
 _symmetry_equiv_pos_site_id
 _symmetry_equiv_pos_as_xyz
  1  'x, y, z'
loop_
 _atom_site_type_symbol
 _atom_site_label
 _atom_site_symmetry_multiplicity
 _atom_site_fract_x
 _atom_site_fract_y
 _atom_site_fract_z
 _atom_site_occupancy
  Ce  Ce0  1  0.00000000  0.00000000  0.75000002  1
  Ce  Ce1  1  0.00000000  0.00000000  0.25000001  1
  Ce  Ce2  1  0.00000000  0.00000000  0.00000000  1
  Ce  Ce3  1  0.00000000  0.00000000  0.50000001  1
  Cu  Cu4  1  0.66666671  0.33333334  0.84066902  1
  Cu  Cu5  1  0.33333338  0.66666667  0.15933100  1
  Cu  Cu6  1  0.33333338  0.66666667  0.34066901  1
  Cu  Cu7  1  0.66666671  0.33333334  0.65933101  1
  Au  Au8  1  0.66666671  0.33333334  0.38918101  1
  Au  Au9  1  0.33333338  0.66666667  0.61081901  1
  Au  Au10  1  0.33333338  0.66666667  0.88918102  1
  Au  Au11  1  0.66666671  0.33333334  0.11081900  1
