# generated using pymatgen
data_Ti4CoS9
_symmetry_space_group_name_H-M   'P 1'
_cell_length_a   3.53302407
_cell_length_b   5.84850979
_cell_length_c   10.02701569
_cell_angle_alpha   90.00000000
_cell_angle_beta   90.00000000
_cell_angle_gamma   90.00000000
_symmetry_Int_Tables_number   1
_chemical_formula_structural   Ti4CoS9
_chemical_formula_sum   'Ti4 Co1 S9'
_cell_volume   207.18748184
_cell_formula_units_Z   1
loop_
 _symmetry_equiv_pos_site_id
 _symmetry_equiv_pos_as_xyz
  1  'x, y, z'
loop_
 _atom_site_type_symbol
 _atom_site_label
 _atom_site_symmetry_multiplicity
 _atom_site_fract_x
 _atom_site_fract_y
 _atom_site_fract_z
 _atom_site_occupancy
  Ti  Ti0  1  0.49999999  0.06141700  0.67850902  1
  Ti  Ti1  1  0.49999999  0.43858302  0.17850901  1
  Ti  Ti2  1  0.49999999  0.56141702  0.82149103  1
  Ti  Ti3  1  0.49999999  0.93858303  0.32149101  1
  S  S4  1  0.00000000  0.00000000  0.00000000  1
  Co  Co5  1  -0.00000000  0.50000002  0.50000002  1
  S  S6  1  -0.00000000  0.15250201  0.20165301  1
  S  S7  1  0.49999999  0.24032001  0.95927003  1
  S  S8  1  0.49999999  0.25968001  0.45927001  1
  S  S9  1  -0.00000000  0.34749801  0.70165302  1
  S  S10  1  -0.00000000  0.65250202  0.29834701  1
  S  S11  1  0.49999999  0.74032003  0.54073002  1
  S  S12  1  0.49999999  0.75968003  0.04073000  1
  S  S13  1  -0.00000000  0.84749803  0.79834702  1
