# generated using pymatgen
data_TbZnSn
_symmetry_space_group_name_H-M   'P 1'
_cell_length_a   4.58891821
_cell_length_b   4.58891773
_cell_length_c   7.47331095
_cell_angle_alpha   90.00000000
_cell_angle_beta   90.00000000
_cell_angle_gamma   120.00000000
_symmetry_Int_Tables_number   1
_chemical_formula_structural   TbZnSn
_chemical_formula_sum   'Tb2 Zn2 Sn2'
_cell_volume   136.29008845
_cell_formula_units_Z   2
loop_
 _symmetry_equiv_pos_site_id
 _symmetry_equiv_pos_as_xyz
  1  'x, y, z'
loop_
 _atom_site_type_symbol
 _atom_site_label
 _atom_site_symmetry_multiplicity
 _atom_site_fract_x
 _atom_site_fract_y
 _atom_site_fract_z
 _atom_site_occupancy
  Tb  Tb0  1  0.00000000  0.00000000  0.50597400  1
  Tb  Tb1  1  0.00000000  0.00000000  0.00597400  1
  Zn  Zn2  1  0.33333327  0.66666661  0.69232500  1
  Zn  Zn3  1  0.66666661  0.33333331  0.19232500  1
  Sn  Sn4  1  0.66666661  0.33333331  0.77470101  1
  Sn  Sn5  1  0.33333327  0.66666661  0.27470100  1
