# generated using pymatgen
data_SmHO4
_symmetry_space_group_name_H-M   'P 1'
_cell_length_a   4.33260393
_cell_length_b   4.33260393
_cell_length_c   5.89381981
_cell_angle_alpha   90.00000000
_cell_angle_beta   90.00000000
_cell_angle_gamma   90.00000000
_symmetry_Int_Tables_number   1
_chemical_formula_structural   SmHO4
_chemical_formula_sum   'Sm2 H2 O8'
_cell_volume   110.63558409
_cell_formula_units_Z   2
loop_
 _symmetry_equiv_pos_site_id
 _symmetry_equiv_pos_as_xyz
  1  'x, y, z'
loop_
 _atom_site_type_symbol
 _atom_site_label
 _atom_site_symmetry_multiplicity
 _atom_site_fract_x
 _atom_site_fract_y
 _atom_site_fract_z
 _atom_site_occupancy
  Sm  Sm0  1  0.50000001  0.50000001  0.50000002  1
  Sm  Sm1  1  0.00000000  0.00000000  0.00000000  1
  H  H2  1  0.50000001  0.50000001  0.00000000  1
  H  H3  1  0.00000000  0.00000000  0.50000002  1
  O  O4  1  0.00000000  0.23168200  0.38060301  1
  O  O5  1  0.00000000  0.76831801  0.38060301  1
  O  O6  1  0.23168200  0.00000000  0.61939702  1
  O  O7  1  0.50000001  0.26831800  0.11939700  1
  O  O8  1  0.26831800  0.50000001  0.88060303  1
  O  O9  1  0.76831801  0.00000000  0.61939702  1
  O  O10  1  0.73168201  0.50000001  0.88060303  1
  O  O11  1  0.50000001  0.73168201  0.11939700  1
