# generated using pymatgen
data_Li4MnSe3
_symmetry_space_group_name_H-M   'P 1'
_cell_length_a   4.56596231
_cell_length_b   4.56596231
_cell_length_c   12.47615528
_cell_angle_alpha   79.45617676
_cell_angle_beta   79.45617676
_cell_angle_gamma   59.99999619
_symmetry_Int_Tables_number   1
_chemical_formula_structural   Li4MnSe3
_chemical_formula_sum   'Li4 Mn1 Se3'
_cell_volume   220.17003698
_cell_formula_units_Z   1
loop_
 _symmetry_equiv_pos_site_id
 _symmetry_equiv_pos_as_xyz
  1  'x, y, z'
loop_
 _atom_site_type_symbol
 _atom_site_label
 _atom_site_symmetry_multiplicity
 _atom_site_fract_x
 _atom_site_fract_y
 _atom_site_fract_z
 _atom_site_occupancy
  Li  Li0  1  0.49999999  0.49999999  0.50000001  1
  Li  Li1  1  0.91104898  0.91104899  0.26685303  1
  Li  Li2  1  0.08895100  0.08895100  0.73314699  1
  Li  Li3  1  0.69841398  0.69841399  0.90475801  1
  Mn  Mn4  1  0.30158599  0.30158600  0.09524201  1
  Se  Se5  1  0.77244198  0.77244199  0.68267402  1
  Se  Se6  1  0.22755799  0.22755800  0.31732600  1
  Se  Se7  1  0.00000000  0.00000000  0.00000000  1
