# generated using pymatgen
data_Lu4UTiO9
_symmetry_space_group_name_H-M   'P 1'
_cell_length_a   3.31910205
_cell_length_b   7.11388445
_cell_length_c   8.29917717
_cell_angle_alpha   100.19261169
_cell_angle_beta   90.00000000
_cell_angle_gamma   103.49045563
_symmetry_Int_Tables_number   1
_chemical_formula_structural   Lu4UTiO9
_chemical_formula_sum   'Lu4 U1 Ti1 O9'
_cell_volume   187.36930486
_cell_formula_units_Z   1
loop_
 _symmetry_equiv_pos_site_id
 _symmetry_equiv_pos_as_xyz
  1  'x, y, z'
loop_
 _atom_site_type_symbol
 _atom_site_label
 _atom_site_symmetry_multiplicity
 _atom_site_fract_x
 _atom_site_fract_y
 _atom_site_fract_z
 _atom_site_occupancy
  U  U0  1  0.03018800  0.06037600  0.80740598  1
  Lu  Lu1  1  0.62905600  0.25811201  0.47399398  1
  Lu  Lu2  1  0.69602300  0.39204601  0.13161898  1
  Lu  Lu3  1  0.30397701  0.60795401  0.86838096  1
  Lu  Lu4  1  0.37094401  0.74188802  0.52600596  1
  Ti  Ti5  1  0.96981200  0.93962402  0.19259396  1
  O  O6  1  0.53425599  0.06851200  0.65659999  1
  O  O7  1  0.17205900  0.34411801  0.96604997  1
  O  O8  1  0.12655200  0.25310401  0.28718998  1
  O  O9  1  0.87344800  0.74689602  0.71280996  1
  O  O10  1  0.82794100  0.65588201  0.03394997  1
  O  O11  1  0.46574401  0.93148802  0.34339996  1
  O  O12  1  0.20917400  0.41834801  0.61922897  1
  O  O13  1  0.79082600  0.58165201  0.38077097  1
  O  O14  1  0.49999999  0.00000000  0.00000000  1
