# generated using pymatgen
data_Yb2(NiGe)7
_symmetry_space_group_name_H-M   'P 1'
_cell_length_a   6.21890211
_cell_length_b   6.21890211
_cell_length_c   8.12472439
_cell_angle_alpha   112.50193787
_cell_angle_beta   112.50193787
_cell_angle_gamma   90.00000000
_symmetry_Int_Tables_number   1
_chemical_formula_structural   Yb2(NiGe)7
_chemical_formula_sum   'Yb2 Ni7 Ge7'
_cell_volume   264.21890628
_cell_formula_units_Z   1
loop_
 _symmetry_equiv_pos_site_id
 _symmetry_equiv_pos_as_xyz
  1  'x, y, z'
loop_
 _atom_site_type_symbol
 _atom_site_label
 _atom_site_symmetry_multiplicity
 _atom_site_fract_x
 _atom_site_fract_y
 _atom_site_fract_z
 _atom_site_occupancy
  Yb  Yb0  1  0.00000002  0.50000000  0.00000003  1
  Yb  Yb1  1  0.50000000  0.00000000  0.00000002  1
  Ni  Ni2  1  0.44102202  0.44102200  0.30026905  1
  Ni  Ni3  1  0.14075303  0.55897801  0.69973105  1
  Ni  Ni4  1  0.85924704  0.85924701  0.30026909  1
  Ni  Ni5  1  0.85924702  0.44102200  0.30026907  1
  Ni  Ni6  1  0.55897803  0.55897801  0.69973107  1
  Ni  Ni7  1  0.14075301  0.14075300  0.69973103  1
  Ni  Ni8  1  0.55897801  0.14075300  0.69973104  1
  Ge  Ge9  1  0.00000000  0.00000000  0.00000000  1
  Ge  Ge10  1  0.44102204  0.85924701  0.30026907  1
  Ge  Ge11  1  0.17885601  0.17885600  0.35771202  1
  Ge  Ge12  1  0.82114404  0.82114401  0.64228809  1
  Ge  Ge13  1  0.25000004  0.75000001  0.50000006  1
  Ge  Ge14  1  0.75000001  0.25000000  0.50000005  1
  Ge  Ge15  1  0.50000002  0.50000000  0.00000005  1
