# generated using pymatgen
data_Bi3SbS3O
_symmetry_space_group_name_H-M   'P 1'
_cell_length_a   3.68155098
_cell_length_b   3.68155098
_cell_length_c   12.82812405
_cell_angle_alpha   90.00000000
_cell_angle_beta   90.00000000
_cell_angle_gamma   90.00000000
_symmetry_Int_Tables_number   1
_chemical_formula_structural   Bi3SbS3O
_chemical_formula_sum   'Bi3 Sb1 S3 O1'
_cell_volume   173.87005367
_cell_formula_units_Z   1
loop_
 _symmetry_equiv_pos_site_id
 _symmetry_equiv_pos_as_xyz
  1  'x, y, z'
loop_
 _atom_site_type_symbol
 _atom_site_label
 _atom_site_symmetry_multiplicity
 _atom_site_fract_x
 _atom_site_fract_y
 _atom_site_fract_z
 _atom_site_occupancy
  Bi  Bi0  1  0.50000000  0.00000000  0.00300400  1
  Bi  Bi1  1  0.50000000  0.00000000  0.48637300  1
  Bi  Bi2  1  0.00000000  0.50000000  0.00300400  1
  Sb  Sb3  1  0.00000000  0.50000000  0.48637300  1
  S  S4  1  0.50000000  0.50000000  0.86161400  1
  S  S5  1  0.00000000  0.00000000  0.14413400  1
  S  S6  1  0.00000000  0.00000000  0.61539200  1
  O  O7  1  0.50000000  0.50000000  0.40010600  1
