# generated using pymatgen
data_Mn4B3HC2
_symmetry_space_group_name_H-M   'P 1'
_cell_length_a   3.19010210
_cell_length_b   5.24947977
_cell_length_c   7.44393587
_cell_angle_alpha   90.00000000
_cell_angle_beta   90.00000000
_cell_angle_gamma   107.68894958
_symmetry_Int_Tables_number   1
_chemical_formula_structural   Mn4B3HC2
_chemical_formula_sum   'Mn4 B3 H1 C2'
_cell_volume   118.76508966
_cell_formula_units_Z   1
loop_
 _symmetry_equiv_pos_site_id
 _symmetry_equiv_pos_as_xyz
  1  'x, y, z'
loop_
 _atom_site_type_symbol
 _atom_site_label
 _atom_site_symmetry_multiplicity
 _atom_site_fract_x
 _atom_site_fract_y
 _atom_site_fract_z
 _atom_site_occupancy
  Mn  Mn0  1  0.25096697  0.50193401  0.25000000  1
  Mn  Mn1  1  0.74903296  0.49806601  0.75000001  1
  Mn  Mn2  1  0.00000000  0.00000000  0.00000000  1
  Mn  Mn3  1  0.00000000  0.00000000  0.50000001  1
  H  H4  1  0.62822497  0.25645001  0.45366601  1
  B  B5  1  0.37177496  0.74355001  0.54633401  1
  B  B6  1  0.37177496  0.74355001  0.95366602  1
  B  B7  1  0.62822497  0.25645001  0.04633400  1
  C  C8  1  0.91587594  0.83175202  0.25000000  1
  C  C9  1  0.08412399  0.16824800  0.75000001  1
