# generated using pymatgen
data_LiFe5O8
_symmetry_space_group_name_H-M   'P 1'
_cell_length_a   5.69089079
_cell_length_b   5.69089079
_cell_length_c   5.69089127
_cell_angle_alpha   61.07587051
_cell_angle_beta   61.07587051
_cell_angle_gamma   61.07586670
_symmetry_Int_Tables_number   1
_chemical_formula_structural   LiFe5O8
_chemical_formula_sum   'Li1 Fe5 O8'
_cell_volume   133.48105028
_cell_formula_units_Z   1
loop_
 _symmetry_equiv_pos_site_id
 _symmetry_equiv_pos_as_xyz
  1  'x, y, z'
loop_
 _atom_site_type_symbol
 _atom_site_label
 _atom_site_symmetry_multiplicity
 _atom_site_fract_x
 _atom_site_fract_y
 _atom_site_fract_z
 _atom_site_occupancy
  Li  Li0  1  0.87505599  0.87505596  0.87505601  1
  Fe  Fe1  1  0.12494400  0.12494399  0.12494400  1
  Fe  Fe2  1  0.49999999  0.49999998  0.50000001  1
  Fe  Fe3  1  0.49999998  0.00000000  0.50000000  1
  Fe  Fe4  1  0.00000001  0.49999998  0.50000000  1
  Fe  Fe5  1  0.49999999  0.49999998  0.00000001  1
  O  O6  1  0.28824901  0.73454297  0.73454300  1
  O  O7  1  0.73454298  0.28824899  0.73454301  1
  O  O8  1  0.26468000  0.26467999  0.26468000  1
  O  O9  1  0.73454299  0.73454297  0.28824901  1
  O  O10  1  0.26545700  0.26545699  0.71175100  1
  O  O11  1  0.73531999  0.73531997  0.73532001  1
  O  O12  1  0.26545701  0.71175097  0.26545700  1
  O  O13  1  0.71175098  0.26545699  0.26545701  1
