# generated using pymatgen
data_Ba2TaNiO6
_symmetry_space_group_name_H-M   'P 1'
_cell_length_a   4.06777287
_cell_length_b   4.06777287
_cell_length_c   8.12882233
_cell_angle_alpha   90.00000000
_cell_angle_beta   90.00000000
_cell_angle_gamma   90.00000000
_symmetry_Int_Tables_number   1
_chemical_formula_structural   Ba2TaNiO6
_chemical_formula_sum   'Ba2 Ta1 Ni1 O6'
_cell_volume   134.50580286
_cell_formula_units_Z   1
loop_
 _symmetry_equiv_pos_site_id
 _symmetry_equiv_pos_as_xyz
  1  'x, y, z'
loop_
 _atom_site_type_symbol
 _atom_site_label
 _atom_site_symmetry_multiplicity
 _atom_site_fract_x
 _atom_site_fract_y
 _atom_site_fract_z
 _atom_site_occupancy
  Ba  Ba0  1  0.50000002  0.50000002  0.24873799  1
  Ba  Ba1  1  0.50000002  0.50000002  0.75126197  1
  Ta  Ta2  1  0.00000000  0.00000000  0.49999998  1
  Ni  Ni3  1  0.00000000  0.00000000  0.00000000  1
  O  O4  1  0.00000000  0.00000000  0.25155499  1
  O  O5  1  0.00000000  0.00000000  0.74844497  1
  O  O6  1  -0.00000000  0.50000002  0.00000000  1
  O  O7  1  -0.00000000  0.50000002  0.49999998  1
  O  O8  1  0.50000002  0.00000000  0.00000000  1
  O  O9  1  0.50000002  0.00000000  0.49999998  1
