# generated using pymatgen
data_La2Ni7
_symmetry_space_group_name_H-M   'P 1'
_cell_length_a   5.50884771
_cell_length_b   5.50884771
_cell_length_c   11.05070114
_cell_angle_alpha   75.56667328
_cell_angle_beta   75.56667328
_cell_angle_gamma   60.00000381
_symmetry_Int_Tables_number   1
_chemical_formula_structural   La2Ni7
_chemical_formula_sum   'La4 Ni14'
_cell_volume   278.14128730
_cell_formula_units_Z   2
loop_
 _symmetry_equiv_pos_site_id
 _symmetry_equiv_pos_as_xyz
  1  'x, y, z'
loop_
 _atom_site_type_symbol
 _atom_site_label
 _atom_site_symmetry_multiplicity
 _atom_site_fract_x
 _atom_site_fract_y
 _atom_site_fract_z
 _atom_site_occupancy
  La  La0  1  0.15215499  0.15215500  0.54353503  1
  La  La1  1  0.94872091  0.94872098  0.15383706  1
  La  La2  1  0.84784492  0.84784498  0.45646506  1
  La  La3  1  0.05127900  0.05127900  0.84616304  1
  Ni  Ni4  1  0.61756294  0.61756299  0.14731104  1
  Ni  Ni5  1  0.71663293  0.71663299  0.85010107  1
  Ni  Ni6  1  0.38243696  0.38243699  0.85268906  1
  Ni  Ni7  1  0.28336697  0.28336699  0.14989902  1
  Ni  Ni8  1  0.89931094  0.40643399  0.28782105  1
  Ni  Ni9  1  0.40643394  0.89931098  0.28782105  1
  Ni  Ni10  1  0.49999995  0.49999999  0.00000003  1
  Ni  Ni11  1  -0.00000002  0.49999999  0.00000001  1
  Ni  Ni12  1  0.49999998  0.00000000  0.00000001  1
  Ni  Ni13  1  0.49999995  0.49999999  0.50000005  1
  Ni  Ni14  1  0.10068897  0.59356599  0.71217905  1
  Ni  Ni15  1  0.59356595  0.59356599  0.71217906  1
  Ni  Ni16  1  0.59356597  0.10068900  0.71217905  1
  Ni  Ni17  1  0.40643396  0.40643399  0.28782103  1
