# generated using pymatgen
data_Tm4InGe12
_symmetry_space_group_name_H-M   'P 1'
_cell_length_a   7.50309849
_cell_length_b   7.50309849
_cell_length_c   7.50309849
_cell_angle_alpha   109.47122192
_cell_angle_beta   109.47122192
_cell_angle_gamma   109.47122192
_symmetry_Int_Tables_number   1
_chemical_formula_structural   Tm4InGe12
_chemical_formula_sum   'Tm4 In1 Ge12'
_cell_volume   325.16218259
_cell_formula_units_Z   1
loop_
 _symmetry_equiv_pos_site_id
 _symmetry_equiv_pos_as_xyz
  1  'x, y, z'
loop_
 _atom_site_type_symbol
 _atom_site_label
 _atom_site_symmetry_multiplicity
 _atom_site_fract_x
 _atom_site_fract_y
 _atom_site_fract_z
 _atom_site_occupancy
  Tm  Tm0  1  0.00000000  0.00000000  0.50000001  1
  Tm  Tm1  1  0.50000004  0.50000003  0.50000005  1
  Tm  Tm2  1  0.50000001  0.00000000  0.00000001  1
  Tm  Tm3  1  1.00000006  0.50000003  1.00000007  1
  Ge  Ge4  1  0.70391406  0.70391404  0.00000006  1
  In  In5  1  0.25000004  0.50000003  0.75000005  1
  Ge  Ge6  1  0.29608607  1.00000006  0.29608607  1
  Ge  Ge7  1  0.29608603  0.29608602  0.00000002  1
  Ge  Ge8  1  0.75000003  0.25000001  0.50000004  1
  Ge  Ge9  1  0.50000003  0.25000001  0.75000004  1
  Ge  Ge10  1  0.50000006  0.75000004  0.25000006  1
  Ge  Ge11  1  1.00000007  0.70391404  0.70391407  1
  Ge  Ge12  1  0.25000005  0.75000004  0.50000006  1
  Ge  Ge13  1  0.75000005  0.50000003  0.25000005  1
  Ge  Ge14  1  0.00000002  0.29608602  0.29608602  1
  Ge  Ge15  1  0.70391402  0.00000000  0.70391403  1
  Ge  Ge16  1  0.00000000  0.00000000  0.00000000  1
