# generated using pymatgen
data_Ba4SrSbO12
_symmetry_space_group_name_H-M   'P 1'
_cell_length_a   7.39626980
_cell_length_b   7.51826334
_cell_length_c   7.47582817
_cell_angle_alpha   119.81346130
_cell_angle_beta   90.00000000
_cell_angle_gamma   119.46467590
_symmetry_Int_Tables_number   1
_chemical_formula_structural   Ba4SrSbO12
_chemical_formula_sum   'Ba4 Sr1 Sb1 O12'
_cell_volume   297.12636014
_cell_formula_units_Z   1
loop_
 _symmetry_equiv_pos_site_id
 _symmetry_equiv_pos_as_xyz
  1  'x, y, z'
loop_
 _atom_site_type_symbol
 _atom_site_label
 _atom_site_symmetry_multiplicity
 _atom_site_fract_x
 _atom_site_fract_y
 _atom_site_fract_z
 _atom_site_occupancy
  Ba  Ba0  1  0.38136302  0.76272601  0.13136298  1
  Ba  Ba1  1  0.61863702  0.23727400  0.86863698  1
  Ba  Ba2  1  0.50000002  0.50000001  0.49999998  1
  Ba  Ba3  1  0.00000001  0.50000001  0.49999998  1
  Sb  Sb4  1  0.00000000  0.00000000  0.00000000  1
  Sr  Sr5  1  0.00000001  1.00000001  0.49999997  1
  O  O6  1  0.92470204  0.84940401  0.17470198  1
  O  O7  1  0.31341002  0.62682001  0.56340998  1
  O  O8  1  0.92331003  0.24392400  0.57594098  1
  O  O9  1  0.32061401  0.24392400  0.16798299  1
  O  O10  1  0.32061401  0.24392400  0.57594098  1
  O  O11  1  0.92331003  0.24392400  0.16798299  1
  O  O12  1  0.07529800  0.15059600  0.82529798  1
  O  O13  1  0.68659002  0.37318001  0.43658998  1
  O  O14  1  0.07669001  0.75607601  0.42405898  1
  O  O15  1  0.67938603  0.75607601  0.83201697  1
  O  O16  1  0.67938603  0.75607601  0.42405898  1
  O  O17  1  0.07669001  0.75607601  0.83201697  1
