# generated using pymatgen
data_Ba2ZrRuI6
_symmetry_space_group_name_H-M   'P 1'
_cell_length_a   4.61694622
_cell_length_b   10.41162109
_cell_length_c   16.04268074
_cell_angle_alpha   90.00000000
_cell_angle_beta   90.00000000
_cell_angle_gamma   90.00000000
_symmetry_Int_Tables_number   1
_chemical_formula_structural   Ba2ZrRuI6
_chemical_formula_sum   'Ba4 Zr2 Ru2 I12'
_cell_volume   771.16997320
_cell_formula_units_Z   2
loop_
 _symmetry_equiv_pos_site_id
 _symmetry_equiv_pos_as_xyz
  1  'x, y, z'
loop_
 _atom_site_type_symbol
 _atom_site_label
 _atom_site_symmetry_multiplicity
 _atom_site_fract_x
 _atom_site_fract_y
 _atom_site_fract_z
 _atom_site_occupancy
  Ba  Ba0  1  0.72408697  0.97191899  0.37655601  1
  Ba  Ba1  1  0.22408699  0.02808100  0.12344400  1
  Ba  Ba2  1  0.27591299  0.47191900  0.62344401  1
  Ba  Ba3  1  0.77591296  0.52808100  0.87655601  1
  Zr  Zr4  1  0.27591299  0.02808100  0.62344401  1
  Zr  Zr5  1  0.77591296  0.97191899  0.87655601  1
  Ru  Ru6  1  0.72408697  0.52808100  0.37655601  1
  Ru  Ru7  1  0.22408699  0.47191900  0.12344400  1
  I  I8  1  0.19602999  0.74999999  0.48276001  1
  I  I9  1  0.69602997  0.25000000  0.01724000  1
  I  I10  1  0.80396996  0.25000000  0.51724001  1
  I  I11  1  0.30396999  0.74999999  0.98276002  1
  I  I12  1  0.29482399  0.74999999  0.26146000  1
  I  I13  1  0.79482396  0.25000000  0.23854000  1
  I  I14  1  0.70517597  0.25000000  0.73854001  1
  I  I15  1  0.20517599  0.74999999  0.76146001  1
  I  I16  1  0.69658397  0.74999999  0.12319000  1
  I  I17  1  0.19658399  0.25000000  0.37681001  1
  I  I18  1  0.30341599  0.25000000  0.87681001  1
  I  I19  1  0.80341596  0.74999999  0.62319001  1
