# generated using pymatgen
data_TiCuO3
_symmetry_space_group_name_H-M   'P 1'
_cell_length_a   5.03255367
_cell_length_b   5.03257990
_cell_length_c   5.42467976
_cell_angle_alpha   90.00002289
_cell_angle_beta   117.63600922
_cell_angle_gamma   119.99967194
_symmetry_Int_Tables_number   1
_chemical_formula_structural   TiCuO3
_chemical_formula_sum   'Ti2 Cu2 O6'
_cell_volume   100.47714194
_cell_formula_units_Z   2
loop_
 _symmetry_equiv_pos_site_id
 _symmetry_equiv_pos_as_xyz
  1  'x, y, z'
loop_
 _atom_site_type_symbol
 _atom_site_label
 _atom_site_symmetry_multiplicity
 _atom_site_fract_x
 _atom_site_fract_y
 _atom_site_fract_z
 _atom_site_occupancy
  Ti  Ti0  1  0.68941401  0.84470699  0.53412092  1
  Ti  Ti1  1  0.31061000  0.15530500  0.46591398  1
  Cu  Cu2  1  0.28591900  0.64295799  0.92887395  1
  Cu  Cu3  1  0.71409201  0.35704500  0.07113795  1
  O  O4  1  0.78991001  0.23155400  0.73797295  1
  O  O5  1  0.82039801  0.05198700  0.26201196  1
  O  O6  1  0.49360100  0.44161500  0.26201195  1
  O  O7  1  0.50641900  0.55835799  0.73797294  1
  O  O8  1  0.17961500  0.94806199  0.73797194  1
  O  O9  1  0.21002400  0.76841099  0.26201095  1
