# generated using pymatgen
data_Ho3MgZnGe7Ir2
_symmetry_space_group_name_H-M   'P 1'
_cell_length_a   4.16071177
_cell_length_b   8.03427696
_cell_length_c   8.14300919
_cell_angle_alpha   72.44271088
_cell_angle_beta   75.19812012
_cell_angle_gamma   74.99311829
_symmetry_Int_Tables_number   1
_chemical_formula_structural   Ho3MgZnGe7Ir2
_chemical_formula_sum   'Ho3 Mg1 Zn1 Ge7 Ir2'
_cell_volume   245.98185597
_cell_formula_units_Z   1
loop_
 _symmetry_equiv_pos_site_id
 _symmetry_equiv_pos_as_xyz
  1  'x, y, z'
loop_
 _atom_site_type_symbol
 _atom_site_label
 _atom_site_symmetry_multiplicity
 _atom_site_fract_x
 _atom_site_fract_y
 _atom_site_fract_z
 _atom_site_occupancy
  Ho  Ho0  1  0.69287802  0.31235601  0.30188802  1
  Ho  Ho1  1  0.31412500  0.68973103  0.68201900  1
  Ho  Ho2  1  0.99125704  0.00562400  0.01186203  1
  Mg  Mg3  1  0.49682202  0.29000801  0.71634803  1
  Ge  Ge4  1  0.49924501  0.72257203  0.27893799  1
  Zn  Zn5  1  0.84671302  0.89170404  0.41486999  1
  Ge  Ge6  1  0.15764600  0.11784801  0.56686002  1
  Ge  Ge7  1  0.84212303  0.42386902  0.89188504  1
  Ge  Ge8  1  0.16001600  0.57668903  0.10327898  1
  Ge  Ge9  1  0.99994503  0.50115102  0.49895902  1
  Ge  Ge10  1  0.65594401  0.94945104  0.73866100  1
  Ge  Ge11  1  0.34022201  0.03139100  0.28816502  1
  Ir  Ir12  1  0.65780502  0.70239403  0.98199603  1
  Ir  Ir13  1  0.34525901  0.28521001  0.02427200  1
