# generated using pymatgen
data_Ta2Fe2C3
_symmetry_space_group_name_H-M   'P 1'
_cell_length_a   3.36210203
_cell_length_b   5.64875603
_cell_length_c   5.88691711
_cell_angle_alpha   107.97344208
_cell_angle_beta   106.59215546
_cell_angle_gamma   90.00000000
_symmetry_Int_Tables_number   1
_chemical_formula_structural   Ta2Fe2C3
_chemical_formula_sum   'Ta2 Fe2 C3'
_cell_volume   101.44118226
_cell_formula_units_Z   1
loop_
 _symmetry_equiv_pos_site_id
 _symmetry_equiv_pos_as_xyz
  1  'x, y, z'
loop_
 _atom_site_type_symbol
 _atom_site_label
 _atom_site_symmetry_multiplicity
 _atom_site_fract_x
 _atom_site_fract_y
 _atom_site_fract_z
 _atom_site_occupancy
  Ta  Ta0  1  0.61497304  0.81750898  0.22994604  1
  Ta  Ta1  1  0.38502701  0.18249099  0.77005403  1
  Fe  Fe2  1  0.85144604  0.63041998  0.70289206  1
  Fe  Fe3  1  0.14855402  0.36957999  0.29710802  1
  C  C4  1  0.00000002  0.49999999  0.00000001  1
  C  C5  1  0.27041403  0.74607498  0.54082803  1
  C  C6  1  0.72958602  0.25392499  0.45917204  1
