# generated using pymatgen
data_Ba(YGa)2
_symmetry_space_group_name_H-M   'P 1'
_cell_length_a   4.83676815
_cell_length_b   4.83676815
_cell_length_c   7.13473082
_cell_angle_alpha   109.81348419
_cell_angle_beta   109.81348419
_cell_angle_gamma   90.00000000
_symmetry_Int_Tables_number   1
_chemical_formula_structural   Ba(YGa)2
_chemical_formula_sum   'Ba1 Y2 Ga2'
_cell_volume   146.48514709
_cell_formula_units_Z   1
loop_
 _symmetry_equiv_pos_site_id
 _symmetry_equiv_pos_as_xyz
  1  'x, y, z'
loop_
 _atom_site_type_symbol
 _atom_site_label
 _atom_site_symmetry_multiplicity
 _atom_site_fract_x
 _atom_site_fract_y
 _atom_site_fract_z
 _atom_site_occupancy
  Ba  Ba0  1  0.00097100  0.00097100  0.00194200  1
  Y  Y1  1  0.74910295  0.24910299  0.49820596  1
  Y  Y2  1  0.24910296  0.74910296  0.49820595  1
  Ga  Ga3  1  0.38996296  0.38996298  0.77992596  1
  Ga  Ga4  1  0.61086094  0.61086097  0.22172195  1
