# generated using pymatgen
data_Ce5Sb3
_symmetry_space_group_name_H-M   'P 1'
_cell_length_a   8.24806595
_cell_length_b   9.43310642
_cell_length_c   8.24806595
_cell_angle_alpha   115.92454529
_cell_angle_beta   90.00000000
_cell_angle_gamma   115.92454529
_symmetry_Int_Tables_number   1
_chemical_formula_structural   Ce5Sb3
_chemical_formula_sum   'Ce10 Sb6'
_cell_volume   504.38253026
_cell_formula_units_Z   2
loop_
 _symmetry_equiv_pos_site_id
 _symmetry_equiv_pos_as_xyz
  1  'x, y, z'
loop_
 _atom_site_type_symbol
 _atom_site_label
 _atom_site_symmetry_multiplicity
 _atom_site_fract_x
 _atom_site_fract_y
 _atom_site_fract_z
 _atom_site_occupancy
  Ce  Ce0  1  0.50000000  0.00000000  0.50000000  1
  Ce  Ce1  1  0.00000000  0.00000000  0.00000000  1
  Ce  Ce2  1  0.68796894  0.70480193  0.51683293  1
  Ce  Ce3  1  0.18796893  0.70480193  0.68796894  1
  Ce  Ce4  1  0.51683293  0.70480193  0.01683293  1
  Ce  Ce5  1  0.81203098  0.29519797  0.31203097  1
  Ce  Ce6  1  0.48316697  0.29519797  0.98316698  1
  Ce  Ce7  1  0.98316698  0.29519797  0.81203098  1
  Ce  Ce8  1  0.31203097  0.29519797  0.48316697  1
  Ce  Ce9  1  0.01683293  0.70480193  0.18796893  1
  Sb  Sb10  1  0.24999995  0.49999995  0.24999995  1
  Sb  Sb11  1  0.74999996  0.49999995  0.74999996  1
  Sb  Sb12  1  0.63464291  0.99999890  0.86535591  1
  Sb  Sb13  1  0.13464300  0.00000000  0.63464300  1
  Sb  Sb14  1  0.86535691  0.99999990  0.36535690  1
  Sb  Sb15  1  0.36535700  0.00000100  0.13464400  1
