# generated using pymatgen
data_SrLi2Co2O3
_symmetry_space_group_name_H-M   'P 1'
_cell_length_a   5.86920404
_cell_length_b   5.86920404
_cell_length_c   7.22823715
_cell_angle_alpha   66.04673767
_cell_angle_beta   66.04673767
_cell_angle_gamma   60.00000000
_symmetry_Int_Tables_number   1
_chemical_formula_structural   SrLi2Co2O3
_chemical_formula_sum   'Sr2 Li4 Co4 O6'
_cell_volume   190.47247682
_cell_formula_units_Z   2
loop_
 _symmetry_equiv_pos_site_id
 _symmetry_equiv_pos_as_xyz
  1  'x, y, z'
loop_
 _atom_site_type_symbol
 _atom_site_label
 _atom_site_symmetry_multiplicity
 _atom_site_fract_x
 _atom_site_fract_y
 _atom_site_fract_z
 _atom_site_occupancy
  Sr  Sr0  1  0.33756396  0.33756399  0.98730802  1
  Sr  Sr1  1  0.66243592  0.66243598  0.01269208  1
  Li  Li2  1  0.23603695  0.47666899  0.39195604  1
  Li  Li3  1  0.47666891  0.89533798  0.39195608  1
  Li  Li4  1  0.10466194  0.76396298  0.60804405  1
  Li  Li5  1  0.89533793  0.23603699  0.39195606  1
  Co  Co6  1  0.52333096  0.10466200  0.60804402  1
  Co  Co7  1  0.76396292  0.52333099  0.60804407  1
  Co  Co8  1  0.06698299  0.06698300  0.79905099  1
  Co  Co9  1  0.93301688  0.93301697  0.20094911  1
  O  O10  1  0.90508591  0.62009598  0.26943208  1
  O  O11  1  0.37990392  0.79461398  0.73056806  1
  O  O12  1  0.09491397  0.37990399  0.73056802  1
  O  O13  1  0.79461395  0.09491400  0.73056804  1
  O  O14  1  0.62009595  0.20538599  0.26943204  1
  O  O15  1  0.20538593  0.90508597  0.26943207  1
