# generated using pymatgen
data_LiZrO3
_symmetry_space_group_name_H-M   'P 1'
_cell_length_a   3.21431398
_cell_length_b   6.88689756
_cell_length_c   8.05094051
_cell_angle_alpha   100.36215973
_cell_angle_beta   90.00000000
_cell_angle_gamma   103.49523163
_symmetry_Int_Tables_number   1
_chemical_formula_structural   LiZrO3
_chemical_formula_sum   'Li3 Zr3 O9'
_cell_volume   170.30940651
_cell_formula_units_Z   3
loop_
 _symmetry_equiv_pos_site_id
 _symmetry_equiv_pos_as_xyz
  1  'x, y, z'
loop_
 _atom_site_type_symbol
 _atom_site_label
 _atom_site_symmetry_multiplicity
 _atom_site_fract_x
 _atom_site_fract_y
 _atom_site_fract_z
 _atom_site_occupancy
  Li  Li0  1  0.96921401  0.93842802  0.18395195  1
  Li  Li1  1  0.63632600  0.27265200  0.48718896  1
  Li  Li2  1  0.30798400  0.61596801  0.86366493  1
  Zr  Zr3  1  0.03078600  0.06157200  0.81604796  1
  Zr  Zr4  1  0.36367400  0.72734801  0.51281094  1
  Zr  Zr5  1  0.69201601  0.38403201  0.13633498  1
  O  O6  1  0.17372600  0.34745201  0.96491194  1
  O  O7  1  0.82627401  0.65254801  0.03508797  1
  O  O8  1  0.21004600  0.42009201  0.62115495  1
  O  O9  1  0.87444901  0.74889801  0.72056093  1
  O  O10  1  0.50000000  0.00000000  0.00000000  1
  O  O11  1  0.78995401  0.57990801  0.37884495  1
  O  O12  1  0.46584701  0.93169402  0.34097794  1
  O  O13  1  0.12555100  0.25110200  0.27943897  1
  O  O14  1  0.53415300  0.06830600  0.65902197  1
