# generated using pymatgen
data_Rb9TaCl6OF3
_symmetry_space_group_name_H-M   'P 1'
_cell_length_a   7.71887207
_cell_length_b   7.73794889
_cell_length_c   10.95886230
_cell_angle_alpha   90.00000000
_cell_angle_beta   90.00000000
_cell_angle_gamma   90.00000000
_symmetry_Int_Tables_number   1
_chemical_formula_structural   Rb9TaCl6OF3
_chemical_formula_sum   'Rb9 Ta1 Cl6 O1 F3'
_cell_volume   654.55353160
_cell_formula_units_Z   1
loop_
 _symmetry_equiv_pos_site_id
 _symmetry_equiv_pos_as_xyz
  1  'x, y, z'
loop_
 _atom_site_type_symbol
 _atom_site_label
 _atom_site_symmetry_multiplicity
 _atom_site_fract_x
 _atom_site_fract_y
 _atom_site_fract_z
 _atom_site_occupancy
  Rb  Rb0  1  0.07250000  0.47756001  0.24999999  1
  Rb  Rb1  1  0.20053200  0.20062400  0.53482999  1
  Rb  Rb2  1  0.20053200  0.20062400  0.96516997  1
  Rb  Rb3  1  0.29946800  0.70062401  0.96516997  1
  Rb  Rb4  1  0.29946800  0.70062401  0.53482999  1
  Rb  Rb5  1  0.42750000  0.97756001  0.24999999  1
  Rb  Rb6  1  0.57249999  0.02244000  0.74999998  1
  Rb  Rb7  1  0.70053199  0.29937600  0.03483000  1
  Rb  Rb8  1  0.70053199  0.29937600  0.46516999  1
  Ta  Ta9  1  0.79946799  0.79937601  0.03483000  1
  Cl  Cl10  1  0.79946799  0.79937601  0.46516999  1
  Cl  Cl11  1  0.92749999  0.52244001  0.74999998  1
  Cl  Cl12  1  0.99739299  0.03377800  0.24999999  1
  Cl  Cl13  1  0.50260700  0.53377801  0.24999999  1
  Cl  Cl14  1  0.49739300  0.46622201  0.74999998  1
  Cl  Cl15  1  0.00260700  0.96622201  0.74999998  1
  F  F16  1  -0.00000000  0.50000001  0.00000000  1
  F  F17  1  -0.00000000  0.50000001  0.49999999  1
  O  O18  1  0.50000000  0.00000000  0.00000000  1
  F  F19  1  0.50000000  0.00000000  0.49999999  1
