# generated using pymatgen
data_Li2TaTiO6
_symmetry_space_group_name_H-M   'P 1'
_cell_length_a   5.32270384
_cell_length_b   5.63606310
_cell_length_c   7.70835590
_cell_angle_alpha   90.00000000
_cell_angle_beta   90.00000000
_cell_angle_gamma   90.00000000
_symmetry_Int_Tables_number   1
_chemical_formula_structural   Li2TaTiO6
_chemical_formula_sum   'Li4 Ta2 Ti2 O12'
_cell_volume   231.24369865
_cell_formula_units_Z   2
loop_
 _symmetry_equiv_pos_site_id
 _symmetry_equiv_pos_as_xyz
  1  'x, y, z'
loop_
 _atom_site_type_symbol
 _atom_site_label
 _atom_site_symmetry_multiplicity
 _atom_site_fract_x
 _atom_site_fract_y
 _atom_site_fract_z
 _atom_site_occupancy
  Li  Li0  1  0.72957102  0.06836500  0.00000000  1
  Li  Li1  1  0.27042901  0.56836499  -0.00000000  1
  Li  Li2  1  0.76947202  0.93019898  0.50000001  1
  Li  Li3  1  0.23052801  0.43019899  0.50000001  1
  Ti  Ti4  1  0.25049401  0.99980798  0.74869001  1
  Ta  Ta5  1  0.74950602  0.49980799  0.25131000  1
  Ta  Ta6  1  0.25049401  0.99980798  0.25131000  1
  Ti  Ti7  1  0.74950602  0.49980799  0.74869001  1
  O  O8  1  0.86577503  0.45648099  0.00000000  1
  O  O9  1  0.13422500  0.95648098  -0.00000000  1
  O  O10  1  0.62809002  0.54731699  0.50000001  1
  O  O11  1  0.37191001  0.04731700  0.50000001  1
  O  O12  1  0.55869302  0.80549399  0.80880401  1
  O  O13  1  0.44130701  0.30549399  0.19119600  1
  O  O14  1  0.94141703  0.19351700  0.31317300  1
  O  O15  1  0.05858300  0.69351699  0.68682701  1
  O  O16  1  0.94141703  0.19351700  0.68682701  1
  O  O17  1  0.05858300  0.69351699  0.31317300  1
  O  O18  1  0.55869302  0.80549399  0.19119600  1
  O  O19  1  0.44130701  0.30549399  0.80880401  1
