# generated using pymatgen
data_K2SmNbO6
_symmetry_space_group_name_H-M   'P 1'
_cell_length_a   6.02599621
_cell_length_b   6.02599621
_cell_length_c   8.67309761
_cell_angle_alpha   90.00000000
_cell_angle_beta   90.00000000
_cell_angle_gamma   90.00000000
_symmetry_Int_Tables_number   1
_chemical_formula_structural   K2SmNbO6
_chemical_formula_sum   'K4 Sm2 Nb2 O12'
_cell_volume   314.94298709
_cell_formula_units_Z   2
loop_
 _symmetry_equiv_pos_site_id
 _symmetry_equiv_pos_as_xyz
  1  'x, y, z'
loop_
 _atom_site_type_symbol
 _atom_site_label
 _atom_site_symmetry_multiplicity
 _atom_site_fract_x
 _atom_site_fract_y
 _atom_site_fract_z
 _atom_site_occupancy
  K  K0  1  0.49999998  0.00000000  0.75832003  1
  K  K1  1  0.00000000  0.49999998  0.25832001  1
  K  K2  1  0.49999998  0.00000000  0.25832001  1
  K  K3  1  0.00000000  0.49999998  0.75832003  1
  Sm  Sm4  1  0.49999998  0.49999998  0.50543002  1
  Sm  Sm5  1  0.00000000  0.00000000  0.00543000  1
  Nb  Nb6  1  0.49999998  0.49999998  0.02257700  1
  Nb  Nb7  1  0.00000000  0.00000000  0.52257702  1
  O  O8  1  0.49999998  0.49999998  0.22761601  1
  O  O9  1  0.71238998  0.28760999  0.98077904  1
  O  O10  1  0.21238999  0.21238999  0.48077902  1
  O  O11  1  0.00000000  0.00000000  0.72761603  1
  O  O12  1  0.78760997  0.78760997  0.48077902  1
  O  O13  1  0.28760999  0.71238998  0.98077904  1
  O  O14  1  0.23616799  0.76383197  0.50322502  1
  O  O15  1  0.49999998  0.49999998  0.76563203  1
  O  O16  1  0.26383199  0.26383199  0.00322500  1
  O  O17  1  0.00000000  0.00000000  0.26563201  1
  O  O18  1  0.73616797  0.73616797  0.00322500  1
  O  O19  1  0.76383197  0.23616799  0.50322502  1
