# generated using pymatgen
data_LiLa(W3O4)2
_symmetry_space_group_name_H-M   'P 1'
_cell_length_a   5.78403997
_cell_length_b   5.78403997
_cell_length_c   5.78403997
_cell_angle_alpha   90.00000000
_cell_angle_beta   90.00000000
_cell_angle_gamma   90.00000000
_symmetry_Int_Tables_number   1
_chemical_formula_structural   LiLa(W3O4)2
_chemical_formula_sum   'Li1 La1 W6 O8'
_cell_volume   193.50574230
_cell_formula_units_Z   1
loop_
 _symmetry_equiv_pos_site_id
 _symmetry_equiv_pos_as_xyz
  1  'x, y, z'
loop_
 _atom_site_type_symbol
 _atom_site_label
 _atom_site_symmetry_multiplicity
 _atom_site_fract_x
 _atom_site_fract_y
 _atom_site_fract_z
 _atom_site_occupancy
  La  La0  1  0.50000000  0.50000000  0.50000000  1
  Li  Li1  1  0.00000000  0.00000000  0.00000000  1
  W  W2  1  0.25126300  0.00000000  0.50000000  1
  W  W3  1  0.74873700  0.00000000  0.50000000  1
  W  W4  1  0.50000000  0.25126300  0.00000000  1
  W  W5  1  0.50000000  0.74873700  -0.00000000  1
  W  W6  1  -0.00000000  0.50000000  0.25126300  1
  W  W7  1  -0.00000000  0.50000000  0.74873700  1
  O  O8  1  0.24300200  0.24300200  0.24300200  1
  O  O9  1  0.75699800  0.75699800  0.75699800  1
  O  O10  1  0.75699800  0.75699800  0.24300200  1
  O  O11  1  0.75699800  0.24300200  0.75699800  1
  O  O12  1  0.24300200  0.24300200  0.75699800  1
  O  O13  1  0.24300200  0.75699800  0.24300200  1
  O  O14  1  0.24300200  0.75699800  0.75699800  1
  O  O15  1  0.75699800  0.24300200  0.24300200  1
