# generated using pymatgen
data_Ba4Sb2Se4O9
_symmetry_space_group_name_H-M   'P 1'
_cell_length_a   3.80440760
_cell_length_b   7.08035755
_cell_length_c   14.94880676
_cell_angle_alpha   79.67169189
_cell_angle_beta   82.68941498
_cell_angle_gamma   74.41549683
_symmetry_Int_Tables_number   1
_chemical_formula_structural   Ba4Sb2Se4O9
_chemical_formula_sum   'Ba4 Sb2 Se4 O9'
_cell_volume   380.24973890
_cell_formula_units_Z   1
loop_
 _symmetry_equiv_pos_site_id
 _symmetry_equiv_pos_as_xyz
  1  'x, y, z'
loop_
 _atom_site_type_symbol
 _atom_site_label
 _atom_site_symmetry_multiplicity
 _atom_site_fract_x
 _atom_site_fract_y
 _atom_site_fract_z
 _atom_site_occupancy
  Ba  Ba0  1  0.71894638  0.64901728  0.91099769  1
  Ba  Ba1  1  0.27896128  0.35098273  0.08900232  1
  Ba  Ba2  1  0.45586777  0.25855026  0.83032929  1
  Ba  Ba3  1  0.54474735  0.74144975  0.16967072  1
  Sb  Sb4  1  0.64293352  0.14450942  0.56966718  1
  Sb  Sb5  1  0.35711019  0.85549059  0.43033283  1
  Se  Se6  1  0.87736367  0.59247458  0.65265158  1
  Se  Se7  1  0.12248977  0.40752543  0.34734843  1
  Se  Se8  1  0.17251928  0.92353136  0.73365215  1
  O  O9  1  0.82970270  0.07646865  0.26634786  1
  Se  Se10  1  0.95545949  0.00000000  -0.00000000  1
  O  O11  1  0.88091417  0.43628648  0.79847131  1
  O  O12  1  0.11567195  0.56371353  0.20152870  1
  O  O13  1  0.47031798  0.42725007  0.63223842  1
  O  O14  1  0.52980648  0.57274994  0.36776159  1
  O  O15  1  0.16587112  0.18327854  0.48543174  1
  O  O16  1  0.83458149  0.81672147  0.51456826  1
  O  O17  1  0.29363907  0.47186391  0.93429458  1
  O  O18  1  0.69979756  0.52813611  0.06570543  1
