# generated using pymatgen
data_Ba2TiTlSe5
_symmetry_space_group_name_H-M   'P 1'
_cell_length_a   6.10972118
_cell_length_b   6.10972118
_cell_length_c   14.00481606
_cell_angle_alpha   90.00000000
_cell_angle_beta   90.00000000
_cell_angle_gamma   90.00000000
_symmetry_Int_Tables_number   1
_chemical_formula_structural   Ba2TiTlSe5
_chemical_formula_sum   'Ba4 Ti2 Tl2 Se10'
_cell_volume   522.78147826
_cell_formula_units_Z   2
loop_
 _symmetry_equiv_pos_site_id
 _symmetry_equiv_pos_as_xyz
  1  'x, y, z'
loop_
 _atom_site_type_symbol
 _atom_site_label
 _atom_site_symmetry_multiplicity
 _atom_site_fract_x
 _atom_site_fract_y
 _atom_site_fract_z
 _atom_site_occupancy
  Ba  Ba0  1  0.76463798  0.76463798  0.00000000  1
  Ba  Ba1  1  0.23536199  0.76463798  0.50000000  1
  Ba  Ba2  1  0.76463798  0.23536199  0.50000000  1
  Ba  Ba3  1  0.23536199  0.23536199  0.00000000  1
  Ti  Ti4  1  0.49999998  0.49999998  0.75000000  1
  Ti  Ti5  1  0.49999998  0.49999998  0.25000000  1
  Tl  Tl6  1  -0.00000000  0.49999998  0.75000000  1
  Tl  Tl7  1  0.49999998  0.00000000  0.75000000  1
  Se  Se8  1  -0.00000000  0.49999998  0.25000000  1
  Se  Se9  1  0.49999998  0.00000000  0.25000000  1
  Se  Se10  1  0.71349598  0.71349598  0.65114600  1
  Se  Se11  1  0.28650399  0.28650399  0.65114600  1
  Se  Se12  1  0.71349598  0.71349598  0.34885400  1
  Se  Se13  1  0.71349598  0.28650399  0.15114600  1
  Se  Se14  1  0.28650399  0.71349598  0.84885400  1
  Se  Se15  1  0.28650399  0.28650399  0.34885400  1
  Se  Se16  1  0.28650399  0.71349598  0.15114600  1
  Se  Se17  1  0.71349598  0.28650399  0.84885400  1
