# generated using pymatgen
data_Nd(BOs)4
_symmetry_space_group_name_H-M   'P 1'
_cell_length_a   3.98818803
_cell_length_b   7.72200203
_cell_length_c   7.72200203
_cell_angle_alpha   90.00000000
_cell_angle_beta   90.00000000
_cell_angle_gamma   90.00000000
_symmetry_Int_Tables_number   1
_chemical_formula_structural   Nd(BOs)4
_chemical_formula_sum   'Nd2 B8 Os8'
_cell_volume   237.81292159
_cell_formula_units_Z   2
loop_
 _symmetry_equiv_pos_site_id
 _symmetry_equiv_pos_as_xyz
  1  'x, y, z'
loop_
 _atom_site_type_symbol
 _atom_site_label
 _atom_site_symmetry_multiplicity
 _atom_site_fract_x
 _atom_site_fract_y
 _atom_site_fract_z
 _atom_site_occupancy
  Nd  Nd0  1  0.25000000  0.25000000  0.25000000  1
  Nd  Nd1  1  0.74999999  0.75000000  0.75000000  1
  B  B2  1  0.35786500  0.90852300  0.02950500  1
  B  B3  1  0.35786500  0.59147700  0.47049500  1
  B  B4  1  0.85786499  0.52950500  0.09147700  1
  B  B5  1  0.85786499  0.97049500  0.40852300  1
  B  B6  1  0.64213500  0.09147700  0.97049500  1
  B  B7  1  0.64213500  0.40852300  0.52950500  1
  B  B8  1  0.14213500  0.47049500  0.90852300  1
  B  B9  1  0.14213500  0.02950500  0.59147700  1
  Os  Os10  1  0.14173500  0.40896000  0.64076400  1
  Os  Os11  1  0.14173500  0.09104000  0.85923600  1
  Os  Os12  1  0.64173500  0.14076400  0.59104000  1
  Os  Os13  1  0.64173500  0.35923600  0.90896000  1
  Os  Os14  1  0.85826499  0.59104000  0.35923600  1
  Os  Os15  1  0.85826499  0.90896000  0.14076400  1
  Os  Os16  1  0.35826500  0.85923600  0.40896000  1
  Os  Os17  1  0.35826500  0.64076400  0.09104000  1
