# generated using pymatgen
data_Li
_symmetry_space_group_name_H-M   'P 1'
_cell_length_a   5.55617380
_cell_length_b   5.90329266
_cell_length_c   5.90329266
_cell_angle_alpha   77.20497131
_cell_angle_beta   61.92677689
_cell_angle_gamma   61.92677689
_symmetry_Int_Tables_number   1
_chemical_formula_structural   Li
_chemical_formula_sum   Li7
_cell_volume   150.74508927
_cell_formula_units_Z   7
loop_
 _symmetry_equiv_pos_site_id
 _symmetry_equiv_pos_as_xyz
  1  'x, y, z'
loop_
 _atom_site_type_symbol
 _atom_site_label
 _atom_site_symmetry_multiplicity
 _atom_site_fract_x
 _atom_site_fract_y
 _atom_site_fract_z
 _atom_site_occupancy
  Li  Li0  1  0.00000000  0.00000000  0.00000000  1
  Li  Li1  1  0.75000000  0.50000002  0.50000004  1
  Li  Li2  1  0.69379503  0.00000000  0.61241001  1
  Li  Li3  1  0.30620501  0.00000000  0.38759001  1
  Li  Li4  1  0.30620599  0.38758902  0.00000002  1
  Li  Li5  1  0.69379399  0.61241103  0.00000003  1
  Li  Li6  1  0.24999998  0.50000002  0.50000005  1
