# generated using pymatgen
data_Ba2TlSb5
_symmetry_space_group_name_H-M   'P 1'
_cell_length_a   8.57038975
_cell_length_b   9.78464890
_cell_length_c   8.57038975
_cell_angle_alpha   64.02679443
_cell_angle_beta   90.00000000
_cell_angle_gamma   115.97320557
_symmetry_Int_Tables_number   1
_chemical_formula_structural   Ba2TlSb5
_chemical_formula_sum   'Ba4 Tl2 Sb10'
_cell_volume   564.25716703
_cell_formula_units_Z   2
loop_
 _symmetry_equiv_pos_site_id
 _symmetry_equiv_pos_as_xyz
  1  'x, y, z'
loop_
 _atom_site_type_symbol
 _atom_site_label
 _atom_site_symmetry_multiplicity
 _atom_site_fract_x
 _atom_site_fract_y
 _atom_site_fract_z
 _atom_site_occupancy
  Ba  Ba0  1  0.75000000  0.50000000  0.25000003  1
  Ba  Ba1  1  0.24999998  0.50000000  0.75000004  1
  Ba  Ba2  1  0.66722602  0.00000000  0.83277402  1
  Ba  Ba3  1  0.16722596  0.99999901  0.66722706  1
  Tl  Tl4  1  0.33277401  0.00000000  0.16722600  1
  Tl  Tl5  1  0.83277402  0.00000100  0.33277301  1
  Sb  Sb6  1  0.21506897  0.74046001  0.97460906  1
  Sb  Sb7  1  0.47461000  0.25954200  0.71506803  1
  Sb  Sb8  1  0.50000001  0.00000000  0.50000001  1
  Sb  Sb9  1  0.00000000  0.00000000  0.00000000  1
  Sb  Sb10  1  0.78493201  0.25954200  0.02539001  1
  Sb  Sb11  1  0.28493200  0.25954200  0.21506802  1
  Sb  Sb12  1  0.97461002  0.25954200  0.52539003  1
  Sb  Sb13  1  0.71506799  0.74045801  0.78493206  1
  Sb  Sb14  1  0.52538998  0.74045801  0.28493204  1
  Sb  Sb15  1  0.02538997  0.74045901  0.47461005  1
