# generated using pymatgen
data_Li5TiO2
_symmetry_space_group_name_H-M   'P 1'
_cell_length_a   3.41561699
_cell_length_b   5.02972984
_cell_length_c   9.51781368
_cell_angle_alpha   95.76699066
_cell_angle_beta   90.00000000
_cell_angle_gamma   90.00000000
_symmetry_Int_Tables_number   1
_chemical_formula_structural   Li5TiO2
_chemical_formula_sum   'Li5 Ti1 O2'
_cell_volume   162.68494876
_cell_formula_units_Z   1
loop_
 _symmetry_equiv_pos_site_id
 _symmetry_equiv_pos_as_xyz
  1  'x, y, z'
loop_
 _atom_site_type_symbol
 _atom_site_label
 _atom_site_symmetry_multiplicity
 _atom_site_fract_x
 _atom_site_fract_y
 _atom_site_fract_z
 _atom_site_occupancy
  Li  Li0  1  0.75000000  0.27702801  0.64135502  1
  Li  Li1  1  0.25000000  0.72297203  0.35864503  1
  Li  Li2  1  0.75000000  0.89574803  0.19956503  1
  Li  Li3  1  0.25000000  0.10425200  0.80043502  1
  O  O4  1  0.25000000  0.24115101  0.45332701  1
  Ti  Ti5  1  0.75000000  0.75884903  0.54667303  1
  O  O6  1  0.25000000  0.51018602  0.80064403  1
  Li  Li7  1  0.75000000  0.48981402  0.19935602  1
