# generated using pymatgen
data_LuSnIr
_symmetry_space_group_name_H-M   'P 1'
_cell_length_a   4.19694710
_cell_length_b   7.22632408
_cell_length_c   7.22632313
_cell_angle_alpha   120.00000763
_cell_angle_beta   90.00000000
_cell_angle_gamma   90.00000000
_symmetry_Int_Tables_number   1
_chemical_formula_structural   LuSnIr
_chemical_formula_sum   'Lu3 Sn3 Ir3'
_cell_volume   189.80117874
_cell_formula_units_Z   3
loop_
 _symmetry_equiv_pos_site_id
 _symmetry_equiv_pos_as_xyz
  1  'x, y, z'
loop_
 _atom_site_type_symbol
 _atom_site_label
 _atom_site_symmetry_multiplicity
 _atom_site_fract_x
 _atom_site_fract_y
 _atom_site_fract_z
 _atom_site_occupancy
  Lu  Lu0  1  -0.00000000  0.41387701  0.41387702  1
  Lu  Lu1  1  0.99999998  0.00000000  0.58612299  1
  Lu  Lu2  1  -0.00000000  0.58612301  0.00000004  1
  Sn  Sn3  1  0.49999999  0.74729501  0.74729503  1
  Sn  Sn4  1  0.49999999  0.00000000  0.25270500  1
  Sn  Sn5  1  0.49999999  0.25270501  0.00000002  1
  Ir  Ir6  1  0.49999999  0.66666668  0.33333337  1
  Ir  Ir7  1  0.49999999  0.33333334  0.66666668  1
  Ir  Ir8  1  0.00000000  0.00000000  0.00000000  1
