# generated using pymatgen
data_Zr4ReTc7
_symmetry_space_group_name_H-M   'P 1'
_cell_length_a   5.30341578
_cell_length_b   5.30341578
_cell_length_c   8.23753548
_cell_angle_alpha   90.00000000
_cell_angle_beta   90.00000000
_cell_angle_gamma   120.00000000
_symmetry_Int_Tables_number   1
_chemical_formula_structural   Zr4ReTc7
_chemical_formula_sum   'Zr4 Tc7 Re1'
_cell_volume   200.65005445
_cell_formula_units_Z   1
loop_
 _symmetry_equiv_pos_site_id
 _symmetry_equiv_pos_as_xyz
  1  'x, y, z'
loop_
 _atom_site_type_symbol
 _atom_site_label
 _atom_site_symmetry_multiplicity
 _atom_site_fract_x
 _atom_site_fract_y
 _atom_site_fract_z
 _atom_site_occupancy
  Zr  Zr0  1  0.66666669  0.33333335  0.55957497  1
  Zr  Zr1  1  0.33333335  0.66666670  0.44042497  1
  Zr  Zr2  1  0.33333335  0.66666670  0.05957500  1
  Zr  Zr3  1  0.66666669  0.33333335  0.94042495  1
  Tc  Tc4  1  0.16943601  0.33887202  0.74999996  1
  Tc  Tc5  1  0.16943601  0.83056504  0.74999996  1
  Tc  Tc6  1  0.66112903  0.83056504  0.74999996  1
  Tc  Tc7  1  0.83056404  0.66112803  0.24999999  1
  Tc  Tc8  1  0.83056403  0.16943501  0.24999999  1
  Tc  Tc9  1  0.33887101  0.16943501  0.24999999  1
  Tc  Tc10  1  0.00000000  0.00000000  0.49999997  1
  Re  Re11  1  0.00000000  0.00000000  0.00000000  1
