# generated using pymatgen
data_Ta5Mo2
_symmetry_space_group_name_H-M   'P 1'
_cell_length_a   5.53804731
_cell_length_b   5.53804731
_cell_length_c   5.62144756
_cell_angle_alpha   60.48958588
_cell_angle_beta   60.48958588
_cell_angle_gamma   60.00001144
_symmetry_Int_Tables_number   1
_chemical_formula_structural   Ta5Mo2
_chemical_formula_sum   'Ta5 Mo2'
_cell_volume   122.80640454
_cell_formula_units_Z   1
loop_
 _symmetry_equiv_pos_site_id
 _symmetry_equiv_pos_as_xyz
  1  'x, y, z'
loop_
 _atom_site_type_symbol
 _atom_site_label
 _atom_site_symmetry_multiplicity
 _atom_site_fract_x
 _atom_site_fract_y
 _atom_site_fract_z
 _atom_site_occupancy
  Ta  Ta0  1  0.00000000  0.00000000  0.00000000  1
  Ta  Ta1  1  0.50000000  0.49999998  0.50000000  1
  Ta  Ta2  1  0.00000000  0.00000000  0.49999999  1
  Ta  Ta3  1  0.00000002  0.49999998  0.49999999  1
  Ta  Ta4  1  0.49999999  0.00000000  0.50000000  1
  Mo  Mo5  1  0.72761801  0.72761797  0.81714600  1
  Mo  Mo6  1  0.27238200  0.27238199  0.18285400  1
