# generated using pymatgen
data_PrSi2
_symmetry_space_group_name_H-M   'P 1'
_cell_length_a   4.34806585
_cell_length_b   4.34806585
_cell_length_c   7.55717993
_cell_angle_alpha   106.71897888
_cell_angle_beta   106.71897888
_cell_angle_gamma   90.00000000
_symmetry_Int_Tables_number   1
_chemical_formula_structural   PrSi2
_chemical_formula_sum   'Pr2 Si4'
_cell_volume   130.51509190
_cell_formula_units_Z   2
loop_
 _symmetry_equiv_pos_site_id
 _symmetry_equiv_pos_as_xyz
  1  'x, y, z'
loop_
 _atom_site_type_symbol
 _atom_site_label
 _atom_site_symmetry_multiplicity
 _atom_site_fract_x
 _atom_site_fract_y
 _atom_site_fract_z
 _atom_site_occupancy
  Pr  Pr0  1  0.75000001  0.25000001  0.50000000  1
  Pr  Pr1  1  0.00000000  0.00000000  0.00000000  1
  Si  Si2  1  0.16670999  0.66671002  0.33337666  1
  Si  Si3  1  0.58329000  0.58329001  0.16657998  1
  Si  Si4  1  0.33328999  0.83329002  0.66657999  1
  Si  Si5  1  0.41671000  0.41671001  0.83342001  1
