# generated using pymatgen
data_ZrAlNi
_symmetry_space_group_name_H-M   'P 1'
_cell_length_a   5.30422115
_cell_length_b   5.30422115
_cell_length_c   8.21768188
_cell_angle_alpha   90.00000000
_cell_angle_beta   90.00000000
_cell_angle_gamma   119.35556030
_symmetry_Int_Tables_number   1
_chemical_formula_structural   ZrAlNi
_chemical_formula_sum   'Zr4 Al4 Ni4'
_cell_volume   201.51480316
_cell_formula_units_Z   4
loop_
 _symmetry_equiv_pos_site_id
 _symmetry_equiv_pos_as_xyz
  1  'x, y, z'
loop_
 _atom_site_type_symbol
 _atom_site_label
 _atom_site_symmetry_multiplicity
 _atom_site_fract_x
 _atom_site_fract_y
 _atom_site_fract_z
 _atom_site_occupancy
  Zr  Zr0  1  0.66593602  0.33406401  0.78982901  1
  Zr  Zr1  1  0.33032600  0.66967402  0.67959401  1
  Zr  Zr2  1  0.33032600  0.66967402  0.32040600  1
  Zr  Zr3  1  0.66593602  0.33406401  0.21017100  1
  Al  Al4  1  0.00449498  0.99550503  0.74391401  1
  Al  Al5  1  0.00449498  0.99550503  0.25608600  1
  Al  Al6  1  0.65490801  0.82927503  -0.00000000  1
  Al  Al7  1  0.17072500  0.34509201  1.00000001  1
  Ni  Ni8  1  0.16989299  0.83010703  -0.00000000  1
  Ni  Ni9  1  0.33841001  0.16870201  0.50000001  1
  Ni  Ni10  1  0.83129802  0.66159002  0.50000001  1
  Ni  Ni11  1  0.83324203  0.16675801  0.50000001  1
