# generated using pymatgen
data_ScNi5
_symmetry_space_group_name_H-M   'P 1'
_cell_length_a   4.72144985
_cell_length_b   4.72239447
_cell_length_c   7.81197405
_cell_angle_alpha   89.99833679
_cell_angle_beta   90.00000000
_cell_angle_gamma   119.99338531
_symmetry_Int_Tables_number   1
_chemical_formula_structural   ScNi5
_chemical_formula_sum   'Sc2 Ni10'
_cell_volume   150.85440961
_cell_formula_units_Z   2
loop_
 _symmetry_equiv_pos_site_id
 _symmetry_equiv_pos_as_xyz
  1  'x, y, z'
loop_
 _atom_site_type_symbol
 _atom_site_label
 _atom_site_symmetry_multiplicity
 _atom_site_fract_x
 _atom_site_fract_y
 _atom_site_fract_z
 _atom_site_occupancy
  Sc  Sc0  1  0.33333334  0.66672431  0.42975300  1
  Sc  Sc1  1  0.66660902  0.33327566  0.57024700  1
  Ni  Ni2  1  0.66671002  0.33337666  0.93770499  1
  Ni  Ni3  1  0.33333334  0.66662331  0.06229500  1
  Ni  Ni4  1  0.00000000  0.00000000  0.50000000  1
  Ni  Ni5  1  0.00000000  0.00000000  0.00000000  1
  Ni  Ni6  1  0.82973303  0.17034799  0.24825500  1
  Ni  Ni7  1  0.82964502  0.65928998  0.24818400  1
  Ni  Ni8  1  0.34061501  0.17034799  0.24825500  1
  Ni  Ni9  1  0.17026700  0.82965197  0.75174499  1
  Ni  Ni10  1  0.17035500  0.34070999  0.75181599  1
  Ni  Ni11  1  0.65938502  0.82965197  0.75174499  1
