# generated using pymatgen
data_Na2Re2N3
_symmetry_space_group_name_H-M   'P 1'
_cell_length_a   3.38369012
_cell_length_b   5.49667740
_cell_length_c   5.58001423
_cell_angle_alpha   104.98471069
_cell_angle_beta   90.00000000
_cell_angle_gamma   107.92634583
_symmetry_Int_Tables_number   1
_chemical_formula_structural   Na2Re2N3
_chemical_formula_sum   'Na2 Re2 N3'
_cell_volume   95.02854052
_cell_formula_units_Z   1
loop_
 _symmetry_equiv_pos_site_id
 _symmetry_equiv_pos_as_xyz
  1  'x, y, z'
loop_
 _atom_site_type_symbol
 _atom_site_label
 _atom_site_symmetry_multiplicity
 _atom_site_fract_x
 _atom_site_fract_y
 _atom_site_fract_z
 _atom_site_occupancy
  Na  Na0  1  0.60577399  0.21154800  0.31764300  1
  Na  Na1  1  0.39422601  0.78845199  0.68235700  1
  Re  Re2  1  0.84332199  0.68664399  0.10887800  1
  Re  Re3  1  0.15667801  0.31335600  0.89112201  1
  N  N4  1  0.28595601  0.57191199  0.22841200  1
  N  N5  1  0.71404399  0.42808799  0.77158801  1
  N  N6  1  0.00000000  0.00000000  0.00000000  1
