# generated using pymatgen
data_Cu2Se3
_symmetry_space_group_name_H-M   'P 1'
_cell_length_a   6.37877369
_cell_length_b   6.40635872
_cell_length_c   6.40635872
_cell_angle_alpha   60.01847839
_cell_angle_beta   80.41033173
_cell_angle_gamma   99.58966827
_symmetry_Int_Tables_number   1
_chemical_formula_structural   Cu2Se3
_chemical_formula_sum   'Cu4 Se6'
_cell_volume   213.81329301
_cell_formula_units_Z   2
loop_
 _symmetry_equiv_pos_site_id
 _symmetry_equiv_pos_as_xyz
  1  'x, y, z'
loop_
 _atom_site_type_symbol
 _atom_site_label
 _atom_site_symmetry_multiplicity
 _atom_site_fract_x
 _atom_site_fract_y
 _atom_site_fract_z
 _atom_site_occupancy
  Cu  Cu0  1  0.50000007  0.66616603  0.66616600  1
  Cu  Cu1  1  0.50000004  0.33383401  0.33383399  1
  Cu  Cu2  1  0.50000002  0.00000000  -0.00000002  1
  Cu  Cu3  1  0.00000004  0.50000002  0.50000002  1
  Se  Se4  1  0.74329206  0.41501602  0.90849199  1
  Se  Se5  1  0.74329204  0.09150800  0.58498398  1
  Se  Se6  1  0.74563608  0.73860603  0.26139397  1
  Se  Se7  1  0.25670805  0.58498402  0.09150799  1
  Se  Se8  1  0.25436403  0.26139301  0.73860601  1
  Se  Se9  1  0.25670808  0.90849204  0.41501600  1
