# generated using pymatgen
data_BaCrO3
_symmetry_space_group_name_H-M   'P 1'
_cell_length_a   4.74422216
_cell_length_b   5.62814188
_cell_length_c   5.62814188
_cell_angle_alpha   60.00000000
_cell_angle_beta   90.00000000
_cell_angle_gamma   90.00000000
_symmetry_Int_Tables_number   1
_chemical_formula_structural   BaCrO3
_chemical_formula_sum   'Ba2 Cr2 O6'
_cell_volume   130.14447144
_cell_formula_units_Z   2
loop_
 _symmetry_equiv_pos_site_id
 _symmetry_equiv_pos_as_xyz
  1  'x, y, z'
loop_
 _atom_site_type_symbol
 _atom_site_label
 _atom_site_symmetry_multiplicity
 _atom_site_fract_x
 _atom_site_fract_y
 _atom_site_fract_z
 _atom_site_occupancy
  Ba  Ba0  1  0.00000000  0.00000000  0.00000000  1
  Ba  Ba1  1  0.49999998  0.33333334  0.33333334  1
  Cr  Cr2  1  0.75039497  0.66666668  0.66666668  1
  Cr  Cr3  1  0.24960499  0.66666668  0.66666668  1
  O  O4  1  0.49999998  0.81747402  0.81747402  1
  O  O5  1  0.49999998  0.81747402  0.36505201  1
  O  O6  1  0.49999998  0.36505201  0.81747402  1
  O  O7  1  0.99999997  0.51524901  0.51524901  1
  O  O8  1  0.00000000  0.51524901  0.96950202  1
  O  O9  1  0.00000000  0.96950202  0.51524901  1
