# generated using pymatgen
data_Sm(Al2Fe)4
_symmetry_space_group_name_H-M   'P 1'
_cell_length_a   5.02886391
_cell_length_b   6.62755156
_cell_length_c   6.62755156
_cell_angle_alpha   81.72425079
_cell_angle_beta   67.70404816
_cell_angle_gamma   67.70404816
_symmetry_Int_Tables_number   1
_chemical_formula_structural   Sm(Al2Fe)4
_chemical_formula_sum   'Sm1 Al8 Fe4'
_cell_volume   189.09569901
_cell_formula_units_Z   1
loop_
 _symmetry_equiv_pos_site_id
 _symmetry_equiv_pos_as_xyz
  1  'x, y, z'
loop_
 _atom_site_type_symbol
 _atom_site_label
 _atom_site_symmetry_multiplicity
 _atom_site_fract_x
 _atom_site_fract_y
 _atom_site_fract_z
 _atom_site_occupancy
  Sm  Sm0  1  0.00000000  0.00000000  0.00000000  1
  Al  Al1  1  0.66216601  0.33783399  0.33783400  1
  Al  Al2  1  0.33783401  0.66216598  0.66216599  1
  Al  Al3  1  1.00000002  0.66216598  0.33783400  1
  Al  Al4  1  1.00000002  0.33783399  0.66216599  1
  Al  Al5  1  0.71936401  0.78063598  0.78063599  1
  Al  Al6  1  0.28063601  0.21936399  0.21936400  1
  Al  Al7  1  0.50000001  0.21936399  0.78063599  1
  Al  Al8  1  0.50000001  0.78063598  0.21936400  1
  Fe  Fe9  1  0.50000001  0.49999999  0.00000001  1
  Fe  Fe10  1  1.00000002  0.49999999  0.00000001  1
  Fe  Fe11  1  0.50000001  0.00000000  0.49999999  1
  Fe  Fe12  1  0.00000000  0.00000000  0.49999999  1
