# generated using pymatgen
data_Cr6CoP8
_symmetry_space_group_name_H-M   'P 1'
_cell_length_a   5.47422791
_cell_length_b   6.71451712
_cell_length_c   6.71451712
_cell_angle_alpha   80.43471527
_cell_angle_beta   65.94325256
_cell_angle_gamma   65.94325256
_symmetry_Int_Tables_number   1
_chemical_formula_structural   Cr6CoP8
_chemical_formula_sum   'Cr6 Co1 P8'
_cell_volume   205.79235615
_cell_formula_units_Z   1
loop_
 _symmetry_equiv_pos_site_id
 _symmetry_equiv_pos_as_xyz
  1  'x, y, z'
loop_
 _atom_site_type_symbol
 _atom_site_label
 _atom_site_symmetry_multiplicity
 _atom_site_fract_x
 _atom_site_fract_y
 _atom_site_fract_z
 _atom_site_occupancy
  Cr  Cr0  1  0.60058200  0.19851600  0.60032001  1
  Cr  Cr1  1  0.20090198  0.39968000  0.19851603  1
  Cr  Cr2  1  0.79909798  0.60032001  0.80148404  1
  Cr  Cr3  1  0.39941795  0.80148401  0.39968006  1
  Cr  Cr4  1  0.00000000  0.00000000  0.00000000  1
  Co  Co5  1  0.24999997  0.50000000  0.50000004  1
  Cr  Cr6  1  0.84723697  0.69498601  0.10189005  1
  P  P7  1  0.45777695  0.89811001  0.69498507  1
  P  P8  1  0.05087299  0.10189000  0.30501401  1
  P  P9  1  0.64411400  0.30501400  0.89810902  1
  P  P10  1  0.15276298  0.30501400  0.89811002  1
  P  P11  1  0.74999998  0.50000000  0.50000003  1
  P  P12  1  0.35588596  0.69498601  0.10189105  1
  P  P13  1  0.94912696  0.89811001  0.69498606  1
  P  P14  1  0.54222301  0.10189000  0.30501500  1
