# generated using pymatgen
data_Sr2Cu3AgO6
_symmetry_space_group_name_H-M   'P 1'
_cell_length_a   3.56335092
_cell_length_b   3.97483397
_cell_length_c   11.57233238
_cell_angle_alpha   90.00000000
_cell_angle_beta   90.00000000
_cell_angle_gamma   90.00000000
_symmetry_Int_Tables_number   1
_chemical_formula_structural   Sr2Cu3AgO6
_chemical_formula_sum   'Sr2 Cu3 Ag1 O6'
_cell_volume   163.90737109
_cell_formula_units_Z   1
loop_
 _symmetry_equiv_pos_site_id
 _symmetry_equiv_pos_as_xyz
  1  'x, y, z'
loop_
 _atom_site_type_symbol
 _atom_site_label
 _atom_site_symmetry_multiplicity
 _atom_site_fract_x
 _atom_site_fract_y
 _atom_site_fract_z
 _atom_site_occupancy
  Sr  Sr0  1  0.48314201  0.50000000  0.49999998  1
  Sr  Sr1  1  0.51685801  0.00000000  0.00000000  1
  Ag  Ag2  1  0.01244000  0.50000000  0.83498697  1
  Cu  Cu3  1  0.98756002  0.00000000  0.66501298  1
  Cu  Cu4  1  0.01244000  0.50000000  0.16501299  1
  Cu  Cu5  1  0.98756002  0.00000000  0.33498699  1
  O  O6  1  0.96766802  0.00000000  0.49999998  1
  O  O7  1  0.03233200  0.50000000  0.00000000  1
  O  O8  1  0.99109702  0.50000000  0.32977399  1
  O  O9  1  0.99109702  0.50000000  0.67022598  1
  O  O10  1  0.00890300  0.00000000  0.82977397  1
  O  O11  1  0.00890300  0.00000000  0.17022599  1
