# generated using pymatgen
data_Ba2SrEu
_symmetry_space_group_name_H-M   'P 1'
_cell_length_a   7.06109381
_cell_length_b   8.68812561
_cell_length_c   8.68812656
_cell_angle_alpha   60.00000000
_cell_angle_beta   90.00000000
_cell_angle_gamma   90.00000000
_symmetry_Int_Tables_number   1
_chemical_formula_structural   Ba2SrEu
_chemical_formula_sum   'Ba4 Sr2 Eu2'
_cell_volume   461.58835400
_cell_formula_units_Z   2
loop_
 _symmetry_equiv_pos_site_id
 _symmetry_equiv_pos_as_xyz
  1  'x, y, z'
loop_
 _atom_site_type_symbol
 _atom_site_label
 _atom_site_symmetry_multiplicity
 _atom_site_fract_x
 _atom_site_fract_y
 _atom_site_fract_z
 _atom_site_occupancy
  Ba  Ba0  1  0.75000002  0.66437103  0.16781398  1
  Ba  Ba1  1  0.75000002  0.16781501  0.16781399  1
  Ba  Ba2  1  0.75000002  0.16781501  0.66436997  1
  Ba  Ba3  1  0.25000001  0.33562902  0.83218596  1
  Sr  Sr4  1  0.25000001  0.83218504  0.83218595  1
  Sr  Sr5  1  0.25000001  0.83218504  0.33562997  1
  Eu  Eu6  1  0.25000001  0.33333335  0.33333331  1
  Eu  Eu7  1  0.75000002  0.66666670  0.66666663  1
