# generated using pymatgen
data_Ho2GaNi3
_symmetry_space_group_name_H-M   'P 1'
_cell_length_a   4.35017204
_cell_length_b   5.54734325
_cell_length_c   5.54734325
_cell_angle_alpha   78.38646698
_cell_angle_beta   66.91507721
_cell_angle_gamma   66.91507721
_symmetry_Int_Tables_number   1
_chemical_formula_structural   Ho2GaNi3
_chemical_formula_sum   'Ho2 Ga1 Ni3'
_cell_volume   113.10813281
_cell_formula_units_Z   1
loop_
 _symmetry_equiv_pos_site_id
 _symmetry_equiv_pos_as_xyz
  1  'x, y, z'
loop_
 _atom_site_type_symbol
 _atom_site_label
 _atom_site_symmetry_multiplicity
 _atom_site_fract_x
 _atom_site_fract_y
 _atom_site_fract_z
 _atom_site_occupancy
  Ho  Ho0  1  0.46217902  0.78782103  0.28782098  1
  Ho  Ho1  1  0.53782100  0.21217901  0.71217902  1
  Ga  Ga2  1  0.83500000  0.21578601  0.11421300  1
  Ni  Ni3  1  0.16500003  0.78421403  0.88578700  1
  Ni  Ni4  1  0.16499901  0.38578801  0.28421399  1
  Ni  Ni5  1  0.83500101  0.61421202  0.71578600  1
