# generated using pymatgen
data_Hf(ReC2)3
_symmetry_space_group_name_H-M   'P 1'
_cell_length_a   3.23815298
_cell_length_b   6.16322803
_cell_length_c   6.16322803
_cell_angle_alpha   108.79937744
_cell_angle_beta   90.00000000
_cell_angle_gamma   90.00000000
_symmetry_Int_Tables_number   1
_chemical_formula_structural   Hf(ReC2)3
_chemical_formula_sum   'Hf1 Re3 C6'
_cell_volume   116.44062874
_cell_formula_units_Z   1
loop_
 _symmetry_equiv_pos_site_id
 _symmetry_equiv_pos_as_xyz
  1  'x, y, z'
loop_
 _atom_site_type_symbol
 _atom_site_label
 _atom_site_symmetry_multiplicity
 _atom_site_fract_x
 _atom_site_fract_y
 _atom_site_fract_z
 _atom_site_occupancy
  Hf  Hf0  1  -0.00000000  0.50000002  0.50000003  1
  Re  Re1  1  0.50000000  0.00000000  0.50000001  1
  Re  Re2  1  0.00000000  0.00000000  0.00000000  1
  Re  Re3  1  0.50000000  0.50000002  0.00000001  1
  C  C4  1  -0.00000000  0.33993201  0.08617701  1
  C  C5  1  -0.00000000  0.66006802  0.91382304  1
  C  C6  1  1.00000001  0.08617700  0.33993201  1
  C  C7  1  -0.00000000  0.91382303  0.66006804  1
  C  C8  1  0.50000000  0.35295501  0.64704503  1
  C  C9  1  0.50000000  0.64704502  0.35295503  1
