# generated using pymatgen
data_In2ReMo2WO12
_symmetry_space_group_name_H-M   'P 1'
_cell_length_a   6.56812906
_cell_length_b   6.56812906
_cell_length_c   6.56812906
_cell_angle_alpha   70.85157776
_cell_angle_beta   70.14691925
_cell_angle_gamma   109.41294098
_symmetry_Int_Tables_number   1
_chemical_formula_structural   In2ReMo2WO12
_chemical_formula_sum   'In2 Re1 Mo2 W1 O12'
_cell_volume   218.11542046
_cell_formula_units_Z   1
loop_
 _symmetry_equiv_pos_site_id
 _symmetry_equiv_pos_as_xyz
  1  'x, y, z'
loop_
 _atom_site_type_symbol
 _atom_site_label
 _atom_site_symmetry_multiplicity
 _atom_site_fract_x
 _atom_site_fract_y
 _atom_site_fract_z
 _atom_site_occupancy
  In  In0  1  0.49999997  1.00000000  0.49999999  1
  In  In1  1  -0.00000001  0.50000000  0.49999998  1
  Re  Re2  1  0.99999997  0.50000000  0.00000002  1
  Mo  Mo3  1  0.49999998  0.50000000  0.50000000  1
  Mo  Mo4  1  0.00000000  0.00000000  0.50000000  1
  W  W5  1  0.49999997  1.00000000  -0.00000001  1
  O  O6  1  0.49587399  0.20115100  0.70527801  1
  O  O7  1  0.28991398  0.49964200  0.79027099  1
  O  O8  1  0.90642898  0.20115200  0.29472303  1
  O  O9  1  0.20106498  0.70668000  0.09225499  1
  O  O10  1  0.71008597  0.91981400  0.79027200  1
  O  O11  1  0.79893497  0.70668100  0.49438501  1
  O  O12  1  0.20106499  0.29331900  0.50561500  1
  O  O13  1  0.28991399  0.08018600  0.20972801  1
  O  O14  1  0.79893498  0.29332000  0.90774502  1
  O  O15  1  0.09357098  0.79884800  0.70527698  1
  O  O16  1  0.71008598  0.50035800  0.20972901  1
  O  O17  1  0.50412597  0.79884900  0.29472199  1
