# generated using pymatgen
data_Ti3Zn(CuSe4)2
_symmetry_space_group_name_H-M   'P 1'
_cell_length_a   7.45037174
_cell_length_b   7.45037174
_cell_length_c   7.45435238
_cell_angle_alpha   60.01766205
_cell_angle_beta   60.01766205
_cell_angle_gamma   60.00000381
_symmetry_Int_Tables_number   1
_chemical_formula_structural   Ti3Zn(CuSe4)2
_chemical_formula_sum   'Ti3 Zn1 Cu2 Se8'
_cell_volume   292.66225013
_cell_formula_units_Z   1
loop_
 _symmetry_equiv_pos_site_id
 _symmetry_equiv_pos_as_xyz
  1  'x, y, z'
loop_
 _atom_site_type_symbol
 _atom_site_label
 _atom_site_symmetry_multiplicity
 _atom_site_fract_x
 _atom_site_fract_y
 _atom_site_fract_z
 _atom_site_occupancy
  Ti  Ti0  1  0.50000002  0.49999999  0.49999997  1
  Ti  Ti1  1  0.00000002  0.49999999  -0.00000001  1
  Ti  Ti2  1  0.50000000  0.00000000  -0.00000001  1
  Zn  Zn3  1  0.50000002  0.49999999  -0.00000002  1
  Cu  Cu4  1  0.11164800  0.11164800  0.66505598  1
  Cu  Cu5  1  0.88835203  0.88835199  0.33494396  1
  Se  Se6  1  0.27911102  0.74041499  0.24005898  1
  Se  Se7  1  0.74041501  0.27911100  0.24005898  1
  Se  Se8  1  0.74041502  0.74041499  0.24005897  1
  Se  Se9  1  0.72088901  0.25958500  0.75994097  1
  Se  Se10  1  0.25958502  0.72088899  0.75994097  1
  Se  Se11  1  0.25958501  0.25958500  0.75994098  1
  Se  Se12  1  0.74468802  0.74468799  0.76593596  1
  Se  Se13  1  0.25531201  0.25531200  0.23406399  1
