# generated using pymatgen
data_KUO3
_symmetry_space_group_name_H-M   'P 1'
_cell_length_a   6.02546406
_cell_length_b   6.04146338
_cell_length_c   6.02546406
_cell_angle_alpha   119.91243744
_cell_angle_beta   90.00000000
_cell_angle_gamma   119.91243744
_symmetry_Int_Tables_number   1
_chemical_formula_structural   KUO3
_chemical_formula_sum   'K2 U2 O6'
_cell_volume   155.50834189
_cell_formula_units_Z   2
loop_
 _symmetry_equiv_pos_site_id
 _symmetry_equiv_pos_as_xyz
  1  'x, y, z'
loop_
 _atom_site_type_symbol
 _atom_site_label
 _atom_site_symmetry_multiplicity
 _atom_site_fract_x
 _atom_site_fract_y
 _atom_site_fract_z
 _atom_site_occupancy
  K  K0  1  0.25000003  0.50000003  0.75000003  1
  K  K1  1  0.75000003  0.50000003  0.25000003  1
  U  U2  1  0.00000000  0.00000000  0.00000000  1
  U  U3  1  0.50000000  0.00000000  0.50000000  1
  O  O4  1  0.29101100  0.00000000  0.76140499  1
  O  O5  1  0.23859500  0.00000000  0.29101100  1
  O  O6  1  0.76140499  0.00000000  0.70898899  1
  O  O7  1  0.70898899  0.00000000  0.23859500  1
  O  O8  1  0.73550202  0.47100403  0.73550202  1
  O  O9  1  0.26449803  0.52899603  0.26449803  1
