# generated using pymatgen
data_LiCuS3
_symmetry_space_group_name_H-M   'P 1'
_cell_length_a   3.44898796
_cell_length_b   3.44898868
_cell_length_c   10.10001373
_cell_angle_alpha   90.00000000
_cell_angle_beta   90.00000000
_cell_angle_gamma   119.99999237
_symmetry_Int_Tables_number   1
_chemical_formula_structural   LiCuS3
_chemical_formula_sum   'Li1 Cu1 S3'
_cell_volume   104.04856052
_cell_formula_units_Z   1
loop_
 _symmetry_equiv_pos_site_id
 _symmetry_equiv_pos_as_xyz
  1  'x, y, z'
loop_
 _atom_site_type_symbol
 _atom_site_label
 _atom_site_symmetry_multiplicity
 _atom_site_fract_x
 _atom_site_fract_y
 _atom_site_fract_z
 _atom_site_occupancy
  Li  Li0  1  0.33333332  0.66666666  0.37810301  1
  Cu  Cu1  1  0.66666667  0.33333333  0.62189702  1
  S  S2  1  0.00000000  0.00000000  0.50000001  1
  S  S3  1  0.33333332  0.66666666  0.78738602  1
  S  S4  1  0.66666667  0.33333333  0.21261401  1
