# generated using pymatgen
data_FeS2
_symmetry_space_group_name_H-M   'P 1'
_cell_length_a   5.51488781
_cell_length_b   5.51763296
_cell_length_c   5.53919458
_cell_angle_alpha   91.07643127
_cell_angle_beta   90.00000000
_cell_angle_gamma   90.00000000
_symmetry_Int_Tables_number   1
_chemical_formula_structural   FeS2
_chemical_formula_sum   'Fe4 S8'
_cell_volume   168.52310866
_cell_formula_units_Z   4
loop_
 _symmetry_equiv_pos_site_id
 _symmetry_equiv_pos_as_xyz
  1  'x, y, z'
loop_
 _atom_site_type_symbol
 _atom_site_label
 _atom_site_symmetry_multiplicity
 _atom_site_fract_x
 _atom_site_fract_y
 _atom_site_fract_z
 _atom_site_occupancy
  Fe  Fe0  1  0.50000002  0.00000000  0.50000000  1
  Fe  Fe1  1  1.00000003  0.50000000  0.50000001  1
  Fe  Fe2  1  0.50000002  0.50000000  1.00000001  1
  Fe  Fe3  1  0.00000000  0.00000000  0.00000000  1
  S  S4  1  0.16878501  0.32823300  0.83896700  1
  S  S5  1  0.66878502  0.17176700  0.16103301  1
  S  S6  1  0.83977503  0.84239301  0.66679403  1
  S  S7  1  0.33977501  0.65760701  0.33320602  1
  S  S8  1  0.83121503  0.67176701  0.16103303  1
  S  S9  1  0.33121501  0.82823301  0.83896702  1
  S  S10  1  0.16022501  0.15760700  0.33320600  1
  S  S11  1  0.66022502  0.34239300  0.66679401  1
