# generated using pymatgen
data_Y(CrGe)6
_symmetry_space_group_name_H-M   'P 1'
_cell_length_a   5.11413527
_cell_length_b   5.11413479
_cell_length_c   8.12007523
_cell_angle_alpha   90.00000000
_cell_angle_beta   90.00000000
_cell_angle_gamma   120.00000000
_symmetry_Int_Tables_number   1
_chemical_formula_structural   Y(CrGe)6
_chemical_formula_sum   'Y1 Cr6 Ge6'
_cell_volume   183.92258622
_cell_formula_units_Z   1
loop_
 _symmetry_equiv_pos_site_id
 _symmetry_equiv_pos_as_xyz
  1  'x, y, z'
loop_
 _atom_site_type_symbol
 _atom_site_label
 _atom_site_symmetry_multiplicity
 _atom_site_fract_x
 _atom_site_fract_y
 _atom_site_fract_z
 _atom_site_occupancy
  Y  Y0  1  0.00000000  0.00000000  0.00000000  1
  Cr  Cr1  1  0.50000001  0.00000000  0.25020599  1
  Cr  Cr2  1  0.49999999  0.50000000  0.25020599  1
  Cr  Cr3  1  -0.00000002  0.50000000  0.25020599  1
  Cr  Cr4  1  0.50000001  0.00000000  0.74979398  1
  Cr  Cr5  1  0.49999999  0.50000000  0.74979398  1
  Cr  Cr6  1  -0.00000002  0.50000000  0.74979398  1
  Ge  Ge7  1  0.33333332  0.66666667  -0.00000000  1
  Ge  Ge8  1  0.66666667  0.33333333  -0.00000000  1
  Ge  Ge9  1  0.33333332  0.66666667  0.49999999  1
  Ge  Ge10  1  0.66666667  0.33333333  0.49999999  1
  Ge  Ge11  1  0.00000000  0.00000000  0.34615799  1
  Ge  Ge12  1  0.00000000  0.00000000  0.65384198  1
