# generated using pymatgen
data_YbMg5
_symmetry_space_group_name_H-M   'P 1'
_cell_length_a   5.28286600
_cell_length_b   5.28286600
_cell_length_c   6.60910892
_cell_angle_alpha   90.00000000
_cell_angle_beta   90.00000000
_cell_angle_gamma   120.00000000
_symmetry_Int_Tables_number   1
_chemical_formula_structural   YbMg5
_chemical_formula_sum   'Yb1 Mg5'
_cell_volume   159.73965102
_cell_formula_units_Z   1
loop_
 _symmetry_equiv_pos_site_id
 _symmetry_equiv_pos_as_xyz
  1  'x, y, z'
loop_
 _atom_site_type_symbol
 _atom_site_label
 _atom_site_symmetry_multiplicity
 _atom_site_fract_x
 _atom_site_fract_y
 _atom_site_fract_z
 _atom_site_occupancy
  Yb  Yb0  1  0.00000000  0.00000000  0.50000001  1
  Mg  Mg1  1  0.00000000  0.00000000  0.00000000  1
  Mg  Mg2  1  0.66666666  0.33333332  0.25000000  1
  Mg  Mg3  1  0.33333332  0.66666664  0.75000001  1
  Mg  Mg4  1  0.33333332  0.66666664  0.25000000  1
  Mg  Mg5  1  0.66666666  0.33333332  0.75000001  1
