# generated using pymatgen
data_Ti3Re5
_symmetry_space_group_name_H-M   'P 1'
_cell_length_a   4.93352604
_cell_length_b   4.94285297
_cell_length_c   9.80322647
_cell_angle_alpha   90.00000000
_cell_angle_beta   90.00000000
_cell_angle_gamma   90.00000000
_symmetry_Int_Tables_number   1
_chemical_formula_structural   Ti3Re5
_chemical_formula_sum   'Ti6 Re10'
_cell_volume   239.05847951
_cell_formula_units_Z   2
loop_
 _symmetry_equiv_pos_site_id
 _symmetry_equiv_pos_as_xyz
  1  'x, y, z'
loop_
 _atom_site_type_symbol
 _atom_site_label
 _atom_site_symmetry_multiplicity
 _atom_site_fract_x
 _atom_site_fract_y
 _atom_site_fract_z
 _atom_site_occupancy
  Ti  Ti0  1  0.50000000  0.50000000  0.49999998  1
  Ti  Ti1  1  0.50000000  0.00000000  0.61555097  1
  Ti  Ti2  1  0.50000000  0.00000000  0.12554399  1
  Ti  Ti3  1  0.74444299  0.50000000  0.25874199  1
  Re  Re4  1  0.74444299  0.50000000  0.74125796  1
  Ti  Ti5  1  0.00000000  0.73014700  0.49999998  1
  Ti  Ti6  1  0.00000000  0.75046800  0.00000000  1
  Re  Re7  1  0.50000000  0.00000000  0.38444898  1
  Re  Re8  1  0.50000000  0.00000000  0.87445596  1
  Re  Re9  1  0.25555700  0.50000000  0.25874199  1
  Re  Re10  1  0.25555700  0.50000000  0.74125796  1
  Re  Re11  1  0.00000000  0.26985300  0.49999998  1
  Re  Re12  1  0.00000000  0.24953200  0.00000000  1
  Re  Re13  1  0.50000000  0.50000000  0.00000000  1
  Re  Re14  1  0.00000000  0.00000000  0.25073899  1
  Re  Re15  1  0.00000000  0.00000000  0.74926096  1
