# generated using pymatgen
data_Nd6NiPb2
_symmetry_space_group_name_H-M   'P 1'
_cell_length_a   4.24937010
_cell_length_b   8.25191975
_cell_length_c   8.25192070
_cell_angle_alpha   119.99127960
_cell_angle_beta   90.00000000
_cell_angle_gamma   90.00000000
_symmetry_Int_Tables_number   1
_chemical_formula_structural   Nd6NiPb2
_chemical_formula_sum   'Nd6 Ni1 Pb2'
_cell_volume   250.61287950
_cell_formula_units_Z   1
loop_
 _symmetry_equiv_pos_site_id
 _symmetry_equiv_pos_as_xyz
  1  'x, y, z'
loop_
 _atom_site_type_symbol
 _atom_site_label
 _atom_site_symmetry_multiplicity
 _atom_site_fract_x
 _atom_site_fract_y
 _atom_site_fract_z
 _atom_site_occupancy
  Nd  Nd0  1  -0.00000000  0.76700601  0.76700599  1
  Nd  Nd1  1  -0.00000000  0.23296100  0.99982503  1
  Nd  Nd2  1  -0.00000000  0.99982501  0.23296096  1
  Nd  Nd3  1  0.49999999  0.39245100  0.39245000  1
  Nd  Nd4  1  0.49999999  0.60773700  0.00006197  1
  Nd  Nd5  1  0.49999999  0.00006200  0.60773702  1
  Ni  Ni6  1  0.49999999  0.99995001  0.99994999  1
  Pb  Pb7  1  0.99999998  0.66674401  0.33333331  1
  Pb  Pb8  1  0.99999998  0.33333334  0.66674401  1
