# generated using pymatgen
data_PtF3
_symmetry_space_group_name_H-M   'P 1'
_cell_length_a   5.50668192
_cell_length_b   5.50668192
_cell_length_c   5.83110809
_cell_angle_alpha   61.82400894
_cell_angle_beta   61.82400894
_cell_angle_gamma   60.00000381
_symmetry_Int_Tables_number   1
_chemical_formula_structural   PtF3
_chemical_formula_sum   'Pt2 F6'
_cell_volume   128.36742016
_cell_formula_units_Z   2
loop_
 _symmetry_equiv_pos_site_id
 _symmetry_equiv_pos_as_xyz
  1  'x, y, z'
loop_
 _atom_site_type_symbol
 _atom_site_label
 _atom_site_symmetry_multiplicity
 _atom_site_fract_x
 _atom_site_fract_y
 _atom_site_fract_z
 _atom_site_occupancy
  Pt  Pt0  1  0.50000000  0.49999998  0.49999999  1
  Pt  Pt1  1  0.00000000  0.00000000  0.00000000  1
  F  F2  1  0.36753601  0.74999997  0.74999999  1
  F  F3  1  0.74999998  0.13246400  0.75000000  1
  F  F4  1  0.86753599  0.63246398  0.24999997  1
  F  F5  1  0.25000001  0.86753597  0.24999997  1
  F  F6  1  0.63246399  0.24999999  0.24999998  1
  F  F7  1  0.13246400  0.36753599  0.75000001  1
