# generated using pymatgen
data_Sc3Ga4
_symmetry_space_group_name_H-M   'P 1'
_cell_length_a   5.11104393
_cell_length_b   7.71527576
_cell_length_c   7.71527576
_cell_angle_alpha   83.70125580
_cell_angle_beta   70.65662384
_cell_angle_gamma   70.65662384
_symmetry_Int_Tables_number   1
_chemical_formula_structural   Sc3Ga4
_chemical_formula_sum   'Sc6 Ga8'
_cell_volume   270.85869702
_cell_formula_units_Z   2
loop_
 _symmetry_equiv_pos_site_id
 _symmetry_equiv_pos_as_xyz
  1  'x, y, z'
loop_
 _atom_site_type_symbol
 _atom_site_label
 _atom_site_symmetry_multiplicity
 _atom_site_fract_x
 _atom_site_fract_y
 _atom_site_fract_z
 _atom_site_occupancy
  Sc  Sc0  1  0.89479906  0.88744300  0.32295905  1
  Sc  Sc1  1  0.40623405  0.68753300  0.50000003  1
  Sc  Sc2  1  0.09376704  0.50000000  0.31246602  1
  Sc  Sc3  1  0.10520101  0.11255700  0.67704101  1
  Sc  Sc4  1  0.59376602  0.31246700  0.50000003  1
  Sc  Sc5  1  0.21775805  0.67704100  0.88744303  1
  Ga  Ga6  1  0.78224202  0.32295900  0.11255703  1
  Ga  Ga7  1  0.60520105  0.67704100  0.11255703  1
  Ga  Ga8  1  0.71775806  0.88744300  0.67704105  1
  Ga  Ga9  1  0.39479902  0.32295900  0.88744303  1
  Ga  Ga10  1  0.90623303  0.50000000  0.68753405  1
  Ga  Ga11  1  0.28224201  0.11255700  0.32295902  1
  Ga  Ga12  1  0.25000000  0.00000000  0.00000001  1
  Ga  Ga13  1  0.75000000  0.00000000  1.00000004  1
