# generated using pymatgen
data_Co2Ge
_symmetry_space_group_name_H-M   'P 1'
_cell_length_a   3.01521397
_cell_length_b   5.49213314
_cell_length_c   6.24986410
_cell_angle_alpha   90.00000000
_cell_angle_beta   90.00000000
_cell_angle_gamma   90.00000000
_symmetry_Int_Tables_number   1
_chemical_formula_structural   Co2Ge
_chemical_formula_sum   'Co4 Ge2'
_cell_volume   103.49747797
_cell_formula_units_Z   2
loop_
 _symmetry_equiv_pos_site_id
 _symmetry_equiv_pos_as_xyz
  1  'x, y, z'
loop_
 _atom_site_type_symbol
 _atom_site_label
 _atom_site_symmetry_multiplicity
 _atom_site_fract_x
 _atom_site_fract_y
 _atom_site_fract_z
 _atom_site_occupancy
  Co  Co0  1  0.50000001  0.32907899  0.86531499  1
  Co  Co1  1  0.50000001  0.67092098  0.13468500  1
  Co  Co2  1  0.00000000  0.17092100  0.36531499  1
  Co  Co3  1  0.00000000  0.82907898  0.63468499  1
  Ge  Ge4  1  0.50000001  0.49999999  0.49999999  1
  Ge  Ge5  1  0.00000000  0.00000000  0.00000000  1
