# generated using pymatgen
data_CeNb2Si4C
_symmetry_space_group_name_H-M   'P 1'
_cell_length_a   3.79860997
_cell_length_b   3.79860997
_cell_length_c   10.93236446
_cell_angle_alpha   100.00489807
_cell_angle_beta   100.00489807
_cell_angle_gamma   90.00000000
_symmetry_Int_Tables_number   1
_chemical_formula_structural   CeNb2Si4C
_chemical_formula_sum   'Ce1 Nb2 Si4 C1'
_cell_volume   152.91246925
_cell_formula_units_Z   1
loop_
 _symmetry_equiv_pos_site_id
 _symmetry_equiv_pos_as_xyz
  1  'x, y, z'
loop_
 _atom_site_type_symbol
 _atom_site_label
 _atom_site_symmetry_multiplicity
 _atom_site_fract_x
 _atom_site_fract_y
 _atom_site_fract_z
 _atom_site_occupancy
  Ce  Ce0  1  0.00000000  0.00000000  0.00000000  1
  Nb  Nb1  1  0.31346901  0.31346901  0.62693802  1
  Nb  Nb2  1  0.68653102  0.68653101  0.37306203  1
  Si  Si3  1  0.12847600  0.12847600  0.25695201  1
  Si  Si4  1  0.87152403  0.87152402  0.74304804  1
  C  C5  1  0.50000002  0.50000001  0.00000002  1
  Si  Si6  1  0.75000002  0.25000000  0.50000003  1
  Si  Si7  1  0.25000002  0.75000001  0.50000003  1
