# generated using pymatgen
data_Tl3Hg(AsO3)4
_symmetry_space_group_name_H-M   'P 1'
_cell_length_a   4.63223314
_cell_length_b   7.49879074
_cell_length_c   10.37650204
_cell_angle_alpha   90.00000000
_cell_angle_beta   90.00000000
_cell_angle_gamma   103.01697540
_symmetry_Int_Tables_number   1
_chemical_formula_structural   Tl3Hg(AsO3)4
_chemical_formula_sum   'Tl3 Hg1 As4 O12'
_cell_volume   351.17761605
_cell_formula_units_Z   1
loop_
 _symmetry_equiv_pos_site_id
 _symmetry_equiv_pos_as_xyz
  1  'x, y, z'
loop_
 _atom_site_type_symbol
 _atom_site_label
 _atom_site_symmetry_multiplicity
 _atom_site_fract_x
 _atom_site_fract_y
 _atom_site_fract_z
 _atom_site_occupancy
  Tl  Tl0  1  0.10663196  0.40249099  0.16828700  1
  Tl  Tl1  1  0.89336792  0.59750899  0.83171300  1
  Hg  Hg2  1  0.89336796  0.09750900  0.66828700  1
  Tl  Tl3  1  0.10663191  0.90249099  0.33171300  1
  As  As4  1  0.32740092  0.67740599  0.58235300  1
  As  As5  1  0.32740097  0.17740600  0.91764700  1
  As  As6  1  0.67259890  0.82259399  0.08235300  1
  As  As7  1  0.67259895  0.32259399  0.41764700  1
  O  O8  1  0.82557996  0.13877200  0.47171200  1
  O  O9  1  0.50630896  0.22649200  0.28157200  1
  O  O10  1  0.49369091  0.77350799  0.71842800  1
  O  O11  1  0.00946395  0.52840299  0.64494500  1
  O  O12  1  0.17441996  0.36122799  0.97171200  1
  O  O13  1  0.00946400  0.02840300  0.85505500  1
  O  O14  1  0.99053592  0.47159699  0.35505500  1
  O  O15  1  0.82557991  0.63877199  0.02828800  1
  O  O16  1  0.17441991  0.86122799  0.52828800  1
  O  O17  1  0.49369096  0.27350800  0.78157200  1
  O  O18  1  0.99053588  0.97159698  0.14494500  1
  O  O19  1  0.50630891  0.72649199  0.21842800  1
