# generated using pymatgen
data_Ce(ZnSe2)2
_symmetry_space_group_name_H-M   'P 1'
_cell_length_a   6.19162750
_cell_length_b   6.19158363
_cell_length_c   10.49770832
_cell_angle_alpha   89.99965668
_cell_angle_beta   89.99902344
_cell_angle_gamma   64.70442963
_symmetry_Int_Tables_number   1
_chemical_formula_structural   Ce(ZnSe2)2
_chemical_formula_sum   'Ce2 Zn4 Se8'
_cell_volume   363.85221432
_cell_formula_units_Z   2
loop_
 _symmetry_equiv_pos_site_id
 _symmetry_equiv_pos_as_xyz
  1  'x, y, z'
loop_
 _atom_site_type_symbol
 _atom_site_label
 _atom_site_symmetry_multiplicity
 _atom_site_fract_x
 _atom_site_fract_y
 _atom_site_fract_z
 _atom_site_occupancy
  Ce  Ce0  1  0.50000099  0.49999899  0.25000000  1
  Ce  Ce1  1  0.49999899  0.49999999  0.74999998  1
  Zn  Zn2  1  0.77365299  0.77052498  0.49996999  1
  Zn  Zn3  1  0.22634900  0.22947399  0.49997099  1
  Zn  Zn4  1  0.77052499  0.77365798  0.00003301  1
  Zn  Zn5  1  0.22947400  0.22634799  0.00002800  1
  Se  Se6  1  0.35111999  0.79203798  0.49999399  1
  Se  Se7  1  0.64888200  0.20795999  0.49999200  1
  Se  Se8  1  0.79203999  0.35111899  0.00000601  1
  Se  Se9  1  0.20795999  0.64887998  0.00000700  1
  Se  Se10  1  0.50000000  0.00000000  0.18005800  1
  Se  Se11  1  0.99999899  0.49999999  0.31994201  1
  Se  Se12  1  0.49999700  0.00000100  0.81999198  1
  Se  Se13  1  0.00000099  0.49999799  0.68000698  1
