# generated using pymatgen
data_Hf3InGe4
_symmetry_space_group_name_H-M   'P 1'
_cell_length_a   3.87940192
_cell_length_b   4.01670599
_cell_length_c   10.30004501
_cell_angle_alpha   90.00000000
_cell_angle_beta   90.00000000
_cell_angle_gamma   90.00000000
_symmetry_Int_Tables_number   1
_chemical_formula_structural   Hf3InGe4
_chemical_formula_sum   'Hf3 In1 Ge4'
_cell_volume   160.49959588
_cell_formula_units_Z   1
loop_
 _symmetry_equiv_pos_site_id
 _symmetry_equiv_pos_as_xyz
  1  'x, y, z'
loop_
 _atom_site_type_symbol
 _atom_site_label
 _atom_site_symmetry_multiplicity
 _atom_site_fract_x
 _atom_site_fract_y
 _atom_site_fract_z
 _atom_site_occupancy
  Hf  Hf0  1  0.50000001  0.50000000  0.36176400  1
  Hf  Hf1  1  -0.00000000  0.50000000  0.85642400  1
  Hf  Hf2  1  0.00000000  0.00000000  0.14216100  1
  In  In3  1  0.50000001  0.00000000  0.64087100  1
  Ge  Ge4  1  0.50000001  0.50000000  0.06737700  1
  Ge  Ge5  1  -0.00000000  0.50000000  0.57039300  1
  Ge  Ge6  1  0.00000000  0.00000000  0.42998500  1
  Ge  Ge7  1  0.50000001  0.00000000  0.93102500  1
