# generated using pymatgen
data_Sr4Cd4Pd3Pb
_symmetry_space_group_name_H-M   'P 1'
_cell_length_a   4.51918793
_cell_length_b   7.56321383
_cell_length_c   8.42338276
_cell_angle_alpha   90.00000000
_cell_angle_beta   90.00000000
_cell_angle_gamma   90.00000000
_symmetry_Int_Tables_number   1
_chemical_formula_structural   Sr4Cd4Pd3Pb
_chemical_formula_sum   'Sr4 Cd4 Pd3 Pb1'
_cell_volume   287.90772372
_cell_formula_units_Z   1
loop_
 _symmetry_equiv_pos_site_id
 _symmetry_equiv_pos_as_xyz
  1  'x, y, z'
loop_
 _atom_site_type_symbol
 _atom_site_label
 _atom_site_symmetry_multiplicity
 _atom_site_fract_x
 _atom_site_fract_y
 _atom_site_fract_z
 _atom_site_occupancy
  Sr  Sr0  1  0.25000000  0.01813200  0.31423201  1
  Sr  Sr1  1  0.25000000  0.51813201  0.18576801  1
  Sr  Sr2  1  0.75000001  0.98186802  0.68576802  1
  Sr  Sr3  1  0.75000001  0.48186801  0.81423202  1
  Cd  Cd4  1  0.25000000  0.14965600  0.93463303  1
  Cd  Cd5  1  0.25000000  0.64965602  0.56536702  1
  Cd  Cd6  1  0.75000001  0.85034402  0.06536700  1
  Cd  Cd7  1  0.75000001  0.35034401  0.43463301  1
  Pd  Pd8  1  0.25000000  0.27531901  0.61156102  1
  Pd  Pd9  1  0.25000000  0.77531902  0.88843903  1
  Pd  Pd10  1  0.75000001  0.72468102  0.38843901  1
  Pb  Pb11  1  0.75000001  0.22468101  0.11156100  1
