# generated using pymatgen
data_Ce2Cr(Cu3P2)2
_symmetry_space_group_name_H-M   'P 1'
_cell_length_a   4.20827818
_cell_length_b   4.20827818
_cell_length_c   16.95644379
_cell_angle_alpha   82.87174225
_cell_angle_beta   82.87174225
_cell_angle_gamma   59.99999619
_symmetry_Int_Tables_number   1
_chemical_formula_structural   Ce2Cr(Cu3P2)2
_chemical_formula_sum   'Ce2 Cr1 Cu6 P4'
_cell_volume   257.37687926
_cell_formula_units_Z   1
loop_
 _symmetry_equiv_pos_site_id
 _symmetry_equiv_pos_as_xyz
  1  'x, y, z'
loop_
 _atom_site_type_symbol
 _atom_site_label
 _atom_site_symmetry_multiplicity
 _atom_site_fract_x
 _atom_site_fract_y
 _atom_site_fract_z
 _atom_site_occupancy
  Ce  Ce0  1  0.56546601  0.56546601  0.30360199  1
  Ce  Ce1  1  0.43453401  0.43453401  0.69639797  1
  Cu  Cu2  1  0.18548000  0.18548000  0.44355998  1
  Cu  Cu3  1  0.81452001  0.81452001  0.55643998  1
  Cr  Cr4  1  0.94772101  0.94772101  0.15683700  1
  Cu  Cu5  1  0.68315101  0.68315101  0.95054696  1
  Cu  Cu6  1  0.31684900  0.31684900  0.04945300  1
  Cu  Cu7  1  0.05227900  0.05227900  0.84316296  1
  P  P8  1  0.26567100  0.26567100  0.20298699  1
  Cu  Cu9  1  0.13512500  0.13512500  0.59462497  1
  P  P10  1  0.86487501  0.86487501  0.40537499  1
  P  P11  1  0.73432901  0.73432901  0.79701297  1
  P  P12  1  0.00000000  0.00000000  0.00000000  1
