# generated using pymatgen
data_Cu5AgS8
_symmetry_space_group_name_H-M   'P 1'
_cell_length_a   3.26209402
_cell_length_b   8.55172443
_cell_length_c   8.93709183
_cell_angle_alpha   104.45290375
_cell_angle_beta   100.51559448
_cell_angle_gamma   90.00000000
_symmetry_Int_Tables_number   1
_chemical_formula_structural   Cu5AgS8
_chemical_formula_sum   'Cu5 Ag1 S8'
_cell_volume   237.09738225
_cell_formula_units_Z   1
loop_
 _symmetry_equiv_pos_site_id
 _symmetry_equiv_pos_as_xyz
  1  'x, y, z'
loop_
 _atom_site_type_symbol
 _atom_site_label
 _atom_site_symmetry_multiplicity
 _atom_site_fract_x
 _atom_site_fract_y
 _atom_site_fract_z
 _atom_site_occupancy
  Ag  Ag0  1  0.98546900  0.00000000  0.00000001  1
  Cu  Cu1  1  0.11179602  0.49682303  0.29644402  1
  Cu  Cu2  1  0.81535202  0.50317703  0.70355604  1
  Cu  Cu3  1  0.46326202  0.50000003  0.00000002  1
  Cu  Cu4  1  0.75221201  0.14139501  0.57820202  1
  Cu  Cu5  1  0.17401003  0.85860505  0.42179804  1
  S  S6  1  0.88881601  0.32062602  0.85147704  1
  S  S7  1  0.03733903  0.67937404  0.14852302  1
  S  S8  1  0.54869701  0.32003602  0.16978202  1
  S  S9  1  0.37891503  0.67996404  0.83021804  1
  S  S10  1  0.22211201  0.33996102  0.51777802  1
  S  S11  1  0.70433403  0.66003904  0.48222204  1
  S  S12  1  0.30260204  0.99981506  0.67851805  1
  S  S13  1  0.62408400  0.00018500  0.32148201  1
