# generated using pymatgen
data_SrMn(SiO3)2
_symmetry_space_group_name_H-M   'P 1'
_cell_length_a   5.44908905
_cell_length_b   6.93759966
_cell_length_c   6.93759966
_cell_angle_alpha   83.01393127
_cell_angle_beta   77.22232819
_cell_angle_gamma   77.22232819
_symmetry_Int_Tables_number   1
_chemical_formula_structural   SrMn(SiO3)2
_chemical_formula_sum   'Sr2 Mn2 Si4 O12'
_cell_volume   248.70730818
_cell_formula_units_Z   2
loop_
 _symmetry_equiv_pos_site_id
 _symmetry_equiv_pos_as_xyz
  1  'x, y, z'
loop_
 _atom_site_type_symbol
 _atom_site_label
 _atom_site_symmetry_multiplicity
 _atom_site_fract_x
 _atom_site_fract_y
 _atom_site_fract_z
 _atom_site_occupancy
  Sr  Sr0  1  0.74999993  0.69919498  0.30080500  1
  Sr  Sr1  1  0.24999997  0.30080499  0.69919499  1
  Mn  Mn2  1  0.74999998  0.09761100  0.90238894  1
  Mn  Mn3  1  0.24999992  0.90238898  0.09761104  1
  Si  Si4  1  0.78824898  0.18422900  0.38053996  1
  Si  Si5  1  0.71175094  0.61945998  0.81577098  1
  Si  Si6  1  0.21175093  0.81577098  0.61946002  1
  Si  Si7  1  0.28824896  0.38053999  0.18422901  1
  O  O8  1  0.52493196  0.38713899  0.32819299  1
  O  O9  1  0.97506793  0.67180698  0.61286098  1
  O  O10  1  0.47506794  0.61286099  0.67180700  1
  O  O11  1  0.02493197  0.32819299  0.38713901  1
  O  O12  1  0.16139994  0.61961498  0.09893903  1
  O  O13  1  0.33859992  0.90106098  0.38038503  1
  O  O14  1  0.83859996  0.38038399  0.90106096  1
  O  O15  1  0.66139998  0.09893900  0.61961496  1
  O  O16  1  0.88106899  0.01195700  0.19850295  1
  O  O17  1  0.61893092  0.80149698  0.98804299  1
  O  O18  1  0.11893091  0.98804298  0.80149703  1
  O  O19  1  0.38106898  0.19850300  0.01195699  1
