# generated using pymatgen
data_LiNi4N2F7
_symmetry_space_group_name_H-M   'P 1'
_cell_length_a   5.34431124
_cell_length_b   6.31248569
_cell_length_c   7.12691927
_cell_angle_alpha   99.45611572
_cell_angle_beta   108.96533966
_cell_angle_gamma   91.95031738
_symmetry_Int_Tables_number   1
_chemical_formula_structural   LiNi4N2F7
_chemical_formula_sum   'Li1 Ni4 N2 F7'
_cell_volume   223.30423907
_cell_formula_units_Z   1
loop_
 _symmetry_equiv_pos_site_id
 _symmetry_equiv_pos_as_xyz
  1  'x, y, z'
loop_
 _atom_site_type_symbol
 _atom_site_label
 _atom_site_symmetry_multiplicity
 _atom_site_fract_x
 _atom_site_fract_y
 _atom_site_fract_z
 _atom_site_occupancy
  Li  Li0  1  0.59782198  0.90302700  0.20347897  1
  Ni  Ni1  1  0.40217798  0.09697300  0.79652098  1
  Ni  Ni2  1  0.87644997  0.51579500  0.76377697  1
  Ni  Ni3  1  0.12355000  0.48420500  0.23622298  1
  Ni  Ni4  1  0.88420597  0.65342800  0.06536798  1
  N  N5  1  0.11579400  0.34657200  0.93463197  1
  F  F6  1  0.45974099  0.63566200  0.28140098  1
  N  N7  1  0.54025898  0.36433800  0.71859898  1
  F  F8  1  0.64666097  0.17790600  0.06580600  1
  F  F9  1  0.35333899  0.82209400  0.93419396  1
  F  F10  1  0.66701598  0.93857100  0.70896796  1
  F  F11  1  0.33298399  0.06142900  0.29103199  1
  F  F12  1  0.08191400  0.70596100  0.46193497  1
  F  F13  1  0.91808596  0.29403900  0.53806498  1
