# generated using pymatgen
data_Li6Mn3CoO10
_symmetry_space_group_name_H-M   'P 1'
_cell_length_a   2.97560310
_cell_length_b   7.84430790
_cell_length_c   8.21687603
_cell_angle_alpha   104.91330719
_cell_angle_beta   90.40406799
_cell_angle_gamma   96.60911560
_symmetry_Int_Tables_number   1
_chemical_formula_structural   Li6Mn3CoO10
_chemical_formula_sum   'Li6 Mn3 Co1 O10'
_cell_volume   183.96819759
_cell_formula_units_Z   1
loop_
 _symmetry_equiv_pos_site_id
 _symmetry_equiv_pos_as_xyz
  1  'x, y, z'
loop_
 _atom_site_type_symbol
 _atom_site_label
 _atom_site_symmetry_multiplicity
 _atom_site_fract_x
 _atom_site_fract_y
 _atom_site_fract_z
 _atom_site_occupancy
  Li  Li0  1  0.59990900  0.19999000  0.29997300  1
  Li  Li1  1  0.59994100  0.19995900  0.79996500  1
  Li  Li2  1  0.73690904  0.57617600  0.89285202  1
  Li  Li3  1  0.46299008  0.82381500  0.70705004  1
  Li  Li4  1  0.00045000  0.00111100  0.52036400  1
  Li  Li5  1  0.19943704  0.39891700  0.07964702  1
  Mn  Mn6  1  0.17404204  0.39181500  0.60620602  1
  Mn  Mn7  1  0.78077704  0.59499200  0.39725102  1
  Co  Co8  1  0.02598500  0.00822100  0.99384399  1
  Mn  Mn9  1  0.41933908  0.80503100  0.20280304  1
  O  O10  1  0.46667208  0.82991600  0.96632304  1
  O  O11  1  0.73336804  0.57007600  0.63370902  1
  O  O12  1  0.62005000  0.22387700  0.55682500  1
  O  O13  1  0.58000800  0.17612400  0.04319000  1
  O  O14  1  0.77536604  0.60529200  0.15848803  1
  O  O15  1  0.42474708  0.79469900  0.44154604  1
  O  O16  1  0.01621912  0.99533401  0.76757706  1
  O  O17  1  0.18368104  0.40463500  0.83239402  1
  O  O18  1  0.15553304  0.40525100  0.36345902  1
  O  O19  1  0.04458011  0.99477001  0.23653406  1
