# generated using pymatgen
data_KRbCdInS4
_symmetry_space_group_name_H-M   'P 1'
_cell_length_a   6.97963095
_cell_length_b   6.97963095
_cell_length_c   6.97963095
_cell_angle_alpha   105.78909302
_cell_angle_beta   105.78909302
_cell_angle_gamma   117.11679077
_symmetry_Int_Tables_number   1
_chemical_formula_structural   KRbCdInS4
_chemical_formula_sum   'K1 Rb1 Cd1 In1 S4'
_cell_volume   258.20390744
_cell_formula_units_Z   1
loop_
 _symmetry_equiv_pos_site_id
 _symmetry_equiv_pos_as_xyz
  1  'x, y, z'
loop_
 _atom_site_type_symbol
 _atom_site_label
 _atom_site_symmetry_multiplicity
 _atom_site_fract_x
 _atom_site_fract_y
 _atom_site_fract_z
 _atom_site_occupancy
  K  K0  1  0.74999996  0.74999998  -0.00000008  1
  Rb  Rb1  1  0.24999999  0.24999999  -0.00000003  1
  In  In2  1  0.24999995  0.74999998  0.49999995  1
  Cd  Cd3  1  0.75000000  0.24999999  0.49999997  1
  S  S4  1  0.81547097  0.68452798  0.49999993  1
  S  S5  1  0.31547095  0.81547098  0.13094193  1
  S  S6  1  0.68452900  0.18452900  0.86905799  1
  S  S7  1  0.18452898  0.31547099  0.49999999  1
