# generated using pymatgen
data_Ce3Th(AsP3)2
_symmetry_space_group_name_H-M   'P 1'
_cell_length_a   4.31974411
_cell_length_b   7.21432209
_cell_length_c   7.85332680
_cell_angle_alpha   90.00000000
_cell_angle_beta   90.00000000
_cell_angle_gamma   90.00000000
_symmetry_Int_Tables_number   1
_chemical_formula_structural   Ce3Th(AsP3)2
_chemical_formula_sum   'Ce3 Th1 As2 P6'
_cell_volume   244.74127546
_cell_formula_units_Z   1
loop_
 _symmetry_equiv_pos_site_id
 _symmetry_equiv_pos_as_xyz
  1  'x, y, z'
loop_
 _atom_site_type_symbol
 _atom_site_label
 _atom_site_symmetry_multiplicity
 _atom_site_fract_x
 _atom_site_fract_y
 _atom_site_fract_z
 _atom_site_occupancy
  Ce  Ce0  1  0.24999999  0.14614900  0.93015902  1
  Ce  Ce1  1  0.24999999  0.64614899  0.56984101  1
  Th  Th2  1  0.74999998  0.85385099  0.06984100  1
  Ce  Ce3  1  0.74999998  0.35385100  0.43015901  1
  P  P4  1  0.24999999  0.01400900  0.30250701  1
  P  P5  1  0.24999999  0.51400899  0.19749301  1
  P  P6  1  0.74999998  0.98599099  0.69749302  1
  As  As7  1  0.74999998  0.48599099  0.80250702  1
  P  P8  1  0.24999999  0.26875400  0.60214802  1
  P  P9  1  0.24999999  0.76875399  0.89785202  1
  As  As10  1  0.74999998  0.73124599  0.39785201  1
  P  P11  1  0.74999998  0.23124600  0.10214800  1
