# generated using pymatgen
data_NaV(Hg2O7)2
_symmetry_space_group_name_H-M   'P 1'
_cell_length_a   5.19457579
_cell_length_b   5.49398088
_cell_length_c   10.11700344
_cell_angle_alpha   90.00000000
_cell_angle_beta   90.00000000
_cell_angle_gamma   90.00000000
_symmetry_Int_Tables_number   1
_chemical_formula_structural   NaV(Hg2O7)2
_chemical_formula_sum   'Na1 V1 Hg4 O14'
_cell_volume   288.72815026
_cell_formula_units_Z   1
loop_
 _symmetry_equiv_pos_site_id
 _symmetry_equiv_pos_as_xyz
  1  'x, y, z'
loop_
 _atom_site_type_symbol
 _atom_site_label
 _atom_site_symmetry_multiplicity
 _atom_site_fract_x
 _atom_site_fract_y
 _atom_site_fract_z
 _atom_site_occupancy
  V  V0  1  0.50000002  0.75000002  0.35649998  1
  Hg  Hg1  1  0.50000002  0.75000002  0.85649996  1
  Hg  Hg2  1  0.50000002  0.25000001  0.14349999  1
  Hg  Hg3  1  0.50000002  0.25000001  0.64349997  1
  Na  Na4  1  -0.00000000  0.25000001  0.89025096  1
  Hg  Hg5  1  -0.00000000  0.75000002  0.10974900  1
  O  O6  1  -0.00000000  0.25000001  0.39025098  1
  O  O7  1  -0.00000000  0.75000002  0.60974897  1
  O  O8  1  0.76755703  0.09549400  0.05378100  1
  O  O9  1  0.23244301  0.90450602  0.94621896  1
  O  O10  1  0.23244301  0.59549401  0.44621898  1
  O  O11  1  0.76755703  0.40450601  0.55378098  1
  O  O12  1  0.76755703  0.90450602  0.44621898  1
  O  O13  1  0.35433901  0.00000000  0.24999999  1
  O  O14  1  0.35433901  0.50000001  0.74999997  1
  O  O15  1  0.76755703  0.59549401  0.94621896  1
  O  O16  1  0.23244301  0.40450601  0.05378100  1
  O  O17  1  0.64566103  0.50000001  0.24999999  1
  O  O18  1  0.23244301  0.09549400  0.55378098  1
  O  O19  1  0.64566103  0.00000000  0.74999997  1
