# generated using pymatgen
data_HfZrF7
_symmetry_space_group_name_H-M   'P 1'
_cell_length_a   5.70129108
_cell_length_b   6.08592129
_cell_length_c   8.27106953
_cell_angle_alpha   102.35465240
_cell_angle_beta   90.00000000
_cell_angle_gamma   90.00000000
_symmetry_Int_Tables_number   1
_chemical_formula_structural   HfZrF7
_chemical_formula_sum   'Hf2 Zr2 F14'
_cell_volume   280.34028436
_cell_formula_units_Z   2
loop_
 _symmetry_equiv_pos_site_id
 _symmetry_equiv_pos_as_xyz
  1  'x, y, z'
loop_
 _atom_site_type_symbol
 _atom_site_label
 _atom_site_symmetry_multiplicity
 _atom_site_fract_x
 _atom_site_fract_y
 _atom_site_fract_z
 _atom_site_occupancy
  Zr  Zr0  1  0.69815699  0.65404500  0.68304299  1
  Zr  Zr1  1  0.19815700  0.34595500  0.31695699  1
  Hf  Hf2  1  0.70789899  0.81162601  0.22392800  1
  Hf  Hf3  1  0.20789900  0.18837400  0.77607198  1
  F  F4  1  0.89021799  0.45372300  0.47752199  1
  F  F5  1  0.39021799  0.54627700  0.52247799  1
  F  F6  1  0.42788299  0.92083301  0.76589199  1
  F  F7  1  0.92788299  0.07916700  0.23410800  1
  F  F8  1  0.94194599  0.95742001  0.76030699  1
  F  F9  1  0.44194599  0.04258000  0.23969300  1
  F  F10  1  0.99250999  0.45849700  0.78667399  1
  F  F11  1  0.49250999  0.54150300  0.21332600  1
  F  F12  1  0.70247399  0.75453101  0.97321698  1
  F  F13  1  0.20247400  0.24546900  0.02678300  1
  F  F14  1  0.70988499  0.86026501  0.47592899  1
  F  F15  1  0.20988500  0.13973500  0.52407099  1
  F  F16  1  0.50538899  0.38103500  0.78045599  1
  F  F17  1  0.00538900  0.61896500  0.21954400  1
