# generated using pymatgen
data_InCu2SnPdSe7
_symmetry_space_group_name_H-M   'P 1'
_cell_length_a   6.38819695
_cell_length_b   6.38819695
_cell_length_c   6.38819695
_cell_angle_alpha   90.00000000
_cell_angle_beta   90.00000000
_cell_angle_gamma   90.00000000
_symmetry_Int_Tables_number   1
_chemical_formula_structural   InCu2SnPdSe7
_chemical_formula_sum   'In1 Cu2 Sn1 Pd1 Se7'
_cell_volume   260.69631377
_cell_formula_units_Z   1
loop_
 _symmetry_equiv_pos_site_id
 _symmetry_equiv_pos_as_xyz
  1  'x, y, z'
loop_
 _atom_site_type_symbol
 _atom_site_label
 _atom_site_symmetry_multiplicity
 _atom_site_fract_x
 _atom_site_fract_y
 _atom_site_fract_z
 _atom_site_occupancy
  Sn  Sn0  1  0.13071500  0.63071501  0.86928501  1
  In  In1  1  0.63071501  0.86928501  0.13071500  1
  Cu  Cu2  1  0.86928501  0.13071500  0.63071501  1
  Cu  Cu3  1  0.36928500  0.36928500  0.36928500  1
  Pd  Pd4  1  0.48536300  0.98536301  0.51463700  1
  Se  Se5  1  0.98536301  0.51463700  0.48536300  1
  Se  Se6  1  0.51463700  0.48536300  0.98536301  1
  Se  Se7  1  0.01463700  0.01463700  0.01463700  1
  Se  Se8  1  0.87904901  0.37904900  0.12095100  1
  Se  Se9  1  0.37904900  0.12095100  0.87904901  1
  Se  Se10  1  0.12095100  0.87904901  0.37904900  1
  Se  Se11  1  0.62095101  0.62095101  0.62095101  1
