# generated using pymatgen
data_NaLi3(SiO3)4
_symmetry_space_group_name_H-M   'P 1'
_cell_length_a   5.34421825
_cell_length_b   6.56401634
_cell_length_c   6.56401634
_cell_angle_alpha   84.47387695
_cell_angle_beta   76.81031036
_cell_angle_gamma   76.81031036
_symmetry_Int_Tables_number   1
_chemical_formula_structural   NaLi3(SiO3)4
_chemical_formula_sum   'Na1 Li3 Si4 O12'
_cell_volume   218.03643224
_cell_formula_units_Z   1
loop_
 _symmetry_equiv_pos_site_id
 _symmetry_equiv_pos_as_xyz
  1  'x, y, z'
loop_
 _atom_site_type_symbol
 _atom_site_label
 _atom_site_symmetry_multiplicity
 _atom_site_fract_x
 _atom_site_fract_y
 _atom_site_fract_z
 _atom_site_occupancy
  Li  Li0  1  0.24999999  0.70091101  0.29908902  1
  Na  Na1  1  0.74999999  0.29908901  0.70091102  1
  Li  Li2  1  0.25000000  0.09996400  0.90003602  1
  Li  Li3  1  0.74999998  0.90003602  0.09996402  1
  Si  Si4  1  0.76922399  0.38131601  0.19989601  1
  Si  Si5  1  0.23077599  0.61868401  0.80010403  1
  Si  Si6  1  0.73077598  0.80010402  0.61868402  1
  Si  Si7  1  0.26922399  0.19989600  0.38131601  1
  O  O8  1  0.50772999  0.65710601  0.64005802  1
  O  O9  1  0.99226998  0.35994201  0.34289401  1
  O  O10  1  0.49226999  0.34289401  0.35994201  1
  O  O11  1  0.00772999  0.64005801  0.65710602  1
  O  O12  1  0.80157198  0.89828002  0.38352602  1
  O  O13  1  0.69842799  0.61647401  0.10172001  1
  O  O14  1  0.19842800  0.10172000  0.61647401  1
  O  O15  1  0.30157199  0.38352601  0.89828002  1
  O  O16  1  0.13288099  0.80960502  0.96638903  1
  O  O17  1  0.36711899  0.03361100  0.19039500  1
  O  O18  1  0.86711899  0.19039500  0.03361100  1
  O  O19  1  0.63288098  0.96638902  0.80960503  1
