# generated using pymatgen
data_InGaAgTe4
_symmetry_space_group_name_H-M   'P 1'
_cell_length_a   6.23826218
_cell_length_b   6.23826218
_cell_length_c   7.70607185
_cell_angle_alpha   113.87625885
_cell_angle_beta   113.87625885
_cell_angle_gamma   90.00000000
_symmetry_Int_Tables_number   1
_chemical_formula_structural   InGaAgTe4
_chemical_formula_sum   'In1 Ga1 Ag1 Te4'
_cell_volume   245.89682864
_cell_formula_units_Z   1
loop_
 _symmetry_equiv_pos_site_id
 _symmetry_equiv_pos_as_xyz
  1  'x, y, z'
loop_
 _atom_site_type_symbol
 _atom_site_label
 _atom_site_symmetry_multiplicity
 _atom_site_fract_x
 _atom_site_fract_y
 _atom_site_fract_z
 _atom_site_occupancy
  Ga  Ga0  1  0.00000000  0.00000000  0.00000000  1
  In  In1  1  0.49999995  0.49999997  -0.00000005  1
  Ag  Ag2  1  0.24999995  0.74999996  0.49999996  1
  Te  Te3  1  0.65463794  0.60322997  0.73639496  1
  Te  Te4  1  0.39676994  0.91824295  0.26360494  1
  Te  Te5  1  0.86683494  0.34536198  0.26360496  1
  Te  Te6  1  0.08175699  0.13316499  0.73639501  1
