# generated using pymatgen
data_CdAgSe3
_symmetry_space_group_name_H-M   'P 1'
_cell_length_a   4.15863371
_cell_length_b   4.15863371
_cell_length_c   10.51691532
_cell_angle_alpha   78.59682465
_cell_angle_beta   78.59682465
_cell_angle_gamma   60.00000381
_symmetry_Int_Tables_number   1
_chemical_formula_structural   CdAgSe3
_chemical_formula_sum   'Cd1 Ag1 Se3'
_cell_volume   153.35469396
_cell_formula_units_Z   1
loop_
 _symmetry_equiv_pos_site_id
 _symmetry_equiv_pos_as_xyz
  1  'x, y, z'
loop_
 _atom_site_type_symbol
 _atom_site_label
 _atom_site_symmetry_multiplicity
 _atom_site_fract_x
 _atom_site_fract_y
 _atom_site_fract_z
 _atom_site_occupancy
  Cd  Cd0  1  0.59919504  0.59919501  0.20241497  1
  Ag  Ag1  1  0.40080503  0.40080501  0.79758498  1
  Se  Se2  1  0.00000000  0.00000000  0.00000000  1
  Se  Se3  1  0.21671602  0.21671600  0.34985199  1
  Se  Se4  1  0.78328406  0.78328402  0.65014796  1
