# generated using pymatgen
data_InSbAuSe5
_symmetry_space_group_name_H-M   'P 1'
_cell_length_a   6.93037176
_cell_length_b   6.93037176
_cell_length_c   7.25070906
_cell_angle_alpha   99.21868134
_cell_angle_beta   99.21868134
_cell_angle_gamma   119.90730286
_symmetry_Int_Tables_number   1
_chemical_formula_structural   InSbAuSe5
_chemical_formula_sum   'In1 Sb1 Au1 Se5'
_cell_volume   286.00723857
_cell_formula_units_Z   1
loop_
 _symmetry_equiv_pos_site_id
 _symmetry_equiv_pos_as_xyz
  1  'x, y, z'
loop_
 _atom_site_type_symbol
 _atom_site_label
 _atom_site_symmetry_multiplicity
 _atom_site_fract_x
 _atom_site_fract_y
 _atom_site_fract_z
 _atom_site_occupancy
  Au  Au0  1  0.16672800  0.83327201  -0.00000004  1
  In  In1  1  0.83327201  0.16672800  0.99999997  1
  Se  Se2  1  0.57376101  0.93112001  0.22055295  1
  Sb  Sb3  1  0.42623900  0.06888000  0.77944699  1
  Se  Se4  1  0.06888000  0.42623900  0.77944699  1
  Se  Se5  1  0.93112001  0.57376101  0.22055295  1
  Se  Se6  1  0.21760700  0.21760700  0.22078699  1
  Se  Se7  1  0.78239301  0.78239301  0.77921295  1
