# generated using pymatgen
data_ZnCoPN
_symmetry_space_group_name_H-M   'P 1'
_cell_length_a   3.24402356
_cell_length_b   3.24402356
_cell_length_c   6.02440691
_cell_angle_alpha   74.38094330
_cell_angle_beta   74.38094330
_cell_angle_gamma   60.00000763
_symmetry_Int_Tables_number   1
_chemical_formula_structural   ZnCoPN
_chemical_formula_sum   'Zn1 Co1 P1 N1'
_cell_volume   52.18432862
_cell_formula_units_Z   1
loop_
 _symmetry_equiv_pos_site_id
 _symmetry_equiv_pos_as_xyz
  1  'x, y, z'
loop_
 _atom_site_type_symbol
 _atom_site_label
 _atom_site_symmetry_multiplicity
 _atom_site_fract_x
 _atom_site_fract_y
 _atom_site_fract_z
 _atom_site_occupancy
  Zn  Zn0  1  0.49999999  0.50000001  0.49999998  1
  Co  Co1  1  0.00000000  0.00000000  0.00000000  1
  N  N2  1  0.89282499  0.89282501  0.32152497  1
  P  P3  1  0.10717500  0.10717500  0.67847500  1
