# generated using pymatgen
data_Na3AgBiSbF12
_symmetry_space_group_name_H-M   'P 1'
_cell_length_a   6.07122183
_cell_length_b   6.07122231
_cell_length_c   7.10516024
_cell_angle_alpha   90.00000000
_cell_angle_beta   90.00000000
_cell_angle_gamma   120.00000000
_symmetry_Int_Tables_number   1
_chemical_formula_structural   Na3AgBiSbF12
_chemical_formula_sum   'Na3 Ag1 Bi1 Sb1 F12'
_cell_volume   226.80715189
_cell_formula_units_Z   1
loop_
 _symmetry_equiv_pos_site_id
 _symmetry_equiv_pos_as_xyz
  1  'x, y, z'
loop_
 _atom_site_type_symbol
 _atom_site_label
 _atom_site_symmetry_multiplicity
 _atom_site_fract_x
 _atom_site_fract_y
 _atom_site_fract_z
 _atom_site_occupancy
  Ag  Ag0  1  0.00000000  0.00000000  0.71228898  1
  Na  Na1  1  0.00000000  0.00000000  0.28771099  1
  Na  Na2  1  0.66666670  0.33333335  0.49999998  1
  Na  Na3  1  0.33333338  0.66666670  0.25337799  1
  Bi  Bi4  1  0.33333338  0.66666670  0.74662198  1
  Sb  Sb5  1  0.66666670  0.33333335  0.00000000  1
  F  F6  1  0.08789802  0.39389902  0.00000000  1
  F  F7  1  0.10806402  0.38411602  0.49999998  1
  F  F8  1  0.30600105  0.91210204  0.00000000  1
  F  F9  1  0.27605205  0.89193604  0.49999998  1
  F  F10  1  0.92665406  0.60221203  0.23557399  1
  F  F11  1  0.92665406  0.60221203  0.76442597  1
  F  F12  1  0.61588405  0.72394804  0.49999998  1
  F  F13  1  0.60610105  0.69399903  0.00000000  1
  F  F14  1  0.67555802  0.07334600  0.23557399  1
  F  F15  1  0.67555802  0.07334600  0.76442597  1
  F  F16  1  0.39778803  0.32444202  0.23557399  1
  F  F17  1  0.39778803  0.32444202  0.76442597  1
