# generated using pymatgen
data_MgBeP2O7
_symmetry_space_group_name_H-M   'P 1'
_cell_length_a   4.55110025
_cell_length_b   5.31816721
_cell_length_c   5.31816721
_cell_angle_alpha   75.84674835
_cell_angle_beta   81.56033325
_cell_angle_gamma   98.43966675
_symmetry_Int_Tables_number   1
_chemical_formula_structural   MgBeP2O7
_chemical_formula_sum   'Mg1 Be1 P2 O7'
_cell_volume   121.20017833
_cell_formula_units_Z   1
loop_
 _symmetry_equiv_pos_site_id
 _symmetry_equiv_pos_as_xyz
  1  'x, y, z'
loop_
 _atom_site_type_symbol
 _atom_site_label
 _atom_site_symmetry_multiplicity
 _atom_site_fract_x
 _atom_site_fract_y
 _atom_site_fract_z
 _atom_site_occupancy
  Be  Be0  1  0.49999997  0.68767298  0.68767304  1
  Mg  Mg1  1  0.50000000  0.31232699  0.31232703  1
  P  P2  1  0.90601602  0.21868299  0.78131703  1
  P  P3  1  0.09398395  0.78131697  0.21868303  1
  O  O4  1  0.72017701  0.37677999  0.92689203  1
  O  O5  1  0.27982295  0.92689197  0.37678004  1
  O  O6  1  0.27982297  0.62321998  0.07310804  1
  O  O7  1  0.72017703  0.07310800  0.62322002  1
  O  O8  1  0.00000000  0.00000000  0.00000000  1
  O  O9  1  0.21226898  0.38049999  0.61950001  1
  O  O10  1  0.78773099  0.61949998  0.38050005  1
