# generated using pymatgen
data_Li4Al3GeO8
_symmetry_space_group_name_H-M   'P 1'
_cell_length_a   5.12228298
_cell_length_b   5.50121593
_cell_length_c   6.44426155
_cell_angle_alpha   90.00000000
_cell_angle_beta   89.79180908
_cell_angle_gamma   90.00000000
_symmetry_Int_Tables_number   1
_chemical_formula_structural   Li4Al3GeO8
_chemical_formula_sum   'Li4 Al3 Ge1 O8'
_cell_volume   181.59026040
_cell_formula_units_Z   1
loop_
 _symmetry_equiv_pos_site_id
 _symmetry_equiv_pos_as_xyz
  1  'x, y, z'
loop_
 _atom_site_type_symbol
 _atom_site_label
 _atom_site_symmetry_multiplicity
 _atom_site_fract_x
 _atom_site_fract_y
 _atom_site_fract_z
 _atom_site_occupancy
  Li  Li0  1  0.50140600  0.83725001  0.00013600  1
  Li  Li1  1  0.00107000  0.67175501  0.75178500  1
  Li  Li2  1  0.50107000  0.32824500  0.25178500  1
  Li  Li3  1  0.00140600  0.16275000  0.50013600  1
  Al  Al4  1  0.99968400  0.66735701  0.24794601  1
  Al  Al5  1  0.49968400  0.33264300  0.74794600  1
  Al  Al6  1  0.49600300  0.83032901  0.50039000  1
  Ge  Ge7  1  0.99600300  0.16967100  0.00039001  1
  O  O8  1  0.64778500  0.17673200  0.99953200  1
  O  O9  1  0.60916100  0.67881601  0.27198301  1
  O  O10  1  0.14778500  0.82326801  0.49953200  1
  O  O11  1  0.10916100  0.32118400  0.77198300  1
  O  O12  1  0.60849400  0.13679100  0.50109800  1
  O  O13  1  0.10849400  0.86320901  0.00109800  1
  O  O14  1  0.60939600  0.67805201  0.72813100  1
  O  O15  1  0.10939600  0.32194800  0.22813100  1
