# generated using pymatgen
data_Li4AlSiO8
_symmetry_space_group_name_H-M   'P 1'
_cell_length_a   4.82891703
_cell_length_b   6.01454210
_cell_length_c   6.01454258
_cell_angle_alpha   60.00000381
_cell_angle_beta   90.00000000
_cell_angle_gamma   90.00000000
_symmetry_Int_Tables_number   1
_chemical_formula_structural   Li4AlSiO8
_chemical_formula_sum   'Li4 Al1 Si1 O8'
_cell_volume   151.28141037
_cell_formula_units_Z   1
loop_
 _symmetry_equiv_pos_site_id
 _symmetry_equiv_pos_as_xyz
  1  'x, y, z'
loop_
 _atom_site_type_symbol
 _atom_site_label
 _atom_site_symmetry_multiplicity
 _atom_site_fract_x
 _atom_site_fract_y
 _atom_site_fract_z
 _atom_site_occupancy
  Li  Li0  1  0.50000000  0.00000000  0.50000001  1
  Li  Li1  1  0.50000000  0.49999999  0.50000001  1
  Li  Li2  1  0.00000000  0.00000000  0.00000000  1
  Li  Li3  1  0.50000000  0.49999999  -0.00000000  1
  Al  Al4  1  0.07316200  0.33333333  0.33333334  1
  Si  Si5  1  0.92683799  0.66666666  0.66666668  1
  O  O6  1  0.73527300  0.33333333  0.33333334  1
  O  O7  1  0.77675600  0.81131099  0.37737801  1
  O  O8  1  0.26472700  0.66666666  0.66666668  1
  O  O9  1  0.77675600  0.37737799  0.81131102  1
  O  O10  1  0.77675600  0.81131099  0.81131102  1
  O  O11  1  0.22324400  0.18868900  0.62262201  1
  O  O12  1  0.22324400  0.62262199  0.18868900  1
  O  O13  1  0.22324400  0.18868900  0.18868900  1
