# generated using pymatgen
data_Sr2TmRuO6
_symmetry_space_group_name_H-M   'P 1'
_cell_length_a   5.84599590
_cell_length_b   5.85389614
_cell_length_c   8.26036358
_cell_angle_alpha   90.00000000
_cell_angle_beta   89.72728729
_cell_angle_gamma   90.00000000
_symmetry_Int_Tables_number   1
_chemical_formula_structural   Sr2TmRuO6
_chemical_formula_sum   'Sr4 Tm2 Ru2 O12'
_cell_volume   282.68174482
_cell_formula_units_Z   2
loop_
 _symmetry_equiv_pos_site_id
 _symmetry_equiv_pos_as_xyz
  1  'x, y, z'
loop_
 _atom_site_type_symbol
 _atom_site_label
 _atom_site_symmetry_multiplicity
 _atom_site_fract_x
 _atom_site_fract_y
 _atom_site_fract_z
 _atom_site_occupancy
  Sr  Sr0  1  0.99421202  0.96838798  0.74862300  1
  Sr  Sr1  1  0.49421201  0.53161199  0.24862300  1
  Sr  Sr2  1  0.00578800  0.03161200  0.25137700  1
  Sr  Sr3  1  0.50578801  0.46838799  0.75137700  1
  Tm  Tm4  1  0.50000001  0.00000000  0.50000000  1
  Tm  Tm5  1  -0.00000000  0.49999999  1.00000000  1
  Ru  Ru6  1  -0.00000000  0.49999999  0.50000000  1
  Ru  Ru7  1  0.50000001  0.00000000  1.00000000  1
  O  O8  1  0.26872100  0.29927799  0.46102700  1
  O  O9  1  0.76872101  0.20072200  0.96102700  1
  O  O10  1  0.73127901  0.70072198  0.53897300  1
  O  O11  1  0.23127900  0.79927798  0.03897300  1
  O  O12  1  0.19711000  0.77238298  0.46065300  1
  O  O13  1  0.69711001  0.72761698  0.96065300  1
  O  O14  1  0.80289001  0.22761699  0.53934700  1
  O  O15  1  0.30289001  0.27238299  0.03934700  1
  O  O16  1  0.07440200  0.51782899  0.73428100  1
  O  O17  1  0.57440201  0.98217098  0.23428100  1
  O  O18  1  0.92559802  0.48217099  0.26571900  1
  O  O19  1  0.42559801  0.01782900  0.76571900  1
