# generated using pymatgen
data_KHgBiSbSe4
_symmetry_space_group_name_H-M   'P 1'
_cell_length_a   4.26160812
_cell_length_b   4.71749020
_cell_length_c   11.97675800
_cell_angle_alpha   89.52051544
_cell_angle_beta   90.00000000
_cell_angle_gamma   90.00000000
_symmetry_Int_Tables_number   1
_chemical_formula_structural   KHgBiSbSe4
_chemical_formula_sum   'K1 Hg1 Bi1 Sb1 Se4'
_cell_volume   240.77344392
_cell_formula_units_Z   1
loop_
 _symmetry_equiv_pos_site_id
 _symmetry_equiv_pos_as_xyz
  1  'x, y, z'
loop_
 _atom_site_type_symbol
 _atom_site_label
 _atom_site_symmetry_multiplicity
 _atom_site_fract_x
 _atom_site_fract_y
 _atom_site_fract_z
 _atom_site_occupancy
  Bi  Bi0  1  0.49999999  0.58735098  0.62064701  1
  K  K1  1  0.49999999  0.88555796  0.12276999  1
  Sb  Sb2  1  -0.00000000  0.38338198  0.37663801  1
  Hg  Hg3  1  -0.00000000  0.12242399  0.88725603  1
  Se  Se4  1  -0.00000000  0.01948700  0.64311302  1
  Se  Se5  1  0.49999999  0.50536498  0.85169302  1
  Se  Se6  1  0.49999999  0.99751196  0.34936900  1
  Se  Se7  1  -0.00000000  0.49892098  0.14851500  1
