# generated using pymatgen
data_CsRbCd2(AgS2)2
_symmetry_space_group_name_H-M   'P 1'
_cell_length_a   4.51981020
_cell_length_b   7.86006927
_cell_length_c   9.75197792
_cell_angle_alpha   113.59238434
_cell_angle_beta   103.39942169
_cell_angle_gamma   90.00000000
_symmetry_Int_Tables_number   1
_chemical_formula_structural   CsRbCd2(AgS2)2
_chemical_formula_sum   'Cs1 Rb1 Cd2 Ag2 S4'
_cell_volume   307.17261542
_cell_formula_units_Z   1
loop_
 _symmetry_equiv_pos_site_id
 _symmetry_equiv_pos_as_xyz
  1  'x, y, z'
loop_
 _atom_site_type_symbol
 _atom_site_label
 _atom_site_symmetry_multiplicity
 _atom_site_fract_x
 _atom_site_fract_y
 _atom_site_fract_z
 _atom_site_occupancy
  Rb  Rb0  1  0.50537896  0.50716301  0.01075798  1
  Cs  Cs1  1  0.00360300  0.00182300  0.00720600  1
  Cd  Cd2  1  0.80270195  0.48138401  0.60540400  1
  Ag  Ag3  1  0.68020897  0.02834700  0.36041801  1
  Ag  Ag4  1  0.18473398  0.50453901  0.36946800  1
  Cd  Cd5  1  0.30972696  0.96524702  0.61945400  1
  S  S6  1  0.63715096  0.30752701  0.27430200  1
  S  S7  1  0.15431197  0.81709602  0.30862399  1
  S  S8  1  0.36247996  0.69563801  0.72496001  1
  S  S9  1  0.85879095  0.19123600  0.71758201  1
