# generated using pymatgen
data_Li7MnS8
_symmetry_space_group_name_H-M   'P 1'
_cell_length_a   6.37759876
_cell_length_b   6.72165108
_cell_length_c   7.74631500
_cell_angle_alpha   90.00000000
_cell_angle_beta   90.00000000
_cell_angle_gamma   90.00000000
_symmetry_Int_Tables_number   1
_chemical_formula_structural   Li7MnS8
_chemical_formula_sum   'Li7 Mn1 S8'
_cell_volume   332.06898189
_cell_formula_units_Z   1
loop_
 _symmetry_equiv_pos_site_id
 _symmetry_equiv_pos_as_xyz
  1  'x, y, z'
loop_
 _atom_site_type_symbol
 _atom_site_label
 _atom_site_symmetry_multiplicity
 _atom_site_fract_x
 _atom_site_fract_y
 _atom_site_fract_z
 _atom_site_occupancy
  Li  Li0  1  0.00795300  0.14347000  0.50000000  1
  Li  Li1  1  0.50795302  0.85652999  0.00000000  1
  Li  Li2  1  0.49609402  0.31274100  0.74795200  1
  Li  Li3  1  0.49609402  0.31274100  0.25204800  1
  Li  Li4  1  0.99609404  0.68725899  0.75204800  1
  Li  Li5  1  0.99609404  0.68725899  0.24795200  1
  Mn  Mn6  1  0.50665602  0.84087299  0.50000000  1
  Li  Li7  1  0.00665600  0.15912700  0.00000000  1
  S  S8  1  0.87604103  0.33925900  0.75159300  1
  S  S9  1  0.87604103  0.33925900  0.24840700  1
  S  S10  1  0.37604101  0.66074099  0.74840700  1
  S  S11  1  0.37604101  0.66074099  0.25159300  1
  S  S12  1  0.86833203  0.82081599  0.50000000  1
  S  S13  1  0.36833201  0.17918400  0.00000000  1
  S  S14  1  0.38178901  0.15781200  0.50000000  1
  S  S15  1  0.88178903  0.84218799  0.00000000  1
