# generated using pymatgen
data_Li2CrCuGe2Te4(SeI)2
_symmetry_space_group_name_H-M   'P 1'
_cell_length_a   5.92663050
_cell_length_b   5.92663050
_cell_length_c   10.24153900
_cell_angle_alpha   90.00000000
_cell_angle_beta   90.00000000
_cell_angle_gamma   118.81847382
_symmetry_Int_Tables_number   1
_chemical_formula_structural   Li2CrCuGe2Te4(SeI)2
_chemical_formula_sum   'Li2 Cr1 Cu1 Ge2 Te4 Se2 I2'
_cell_volume   315.18100601
_cell_formula_units_Z   1
loop_
 _symmetry_equiv_pos_site_id
 _symmetry_equiv_pos_as_xyz
  1  'x, y, z'
loop_
 _atom_site_type_symbol
 _atom_site_label
 _atom_site_symmetry_multiplicity
 _atom_site_fract_x
 _atom_site_fract_y
 _atom_site_fract_z
 _atom_site_occupancy
  Li  Li0  1  0.50000002  0.50000000  0.25000000  1
  Li  Li1  1  0.50000002  0.50000000  0.75000000  1
  Cr  Cr2  1  0.23717005  0.76633600  0.50000000  1
  Cu  Cu3  1  0.76282999  0.23366400  0.50000000  1
  Ge  Ge4  1  0.23366405  0.76283000  -0.00000000  1
  Ge  Ge5  1  0.76633599  0.23717000  -0.00000000  1
  Te  Te6  1  0.19152402  0.35256500  0.50000000  1
  Se  Se7  1  0.80847602  0.64743500  0.50000000  1
  Se  Se8  1  0.64743504  0.80847600  -0.00000000  1
  Te  Te9  1  0.35256500  0.19152400  -0.00000000  1
  Te  Te10  1  0.00000003  0.50000000  0.16998200  1
  I  I11  1  0.50000005  1.00000000  0.33001800  1
  I  I12  1  0.00000003  0.50000000  0.83001800  1
  Te  Te13  1  0.50000005  1.00000000  0.66998200  1
