# generated using pymatgen
data_BaLa3NdS5
_symmetry_space_group_name_H-M   'P 1'
_cell_length_a   4.72427607
_cell_length_b   6.76229382
_cell_length_c   12.82926941
_cell_angle_alpha   105.28077698
_cell_angle_beta   100.60988617
_cell_angle_gamma   90.00000000
_symmetry_Int_Tables_number   1
_chemical_formula_structural   BaLa3NdS5
_chemical_formula_sum   'Ba1 La3 Nd1 S5'
_cell_volume   388.09725388
_cell_formula_units_Z   1
loop_
 _symmetry_equiv_pos_site_id
 _symmetry_equiv_pos_as_xyz
  1  'x, y, z'
loop_
 _atom_site_type_symbol
 _atom_site_label
 _atom_site_symmetry_multiplicity
 _atom_site_fract_x
 _atom_site_fract_y
 _atom_site_fract_z
 _atom_site_occupancy
  Ba  Ba0  1  0.60608696  0.60842701  0.21217397  1
  La  La1  1  0.20359399  0.20436600  0.40718799  1
  La  La2  1  0.79640595  0.79717801  0.59281196  1
  Nd  Nd3  1  0.39391298  0.39625301  0.78782598  1
  La  La4  1  0.11015298  0.37086601  0.22030699  1
  S  S5  1  0.70115095  0.95767801  0.40230196  1
  S  S6  1  0.29884797  0.55537501  0.59769698  1
  S  S7  1  0.88984597  0.15055900  0.77969197  1
  S  S8  1  0.49999996  0.70357301  0.99999997  1
  S  S9  1  -0.00000000  0.00572400  -0.00000000  1
