# generated using pymatgen
data_CsRbAgHg5Br8
_symmetry_space_group_name_H-M   'P 1'
_cell_length_a   4.68042421
_cell_length_b   11.20504379
_cell_length_c   11.67802525
_cell_angle_alpha   93.17704010
_cell_angle_beta   90.00000000
_cell_angle_gamma   90.00000000
_symmetry_Int_Tables_number   1
_chemical_formula_structural   CsRbAgHg5Br8
_chemical_formula_sum   'Cs1 Rb1 Ag1 Hg5 Br8'
_cell_volume   611.50524220
_cell_formula_units_Z   1
loop_
 _symmetry_equiv_pos_site_id
 _symmetry_equiv_pos_as_xyz
  1  'x, y, z'
loop_
 _atom_site_type_symbol
 _atom_site_label
 _atom_site_symmetry_multiplicity
 _atom_site_fract_x
 _atom_site_fract_y
 _atom_site_fract_z
 _atom_site_occupancy
  Rb  Rb0  1  0.49999998  0.13243500  0.15268401  1
  Cs  Cs1  1  0.49999998  0.57952701  0.29997703  1
  Hg  Hg2  1  0.99999995  0.98908702  0.44447705  1
  Hg  Hg3  1  0.99999995  0.35970901  0.61105503  1
  Ag  Ag4  1  0.49999998  0.71159401  0.66377104  1
  Hg  Hg5  1  0.49999998  0.07409900  0.76962802  1
  Hg  Hg6  1  0.49999998  0.45616601  0.93697004  1
  Hg  Hg7  1  -0.00000000  0.81047102  0.98920905  1
  Br  Br8  1  0.99999995  0.41614801  0.06653802  1
  Br  Br9  1  -0.00000000  0.85264102  0.22946404  1
  Br  Br10  1  -0.00000000  0.22992600  0.40426602  1
  Br  Br11  1  0.49999998  0.93512202  0.56622605  1
  Br  Br12  1  -0.00000000  0.60357701  0.57209404  1
  Br  Br13  1  0.49999998  0.31706501  0.73441803  1
  Br  Br14  1  -0.00000000  0.03148000  0.89400202  1
  Br  Br15  1  0.49999998  0.70088901  0.90345905  1
