# generated using pymatgen
data_BaNbTl2SbPbO8
_symmetry_space_group_name_H-M   'P 1'
_cell_length_a   3.87810111
_cell_length_b   7.44113779
_cell_length_c   7.44113827
_cell_angle_alpha   120.00000000
_cell_angle_beta   90.00000000
_cell_angle_gamma   90.00000000
_symmetry_Int_Tables_number   1
_chemical_formula_structural   BaNbTl2SbPbO8
_chemical_formula_sum   'Ba1 Nb1 Tl2 Sb1 Pb1 O8'
_cell_volume   185.96382940
_cell_formula_units_Z   1
loop_
 _symmetry_equiv_pos_site_id
 _symmetry_equiv_pos_as_xyz
  1  'x, y, z'
loop_
 _atom_site_type_symbol
 _atom_site_label
 _atom_site_symmetry_multiplicity
 _atom_site_fract_x
 _atom_site_fract_y
 _atom_site_fract_z
 _atom_site_occupancy
  Nb  Nb0  1  0.00000000  0.22166801  0.77833202  1
  Ba  Ba1  1  0.00000000  0.55666403  0.77833203  1
  Tl  Tl2  1  0.00000000  0.22166801  0.44333602  1
  Tl  Tl3  1  0.00000000  0.83282404  0.16717503  1
  Pb  Pb4  1  0.49999999  0.50835102  0.01670202  1
  Sb  Sb5  1  0.49999999  0.98329705  0.49164804  1
  O  O6  1  0.49999999  0.50835102  0.49164803  1
  O  O7  1  0.99999997  0.66666670  0.33333336  1
  O  O8  1  0.99999997  0.83282404  0.66564804  1
  O  O9  1  0.00000000  0.33435102  0.16717501  1
  O  O10  1  0.49999999  0.00000000  0.00000000  1
  O  O11  1  0.00000000  0.50862502  0.01725002  1
  O  O12  1  0.99999997  0.50862502  0.49137403  1
  O  O13  1  0.99999997  0.98274905  0.49137404  1
