# generated using pymatgen
data_ZnGa(WO4)3
_symmetry_space_group_name_H-M   'P 1'
_cell_length_a   5.13804007
_cell_length_b   5.28614426
_cell_length_c   7.38880539
_cell_angle_alpha   87.22127533
_cell_angle_beta   89.85567474
_cell_angle_gamma   89.96392059
_symmetry_Int_Tables_number   1
_chemical_formula_structural   ZnGa(WO4)3
_chemical_formula_sum   'Zn1 Ga1 W3 O12'
_cell_volume   200.44644151
_cell_formula_units_Z   1
loop_
 _symmetry_equiv_pos_site_id
 _symmetry_equiv_pos_as_xyz
  1  'x, y, z'
loop_
 _atom_site_type_symbol
 _atom_site_label
 _atom_site_symmetry_multiplicity
 _atom_site_fract_x
 _atom_site_fract_y
 _atom_site_fract_z
 _atom_site_occupancy
  Zn  Zn0  1  0.49946000  0.05133100  0.28703700  1
  Ga  Ga1  1  0.49155202  0.49090698  0.50900699  1
  W  W2  1  0.50196602  0.49483698  0.99884601  1
  W  W3  1  0.99255704  0.99192196  0.49528497  1
  W  W4  1  0.00543106  0.99355596  0.99070199  1
  O  O5  1  0.69627104  0.79238597  0.43440998  1
  O  O6  1  0.89214905  0.98908896  0.74703198  1
  O  O7  1  0.68731000  0.17776599  0.05502499  1
  O  O8  1  0.78623401  0.28767499  0.43898100  1
  O  O9  1  0.19164301  0.30294399  0.93996401  1
  O  O10  1  0.60663902  0.48557798  0.74543100  1
  O  O11  1  0.39552002  0.49160998  0.24499799  1
  O  O12  1  0.81119003  0.68827397  0.04825497  1
  O  O13  1  0.20707304  0.68953297  0.54663199  1
  O  O14  1  0.31334704  0.80512797  0.94090599  1
  O  O15  1  0.11926106  0.99391196  0.24432797  1
  O  O16  1  0.30239601  0.18795299  0.54036001  1
