# generated using pymatgen
data_NaMnSeS
_symmetry_space_group_name_H-M   'P 1'
_cell_length_a   4.08013010
_cell_length_b   4.08012962
_cell_length_c   6.41539383
_cell_angle_alpha   90.00000000
_cell_angle_beta   90.00000000
_cell_angle_gamma   120.00000000
_symmetry_Int_Tables_number   1
_chemical_formula_structural   NaMnSeS
_chemical_formula_sum   'Na1 Mn1 Se1 S1'
_cell_volume   92.49152193
_cell_formula_units_Z   1
loop_
 _symmetry_equiv_pos_site_id
 _symmetry_equiv_pos_as_xyz
  1  'x, y, z'
loop_
 _atom_site_type_symbol
 _atom_site_label
 _atom_site_symmetry_multiplicity
 _atom_site_fract_x
 _atom_site_fract_y
 _atom_site_fract_z
 _atom_site_occupancy
  Na  Na0  1  0.33333330  0.66666668  0.01157900  1
  Mn  Mn1  1  0.00000000  0.00000000  0.62774502  1
  S  S2  1  0.00000000  0.00000000  0.24772901  1
  Se  Se3  1  0.66666664  0.33333334  0.74094702  1
