# generated using pymatgen
data_KRb3Al2O4
_symmetry_space_group_name_H-M   'P 1'
_cell_length_a   4.49495888
_cell_length_b   7.51993656
_cell_length_c   8.98978615
_cell_angle_alpha   107.39190674
_cell_angle_beta   89.99452209
_cell_angle_gamma   107.39034271
_symmetry_Int_Tables_number   1
_chemical_formula_structural   KRb3Al2O4
_chemical_formula_sum   'K1 Rb3 Al2 O4'
_cell_volume   275.39214874
_cell_formula_units_Z   1
loop_
 _symmetry_equiv_pos_site_id
 _symmetry_equiv_pos_as_xyz
  1  'x, y, z'
loop_
 _atom_site_type_symbol
 _atom_site_label
 _atom_site_symmetry_multiplicity
 _atom_site_fract_x
 _atom_site_fract_y
 _atom_site_fract_z
 _atom_site_occupancy
  K  K0  1  0.65329301  0.30657300  0.32663999  1
  Rb  Rb1  1  0.65329401  0.30657500  0.82664098  1
  Rb  Rb2  1  0.34670699  0.69342700  0.67336001  1
  Rb  Rb3  1  0.34670699  0.69342600  0.17335902  1
  Al  Al4  1  0.00000000  0.00000000  0.49999999  1
  Al  Al5  1  0.00000000  0.00000000  0.00000000  1
  O  O6  1  0.87371400  0.74743900  0.43685200  1
  O  O7  1  0.87371100  0.74744000  0.93686199  1
  O  O8  1  0.12628599  0.25256100  0.56314700  1
  O  O9  1  0.12628899  0.25256000  0.06313801  1
