# generated using pymatgen
data_Ca3CdBi3SbS12
_symmetry_space_group_name_H-M   'P 1'
_cell_length_a   4.08703995
_cell_length_b   9.99368000
_cell_length_c   14.10391617
_cell_angle_alpha   90.00000000
_cell_angle_beta   90.00000000
_cell_angle_gamma   90.00000000
_symmetry_Int_Tables_number   1
_chemical_formula_structural   Ca3CdBi3SbS12
_chemical_formula_sum   'Ca3 Cd1 Bi3 Sb1 S12'
_cell_volume   576.06838252
_cell_formula_units_Z   1
loop_
 _symmetry_equiv_pos_site_id
 _symmetry_equiv_pos_as_xyz
  1  'x, y, z'
loop_
 _atom_site_type_symbol
 _atom_site_label
 _atom_site_symmetry_multiplicity
 _atom_site_fract_x
 _atom_site_fract_y
 _atom_site_fract_z
 _atom_site_occupancy
  Cd  Cd0  1  0.25000000  0.64757700  0.54655599  1
  Ca  Ca1  1  0.75000001  0.35242300  0.45344399  1
  Ca  Ca2  1  0.75000001  0.85242300  0.04655600  1
  Ca  Ca3  1  0.25000000  0.14757700  0.95344399  1
  Bi  Bi4  1  0.25000000  0.52803400  0.13733500  1
  Bi  Bi5  1  0.75000001  0.47196600  0.86266499  1
  Bi  Bi6  1  0.75000001  0.97196600  0.63733499  1
  Sb  Sb7  1  0.25000000  0.02803400  0.36266500  1
  S  S8  1  0.25000000  0.00284500  0.11790300  1
  S  S9  1  0.75000001  0.99715500  0.88209699  1
  S  S10  1  0.75000001  0.49715500  0.61790299  1
  S  S11  1  0.25000000  0.50284500  0.38209700  1
  S  S12  1  0.25000000  0.81209500  0.70327099  1
  S  S13  1  0.75000001  0.18790500  0.29672900  1
  S  S14  1  0.75000001  0.68790500  0.20327100  1
  S  S15  1  0.25000000  0.31209500  0.79672899  1
  S  S16  1  0.25000000  0.66102500  0.97428999  1
  S  S17  1  0.75000001  0.33897500  0.02571000  1
  S  S18  1  0.75000001  0.83897500  0.47428999  1
  S  S19  1  0.25000000  0.16102500  0.52570999  1
