# generated using pymatgen
data_Na2ZnSiAg(PO5)2
_symmetry_space_group_name_H-M   'P 1'
_cell_length_a   6.69399881
_cell_length_b   6.69989586
_cell_length_c   6.69989634
_cell_angle_alpha   109.38096619
_cell_angle_beta   109.48786163
_cell_angle_gamma   109.48786926
_symmetry_Int_Tables_number   1
_chemical_formula_structural   Na2ZnSiAg(PO5)2
_chemical_formula_sum   'Na2 Zn1 Si1 Ag1 P2 O10'
_cell_volume   231.47518571
_cell_formula_units_Z   1
loop_
 _symmetry_equiv_pos_site_id
 _symmetry_equiv_pos_as_xyz
  1  'x, y, z'
loop_
 _atom_site_type_symbol
 _atom_site_label
 _atom_site_symmetry_multiplicity
 _atom_site_fract_x
 _atom_site_fract_y
 _atom_site_fract_z
 _atom_site_occupancy
  Zn  Zn0  1  1.00000000  0.49625201  0.50374803  1
  Na  Na1  1  0.49999999  0.02473000  0.97527100  1
  Ag  Ag2  1  0.02638800  0.02330300  0.55625999  1
  Na  Na3  1  0.97361200  0.44374001  0.97669701  1
  Si  Si4  1  0.50000001  0.49519401  0.50480500  1
  P  P5  1  0.00000003  0.96076402  0.03923496  1
  P  P6  1  0.53537701  0.56906301  0.03855701  1
  O  O7  1  0.46462203  0.96144202  0.43093598  1
  O  O8  1  0.76149902  0.75347602  0.02253501  1
  O  O9  1  0.23850103  0.97746502  0.24652397  1
  O  O10  1  0.02910701  0.22814001  0.16194099  1
  O  O11  1  0.97089402  0.83806002  0.77186100  1
  O  O12  1  0.62420401  0.42501001  0.16558402  1
  O  O13  1  0.37579602  0.83441602  0.57498997  1
  O  O14  1  0.29957801  0.42284501  0.76897898  1
  O  O15  1  0.70042200  0.23102101  0.57715502  1
  O  O16  1  0.50000002  0.76307802  0.23692099  1
