# generated using pymatgen
data_SrTh3Bi2SbPbF
_symmetry_space_group_name_H-M   'P 1'
_cell_length_a   7.33017111
_cell_length_b   7.96062803
_cell_length_c   7.96062899
_cell_angle_alpha   60.00000381
_cell_angle_beta   90.00000000
_cell_angle_gamma   90.00000000
_symmetry_Int_Tables_number   1
_chemical_formula_structural   SrTh3Bi2SbPbF
_chemical_formula_sum   'Sr1 Th3 Bi2 Sb1 Pb1 F1'
_cell_volume   402.29022136
_cell_formula_units_Z   1
loop_
 _symmetry_equiv_pos_site_id
 _symmetry_equiv_pos_as_xyz
  1  'x, y, z'
loop_
 _atom_site_type_symbol
 _atom_site_label
 _atom_site_symmetry_multiplicity
 _atom_site_fract_x
 _atom_site_fract_y
 _atom_site_fract_z
 _atom_site_occupancy
  Th  Th0  1  0.00000000  0.00000000  0.00000000  1
  Th  Th1  1  0.49999999  0.33333333  0.33333333  1
  Th  Th2  1  0.49999999  0.66666666  0.66666666  1
  Sr  Sr3  1  0.25653300  0.34658900  0.65341099  1
  Bi  Bi4  1  0.74346699  0.65341099  0.34658900  1
  Pb  Pb5  1  0.25653300  0.65341099  0.99999998  1
  F  F6  1  0.74346699  0.34658900  0.00000000  1
  Bi  Bi7  1  0.74346699  0.00000000  0.65341098  1
  Sb  Sb8  1  0.25653300  0.00000000  0.34658899  1
