# generated using pymatgen
data_AgSCl4
_symmetry_space_group_name_H-M   'P 1'
_cell_length_a   5.43325949
_cell_length_b   5.43325949
_cell_length_c   5.62789440
_cell_angle_alpha   89.52229309
_cell_angle_beta   89.52229309
_cell_angle_gamma   66.14560699
_symmetry_Int_Tables_number   1
_chemical_formula_structural   AgSCl4
_chemical_formula_sum   'Ag1 S1 Cl4'
_cell_volume   151.93758223
_cell_formula_units_Z   1
loop_
 _symmetry_equiv_pos_site_id
 _symmetry_equiv_pos_as_xyz
  1  'x, y, z'
loop_
 _atom_site_type_symbol
 _atom_site_label
 _atom_site_symmetry_multiplicity
 _atom_site_fract_x
 _atom_site_fract_y
 _atom_site_fract_z
 _atom_site_occupancy
  Ag  Ag0  1  0.49999997  0.50000002  0.50000005  1
  S  S1  1  -0.00000003  0.50000002  0.50000003  1
  Cl  Cl2  1  0.50000000  0.00000000  0.50000003  1
  Cl  Cl3  1  0.49999997  0.50000002  0.00000004  1
  Cl  Cl4  1  0.68245796  0.68245802  0.75514807  1
  Cl  Cl5  1  0.31754198  0.31754201  0.24485203  1
