# generated using pymatgen
data_BaSr5(Te4Pb)2
_symmetry_space_group_name_H-M   'P 1'
_cell_length_a   9.20843792
_cell_length_b   9.31332970
_cell_length_c   9.20843792
_cell_angle_alpha   119.62813568
_cell_angle_beta   90.00000000
_cell_angle_gamma   119.62813568
_symmetry_Int_Tables_number   1
_chemical_formula_structural   BaSr5(Te4Pb)2
_chemical_formula_sum   'Ba1 Sr5 Te8 Pb2'
_cell_volume   564.64035122
_cell_formula_units_Z   1
loop_
 _symmetry_equiv_pos_site_id
 _symmetry_equiv_pos_as_xyz
  1  'x, y, z'
loop_
 _atom_site_type_symbol
 _atom_site_label
 _atom_site_symmetry_multiplicity
 _atom_site_fract_x
 _atom_site_fract_y
 _atom_site_fract_z
 _atom_site_occupancy
  Ba  Ba0  1  0.00000000  0.00000000  0.00000000  1
  Sr  Sr1  1  0.50000000  0.00000000  0.50000000  1
  Sr  Sr2  1  0.00364103  0.30140102  0.79776003  1
  Sr  Sr3  1  0.29776003  0.30140102  0.50364103  1
  Sr  Sr4  1  0.50364103  0.30140102  0.00364103  1
  Sr  Sr5  1  0.79776003  0.30140102  0.29776003  1
  Pb  Pb6  1  0.99635907  0.69859905  0.20224006  1
  Pb  Pb7  1  0.70224007  0.69859905  0.49635907  1
  Te  Te8  1  0.49635907  0.69859905  0.99635907  1
  Te  Te9  1  0.20224006  0.69859905  0.70224007  1
  Te  Te10  1  0.65609209  0.99999908  0.84390709  1
  Te  Te11  1  0.34390800  0.00000100  0.15609300  1
  Te  Te12  1  0.15609200  0.00000000  0.65609201  1
  Te  Te13  1  0.84390801  0.00000000  0.34390800  1
  Te  Te14  1  0.25000005  0.50000004  0.25000005  1
  Te  Te15  1  0.75000005  0.50000004  0.75000005  1
