# generated using pymatgen
data_Mo3W(Se3S)2
_symmetry_space_group_name_H-M   'P 1'
_cell_length_a   3.28752589
_cell_length_b   3.28752589
_cell_length_c   37.30858231
_cell_angle_alpha   90.00000000
_cell_angle_beta   90.00000000
_cell_angle_gamma   120.00000000
_symmetry_Int_Tables_number   1
_chemical_formula_structural   Mo3W(Se3S)2
_chemical_formula_sum   'Mo3 W1 Se6 S2'
_cell_volume   349.20281998
_cell_formula_units_Z   1
loop_
 _symmetry_equiv_pos_site_id
 _symmetry_equiv_pos_as_xyz
  1  'x, y, z'
loop_
 _atom_site_type_symbol
 _atom_site_label
 _atom_site_symmetry_multiplicity
 _atom_site_fract_x
 _atom_site_fract_y
 _atom_site_fract_z
 _atom_site_occupancy
  Mo  Mo0  1  0.66666669  0.33333334  0.90608302  1
  Mo  Mo1  1  0.66666669  0.33333334  0.53036701  1
  Mo  Mo2  1  0.33333334  0.66666668  0.71822301  1
  W  W3  1  0.33333334  0.66666668  0.34244801  1
  Se  Se4  1  0.66666669  0.33333334  0.29725001  1
  Se  Se5  1  0.33333334  0.66666668  0.95128102  1
  Se  Se6  1  0.33333334  0.66666668  0.57555301  1
  Se  Se7  1  0.33333334  0.66666668  0.86085602  1
  Se  Se8  1  0.33333334  0.66666668  0.48513101  1
  Se  Se9  1  0.66666669  0.33333334  0.38767301  1
  S  S10  1  0.66666669  0.33333334  0.67702201  1
  S  S11  1  0.66666669  0.33333334  0.75936601  1
