# generated using pymatgen
data_CsRb3Cd2InSbP2
_symmetry_space_group_name_H-M   'P 1'
_cell_length_a   7.28899002
_cell_length_b   8.03620243
_cell_length_c   9.44155312
_cell_angle_alpha   115.18714142
_cell_angle_beta   112.70619965
_cell_angle_gamma   90.00000000
_symmetry_Int_Tables_number   1
_chemical_formula_structural   CsRb3Cd2InSbP2
_chemical_formula_sum   'Cs1 Rb3 Cd2 In1 Sb1 P2'
_cell_volume   452.64901868
_cell_formula_units_Z   1
loop_
 _symmetry_equiv_pos_site_id
 _symmetry_equiv_pos_as_xyz
  1  'x, y, z'
loop_
 _atom_site_type_symbol
 _atom_site_label
 _atom_site_symmetry_multiplicity
 _atom_site_fract_x
 _atom_site_fract_y
 _atom_site_fract_z
 _atom_site_occupancy
  Rb  Rb0  1  0.35417600  0.02757000  0.70835200  1
  Rb  Rb1  1  0.14582398  0.31921797  0.29164797  1
  Rb  Rb2  1  0.85417596  0.68078194  0.70835194  1
  Cs  Cs3  1  0.64582395  0.97242991  0.29164792  1
  Cd  Cd4  1  0.24999997  0.49999995  -0.00000004  1
  Cd  Cd5  1  0.74999997  0.49999995  -0.00000005  1
  In  In6  1  0.59817497  0.42008596  0.19634896  1
  P  P7  1  0.09817396  0.77626293  0.19634794  1
  Sb  Sb8  1  0.90182598  0.22373698  0.80365197  1
  P  P9  1  0.40182497  0.57991395  0.80365095  1
