# generated using pymatgen
data_CsKNa2O4
_symmetry_space_group_name_H-M   'P 1'
_cell_length_a   3.43216395
_cell_length_b   3.43216372
_cell_length_c   14.28176880
_cell_angle_alpha   90.00000000
_cell_angle_beta   90.00000000
_cell_angle_gamma   120.00000000
_symmetry_Int_Tables_number   1
_chemical_formula_structural   CsKNa2O4
_chemical_formula_sum   'Cs1 K1 Na2 O4'
_cell_volume   145.69634311
_cell_formula_units_Z   1
loop_
 _symmetry_equiv_pos_site_id
 _symmetry_equiv_pos_as_xyz
  1  'x, y, z'
loop_
 _atom_site_type_symbol
 _atom_site_label
 _atom_site_symmetry_multiplicity
 _atom_site_fract_x
 _atom_site_fract_y
 _atom_site_fract_z
 _atom_site_occupancy
  Cs  Cs0  1  0.00000000  0.00000000  0.00000000  1
  K  K1  1  0.00000000  0.00000000  0.50000001  1
  Na  Na2  1  0.00000000  0.00000000  0.75000001  1
  Na  Na3  1  0.00000000  0.00000000  0.25000000  1
  O  O4  1  0.66666666  0.33333334  0.85920701  1
  O  O5  1  0.66666666  0.33333334  0.64079301  1
  O  O6  1  0.33333331  0.66666667  0.35920701  1
  O  O7  1  0.33333331  0.66666667  0.14079300  1
