# generated using pymatgen
data_K2MgIn(HO2)2
_symmetry_space_group_name_H-M   'P 1'
_cell_length_a   5.59924507
_cell_length_b   5.95254421
_cell_length_c   7.20211077
_cell_angle_alpha   65.59084320
_cell_angle_beta   90.00000000
_cell_angle_gamma   90.00000000
_symmetry_Int_Tables_number   1
_chemical_formula_structural   K2MgIn(HO2)2
_chemical_formula_sum   'K2 Mg1 In1 H2 O4'
_cell_volume   218.58882525
_cell_formula_units_Z   1
loop_
 _symmetry_equiv_pos_site_id
 _symmetry_equiv_pos_as_xyz
  1  'x, y, z'
loop_
 _atom_site_type_symbol
 _atom_site_label
 _atom_site_symmetry_multiplicity
 _atom_site_fract_x
 _atom_site_fract_y
 _atom_site_fract_z
 _atom_site_occupancy
  K  K0  1  0.74999999  0.37218399  0.25563200  1
  K  K1  1  0.25000000  0.62781598  0.74436799  1
  In  In2  1  0.74999999  0.06853900  0.86292200  1
  Mg  Mg3  1  0.25000000  0.93146097  0.13707800  1
  H  H4  1  0.25000000  0.25302299  0.49395400  1
  H  H5  1  0.74999999  0.74697697  0.50604600  1
  O  O6  1  0.49999999  0.78305097  -0.00000000  1
  O  O7  1  0.99999999  0.21694899  0.99999999  1
  O  O8  1  0.00000000  0.78305097  -0.00000000  1
  O  O9  1  0.49999999  0.21694899  0.99999999  1
