# generated using pymatgen
data_KNaAgHgAsF5
_symmetry_space_group_name_H-M   'P 1'
_cell_length_a   4.06163788
_cell_length_b   5.95623493
_cell_length_c   10.36558914
_cell_angle_alpha   102.56803894
_cell_angle_beta   90.00000000
_cell_angle_gamma   109.93518066
_symmetry_Int_Tables_number   1
_chemical_formula_structural   KNaAgHgAsF5
_chemical_formula_sum   'K1 Na1 Ag1 Hg1 As1 F5'
_cell_volume   229.33683364
_cell_formula_units_Z   1
loop_
 _symmetry_equiv_pos_site_id
 _symmetry_equiv_pos_as_xyz
  1  'x, y, z'
loop_
 _atom_site_type_symbol
 _atom_site_label
 _atom_site_symmetry_multiplicity
 _atom_site_fract_x
 _atom_site_fract_y
 _atom_site_fract_z
 _atom_site_occupancy
  Na  Na0  1  0.70559902  0.41119799  0.86434398  1
  K  K1  1  0.29440101  0.58880199  0.13565600  1
  Hg  Hg2  1  0.38419101  0.76838199  0.61620099  1
  Ag  Ag3  1  0.61580902  0.23161800  0.38379899  1
  As  As4  1  0.15999901  0.31999800  0.58441799  1
  F  F5  1  0.84000103  0.68000199  0.41558199  1
  F  F6  1  0.90971703  0.81943399  0.79812298  1
  F  F7  1  0.09028300  0.18056600  0.20187700  1
  F  F8  1  0.25159801  0.50319599  0.93162998  1
  F  F9  1  0.74840202  0.49680399  0.06837000  1
