# generated using pymatgen
data_CsKTlInF4
_symmetry_space_group_name_H-M   'P 1'
_cell_length_a   3.81794190
_cell_length_b   3.81794214
_cell_length_c   14.65963745
_cell_angle_alpha   90.00000000
_cell_angle_beta   90.00000000
_cell_angle_gamma   120.00000000
_symmetry_Int_Tables_number   1
_chemical_formula_structural   CsKTlInF4
_chemical_formula_sum   'Cs1 K1 Tl1 In1 F4'
_cell_volume   185.05998386
_cell_formula_units_Z   1
loop_
 _symmetry_equiv_pos_site_id
 _symmetry_equiv_pos_as_xyz
  1  'x, y, z'
loop_
 _atom_site_type_symbol
 _atom_site_label
 _atom_site_symmetry_multiplicity
 _atom_site_fract_x
 _atom_site_fract_y
 _atom_site_fract_z
 _atom_site_occupancy
  Cs  Cs0  1  0.66666670  0.33333335  0.91791697  1
  K  K1  1  0.66666670  0.33333335  0.58208298  1
  Tl  Tl2  1  0.33333337  0.66666669  0.41791699  1
  In  In3  1  0.33333337  0.66666669  0.08208300  1
  F  F4  1  0.66666670  0.33333335  0.24999999  1
  F  F5  1  0.33333337  0.66666669  0.74999998  1
  F  F6  1  0.00000000  0.00000000  0.00000000  1
  F  F7  1  0.00000000  0.00000000  0.49999998  1
