# generated using pymatgen
data_Cs2Pd2AuS4
_symmetry_space_group_name_H-M   'P 1'
_cell_length_a   6.29968786
_cell_length_b   6.29968786
_cell_length_c   7.86075830
_cell_angle_alpha   102.05998993
_cell_angle_beta   102.05998993
_cell_angle_gamma   118.59265900
_symmetry_Int_Tables_number   1
_chemical_formula_structural   Cs2Pd2AuS4
_chemical_formula_sum   'Cs2 Pd2 Au1 S4'
_cell_volume   249.93432592
_cell_formula_units_Z   1
loop_
 _symmetry_equiv_pos_site_id
 _symmetry_equiv_pos_as_xyz
  1  'x, y, z'
loop_
 _atom_site_type_symbol
 _atom_site_label
 _atom_site_symmetry_multiplicity
 _atom_site_fract_x
 _atom_site_fract_y
 _atom_site_fract_z
 _atom_site_occupancy
  Cs  Cs0  1  0.16126799  0.16126799  0.32253599  1
  Cs  Cs1  1  0.83873194  0.83873197  0.67746394  1
  Au  Au2  1  0.49999996  0.49999998  0.99999998  1
  Pd  Pd3  1  -0.00000004  0.49999998  -0.00000003  1
  Pd  Pd4  1  0.50000000  0.00000000  1.00000001  1
  S  S5  1  0.77422897  0.43724098  0.21146995  1
  S  S6  1  0.56275898  0.22577099  0.78852998  1
  S  S7  1  0.22577096  0.56275898  0.78852998  1
  S  S8  1  0.43724094  0.77422897  0.21146994  1
