# generated using pymatgen
data_KRbAgSnHgAs2Ir
_symmetry_space_group_name_H-M   'P 1'
_cell_length_a   6.93463993
_cell_length_b   7.03803587
_cell_length_c   7.03803587
_cell_angle_alpha   75.95355225
_cell_angle_beta   60.48479462
_cell_angle_gamma   60.48479462
_symmetry_Int_Tables_number   1
_chemical_formula_structural   KRbAgSnHgAs2Ir
_chemical_formula_sum   'Rb1 K1 Ag1 Sn1 Hg1 As2 Ir1'
_cell_volume   260.12971376
_cell_formula_units_Z   1
loop_
 _symmetry_equiv_pos_site_id
 _symmetry_equiv_pos_as_xyz
  1  'x, y, z'
loop_
 _atom_site_type_symbol
 _atom_site_label
 _atom_site_symmetry_multiplicity
 _atom_site_fract_x
 _atom_site_fract_y
 _atom_site_fract_z
 _atom_site_occupancy
  Rb  Rb0  1  0.25000001  0.00000000  -0.00000001  1
  K  K1  1  0.75000002  0.00000000  -0.00000002  1
  Hg  Hg2  1  0.74999998  0.50000000  0.50000002  1
  Ag  Ag3  1  0.24999997  0.50000000  0.50000003  1
  As  As4  1  0.83251296  0.83497500  0.50000004  1
  Ir  Ir5  1  0.16748699  0.16502500  0.50000000  1
  As  As6  1  0.66748798  0.50000000  0.16502402  1
  Sn  Sn7  1  0.33251197  0.50000000  0.83497602  1
