# generated using pymatgen
data_Na4AgS3
_symmetry_space_group_name_H-M   'P 1'
_cell_length_a   4.41294289
_cell_length_b   4.41294289
_cell_length_c   9.52703762
_cell_angle_alpha   90.00000000
_cell_angle_beta   90.00000000
_cell_angle_gamma   90.00000000
_symmetry_Int_Tables_number   1
_chemical_formula_structural   Na4AgS3
_chemical_formula_sum   'Na4 Ag1 S3'
_cell_volume   185.53014910
_cell_formula_units_Z   1
loop_
 _symmetry_equiv_pos_site_id
 _symmetry_equiv_pos_as_xyz
  1  'x, y, z'
loop_
 _atom_site_type_symbol
 _atom_site_label
 _atom_site_symmetry_multiplicity
 _atom_site_fract_x
 _atom_site_fract_y
 _atom_site_fract_z
 _atom_site_occupancy
  Na  Na0  1  -0.00000000  0.50000001  0.83959603  1
  Na  Na1  1  0.50000001  0.00000000  0.16040401  1
  Na  Na2  1  0.50000001  0.50000001  0.50000002  1
  Na  Na3  1  0.00000000  0.00000000  0.50000002  1
  S  S4  1  -0.00000000  0.50000001  0.31920601  1
  Ag  Ag5  1  0.50000001  0.00000000  0.68079403  1
  S  S6  1  0.50000001  0.50000001  0.00000000  1
  S  S7  1  0.00000000  0.00000000  0.00000000  1
