# generated using pymatgen
data_KLiMnCoF7
_symmetry_space_group_name_H-M   'P 1'
_cell_length_a   5.07936239
_cell_length_b   5.42301464
_cell_length_c   5.42301464
_cell_angle_alpha   73.60362244
_cell_angle_beta   81.79563904
_cell_angle_gamma   98.20436096
_symmetry_Int_Tables_number   1
_chemical_formula_structural   KLiMnCoF7
_chemical_formula_sum   'K1 Li1 Mn1 Co1 F7'
_cell_volume   139.17893459
_cell_formula_units_Z   1
loop_
 _symmetry_equiv_pos_site_id
 _symmetry_equiv_pos_as_xyz
  1  'x, y, z'
loop_
 _atom_site_type_symbol
 _atom_site_label
 _atom_site_symmetry_multiplicity
 _atom_site_fract_x
 _atom_site_fract_y
 _atom_site_fract_z
 _atom_site_occupancy
  Li  Li0  1  0.89535197  0.24323399  0.75676598  1
  K  K1  1  0.10464798  0.75676598  0.24323396  1
  Co  Co2  1  0.49999998  0.31504499  0.31504498  1
  Mn  Mn3  1  0.49999997  0.68495498  0.68495495  1
  F  F4  1  0.22227298  0.42854399  0.57145596  1
  F  F5  1  0.77772696  0.57145598  0.42854397  1
  F  F6  1  0.29409897  0.94531697  0.38961595  1
  F  F7  1  0.70590097  0.38961599  0.94531696  1
  F  F8  1  0.00000000  0.00000000  0.00000000  1
  F  F9  1  0.29409897  0.61038398  0.05468298  1
  F  F10  1  0.70590098  0.05468300  0.61038399  1
