# generated using pymatgen
data_KRb3Ge2Te2PSe3
_symmetry_space_group_name_H-M   'P 1'
_cell_length_a   7.58779192
_cell_length_b   8.28820801
_cell_length_c   9.56970406
_cell_angle_alpha   73.01033783
_cell_angle_beta   66.64364624
_cell_angle_gamma   62.75822830
_symmetry_Int_Tables_number   1
_chemical_formula_structural   KRb3Ge2Te2PSe3
_chemical_formula_sum   'K1 Rb3 Ge2 Te2 P1 Se3'
_cell_volume   486.69078587
_cell_formula_units_Z   1
loop_
 _symmetry_equiv_pos_site_id
 _symmetry_equiv_pos_as_xyz
  1  'x, y, z'
loop_
 _atom_site_type_symbol
 _atom_site_label
 _atom_site_symmetry_multiplicity
 _atom_site_fract_x
 _atom_site_fract_y
 _atom_site_fract_z
 _atom_site_occupancy
  K  K0  1  0.58443102  0.69570401  0.13543397  1
  Rb  Rb1  1  0.41556902  0.30429600  0.86456602  1
  Rb  Rb2  1  0.80443703  0.07156300  0.31956297  1
  Rb  Rb3  1  0.19556301  0.92843701  0.68043701  1
  Ge  Ge4  1  0.11618301  0.44909900  0.31853500  1
  Ge  Ge5  1  0.88381703  0.55090101  0.68146498  1
  P  P6  1  0.10944101  0.67568801  0.10542999  1
  Se  Se7  1  0.89055903  0.32431200  0.89457000  1
  Te  Te8  1  0.29155501  0.14340400  0.27348600  1
  Te  Te9  1  0.70844503  0.85659601  0.72651399  1
  Se  Se10  1  0.76157903  0.50000000  0.49999998  1
  Se  Se11  1  0.23842101  0.50000000  0.50000001  1
