# generated using pymatgen
data_BaSrEuF6
_symmetry_space_group_name_H-M   'P 1'
_cell_length_a   3.78776598
_cell_length_b   6.16832495
_cell_length_c   6.16832495
_cell_angle_alpha   120.00000763
_cell_angle_beta   90.00000000
_cell_angle_gamma   90.00000000
_symmetry_Int_Tables_number   1
_chemical_formula_structural   BaSrEuF6
_chemical_formula_sum   'Ba1 Sr1 Eu1 F6'
_cell_volume   124.80966742
_cell_formula_units_Z   1
loop_
 _symmetry_equiv_pos_site_id
 _symmetry_equiv_pos_as_xyz
  1  'x, y, z'
loop_
 _atom_site_type_symbol
 _atom_site_label
 _atom_site_symmetry_multiplicity
 _atom_site_fract_x
 _atom_site_fract_y
 _atom_site_fract_z
 _atom_site_occupancy
  Ba  Ba0  1  0.99600301  0.00000000  0.00000000  1
  Sr  Sr1  1  0.74301500  0.66666669  0.33333338  1
  Eu  Eu2  1  0.25770100  0.33333335  0.66666670  1
  F  F3  1  0.24609900  0.38744001  0.30447103  1
  F  F4  1  0.24609900  0.69553003  0.08297004  1
  F  F5  1  0.24609900  0.91703103  0.61256107  1
  F  F6  1  0.75499500  0.61112102  0.69201106  1
  F  F7  1  0.75499500  0.30798901  0.91911004  1
  F  F8  1  0.75499500  0.08089000  0.38887902  1
