# generated using pymatgen
data_CuTeO6
_symmetry_space_group_name_H-M   'P 1'
_cell_length_a   4.84199476
_cell_length_b   5.44177198
_cell_length_c   5.60886478
_cell_angle_alpha   60.98067474
_cell_angle_beta   73.68715668
_cell_angle_gamma   90.00000000
_symmetry_Int_Tables_number   1
_chemical_formula_structural   CuTeO6
_chemical_formula_sum   'Cu1 Te1 O6'
_cell_volume   122.38598625
_cell_formula_units_Z   1
loop_
 _symmetry_equiv_pos_site_id
 _symmetry_equiv_pos_as_xyz
  1  'x, y, z'
loop_
 _atom_site_type_symbol
 _atom_site_label
 _atom_site_symmetry_multiplicity
 _atom_site_fract_x
 _atom_site_fract_y
 _atom_site_fract_z
 _atom_site_occupancy
  Cu  Cu0  1  0.37568201  0.36969600  0.26060799  1
  Te  Te1  1  0.98996302  0.99679700  0.00640602  1
  O  O2  1  0.82077802  0.30404000  0.86762297  1
  O  O3  1  0.69510301  0.83295900  0.33408200  1
  O  O4  1  0.18409100  0.15933100  0.14803800  1
  O  O5  1  0.82077802  0.82833700  0.86762298  1
  O  O6  1  0.29835301  0.16733700  0.66532598  1
  O  O7  1  0.18409100  0.69263100  0.14803800  1
