# generated using pymatgen
data_ZnSi(GeO5)2
_symmetry_space_group_name_H-M   'P 1'
_cell_length_a   3.03395391
_cell_length_b   7.78447485
_cell_length_c   7.85704803
_cell_angle_alpha   119.16123199
_cell_angle_beta   90.00000000
_cell_angle_gamma   90.00000000
_symmetry_Int_Tables_number   1
_chemical_formula_structural   ZnSi(GeO5)2
_chemical_formula_sum   'Zn1 Si1 Ge2 O10'
_cell_volume   162.04561529
_cell_formula_units_Z   1
loop_
 _symmetry_equiv_pos_site_id
 _symmetry_equiv_pos_as_xyz
  1  'x, y, z'
loop_
 _atom_site_type_symbol
 _atom_site_label
 _atom_site_symmetry_multiplicity
 _atom_site_fract_x
 _atom_site_fract_y
 _atom_site_fract_z
 _atom_site_occupancy
  Zn  Zn0  1  0.25000001  0.17516001  0.76920302  1
  Si  Si1  1  0.75000002  0.82484003  0.23079704  1
  Ge  Ge2  1  0.25000001  0.20923901  0.40354402  1
  Ge  Ge3  1  0.25000001  0.59041102  0.83997204  1
  O  O4  1  0.75000002  0.79076103  0.59645604  1
  O  O5  1  0.75000002  0.40958902  0.16002802  1
  O  O6  1  0.25000001  0.32240301  0.67255403  1
  O  O7  1  0.75000002  0.67759703  0.32744603  1
  O  O8  1  0.25000001  0.69906703  0.66981904  1
  O  O9  1  0.25000001  0.32387701  0.00983801  1
  O  O10  1  0.25000001  0.94157704  0.28372004  1
  O  O11  1  0.75000002  0.30093301  0.33018102  1
  O  O12  1  0.75000002  0.67612303  0.99016205  1
  O  O13  1  0.75000002  0.05842300  0.71628002  1
