# generated using pymatgen
data_NaCeYH4N
_symmetry_space_group_name_H-M   'P 1'
_cell_length_a   4.94590282
_cell_length_b   4.94590282
_cell_length_c   4.94590282
_cell_angle_alpha   90.00000000
_cell_angle_beta   90.00000000
_cell_angle_gamma   90.00000000
_symmetry_Int_Tables_number   1
_chemical_formula_structural   NaCeYH4N
_chemical_formula_sum   'Na1 Ce1 Y1 H4 N1'
_cell_volume   120.98645108
_cell_formula_units_Z   1
loop_
 _symmetry_equiv_pos_site_id
 _symmetry_equiv_pos_as_xyz
  1  'x, y, z'
loop_
 _atom_site_type_symbol
 _atom_site_label
 _atom_site_symmetry_multiplicity
 _atom_site_fract_x
 _atom_site_fract_y
 _atom_site_fract_z
 _atom_site_occupancy
  Na  Na0  1  0.00000000  0.00000000  0.00000000  1
  Y  Y1  1  -0.00000000  0.50000002  0.50000002  1
  Ce  Ce2  1  0.50000002  0.00000000  0.50000002  1
  H  H3  1  0.50000002  0.50000002  -0.00000000  1
  H  H4  1  0.50000002  0.00000000  -0.00000000  1
  H  H5  1  -0.00000000  0.50000002  0.00000000  1
  N  N6  1  0.00000000  0.00000000  0.50000002  1
  H  H7  1  0.50000002  0.50000002  0.50000002  1
