# generated using pymatgen
data_AlCrGaFeO6
_symmetry_space_group_name_H-M   'P 1'
_cell_length_a   4.95851040
_cell_length_b   4.95851040
_cell_length_c   5.28100395
_cell_angle_alpha   62.00032425
_cell_angle_beta   62.00032425
_cell_angle_gamma   59.99999619
_symmetry_Int_Tables_number   1
_chemical_formula_structural   AlCrGaFeO6
_chemical_formula_sum   'Al1 Cr1 Ga1 Fe1 O6'
_cell_volume   94.49164138
_cell_formula_units_Z   1
loop_
 _symmetry_equiv_pos_site_id
 _symmetry_equiv_pos_as_xyz
  1  'x, y, z'
loop_
 _atom_site_type_symbol
 _atom_site_label
 _atom_site_symmetry_multiplicity
 _atom_site_fract_x
 _atom_site_fract_y
 _atom_site_fract_z
 _atom_site_occupancy
  Fe  Fe0  1  0.28893700  0.28893699  0.13318902  1
  Cr  Cr1  1  0.78893700  0.78893698  0.63318905  1
  Al  Al2  1  0.99918600  0.99918598  0.00244205  1
  Ga  Ga3  1  0.49918600  0.49918599  0.50244203  1
  O  O4  1  0.10152701  0.70054899  0.80832403  1
  O  O5  1  0.70054899  0.38959999  0.80832404  1
  O  O6  1  0.38960000  0.10152700  0.80832402  1
  O  O7  1  0.88959999  0.20054900  0.30832403  1
  O  O8  1  0.60152700  0.88959998  0.30832404  1
  O  O9  1  0.20054900  0.60152699  0.30832402  1
