# generated using pymatgen
data_K3Na(CaP)2
_symmetry_space_group_name_H-M   'P 1'
_cell_length_a   5.83357286
_cell_length_b   6.12289619
_cell_length_c   6.12289619
_cell_angle_alpha   99.44923401
_cell_angle_beta   90.00000000
_cell_angle_gamma   90.00000000
_symmetry_Int_Tables_number   1
_chemical_formula_structural   K3Na(CaP)2
_chemical_formula_sum   'K3 Na1 Ca2 P2'
_cell_volume   215.73237826
_cell_formula_units_Z   1
loop_
 _symmetry_equiv_pos_site_id
 _symmetry_equiv_pos_as_xyz
  1  'x, y, z'
loop_
 _atom_site_type_symbol
 _atom_site_label
 _atom_site_symmetry_multiplicity
 _atom_site_fract_x
 _atom_site_fract_y
 _atom_site_fract_z
 _atom_site_occupancy
  Na  Na0  1  0.25000001  0.97141100  0.32876302  1
  K  K1  1  0.75000002  0.02858900  0.67123700  1
  K  K2  1  0.25000001  0.32876300  0.97141100  1
  K  K3  1  0.75000002  0.67123700  0.02858902  1
  Ca  Ca4  1  1.00000002  0.50000000  0.50000001  1
  Ca  Ca5  1  0.50000001  0.50000000  0.50000001  1
  P  P6  1  0.25000001  0.79219900  0.79219901  1
  P  P7  1  0.75000002  0.20780100  0.20780100  1
