# generated using pymatgen
data_NaCaP2O
_symmetry_space_group_name_H-M   'P 1'
_cell_length_a   4.01835012
_cell_length_b   4.01835060
_cell_length_c   7.07297802
_cell_angle_alpha   90.00000000
_cell_angle_beta   90.00000000
_cell_angle_gamma   119.99999237
_symmetry_Int_Tables_number   1
_chemical_formula_structural   NaCaP2O
_chemical_formula_sum   'Na1 Ca1 P2 O1'
_cell_volume   98.90735193
_cell_formula_units_Z   1
loop_
 _symmetry_equiv_pos_site_id
 _symmetry_equiv_pos_as_xyz
  1  'x, y, z'
loop_
 _atom_site_type_symbol
 _atom_site_label
 _atom_site_symmetry_multiplicity
 _atom_site_fract_x
 _atom_site_fract_y
 _atom_site_fract_z
 _atom_site_occupancy
  Na  Na0  1  0.33333330  0.66666667  0.28880900  1
  Ca  Ca1  1  0.66666663  0.33333334  0.71119100  1
  P  P2  1  0.00000000  0.00000000  0.00000000  1
  P  P3  1  0.33333330  0.66666667  0.62554500  1
  O  O4  1  0.66666663  0.33333334  0.37445500  1
