# generated using pymatgen
data_Ba3Pb2O7
_symmetry_space_group_name_H-M   'P 1'
_cell_length_a   6.17823172
_cell_length_b   6.17823172
_cell_length_c   7.65239382
_cell_angle_alpha   96.69083405
_cell_angle_beta   96.69083405
_cell_angle_gamma   96.58877563
_symmetry_Int_Tables_number   1
_chemical_formula_structural   Ba3Pb2O7
_chemical_formula_sum   'Ba3 Pb2 O7'
_cell_volume   285.68261816
_cell_formula_units_Z   1
loop_
 _symmetry_equiv_pos_site_id
 _symmetry_equiv_pos_as_xyz
  1  'x, y, z'
loop_
 _atom_site_type_symbol
 _atom_site_label
 _atom_site_symmetry_multiplicity
 _atom_site_fract_x
 _atom_site_fract_y
 _atom_site_fract_z
 _atom_site_occupancy
  Ba  Ba0  1  0.10550100  0.40182399  0.22066300  1
  Ba  Ba1  1  0.40182399  0.10550100  0.72066299  1
  Ba  Ba2  1  0.59817599  0.89449898  0.27933801  1
  Pb  Pb3  1  0.89449898  0.59817599  0.77933800  1
  Pb  Pb4  1  0.30501599  0.69498399  0.74999999  1
  O  O5  1  0.69498399  0.30501599  0.25000000  1
  O  O6  1  0.34147599  0.43279699  0.54011400  1
  O  O7  1  0.43279699  0.34147599  0.04011401  1
  O  O8  1  0.65852399  0.56720299  0.45988600  1
  O  O9  1  0.56720299  0.65852399  0.95988599  1
  O  O10  1  0.12581200  0.87418798  0.25000000  1
  O  O11  1  0.87418798  0.12581200  0.74999999  1
