# generated using pymatgen
data_CeHf2ZrF14
_symmetry_space_group_name_H-M   'P 1'
_cell_length_a   5.69586897
_cell_length_b   6.11162472
_cell_length_c   8.27737522
_cell_angle_alpha   101.78950500
_cell_angle_beta   90.00000000
_cell_angle_gamma   90.00000000
_symmetry_Int_Tables_number   1
_chemical_formula_structural   CeHf2ZrF14
_chemical_formula_sum   'Ce1 Hf2 Zr1 F14'
_cell_volume   282.06537843
_cell_formula_units_Z   1
loop_
 _symmetry_equiv_pos_site_id
 _symmetry_equiv_pos_as_xyz
  1  'x, y, z'
loop_
 _atom_site_type_symbol
 _atom_site_label
 _atom_site_symmetry_multiplicity
 _atom_site_fract_x
 _atom_site_fract_y
 _atom_site_fract_z
 _atom_site_occupancy
  Zr  Zr0  1  0.69761000  0.65668501  0.68579098  1
  Ce  Ce1  1  0.19761000  0.34331501  0.31420899  1
  Hf  Hf2  1  0.70754400  0.81113902  0.22404900  1
  Hf  Hf3  1  0.20754400  0.18886100  0.77595097  1
  F  F4  1  0.88754500  0.45221001  0.47662599  1
  F  F5  1  0.38754500  0.54779001  0.52337399  1
  F  F6  1  0.42525400  0.92804502  0.76910398  1
  F  F7  1  0.92525401  0.07195500  0.23089599  1
  F  F8  1  0.94587301  0.96331802  0.76032598  1
  F  F9  1  0.44587300  0.03668200  0.23967399  1
  F  F10  1  0.99650701  0.45403801  0.78694498  1
  F  F11  1  0.49650700  0.54596201  0.21305500  1
  F  F12  1  0.70443400  0.75574201  0.97739097  1
  F  F13  1  0.20443400  0.24425800  0.02260900  1
  F  F14  1  0.71178300  0.86022702  0.47119599  1
  F  F15  1  0.21178300  0.13977300  0.52880398  1
  F  F16  1  0.49981000  0.37730501  0.78257097  1
  F  F17  1  0.99981001  0.62269501  0.21742900  1
