# generated using pymatgen
data_ZnCd(InS2)2
_symmetry_space_group_name_H-M   'P 1'
_cell_length_a   5.92941189
_cell_length_b   5.92941189
_cell_length_c   7.12489605
_cell_angle_alpha   114.58893585
_cell_angle_beta   114.58893585
_cell_angle_gamma   90.00000000
_symmetry_Int_Tables_number   1
_chemical_formula_structural   ZnCd(InS2)2
_chemical_formula_sum   'Zn1 Cd1 In2 S4'
_cell_volume   202.53277105
_cell_formula_units_Z   1
loop_
 _symmetry_equiv_pos_site_id
 _symmetry_equiv_pos_as_xyz
  1  'x, y, z'
loop_
 _atom_site_type_symbol
 _atom_site_label
 _atom_site_symmetry_multiplicity
 _atom_site_fract_x
 _atom_site_fract_y
 _atom_site_fract_z
 _atom_site_occupancy
  Zn  Zn0  1  0.50000005  0.50000003  0.00000006  1
  Cd  Cd1  1  0.25000006  0.75000004  0.50000007  1
  In  In2  1  0.75000005  0.25000001  0.50000006  1
  In  In3  1  0.00000000  0.00000000  0.00000000  1
  S  S4  1  0.87500006  0.38557002  0.25000007  1
  S  S5  1  0.13557001  0.12500001  0.75000002  1
  S  S6  1  0.37500007  0.86443005  0.25000008  1
  S  S7  1  0.61443006  0.62500003  0.75000008  1
