# generated using pymatgen
data_CuAg6Se5
_symmetry_space_group_name_H-M   'P 1'
_cell_length_a   6.56862450
_cell_length_b   6.75327158
_cell_length_c   7.66091490
_cell_angle_alpha   90.00000000
_cell_angle_beta   90.00000000
_cell_angle_gamma   93.48729706
_symmetry_Int_Tables_number   1
_chemical_formula_structural   CuAg6Se5
_chemical_formula_sum   'Cu1 Ag6 Se5'
_cell_volume   339.20665472
_cell_formula_units_Z   1
loop_
 _symmetry_equiv_pos_site_id
 _symmetry_equiv_pos_as_xyz
  1  'x, y, z'
loop_
 _atom_site_type_symbol
 _atom_site_label
 _atom_site_symmetry_multiplicity
 _atom_site_fract_x
 _atom_site_fract_y
 _atom_site_fract_z
 _atom_site_occupancy
  Ag  Ag0  1  -0.00000002  0.74999999  0.83105401  1
  Ag  Ag1  1  -0.00000001  0.25000000  0.16894600  1
  Ag  Ag2  1  0.49999998  0.74999999  0.33992500  1
  Ag  Ag3  1  0.49999999  0.25000000  0.66007501  1
  Cu  Cu4  1  0.75694399  0.39841199  0.87597101  1
  Ag  Ag5  1  0.24305599  0.60158799  0.12402900  1
  Se  Se6  1  0.24305600  0.10158800  0.87597101  1
  Ag  Ag7  1  0.75694398  0.89841198  0.12402900  1
  Se  Se8  1  0.71377998  0.93586898  0.60344201  1
  Se  Se9  1  0.28622000  0.06413100  0.39655801  1
  Se  Se10  1  0.28621999  0.56413099  0.60344201  1
  Se  Se11  1  0.71377999  0.43586899  0.39655801  1
