# generated using pymatgen
data_AgSe
_symmetry_space_group_name_H-M   'P 1'
_cell_length_a   4.06071806
_cell_length_b   7.12510490
_cell_length_c   16.69662857
_cell_angle_alpha   95.28072357
_cell_angle_beta   90.00000000
_cell_angle_gamma   106.55636597
_symmetry_Int_Tables_number   1
_chemical_formula_structural   AgSe
_chemical_formula_sum   'Ag9 Se9'
_cell_volume   460.91608667
_cell_formula_units_Z   9
loop_
 _symmetry_equiv_pos_site_id
 _symmetry_equiv_pos_as_xyz
  1  'x, y, z'
loop_
 _atom_site_type_symbol
 _atom_site_label
 _atom_site_symmetry_multiplicity
 _atom_site_fract_x
 _atom_site_fract_y
 _atom_site_fract_z
 _atom_site_occupancy
  Ag  Ag0  1  0.49999999  0.00000000  0.50000000  1
  Ag  Ag1  1  0.00000000  0.00000000  0.00000000  1
  Ag  Ag2  1  0.78022698  0.56045399  0.60605300  1
  Ag  Ag3  1  0.21977299  0.43954599  0.39394700  1
  Ag  Ag4  1  0.52554699  0.05109400  0.78297900  1
  Ag  Ag5  1  0.47445298  0.94890599  0.21702100  1
  Ag  Ag6  1  0.26347599  0.52695199  0.89117200  1
  Ag  Ag7  1  0.73652398  0.47304799  0.10882800  1
  Se  Se8  1  0.15121699  0.30243400  0.53458300  1
  Ag  Ag9  1  0.84878298  0.69756599  0.46541700  1
  Se  Se10  1  0.42413398  0.84826799  0.63583400  1
  Se  Se11  1  0.57586599  0.15173200  0.36416600  1
  Se  Se12  1  0.15378299  0.30756600  0.74423100  1
  Se  Se13  1  0.84621698  0.69243399  0.25576900  1
  Se  Se14  1  0.91080998  0.82161999  0.85940700  1
  Se  Se15  1  0.08919000  0.17838000  0.14059300  1
  Se  Se16  1  0.35362898  0.70725799  0.05753200  1
  Se  Se17  1  0.64637099  0.29274200  0.94246800  1
