# generated using pymatgen
data_Ga(AgTe2)2
_symmetry_space_group_name_H-M   'P 1'
_cell_length_a   4.23273706
_cell_length_b   7.41322517
_cell_length_c   7.72285223
_cell_angle_alpha   98.45714569
_cell_angle_beta   90.00000000
_cell_angle_gamma   106.58787537
_symmetry_Int_Tables_number   1
_chemical_formula_structural   Ga(AgTe2)2
_chemical_formula_sum   'Ga1 Ag2 Te4'
_cell_volume   229.49360961
_cell_formula_units_Z   1
loop_
 _symmetry_equiv_pos_site_id
 _symmetry_equiv_pos_as_xyz
  1  'x, y, z'
loop_
 _atom_site_type_symbol
 _atom_site_label
 _atom_site_symmetry_multiplicity
 _atom_site_fract_x
 _atom_site_fract_y
 _atom_site_fract_z
 _atom_site_occupancy
  Ga  Ga0  1  0.56260500  0.12521100  0.17967199  1
  Ag  Ag1  1  0.81015603  0.62031102  0.93758697  1
  Ag  Ag2  1  0.30614105  0.61228202  0.44968497  1
  Te  Te3  1  0.00250600  0.00501200  0.98327501  1
  Te  Te4  1  0.24570504  0.49141001  0.75721498  1
  Te  Te5  1  0.74903802  0.49807701  0.24521597  1
  Te  Te6  1  0.51134899  0.02269700  0.50985000  1
