# generated using pymatgen
data_NaSrCa4MgZrW(N2O)3
_symmetry_space_group_name_H-M   'P 1'
_cell_length_a   5.96272087
_cell_length_b   6.68901920
_cell_length_c   6.68901920
_cell_angle_alpha   90.00000000
_cell_angle_beta   90.00000000
_cell_angle_gamma   90.00000000
_symmetry_Int_Tables_number   1
_chemical_formula_structural   NaSrCa4MgZrW(N2O)3
_chemical_formula_sum   'Na1 Sr1 Ca4 Mg1 Zr1 W1 N6 O3'
_cell_volume   266.78988816
_cell_formula_units_Z   1
loop_
 _symmetry_equiv_pos_site_id
 _symmetry_equiv_pos_as_xyz
  1  'x, y, z'
loop_
 _atom_site_type_symbol
 _atom_site_label
 _atom_site_symmetry_multiplicity
 _atom_site_fract_x
 _atom_site_fract_y
 _atom_site_fract_z
 _atom_site_occupancy
  Na  Na0  1  0.00000000  0.00000000  0.00000000  1
  Sr  Sr1  1  1.00000002  0.49999998  0.49999998  1
  Ca  Ca2  1  0.50000001  0.82450297  0.67549698  1
  Ca  Ca3  1  0.50000001  0.67549698  0.17549699  1
  Ca  Ca4  1  0.50000001  0.32450299  0.82450297  1
  Ca  Ca5  1  0.50000001  0.17549699  0.32450299  1
  Mg  Mg6  1  1.00000002  0.49999998  0.00000000  1
  Zr  Zr7  1  1.00000002  0.00000000  0.49999998  1
  W  W8  1  0.50000001  0.49999998  0.49999998  1
  N  N9  1  0.50000001  0.00000000  0.00000000  1
  O  O10  1  0.25805101  0.13994300  0.63994298  1
  N  N11  1  0.25805101  0.86005697  0.36005699  1
  N  N12  1  0.25805101  0.36005699  0.13994300  1
  N  N13  1  0.25805101  0.63994298  0.86005697  1
  N  N14  1  0.74194902  0.13994300  0.63994298  1
  N  N15  1  0.74194902  0.63994298  0.86005697  1
  O  O16  1  0.74194902  0.86005697  0.36005699  1
  O  O17  1  0.74194902  0.36005699  0.13994300  1
