# generated using pymatgen
data_NaCa4LaTaNbNi2WN2OF4
_symmetry_space_group_name_H-M   'P 1'
_cell_length_a   5.99689484
_cell_length_b   6.86452198
_cell_length_c   6.86452198
_cell_angle_alpha   90.00000000
_cell_angle_beta   90.00000000
_cell_angle_gamma   90.00000000
_symmetry_Int_Tables_number   1
_chemical_formula_structural   NaCa4LaTaNbNi2WN2OF4
_chemical_formula_sum   'Na1 Ca4 La1 Ta1 Nb1 Ni2 W1 N2 O1 F4'
_cell_volume   282.58365164
_cell_formula_units_Z   1
loop_
 _symmetry_equiv_pos_site_id
 _symmetry_equiv_pos_as_xyz
  1  'x, y, z'
loop_
 _atom_site_type_symbol
 _atom_site_label
 _atom_site_symmetry_multiplicity
 _atom_site_fract_x
 _atom_site_fract_y
 _atom_site_fract_z
 _atom_site_occupancy
  Na  Na0  1  1.00000003  0.50000000  0.50000000  1
  Ca  Ca1  1  0.00000000  0.00000000  0.00000000  1
  Ca  Ca2  1  0.50000001  0.67367900  0.17367900  1
  Ca  Ca3  1  0.50000001  0.17367900  0.32632100  1
  La  La4  1  0.50000001  0.82632100  0.67367900  1
  Ca  Ca5  1  0.50000001  0.32632100  0.82632100  1
  Nb  Nb6  1  1.00000003  1.00000000  0.50000000  1
  Ta  Ta7  1  1.00000003  0.50000000  -0.00000000  1
  F  F8  1  0.50000001  0.50000000  0.50000000  1
  W  W9  1  0.50000001  0.00000000  -0.00000000  1
  Ni  Ni10  1  0.25015301  0.14038400  0.64038400  1
  Ni  Ni11  1  0.25015301  0.85961600  0.35961600  1
  N  N12  1  0.25015301  0.35961600  0.14038400  1
  F  F13  1  0.25015301  0.64038400  0.85961600  1
  N  N14  1  0.74984702  0.14038400  0.64038400  1
  F  F15  1  0.74984702  0.64038400  0.85961600  1
  F  F16  1  0.74984702  0.85961600  0.35961600  1
  O  O17  1  0.74984702  0.35961600  0.14038400  1
