# generated using pymatgen
data_SrYbSe2
_symmetry_space_group_name_H-M   'P 1'
_cell_length_a   4.16627026
_cell_length_b   4.16627026
_cell_length_c   7.11295176
_cell_angle_alpha   72.97044373
_cell_angle_beta   72.97044373
_cell_angle_gamma   60.00000000
_symmetry_Int_Tables_number   1
_chemical_formula_structural   SrYbSe2
_chemical_formula_sum   'Sr1 Yb1 Se2'
_cell_volume   100.62456516
_cell_formula_units_Z   1
loop_
 _symmetry_equiv_pos_site_id
 _symmetry_equiv_pos_as_xyz
  1  'x, y, z'
loop_
 _atom_site_type_symbol
 _atom_site_label
 _atom_site_symmetry_multiplicity
 _atom_site_fract_x
 _atom_site_fract_y
 _atom_site_fract_z
 _atom_site_occupancy
  Sr  Sr0  1  0.00000000  0.00000000  0.00000000  1
  Yb  Yb1  1  0.49999998  0.49999997  0.50000000  1
  Se  Se2  1  0.24508999  0.24508999  0.26473000  1
  Se  Se3  1  0.75490996  0.75490995  0.73527000  1
