# generated using pymatgen
data_Na2Sr3MgZnN8
_symmetry_space_group_name_H-M   'P 1'
_cell_length_a   6.61166620
_cell_length_b   6.80998468
_cell_length_c   6.80998468
_cell_angle_alpha   76.36998749
_cell_angle_beta   60.95875168
_cell_angle_gamma   60.95875168
_symmetry_Int_Tables_number   1
_chemical_formula_structural   Na2Sr3MgZnN8
_chemical_formula_sum   'Na2 Sr3 Mg1 Zn1 N8'
_cell_volume   234.36610156
_cell_formula_units_Z   1
loop_
 _symmetry_equiv_pos_site_id
 _symmetry_equiv_pos_as_xyz
  1  'x, y, z'
loop_
 _atom_site_type_symbol
 _atom_site_label
 _atom_site_symmetry_multiplicity
 _atom_site_fract_x
 _atom_site_fract_y
 _atom_site_fract_z
 _atom_site_occupancy
  Na  Na0  1  0.72141599  0.55716800  -0.00000005  1
  Sr  Sr1  1  0.27858400  0.44283200  -0.00000004  1
  Sr  Sr2  1  0.27858399  0.00000000  0.44283199  1
  Sr  Sr3  1  0.72141600  0.99999999  0.55716791  1
  Na  Na4  1  0.00000000  0.00000000  0.00000000  1
  Mg  Mg5  1  0.25000000  0.50000000  0.49999995  1
  Zn  Zn6  1  0.74999999  0.50000000  0.49999994  1
  N  N7  1  0.01587801  0.74457000  0.74456894  1
  N  N8  1  0.50501799  0.25543000  0.25542997  1
  N  N9  1  0.23955300  0.25543000  0.74456897  1
  N  N10  1  0.23955200  0.74457000  0.25542994  1
  N  N11  1  0.76044699  0.74457000  0.25543093  1
  N  N12  1  0.76044799  0.25543000  0.74456995  1
  N  N13  1  0.98412198  0.25543000  0.25543096  1
  N  N14  1  0.49498200  0.74457000  0.74456993  1
