# generated using pymatgen
data_Li2ScAg(TeO3)4
_symmetry_space_group_name_H-M   'P 1'
_cell_length_a   5.27535248
_cell_length_b   5.27535248
_cell_length_c   10.04535198
_cell_angle_alpha   91.95050049
_cell_angle_beta   91.95050049
_cell_angle_gamma   114.93731689
_symmetry_Int_Tables_number   1
_chemical_formula_structural   Li2ScAg(TeO3)4
_chemical_formula_sum   'Li2 Sc1 Ag1 Te4 O12'
_cell_volume   252.98423460
_cell_formula_units_Z   1
loop_
 _symmetry_equiv_pos_site_id
 _symmetry_equiv_pos_as_xyz
  1  'x, y, z'
loop_
 _atom_site_type_symbol
 _atom_site_label
 _atom_site_symmetry_multiplicity
 _atom_site_fract_x
 _atom_site_fract_y
 _atom_site_fract_z
 _atom_site_occupancy
  Sc  Sc0  1  0.62900197  0.37099799  0.25000001  1
  Li  Li1  1  0.74339097  0.25660899  0.74999998  1
  Li  Li2  1  0.25660896  0.74339097  0.25000001  1
  Ag  Ag3  1  0.37099796  0.62900198  0.74999998  1
  Te  Te4  1  0.32296099  0.17620799  0.51236999  1
  Te  Te5  1  0.82379195  0.67703897  0.98762998  1
  Te  Te6  1  0.67703895  0.82379197  0.48763000  1
  Te  Te7  1  0.17620798  0.32296099  0.01237001  1
  O  O8  1  0.99696594  0.84001397  0.39953301  1
  O  O9  1  0.15998600  0.00303400  0.10046700  1
  O  O10  1  0.48223197  0.39221498  0.88274497  1
  O  O11  1  0.60778496  0.51776798  0.61725499  1
  O  O12  1  0.44573894  0.94647296  0.62408300  1
  O  O13  1  0.55426099  0.05352700  0.37591699  1
  O  O14  1  0.94647296  0.44573898  0.12408302  1
  O  O15  1  0.05352697  0.55426098  0.87591697  1
  O  O16  1  0.84001393  0.99696596  0.89953299  1
  O  O17  1  0.00303399  0.15998599  0.60046698  1
  O  O18  1  0.39221497  0.48223198  0.38274500  1
  O  O19  1  0.51776796  0.60778498  0.11725501  1
