# generated using pymatgen
data_Li4FeCo2NiO8
_symmetry_space_group_name_H-M   'P 1'
_cell_length_a   5.92822599
_cell_length_b   5.94089127
_cell_length_c   6.01236534
_cell_angle_alpha   119.26567078
_cell_angle_beta   119.46501923
_cell_angle_gamma   90.11231995
_symmetry_Int_Tables_number   1
_chemical_formula_structural   Li4FeCo2NiO8
_chemical_formula_sum   'Li4 Fe1 Co2 Ni1 O8'
_cell_volume   152.41698406
_cell_formula_units_Z   1
loop_
 _symmetry_equiv_pos_site_id
 _symmetry_equiv_pos_as_xyz
  1  'x, y, z'
loop_
 _atom_site_type_symbol
 _atom_site_label
 _atom_site_symmetry_multiplicity
 _atom_site_fract_x
 _atom_site_fract_y
 _atom_site_fract_z
 _atom_site_occupancy
  Li  Li0  1  0.49997807  0.99022406  0.48644506  1
  Li  Li1  1  0.00074107  0.99210606  0.48761607  1
  Li  Li2  1  0.50060703  0.49372003  0.99268702  1
  Li  Li3  1  0.99872803  0.49268803  0.98974101  1
  Fe  Fe4  1  0.00095607  0.99746006  0.99411307  1
  Co  Co5  1  0.50120807  0.99753906  0.99454406  1
  Co  Co6  1  0.00146604  0.49707903  0.49522203  1
  Ni  Ni7  1  0.50117103  0.49687303  0.49525902  1
  O  O8  1  0.25412001  0.23972402  0.01617301  1
  O  O9  1  0.76983301  0.23907902  0.01576300  1
  O  O10  1  0.74508304  0.72436005  0.48143504  1
  O  O11  1  0.26381305  0.74775105  0.51890305  1
  O  O12  1  0.73889801  0.24626702  0.47114000  1
  O  O13  1  0.25693602  0.26926902  0.50782801  1
  O  O14  1  0.23328705  0.75620605  0.97505104  1
  O  O15  1  0.74904205  0.75549205  0.97461603  1
