# generated using pymatgen
data_K3SrTi2(FeO6)2
_symmetry_space_group_name_H-M   'P 1'
_cell_length_a   5.53641081
_cell_length_b   5.56258821
_cell_length_c   9.64130688
_cell_angle_alpha   90.03452301
_cell_angle_beta   106.53089142
_cell_angle_gamma   119.81498718
_symmetry_Int_Tables_number   1
_chemical_formula_structural   K3SrTi2(FeO6)2
_chemical_formula_sum   'K3 Sr1 Ti2 Fe2 O12'
_cell_volume   243.34164795
_cell_formula_units_Z   1
loop_
 _symmetry_equiv_pos_site_id
 _symmetry_equiv_pos_as_xyz
  1  'x, y, z'
loop_
 _atom_site_type_symbol
 _atom_site_label
 _atom_site_symmetry_multiplicity
 _atom_site_fract_x
 _atom_site_fract_y
 _atom_site_fract_z
 _atom_site_occupancy
  K  K0  1  0.24915702  0.62482302  0.87326701  1
  K  K1  1  0.24936600  0.12355400  0.37563500  1
  Sr  Sr2  1  0.74547501  0.86427503  0.62792099  1
  K  K3  1  0.74930599  0.37644201  0.12129798  1
  Ti  Ti4  1  0.50027202  0.75044303  0.25032799  1
  Ti  Ti5  1  0.49868900  0.24844701  0.74931900  1
  Fe  Fe6  1  0.00207500  0.00180900  0.00223900  1
  Fe  Fe7  1  0.99733299  0.49724802  0.49743298  1
  O  O8  1  0.25792901  0.37639501  0.62632200  1
  O  O9  1  0.25475603  0.87386103  0.12776099  1
  O  O10  1  0.25114403  0.87597803  0.62673000  1
  O  O11  1  0.25484701  0.38313401  0.12642599  1
  O  O12  1  0.74377199  0.37595001  0.62638899  1
  O  O13  1  0.74761801  0.87415803  0.12779598  1
  O  O14  1  0.74702798  0.13041800  0.87532900  1
  O  O15  1  0.74429700  0.62498002  0.37200699  1
  O  O16  1  0.74984100  0.62658002  0.87234000  1
  O  O17  1  0.74490098  0.11587000  0.37417799  1
  O  O18  1  0.26023700  0.13085000  0.87540801  1
  O  O19  1  0.25195802  0.62478302  0.37187400  1
