# generated using pymatgen
data_KNa3Al4O8
_symmetry_space_group_name_H-M   'P 1'
_cell_length_a   5.58244991
_cell_length_b   5.58244276
_cell_length_c   8.12131405
_cell_angle_alpha   89.84223938
_cell_angle_beta   89.84379578
_cell_angle_gamma   86.48606873
_symmetry_Int_Tables_number   1
_chemical_formula_structural   KNa3Al4O8
_chemical_formula_sum   'K1 Na3 Al4 O8'
_cell_volume   252.61263682
_cell_formula_units_Z   1
loop_
 _symmetry_equiv_pos_site_id
 _symmetry_equiv_pos_as_xyz
  1  'x, y, z'
loop_
 _atom_site_type_symbol
 _atom_site_label
 _atom_site_symmetry_multiplicity
 _atom_site_fract_x
 _atom_site_fract_y
 _atom_site_fract_z
 _atom_site_occupancy
  Na  Na0  1  0.49997900  0.00054900  0.75297598  1
  K  K1  1  0.99945002  0.50001301  0.24702299  1
  Na  Na2  1  0.50072701  0.49926901  0.00000100  1
  Na  Na3  1  0.99981601  0.00018300  0.50000098  1
  Al  Al4  1  0.49946401  0.50052901  0.50000400  1
  Al  Al5  1  0.49839002  0.99875702  0.25289501  1
  Al  Al6  1  0.00123101  0.50160101  0.74711300  1
  Al  Al7  1  0.99910001  0.00089300  0.00000698  1
  O  O8  1  0.45667002  0.68514001  0.30963701  1
  O  O9  1  0.95678901  0.17756000  0.80357098  1
  O  O10  1  0.31484801  0.54335601  0.69034800  1
  O  O11  1  0.82243201  0.04323200  0.19642099  1
  O  O12  1  0.92035902  0.69132001  0.93311799  1
  O  O13  1  0.42257501  0.20049900  0.42795099  1
  O  O14  1  0.30867700  0.07964700  0.06688300  1
  O  O15  1  0.79949302  0.57744901  0.57205199  1
