# generated using pymatgen
data_CaTlSnSbCl4
_symmetry_space_group_name_H-M   'P 1'
_cell_length_a   7.05413723
_cell_length_b   7.05413723
_cell_length_c   7.05413723
_cell_angle_alpha   75.48522949
_cell_angle_beta   75.40866852
_cell_angle_gamma   119.83127594
_symmetry_Int_Tables_number   1
_chemical_formula_structural   CaTlSnSbCl4
_chemical_formula_sum   'Ca1 Tl1 Sn1 Sb1 Cl4'
_cell_volume   263.48678474
_cell_formula_units_Z   1
loop_
 _symmetry_equiv_pos_site_id
 _symmetry_equiv_pos_as_xyz
  1  'x, y, z'
loop_
 _atom_site_type_symbol
 _atom_site_label
 _atom_site_symmetry_multiplicity
 _atom_site_fract_x
 _atom_site_fract_y
 _atom_site_fract_z
 _atom_site_occupancy
  Tl  Tl0  1  0.50000007  0.50000005  -0.00000005  1
  Ca  Ca1  1  0.00000005  0.50000005  0.49999997  1
  Sb  Sb2  1  0.00000000  0.00000000  0.00000000  1
  Sn  Sn3  1  0.50000012  1.00000011  0.49999992  1
  Cl  Cl4  1  0.09347911  0.94308310  0.50010892  1
  Cl  Cl5  1  0.44319208  0.59358806  0.49989096  1
  Cl  Cl6  1  0.90652107  0.40641204  0.15039596  1
  Cl  Cl7  1  0.55680802  0.05691701  0.84960402  1
