# generated using pymatgen
data_NaLiH(NO2)3
_symmetry_space_group_name_H-M   'P 1'
_cell_length_a   5.43018055
_cell_length_b   5.43018055
_cell_length_c   5.43018055
_cell_angle_alpha   67.20014191
_cell_angle_beta   67.20014191
_cell_angle_gamma   67.20014954
_symmetry_Int_Tables_number   1
_chemical_formula_structural   NaLiH(NO2)3
_chemical_formula_sum   'Na1 Li1 H1 N3 O6'
_cell_volume   130.65977991
_cell_formula_units_Z   1
loop_
 _symmetry_equiv_pos_site_id
 _symmetry_equiv_pos_as_xyz
  1  'x, y, z'
loop_
 _atom_site_type_symbol
 _atom_site_label
 _atom_site_symmetry_multiplicity
 _atom_site_fract_x
 _atom_site_fract_y
 _atom_site_fract_z
 _atom_site_occupancy
  Li  Li0  1  0.38364104  0.38364102  0.38364098  1
  Na  Na1  1  0.61635906  0.61635903  0.61635896  1
  N  N2  1  0.00000000  0.00000000  0.50000002  1
  H  H3  1  0.50000003  0.00000000  -0.00000002  1
  N  N4  1  0.00000002  0.50000002  -0.00000003  1
  N  N5  1  0.00000000  0.00000000  0.00000000  1
  O  O6  1  0.63186804  0.15867301  0.95303000  1
  O  O7  1  0.15867305  0.95303004  0.63186796  1
  O  O8  1  0.36813206  0.84132703  0.04696994  1
  O  O9  1  0.84132705  0.04697000  0.36813198  1
  O  O10  1  0.04697002  0.36813202  0.84132701  1
  O  O11  1  0.95303008  0.63186803  0.15867294  1
