# generated using pymatgen
data_RbTl3(SbSe2)4
_symmetry_space_group_name_H-M   'P 1'
_cell_length_a   6.64996004
_cell_length_b   6.66023684
_cell_length_c   12.67121029
_cell_angle_alpha   99.11698151
_cell_angle_beta   99.30307007
_cell_angle_gamma   103.05945587
_symmetry_Int_Tables_number   1
_chemical_formula_structural   RbTl3(SbSe2)4
_chemical_formula_sum   'Rb1 Tl3 Sb4 Se8'
_cell_volume   528.29255709
_cell_formula_units_Z   1
loop_
 _symmetry_equiv_pos_site_id
 _symmetry_equiv_pos_as_xyz
  1  'x, y, z'
loop_
 _atom_site_type_symbol
 _atom_site_label
 _atom_site_symmetry_multiplicity
 _atom_site_fract_x
 _atom_site_fract_y
 _atom_site_fract_z
 _atom_site_occupancy
  Tl  Tl0  1  0.57955794  0.76755897  0.41081596  1
  Tl  Tl1  1  0.42044198  0.23244099  0.58918398  1
  Rb  Rb2  1  0.93363798  0.17912999  0.84709698  1
  Tl  Tl3  1  0.06636194  0.82086996  0.15290297  1
  Sb  Sb4  1  0.92182997  0.31241099  0.35383298  1
  Sb  Sb5  1  0.50168595  0.72092797  0.91412996  1
  Sb  Sb6  1  0.49831398  0.27907199  0.08586999  1
  Sb  Sb7  1  0.07816995  0.68758897  0.64616696  1
  Se  Se8  1  0.94197197  0.29418099  0.59253698  1
  Se  Se9  1  0.51496198  0.25120799  0.32532398  1
  Se  Se10  1  0.47199398  0.32030899  0.86628497  1
  Se  Se11  1  0.89223197  0.28644099  0.12267999  1
  Se  Se12  1  0.05802795  0.70581897  0.40746297  1
  Se  Se13  1  0.10776795  0.71355897  0.87731996  1
  Se  Se14  1  0.52800595  0.67969097  0.13371497  1
  Se  Se15  1  0.48503795  0.74879197  0.67467596  1
