# generated using pymatgen
data_Cs4CdInGa4
_symmetry_space_group_name_H-M   'P 1'
_cell_length_a   7.10112190
_cell_length_b   7.10112190
_cell_length_c   9.85087109
_cell_angle_alpha   111.12667847
_cell_angle_beta   111.12667847
_cell_angle_gamma   90.00000000
_symmetry_Int_Tables_number   1
_chemical_formula_structural   Cs4CdInGa4
_chemical_formula_sum   'Cs4 Cd1 In1 Ga4'
_cell_volume   427.36295448
_cell_formula_units_Z   1
loop_
 _symmetry_equiv_pos_site_id
 _symmetry_equiv_pos_as_xyz
  1  'x, y, z'
loop_
 _atom_site_type_symbol
 _atom_site_label
 _atom_site_symmetry_multiplicity
 _atom_site_fract_x
 _atom_site_fract_y
 _atom_site_fract_z
 _atom_site_occupancy
  Cs  Cs0  1  0.38808701  0.38808701  0.77617400  1
  Cs  Cs1  1  0.61191301  0.61191301  0.22382600  1
  Cs  Cs2  1  0.25000001  0.75000001  0.50000000  1
  Cs  Cs3  1  0.75000001  0.25000000  0.50000000  1
  Cd  Cd4  1  0.00569100  0.71154401  0.01138200  1
  Ga  Ga5  1  0.14055900  0.14055900  0.28111800  1
  In  In6  1  0.85944102  0.85944101  0.71888200  1
  Ga  Ga7  1  0.00569100  0.29983800  0.01138200  1
  Ga  Ga8  1  0.28845601  0.99430902  0.98861800  1
  Ga  Ga9  1  0.70016201  0.99430902  0.98861800  1
