# generated using pymatgen
data_Sr4CaLa2Bi3(AsSe4)2
_symmetry_space_group_name_H-M   'P 1'
_cell_length_a   4.65808916
_cell_length_b   7.34462309
_cell_length_c   17.68074989
_cell_angle_alpha   90.00000000
_cell_angle_beta   90.00000000
_cell_angle_gamma   90.00000000
_symmetry_Int_Tables_number   1
_chemical_formula_structural   Sr4CaLa2Bi3(AsSe4)2
_chemical_formula_sum   'Sr4 Ca1 La2 Bi3 As2 Se8'
_cell_volume   604.89220995
_cell_formula_units_Z   1
loop_
 _symmetry_equiv_pos_site_id
 _symmetry_equiv_pos_as_xyz
  1  'x, y, z'
loop_
 _atom_site_type_symbol
 _atom_site_label
 _atom_site_symmetry_multiplicity
 _atom_site_fract_x
 _atom_site_fract_y
 _atom_site_fract_z
 _atom_site_occupancy
  Sr  Sr0  1  0.74999997  0.77146799  0.44666498  1
  Sr  Sr1  1  0.24999999  0.72853199  0.94666495  1
  La  La2  1  0.24999999  0.53527899  0.72777496  1
  Sr  Sr3  1  0.74999997  0.96472099  0.22777499  1
  Sr  Sr4  1  0.74999997  0.27146800  0.05333500  1
  La  La5  1  0.24999999  0.22853200  0.55333497  1
  Bi  Bi6  1  0.74999997  0.46472099  0.27222499  1
  Ca  Ca7  1  0.24999999  0.03527900  0.77222496  1
  Bi  Bi8  1  0.24999999  0.63722799  0.15077499  1
  Bi  Bi9  1  0.74999997  0.86277199  0.65077497  1
  As  As10  1  0.74999997  0.36277200  0.84922496  1
  As  As11  1  0.24999999  0.13722800  0.34922498  1
  Se  Se12  1  0.74999997  0.25562100  0.68315697  1
  Se  Se13  1  0.24999999  0.74437899  0.31684298  1
  Se  Se14  1  0.24999999  0.24437900  0.18315699  1
  Se  Se15  1  0.74999997  0.75795599  0.07071500  1
  Se  Se16  1  0.74999997  0.75562099  0.81684296  1
  Se  Se17  1  0.24999999  0.24204400  0.92928495  1
  Se  Se18  1  0.74999997  0.25795600  0.42928498  1
  Se  Se19  1  0.24999999  0.74204399  0.57071497  1
