# generated using pymatgen
data_K3SrTlBiPb8
_symmetry_space_group_name_H-M   'P 1'
_cell_length_a   6.48838377
_cell_length_b   8.04239559
_cell_length_c   11.70585918
_cell_angle_alpha   88.94184875
_cell_angle_beta   73.91026306
_cell_angle_gamma   86.17930603
_symmetry_Int_Tables_number   1
_chemical_formula_structural   K3SrTlBiPb8
_chemical_formula_sum   'K3 Sr1 Tl1 Bi1 Pb8'
_cell_volume   585.60525578
_cell_formula_units_Z   1
loop_
 _symmetry_equiv_pos_site_id
 _symmetry_equiv_pos_as_xyz
  1  'x, y, z'
loop_
 _atom_site_type_symbol
 _atom_site_label
 _atom_site_symmetry_multiplicity
 _atom_site_fract_x
 _atom_site_fract_y
 _atom_site_fract_z
 _atom_site_occupancy
  Tl  Tl0  1  0.32658100  0.25000000  0.34683802  1
  K  K1  1  0.67341899  0.74999999  0.65316204  1
  K  K2  1  0.07856799  0.25000000  0.84286403  1
  K  K3  1  0.92143199  0.74999999  0.15713603  1
  Pb  Pb4  1  0.71677602  0.10107100  0.06905801  1
  Pb  Pb5  1  0.18808396  0.99281999  0.61463803  1
  Sr  Sr6  1  0.36907098  0.74999999  0.26185802  1
  Pb  Pb7  1  0.19727798  0.50717999  0.61463803  1
  Pb  Pb8  1  0.78583400  0.60107099  0.93094204  1
  Pb  Pb9  1  0.21416599  0.39892900  0.06905801  1
  Pb  Pb10  1  0.80272200  0.49281999  0.38536203  1
  Bi  Bi11  1  0.63092901  0.25000000  0.73814203  1
  Pb  Pb12  1  0.81191602  0.00718000  0.38536202  1
  Pb  Pb13  1  0.28322397  0.89892899  0.93094204  1
