# generated using pymatgen
data_KHg4S2Br5
_symmetry_space_group_name_H-M   'P 1'
_cell_length_a   7.43302488
_cell_length_b   7.87836885
_cell_length_c   7.89119673
_cell_angle_alpha   90.00000000
_cell_angle_beta   74.77125549
_cell_angle_gamma   90.00000000
_symmetry_Int_Tables_number   1
_chemical_formula_structural   KHg4S2Br5
_chemical_formula_sum   'K1 Hg4 S2 Br5'
_cell_volume   445.88231621
_cell_formula_units_Z   1
loop_
 _symmetry_equiv_pos_site_id
 _symmetry_equiv_pos_as_xyz
  1  'x, y, z'
loop_
 _atom_site_type_symbol
 _atom_site_label
 _atom_site_symmetry_multiplicity
 _atom_site_fract_x
 _atom_site_fract_y
 _atom_site_fract_z
 _atom_site_occupancy
  K  K0  1  0.98492800  0.85876102  0.34785506  1
  Hg  Hg1  1  0.48492800  0.64123901  0.34785503  1
  Hg  Hg2  1  0.01507200  0.14123900  0.65214501  1
  Hg  Hg3  1  0.51507200  0.35876101  0.65214503  1
  Hg  Hg4  1  0.26777300  0.36572901  0.45921402  1
  S  S5  1  0.23222700  0.86572902  0.54078602  1
  S  S6  1  0.73222700  0.63427101  0.54078605  1
  Br  Br7  1  0.76777300  0.13427100  0.45921405  1
  Br  Br8  1  0.88885400  0.56558301  0.80929406  1
  Br  Br9  1  0.38885400  0.93441702  0.80929403  1
  Br  Br10  1  0.11114600  0.43441701  0.19070601  1
  Br  Br11  1  0.61114600  0.06558300  0.19070604  1
