# generated using pymatgen
data_Li5PtF10
_symmetry_space_group_name_H-M   'P 1'
_cell_length_a   5.66809988
_cell_length_b   6.97146988
_cell_length_c   6.97146988
_cell_angle_alpha   120.00000000
_cell_angle_beta   90.00000000
_cell_angle_gamma   90.00000000
_symmetry_Int_Tables_number   1
_chemical_formula_structural   Li5PtF10
_chemical_formula_sum   'Li5 Pt1 F10'
_cell_volume   238.57055278
_cell_formula_units_Z   1
loop_
 _symmetry_equiv_pos_site_id
 _symmetry_equiv_pos_as_xyz
  1  'x, y, z'
loop_
 _atom_site_type_symbol
 _atom_site_label
 _atom_site_symmetry_multiplicity
 _atom_site_fract_x
 _atom_site_fract_y
 _atom_site_fract_z
 _atom_site_occupancy
  Li  Li0  1  0.00092000  0.66078101  0.83039099  1
  Li  Li1  1  0.00092000  0.16961000  0.83039100  1
  Li  Li2  1  0.00092000  0.16961000  0.33922000  1
  Li  Li3  1  0.50092001  0.83039001  0.66077999  1
  Li  Li4  1  0.50092001  0.83039001  0.16960899  1
  Pt  Pt5  1  0.50092001  0.33921900  0.16960900  1
  F  F6  1  0.00061600  0.66666667  0.33333333  1
  F  F7  1  0.50061601  0.33333334  0.66666666  1
  F  F8  1  0.61423101  0.64608001  0.82303999  1
  F  F9  1  0.61423101  0.17696000  0.82304000  1
  F  F10  1  0.61423101  0.17696000  0.35392000  1
  F  F11  1  0.65393101  0.66666667  0.33333333  1
  F  F12  1  0.15393100  0.33333334  0.66666666  1
  F  F13  1  0.11423100  0.82304001  0.64607999  1
  F  F14  1  0.11423100  0.82304001  0.17695999  1
  F  F15  1  0.11423100  0.35392000  0.17696000  1
