# generated using pymatgen
data_Zn4Cu3S8
_symmetry_space_group_name_H-M   'P 1'
_cell_length_a   5.67901802
_cell_length_b   5.67901802
_cell_length_c   10.76999855
_cell_angle_alpha   90.00000000
_cell_angle_beta   90.00000000
_cell_angle_gamma   90.00000000
_symmetry_Int_Tables_number   1
_chemical_formula_structural   Zn4Cu3S8
_chemical_formula_sum   'Zn4 Cu3 S8'
_cell_volume   347.34586921
_cell_formula_units_Z   1
loop_
 _symmetry_equiv_pos_site_id
 _symmetry_equiv_pos_as_xyz
  1  'x, y, z'
loop_
 _atom_site_type_symbol
 _atom_site_label
 _atom_site_symmetry_multiplicity
 _atom_site_fract_x
 _atom_site_fract_y
 _atom_site_fract_z
 _atom_site_occupancy
  Zn  Zn0  1  0.50000000  0.00000000  0.25885801  1
  Zn  Zn1  1  -0.00000000  0.50000000  0.74114203  1
  Zn  Zn2  1  0.50000000  0.50000000  0.00000000  1
  Zn  Zn3  1  -0.00000000  0.50000000  0.25721701  1
  Cu  Cu4  1  0.50000000  0.00000000  0.74278303  1
  Cu  Cu5  1  0.00000000  0.00000000  0.00000000  1
  Cu  Cu6  1  0.00000000  0.00000000  0.50000002  1
  S  S7  1  0.75499500  0.24966900  0.38935302  1
  S  S8  1  0.25085100  0.75377000  0.87097504  1
  S  S9  1  0.24500500  0.75033100  0.38935302  1
  S  S10  1  0.74914900  0.24623000  0.87097504  1
  S  S11  1  0.24623000  0.25085100  0.12902501  1
  S  S12  1  0.75033100  0.75499500  0.61064703  1
  S  S13  1  0.75377000  0.74914900  0.12902501  1
  S  S14  1  0.24966900  0.24500500  0.61064703  1
