# generated using pymatgen
data_MnCrTeO6
_symmetry_space_group_name_H-M   'P 1'
_cell_length_a   4.82596111
_cell_length_b   4.82596111
_cell_length_c   9.55441380
_cell_angle_alpha   90.00000000
_cell_angle_beta   90.00000000
_cell_angle_gamma   90.00000000
_symmetry_Int_Tables_number   1
_chemical_formula_structural   MnCrTeO6
_chemical_formula_sum   'Mn2 Cr2 Te2 O12'
_cell_volume   222.52134820
_cell_formula_units_Z   2
loop_
 _symmetry_equiv_pos_site_id
 _symmetry_equiv_pos_as_xyz
  1  'x, y, z'
loop_
 _atom_site_type_symbol
 _atom_site_label
 _atom_site_symmetry_multiplicity
 _atom_site_fract_x
 _atom_site_fract_y
 _atom_site_fract_z
 _atom_site_occupancy
  Cr  Cr0  1  0.49999999  0.49999999  0.83374102  1
  Mn  Mn1  1  0.00000000  0.00000000  0.33374101  1
  Mn  Mn2  1  0.49999999  0.49999999  0.50070001  1
  Cr  Cr3  1  0.00000000  0.00000000  0.00070000  1
  Te  Te4  1  0.49999999  0.49999999  0.16597800  1
  Te  Te5  1  0.00000000  0.00000000  0.66597801  1
  O  O6  1  0.18955800  0.81044198  0.50767001  1
  O  O7  1  0.81044198  0.18955800  0.50767001  1
  O  O8  1  0.68955798  0.68955798  0.00767000  1
  O  O9  1  0.31044199  0.31044199  0.00767000  1
  O  O10  1  0.19365000  0.80634998  0.82178302  1
  O  O11  1  0.80634998  0.19365000  0.82178302  1
  O  O12  1  0.69364998  0.69364998  0.32178301  1
  O  O13  1  0.30634999  0.30634999  0.32178301  1
  O  O14  1  0.78924498  0.21075500  0.16838800  1
  O  O15  1  0.21075500  0.78924498  0.16838800  1
  O  O16  1  0.28924499  0.28924499  0.66838801  1
  O  O17  1  0.71075498  0.71075498  0.66838801  1
