# generated using pymatgen
data_BeAl(Si2C3)2
_symmetry_space_group_name_H-M   'P 1'
_cell_length_a   3.09488392
_cell_length_b   3.09488392
_cell_length_c   15.18453121
_cell_angle_alpha   90.00000000
_cell_angle_beta   90.00000000
_cell_angle_gamma   120.00000000
_symmetry_Int_Tables_number   1
_chemical_formula_structural   BeAl(Si2C3)2
_chemical_formula_sum   'Be1 Al1 Si4 C6'
_cell_volume   125.95654780
_cell_formula_units_Z   1
loop_
 _symmetry_equiv_pos_site_id
 _symmetry_equiv_pos_as_xyz
  1  'x, y, z'
loop_
 _atom_site_type_symbol
 _atom_site_label
 _atom_site_symmetry_multiplicity
 _atom_site_fract_x
 _atom_site_fract_y
 _atom_site_fract_z
 _atom_site_occupancy
  Al  Al0  1  0.66666667  0.33333332  0.16701400  1
  Be  Be1  1  0.33333332  0.66666664  0.66701399  1
  Si  Si2  1  0.33333332  0.66666664  0.33349100  1
  Si  Si3  1  0.66666667  0.33333332  0.83349099  1
  Si  Si4  1  0.00000000  0.00000000  0.50027699  1
  Si  Si5  1  0.00000000  0.00000000  0.00027700  1
  C  C6  1  0.00000000  0.00000000  0.12564800  1
  C  C7  1  0.00000000  0.00000000  0.62564799  1
  C  C8  1  0.66666667  0.33333332  0.29199600  1
  C  C9  1  0.33333332  0.66666664  0.79199599  1
  C  C10  1  0.33333332  0.66666664  0.45847399  1
  C  C11  1  0.66666667  0.33333332  0.95847399  1
