# generated using pymatgen
data_Ce3PmO8
_symmetry_space_group_name_H-M   'P 1'
_cell_length_a   5.49800777
_cell_length_b   5.49800777
_cell_length_c   6.66317511
_cell_angle_alpha   114.36617279
_cell_angle_beta   114.36617279
_cell_angle_gamma   90.00000000
_symmetry_Int_Tables_number   1
_chemical_formula_structural   Ce3PmO8
_chemical_formula_sum   'Ce3 Pm1 O8'
_cell_volume   163.57797376
_cell_formula_units_Z   1
loop_
 _symmetry_equiv_pos_site_id
 _symmetry_equiv_pos_as_xyz
  1  'x, y, z'
loop_
 _atom_site_type_symbol
 _atom_site_label
 _atom_site_symmetry_multiplicity
 _atom_site_fract_x
 _atom_site_fract_y
 _atom_site_fract_z
 _atom_site_occupancy
  Pm  Pm0  1  0.50000003  0.50000003  0.00000002  1
  Ce  Ce1  1  0.25000003  0.75000004  0.50000002  1
  Ce  Ce2  1  0.00000000  0.00000000  0.00000000  1
  Ce  Ce3  1  0.75000004  0.25000001  0.50000002  1
  O  O4  1  0.10597402  0.62500003  0.75000001  1
  O  O5  1  0.87500006  0.89402605  0.25000003  1
  O  O6  1  0.64402604  0.62500003  0.75000002  1
  O  O7  1  0.64402603  0.12500001  0.75000001  1
  O  O8  1  0.37500004  0.89402605  0.25000003  1
  O  O9  1  0.10597401  0.12500001  0.75000000  1
  O  O10  1  0.37500003  0.35597402  0.25000001  1
  O  O11  1  0.87500005  0.35597402  0.25000002  1
