# generated using pymatgen
data_BSCl2O
_symmetry_space_group_name_H-M   'P 1'
_cell_length_a   4.79005766
_cell_length_b   4.79005766
_cell_length_c   4.79005814
_cell_angle_alpha   85.84492493
_cell_angle_beta   85.84492493
_cell_angle_gamma   85.84493256
_symmetry_Int_Tables_number   1
_chemical_formula_structural   BSCl2O
_chemical_formula_sum   'B1 S1 Cl2 O1'
_cell_volume   109.07942191
_cell_formula_units_Z   1
loop_
 _symmetry_equiv_pos_site_id
 _symmetry_equiv_pos_as_xyz
  1  'x, y, z'
loop_
 _atom_site_type_symbol
 _atom_site_label
 _atom_site_symmetry_multiplicity
 _atom_site_fract_x
 _atom_site_fract_y
 _atom_site_fract_z
 _atom_site_occupancy
  Cl  Cl0  1  0.02508100  0.02508100  0.02508100  1
  B  B1  1  0.51032801  0.51032802  0.51032802  1
  S  S2  1  0.57062002  0.19934001  0.57062001  1
  O  O3  1  0.19933999  0.57062002  0.57062001  1
  Cl  Cl4  1  0.57062001  0.57062002  0.19934003  1
