# generated using pymatgen
data_CsK2NiHCl7
_symmetry_space_group_name_H-M   'P 1'
_cell_length_a   6.03853083
_cell_length_b   6.05967999
_cell_length_c   6.12817860
_cell_angle_alpha   90.00000000
_cell_angle_beta   89.92820740
_cell_angle_gamma   90.00000000
_symmetry_Int_Tables_number   1
_chemical_formula_structural   CsK2NiHCl7
_chemical_formula_sum   'Cs1 K2 Ni1 H1 Cl7'
_cell_volume   224.23946567
_cell_formula_units_Z   1
loop_
 _symmetry_equiv_pos_site_id
 _symmetry_equiv_pos_as_xyz
  1  'x, y, z'
loop_
 _atom_site_type_symbol
 _atom_site_label
 _atom_site_symmetry_multiplicity
 _atom_site_fract_x
 _atom_site_fract_y
 _atom_site_fract_z
 _atom_site_occupancy
  K  K0  1  0.21825801  0.13789900  0.03181001  1
  K  K1  1  0.17778601  0.00000000  0.80136404  1
  Ni  Ni2  1  0.82509502  0.14805600  0.93838107  1
  Cs  Cs3  1  0.86934102  0.00000000  0.18828505  1
  Cl  Cl4  1  0.82509502  0.85194400  0.93838107  1
  H  H5  1  0.21825801  0.86210100  0.03181001  1
  Cl  Cl6  1  0.47526601  0.50000000  0.52200604  1
  Cl  Cl7  1  0.89731103  1.00000000  0.01148004  1
  Cl  Cl8  1  0.43002801  0.50000000  0.02725202  1
  Cl  Cl9  1  0.43485201  0.00000000  0.48729204  1
  Cl  Cl10  1  0.96653803  0.50000000  0.55926406  1
  Cl  Cl11  1  0.14060600  0.00000000  0.96753504  1
