# generated using pymatgen
data_P2O
_symmetry_space_group_name_H-M   'P 1'
_cell_length_a   5.05630016
_cell_length_b   5.13584232
_cell_length_c   5.05630016
_cell_angle_alpha   119.48898315
_cell_angle_beta   90.00000000
_cell_angle_gamma   119.48898315
_symmetry_Int_Tables_number   1
_chemical_formula_structural   P2O
_chemical_formula_sum   'P4 O2'
_cell_volume   94.26185071
_cell_formula_units_Z   2
loop_
 _symmetry_equiv_pos_site_id
 _symmetry_equiv_pos_as_xyz
  1  'x, y, z'
loop_
 _atom_site_type_symbol
 _atom_site_label
 _atom_site_symmetry_multiplicity
 _atom_site_fract_x
 _atom_site_fract_y
 _atom_site_fract_z
 _atom_site_occupancy
  O  O0  1  0.25000004  0.50000005  0.75000002  1
  P  P1  1  0.00000000  0.00000000  0.00000000  1
  P  P2  1  0.21296602  0.25000002  0.87499999  1
  P  P3  1  0.12500007  0.75000007  0.96296604  1
  O  O4  1  0.03703402  0.25000002  0.37500001  1
  P  P5  1  0.62500005  0.75000007  0.78703404  1
