# generated using pymatgen
data_CsTlTeMo5Se6
_symmetry_space_group_name_H-M   'P 1'
_cell_length_a   4.52223396
_cell_length_b   9.59751225
_cell_length_c   9.59751225
_cell_angle_alpha   120.00000000
_cell_angle_beta   90.00000000
_cell_angle_gamma   90.00000000
_symmetry_Int_Tables_number   1
_chemical_formula_structural   CsTlTeMo5Se6
_chemical_formula_sum   'Cs1 Tl1 Te1 Mo5 Se6'
_cell_volume   360.74557182
_cell_formula_units_Z   1
loop_
 _symmetry_equiv_pos_site_id
 _symmetry_equiv_pos_as_xyz
  1  'x, y, z'
loop_
 _atom_site_type_symbol
 _atom_site_label
 _atom_site_symmetry_multiplicity
 _atom_site_fract_x
 _atom_site_fract_y
 _atom_site_fract_z
 _atom_site_occupancy
  Cs  Cs0  1  0.50000000  0.00000000  0.00000000  1
  Tl  Tl1  1  1.00000001  0.33333332  0.66666663  1
  Mo  Mo2  1  0.50000000  0.50958498  0.34017198  1
  Mo  Mo3  1  0.50000000  0.83058697  0.49041397  1
  Mo  Mo4  1  0.50000000  0.65982698  0.16941198  1
  Mo  Mo5  1  0.00000000  0.82245697  0.32520998  1
  Te  Te6  1  0.00000000  0.50275298  0.17754299  1
  Mo  Mo7  1  0.00000000  0.67478998  0.49724697  1
  Se  Se8  1  0.50000000  0.34367099  0.02023999  1
  Se  Se9  1  0.50000000  0.67656898  0.65632896  1
  Se  Se10  1  0.50000000  0.97975997  0.32343097  1
  Se  Se11  1  0.00000000  0.99239297  0.64316196  1
  Se  Se12  1  1.00000001  0.65076898  0.00760799  1
  Se  Se13  1  0.00000000  0.35683899  0.34923198  1
