# generated using pymatgen
data_LiCuF4
_symmetry_space_group_name_H-M   'P 1'
_cell_length_a   3.09232998
_cell_length_b   4.64397478
_cell_length_c   4.73495293
_cell_angle_alpha   90.00000000
_cell_angle_beta   90.00000000
_cell_angle_gamma   90.00000000
_symmetry_Int_Tables_number   1
_chemical_formula_structural   LiCuF4
_chemical_formula_sum   'Li1 Cu1 F4'
_cell_volume   67.99725003
_cell_formula_units_Z   1
loop_
 _symmetry_equiv_pos_site_id
 _symmetry_equiv_pos_as_xyz
  1  'x, y, z'
loop_
 _atom_site_type_symbol
 _atom_site_label
 _atom_site_symmetry_multiplicity
 _atom_site_fract_x
 _atom_site_fract_y
 _atom_site_fract_z
 _atom_site_occupancy
  Cu  Cu0  1  0.50000000  0.50000002  0.50000001  1
  Li  Li1  1  0.00000000  0.00000000  0.00000000  1
  F  F2  1  0.50000000  0.78583204  0.17981600  1
  F  F3  1  0.50000000  0.21416801  0.82018401  1
  F  F4  1  -0.00000000  0.28583201  0.32018400  1
  F  F5  1  -0.00000000  0.71416803  0.67981601  1
