# generated using pymatgen
data_LaYbPmBiAs2PCl
_symmetry_space_group_name_H-M   'P 1'
_cell_length_a   4.02718019
_cell_length_b   4.02718019
_cell_length_c   14.24187374
_cell_angle_alpha   90.00000000
_cell_angle_beta   90.00000000
_cell_angle_gamma   90.00000000
_symmetry_Int_Tables_number   1
_chemical_formula_structural   LaYbPmBiAs2PCl
_chemical_formula_sum   'Yb1 La1 Pm1 Bi1 As2 P1 Cl1'
_cell_volume   230.97727645
_cell_formula_units_Z   1
loop_
 _symmetry_equiv_pos_site_id
 _symmetry_equiv_pos_as_xyz
  1  'x, y, z'
loop_
 _atom_site_type_symbol
 _atom_site_label
 _atom_site_symmetry_multiplicity
 _atom_site_fract_x
 _atom_site_fract_y
 _atom_site_fract_z
 _atom_site_occupancy
  Pm  Pm0  1  0.49999998  0.00000000  0.40781801  1
  Yb  Yb1  1  -0.00000000  0.49999998  0.59218201  1
  La  La2  1  -0.00000000  0.49999998  0.08466500  1
  As  As3  1  0.49999998  0.00000000  0.91533502  1
  Cl  Cl4  1  -0.00000000  0.49999998  0.38580701  1
  Bi  Bi5  1  0.49999998  0.00000000  0.61419301  1
  As  As6  1  0.00000000  0.00000000  0.00000000  1
  P  P7  1  0.49999998  0.49999998  0.00000000  1
