# generated using pymatgen
data_Sc4AlZnS8
_symmetry_space_group_name_H-M   'P 1'
_cell_length_a   7.51342535
_cell_length_b   7.51342535
_cell_length_c   7.51342535
_cell_angle_alpha   60.00000000
_cell_angle_beta   60.00000000
_cell_angle_gamma   60.00000000
_symmetry_Int_Tables_number   1
_chemical_formula_structural   Sc4AlZnS8
_chemical_formula_sum   'Sc4 Al1 Zn1 S8'
_cell_volume   299.91551273
_cell_formula_units_Z   1
loop_
 _symmetry_equiv_pos_site_id
 _symmetry_equiv_pos_as_xyz
  1  'x, y, z'
loop_
 _atom_site_type_symbol
 _atom_site_label
 _atom_site_symmetry_multiplicity
 _atom_site_fract_x
 _atom_site_fract_y
 _atom_site_fract_z
 _atom_site_occupancy
  Al  Al0  1  0.75000000  0.75000000  0.75000000  1
  Sc  Sc1  1  0.36789500  0.36789400  0.36789400  1
  Sc  Sc2  1  0.36789500  0.36789400  0.89631700  1
  Sc  Sc3  1  0.36789500  0.89631700  0.36789400  1
  Sc  Sc4  1  0.89631800  0.36789400  0.36789400  1
  Zn  Zn5  1  0.00000000  0.00000000  0.00000000  1
  S  S6  1  0.15181700  0.61606100  0.61606100  1
  S  S7  1  0.61606000  0.15181800  0.61606100  1
  S  S8  1  0.61606000  0.61606100  0.15181800  1
  S  S9  1  0.61606000  0.61606100  0.61606100  1
  S  S10  1  0.13121900  0.13121900  0.13121900  1
  S  S11  1  0.13121900  0.13121900  0.60634300  1
  S  S12  1  0.13121900  0.60634300  0.13121900  1
  S  S13  1  0.60634300  0.13121900  0.13121900  1
