# generated using pymatgen
data_Li2Nb2VMoO8
_symmetry_space_group_name_H-M   'P 1'
_cell_length_a   5.85857201
_cell_length_b   6.23142481
_cell_length_c   6.10354424
_cell_angle_alpha   119.32343292
_cell_angle_beta   90.00000000
_cell_angle_gamma   118.03967285
_symmetry_Int_Tables_number   1
_chemical_formula_structural   Li2Nb2VMoO8
_chemical_formula_sum   'Li2 Nb2 V1 Mo1 O8'
_cell_volume   163.61654646
_cell_formula_units_Z   1
loop_
 _symmetry_equiv_pos_site_id
 _symmetry_equiv_pos_as_xyz
  1  'x, y, z'
loop_
 _atom_site_type_symbol
 _atom_site_label
 _atom_site_symmetry_multiplicity
 _atom_site_fract_x
 _atom_site_fract_y
 _atom_site_fract_z
 _atom_site_occupancy
  Li  Li0  1  0.85016398  0.70032802  0.60016401  1
  V  V1  1  0.14983499  0.29967001  0.39983500  1
  Li  Li2  1  0.49999999  0.50000002  0.00000002  1
  Nb  Nb3  1  -0.00000001  0.50000002  0.99999999  1
  Nb  Nb4  1  0.49999997  1.00000003  1.00000001  1
  Mo  Mo5  1  0.50000000  0.00000000  0.49999998  1
  O  O6  1  0.71840299  0.43680601  0.18886601  1
  O  O7  1  0.25634698  0.97169303  0.73584702  1
  O  O8  1  0.71534498  0.97169203  0.73584602  1
  O  O9  1  0.71840299  0.43680601  0.74793999  1
  O  O10  1  0.28159699  0.56319402  0.25206002  1
  O  O11  1  0.74365300  0.02830700  0.26415299  1
  O  O12  1  0.28465500  0.02830800  0.26415399  1
  O  O13  1  0.28159699  0.56319402  0.81113400  1
