# generated using pymatgen
data_Na2P3HO5F7
_symmetry_space_group_name_H-M   'P 1'
_cell_length_a   5.19919109
_cell_length_b   5.19919109
_cell_length_c   7.62209797
_cell_angle_alpha   106.50207520
_cell_angle_beta   106.50207520
_cell_angle_gamma   96.81948853
_symmetry_Int_Tables_number   1
_chemical_formula_structural   Na2P3HO5F7
_chemical_formula_sum   'Na2 P3 H1 O5 F7'
_cell_volume   184.90297222
_cell_formula_units_Z   1
loop_
 _symmetry_equiv_pos_site_id
 _symmetry_equiv_pos_as_xyz
  1  'x, y, z'
loop_
 _atom_site_type_symbol
 _atom_site_label
 _atom_site_symmetry_multiplicity
 _atom_site_fract_x
 _atom_site_fract_y
 _atom_site_fract_z
 _atom_site_occupancy
  Na  Na0  1  0.00000002  0.49999999  0.50000000  1
  Na  Na1  1  0.49999999  0.00000000  0.99999999  1
  P  P2  1  0.37054001  0.45403599  0.79595600  1
  P  P3  1  0.54596401  0.62945999  0.70404399  1
  P  P4  1  0.62946001  0.54596399  0.20404399  1
  H  H5  1  0.45403600  0.37053999  0.29595599  1
  O  O6  1  0.90558898  0.09441100  0.74999999  1
  F  F7  1  0.09441104  0.90558899  0.25000000  1
  F  F8  1  0.77359399  0.18236200  0.89908399  1
  O  O9  1  0.81763799  0.22640600  0.60091599  1
  F  F10  1  0.22640603  0.81763799  0.10091600  1
  O  O11  1  0.18236203  0.77359399  0.39908400  1
  O  O12  1  0.82197501  0.78753199  0.65838099  1
  F  F13  1  0.21246800  0.17802500  0.84161900  1
  O  O14  1  0.17802500  0.21246800  0.34161900  1
  F  F15  1  0.78753202  0.82197499  0.15838099  1
  F  F16  1  0.38420302  0.61579699  0.74999999  1
  F  F17  1  0.61579700  0.38420299  0.24999999  1
