# generated using pymatgen
data_MgMnCuS5
_symmetry_space_group_name_H-M   'P 1'
_cell_length_a   3.54511189
_cell_length_b   5.12676191
_cell_length_c   9.16939068
_cell_angle_alpha   96.36840057
_cell_angle_beta   90.00000000
_cell_angle_gamma   90.00000000
_symmetry_Int_Tables_number   1
_chemical_formula_structural   MgMnCuS5
_chemical_formula_sum   'Mg1 Mn1 Cu1 S5'
_cell_volume   165.62479204
_cell_formula_units_Z   1
loop_
 _symmetry_equiv_pos_site_id
 _symmetry_equiv_pos_as_xyz
  1  'x, y, z'
loop_
 _atom_site_type_symbol
 _atom_site_label
 _atom_site_symmetry_multiplicity
 _atom_site_fract_x
 _atom_site_fract_y
 _atom_site_fract_z
 _atom_site_occupancy
  Mg  Mg0  1  0.75000002  0.27722401  0.64760698  1
  Mn  Mn1  1  0.25000001  0.72106702  0.34792297  1
  Cu  Cu2  1  0.25000001  0.51879202  0.82290198  1
  S  S3  1  0.75000002  0.49015802  0.18734898  1
  S  S4  1  0.25000001  0.11593300  0.82717499  1
  S  S5  1  0.75000002  0.88488803  0.18440197  1
  S  S6  1  0.25000001  0.23515601  0.44014199  1
  S  S7  1  0.75000002  0.75678203  0.54249997  1
