# generated using pymatgen
data_BaTl3Ag3As(SCl)5
_symmetry_space_group_name_H-M   'P 1'
_cell_length_a   4.23061419
_cell_length_b   10.11462116
_cell_length_c   11.90168476
_cell_angle_alpha   99.78390503
_cell_angle_beta   90.00000000
_cell_angle_gamma   90.00000000
_symmetry_Int_Tables_number   1
_chemical_formula_structural   BaTl3Ag3As(SCl)5
_chemical_formula_sum   'Ba1 Tl3 Ag3 As1 S5 Cl5'
_cell_volume   501.87848625
_cell_formula_units_Z   1
loop_
 _symmetry_equiv_pos_site_id
 _symmetry_equiv_pos_as_xyz
  1  'x, y, z'
loop_
 _atom_site_type_symbol
 _atom_site_label
 _atom_site_symmetry_multiplicity
 _atom_site_fract_x
 _atom_site_fract_y
 _atom_site_fract_z
 _atom_site_occupancy
  Ba  Ba0  1  0.49097498  0.70514802  0.59774899  1
  Ag  Ag1  1  0.99097496  0.79485202  0.90225099  1
  Tl  Tl2  1  0.50902498  0.29485201  0.40225100  1
  Tl  Tl3  1  0.00902500  0.20514801  0.09774899  1
  Tl  Tl4  1  0.49520598  0.45116201  0.81338500  1
  As  As5  1  0.99520596  0.04883800  0.68661501  1
  Ag  Ag6  1  0.50479398  0.54883802  0.18661498  1
  Ag  Ag7  1  0.00479400  0.95116203  0.31338497  1
  Cl  Cl8  1  0.49999998  0.00000000  0.50000001  1
  S  S9  1  -0.00000000  0.50000001  -0.00000002  1
  S  S10  1  0.49663798  0.08670700  0.85941701  1
  Cl  Cl11  1  0.99663796  0.41329301  0.64058300  1
  Cl  Cl12  1  0.50336198  0.91329303  0.14058297  1
  Cl  Cl13  1  0.00336200  0.58670702  0.35941699  1
  S  S14  1  0.50614398  0.33912001  0.18606999  1
  S  S15  1  0.00614400  0.16088000  0.31393000  1
  Cl  Cl16  1  0.49385598  0.66088002  0.81392999  1
  S  S17  1  0.99385596  0.83912002  0.68606998  1
