# generated using pymatgen
data_InGa2AgS4
_symmetry_space_group_name_H-M   'P 1'
_cell_length_a   5.66522312
_cell_length_b   5.66522312
_cell_length_c   6.97237062
_cell_angle_alpha   113.94064331
_cell_angle_beta   113.94064331
_cell_angle_gamma   90.03176880
_symmetry_Int_Tables_number   1
_chemical_formula_structural   InGa2AgS4
_chemical_formula_sum   'In1 Ga2 Ag1 S4'
_cell_volume   183.23539223
_cell_formula_units_Z   1
loop_
 _symmetry_equiv_pos_site_id
 _symmetry_equiv_pos_as_xyz
  1  'x, y, z'
loop_
 _atom_site_type_symbol
 _atom_site_label
 _atom_site_symmetry_multiplicity
 _atom_site_fract_x
 _atom_site_fract_y
 _atom_site_fract_z
 _atom_site_occupancy
  Ga  Ga0  1  0.99608807  0.99608802  0.00702706  1
  In  In1  1  0.23825106  0.75504501  0.49292904  1
  Ga  Ga2  1  0.75504502  0.23825100  0.49292903  1
  Ag  Ag3  1  0.51031304  0.51031301  0.00603803  1
  S  S4  1  0.37765603  0.37765601  0.27189203  1
  S  S5  1  0.10581905  0.62514101  0.73108404  1
  S  S6  1  0.62514101  0.10581900  0.73108402  1
  S  S7  1  0.89168707  0.89168701  0.26701706  1
