# generated using pymatgen
data_TbHfCoS4
_symmetry_space_group_name_H-M   'P 1'
_cell_length_a   3.68200064
_cell_length_b   6.32207775
_cell_length_c   7.02115679
_cell_angle_alpha   63.32027817
_cell_angle_beta   74.79747009
_cell_angle_gamma   90.00476837
_symmetry_Int_Tables_number   1
_chemical_formula_structural   TbHfCoS4
_chemical_formula_sum   'Tb1 Hf1 Co1 S4'
_cell_volume   139.60409673
_cell_formula_units_Z   1
loop_
 _symmetry_equiv_pos_site_id
 _symmetry_equiv_pos_as_xyz
  1  'x, y, z'
loop_
 _atom_site_type_symbol
 _atom_site_label
 _atom_site_symmetry_multiplicity
 _atom_site_fract_x
 _atom_site_fract_y
 _atom_site_fract_z
 _atom_site_occupancy
  Tb  Tb0  1  0.49882206  0.49144001  0.00233998  1
  Hf  Hf1  1  0.99445901  0.00624200  0.01120797  1
  Co  Co2  1  0.31734012  0.98270503  0.36518497  1
  S  S3  1  0.62261004  0.28957001  0.75497496  1
  S  S4  1  0.12303110  0.78656202  0.75379797  1
  S  S5  1  0.37355309  0.69949002  0.25306097  1
  S  S6  1  0.86523503  0.20564101  0.26943296  1
