# generated using pymatgen
data_Tm(CuSe)3
_symmetry_space_group_name_H-M   'P 1'
_cell_length_a   7.03336430
_cell_length_b   7.03336430
_cell_length_c   7.77748919
_cell_angle_alpha   63.11753845
_cell_angle_beta   63.11753845
_cell_angle_gamma   60.00000000
_symmetry_Int_Tables_number   1
_chemical_formula_structural   Tm(CuSe)3
_chemical_formula_sum   'Tm2 Cu6 Se6'
_cell_volume   284.17301698
_cell_formula_units_Z   2
loop_
 _symmetry_equiv_pos_site_id
 _symmetry_equiv_pos_as_xyz
  1  'x, y, z'
loop_
 _atom_site_type_symbol
 _atom_site_label
 _atom_site_symmetry_multiplicity
 _atom_site_fract_x
 _atom_site_fract_y
 _atom_site_fract_z
 _atom_site_occupancy
  Tm  Tm0  1  0.83363195  0.83363196  0.49910407  1
  Tm  Tm1  1  0.16636799  0.16636799  0.50089603  1
  Cu  Cu2  1  0.96884495  0.27888999  0.12623905  1
  Cu  Cu3  1  0.27888998  0.62602597  0.12623903  1
  Cu  Cu4  1  0.62602596  0.96884496  0.12623906  1
  Cu  Cu5  1  0.37397398  0.03115500  0.87376104  1
  Cu  Cu6  1  0.72110996  0.37397398  0.87376106  1
  Cu  Cu7  1  0.03115499  0.72110997  0.87376105  1
  Se  Se8  1  0.74442596  0.08932400  0.74752005  1
  Se  Se9  1  0.41872997  0.74442597  0.74752006  1
  Se  Se10  1  0.08932399  0.41872998  0.74752004  1
  Se  Se11  1  0.91067595  0.58126997  0.25248006  1
  Se  Se12  1  0.58126997  0.25557399  0.25248004  1
  Se  Se13  1  0.25557398  0.91067596  0.25248005  1
