# generated using pymatgen
data_Sc3RhO6
_symmetry_space_group_name_H-M   'P 1'
_cell_length_a   6.20844793
_cell_length_b   6.20844793
_cell_length_c   6.20844793
_cell_angle_alpha   90.00000000
_cell_angle_beta   90.00000000
_cell_angle_gamma   90.00000000
_symmetry_Int_Tables_number   1
_chemical_formula_structural   Sc3RhO6
_chemical_formula_sum   'Sc6 Rh2 O12'
_cell_volume   239.30354370
_cell_formula_units_Z   2
loop_
 _symmetry_equiv_pos_site_id
 _symmetry_equiv_pos_as_xyz
  1  'x, y, z'
loop_
 _atom_site_type_symbol
 _atom_site_label
 _atom_site_symmetry_multiplicity
 _atom_site_fract_x
 _atom_site_fract_y
 _atom_site_fract_z
 _atom_site_occupancy
  Sc  Sc0  1  0.08972300  0.08972300  0.08972300  1
  Sc  Sc1  1  0.41027700  0.91027701  0.58972301  1
  Sc  Sc2  1  0.58972301  0.41027700  0.91027701  1
  Sc  Sc3  1  0.91027701  0.58972301  0.41027700  1
  Sc  Sc4  1  0.14131800  0.64131801  0.85868201  1
  Sc  Sc5  1  0.35868200  0.35868200  0.35868200  1
  Rh  Rh6  1  0.64131801  0.85868201  0.14131800  1
  Rh  Rh7  1  0.85868201  0.14131800  0.64131801  1
  O  O8  1  0.51770501  0.23212100  0.63109601  1
  O  O9  1  0.48229501  0.73212101  0.86890401  1
  O  O10  1  0.26787900  0.36890400  0.01770500  1
  O  O11  1  0.63109601  0.51770501  0.23212100  1
  O  O12  1  0.86890401  0.48229501  0.73212101  1
  O  O13  1  0.23212100  0.63109601  0.51770501  1
  O  O14  1  0.01770500  0.26787900  0.36890400  1
  O  O15  1  0.98229501  0.76787901  0.13109600  1
  O  O16  1  0.76787901  0.13109600  0.98229501  1
  O  O17  1  0.13109600  0.98229501  0.76787901  1
  O  O18  1  0.36890400  0.01770500  0.26787900  1
  O  O19  1  0.73212101  0.86890401  0.48229501  1
