# generated using pymatgen
data_CaLa3PmNd(ThS6)2
_symmetry_space_group_name_H-M   'P 1'
_cell_length_a   4.09491682
_cell_length_b   7.56249189
_cell_length_c   15.78808117
_cell_angle_alpha   90.00000000
_cell_angle_beta   90.00000000
_cell_angle_gamma   90.00000000
_symmetry_Int_Tables_number   1
_chemical_formula_structural   CaLa3PmNd(ThS6)2
_chemical_formula_sum   'Ca1 La3 Pm1 Nd1 Th2 S12'
_cell_volume   488.92174945
_cell_formula_units_Z   1
loop_
 _symmetry_equiv_pos_site_id
 _symmetry_equiv_pos_as_xyz
  1  'x, y, z'
loop_
 _atom_site_type_symbol
 _atom_site_label
 _atom_site_symmetry_multiplicity
 _atom_site_fract_x
 _atom_site_fract_y
 _atom_site_fract_z
 _atom_site_occupancy
  Pm  Pm0  1  0.25000001  0.26447400  0.04408300  1
  Th  Th1  1  0.75000003  0.73552601  0.95591699  1
  La  La2  1  0.25000001  0.76447401  0.45591700  1
  Ca  Ca3  1  0.75000003  0.23552600  0.54408299  1
  La  La4  1  0.25000001  0.14486500  0.79551999  1
  Th  Th5  1  0.75000003  0.85513501  0.20448000  1
  La  La6  1  0.25000001  0.64486501  0.70447999  1
  Nd  Nd7  1  0.75000003  0.35513500  0.29552000  1
  S  S8  1  0.25000001  0.14532000  0.21896100  1
  S  S9  1  0.75000003  0.85468001  0.78103899  1
  S  S10  1  0.25000001  0.64532001  0.28103900  1
  S  S11  1  0.75000003  0.35468000  0.71896099  1
  S  S12  1  0.25000001  0.37372701  0.43251600  1
  S  S13  1  0.75000003  0.62627301  0.56748399  1
  S  S14  1  0.25000001  0.87372701  0.06748400  1
  S  S15  1  0.75000003  0.12627300  0.93251599  1
  S  S16  1  0.75000003  0.49023501  0.10937300  1
  S  S17  1  0.25000001  0.50976501  0.89062699  1
  S  S18  1  0.75000003  0.99023501  0.39062700  1
  S  S19  1  0.25000001  0.00976500  0.60937299  1
