# generated using pymatgen
data_Mg2SnGe3
_symmetry_space_group_name_H-M   'P 1'
_cell_length_a   3.71958590
_cell_length_b   6.75684023
_cell_length_c   7.05483866
_cell_angle_alpha   116.59590912
_cell_angle_beta   105.28494263
_cell_angle_gamma   90.00000000
_symmetry_Int_Tables_number   1
_chemical_formula_structural   Mg2SnGe3
_chemical_formula_sum   'Mg2 Sn1 Ge3'
_cell_volume   151.49862089
_cell_formula_units_Z   1
loop_
 _symmetry_equiv_pos_site_id
 _symmetry_equiv_pos_as_xyz
  1  'x, y, z'
loop_
 _atom_site_type_symbol
 _atom_site_label
 _atom_site_symmetry_multiplicity
 _atom_site_fract_x
 _atom_site_fract_y
 _atom_site_fract_z
 _atom_site_occupancy
  Mg  Mg0  1  0.85979808  0.52737400  0.71959606  1
  Mg  Mg1  1  0.14020205  0.47262600  0.28040403  1
  Ge  Ge2  1  0.25077503  0.24684700  0.50155002  1
  Ge  Ge3  1  0.74922510  0.75315300  0.49845007  1
  Sn  Sn4  1  0.36243602  0.03181500  0.72487201  1
  Ge  Ge5  1  0.63756411  0.96818500  0.27512808  1
