# generated using pymatgen
data_MgN
_symmetry_space_group_name_H-M   'P 1'
_cell_length_a   6.59779263
_cell_length_b   6.59779263
_cell_length_c   6.59779263
_cell_angle_alpha   60.00000000
_cell_angle_beta   60.00000000
_cell_angle_gamma   60.00000000
_symmetry_Int_Tables_number   1
_chemical_formula_structural   MgN
_chemical_formula_sum   'Mg7 N7'
_cell_volume   203.08646756
_cell_formula_units_Z   7
loop_
 _symmetry_equiv_pos_site_id
 _symmetry_equiv_pos_as_xyz
  1  'x, y, z'
loop_
 _atom_site_type_symbol
 _atom_site_label
 _atom_site_symmetry_multiplicity
 _atom_site_fract_x
 _atom_site_fract_y
 _atom_site_fract_z
 _atom_site_occupancy
  Mg  Mg0  1  0.50000001  0.50000001  0.50000001  1
  Mg  Mg1  1  0.25000001  0.25000001  0.25000001  1
  Mg  Mg2  1  0.87500002  0.37500001  0.87500002  1
  Mg  Mg3  1  0.87500002  0.87500002  0.87500002  1
  Mg  Mg4  1  0.87500002  0.87500002  0.37500001  1
  Mg  Mg5  1  0.37500001  0.87500002  0.87500002  1
  Mg  Mg6  1  0.11181100  0.11181200  0.11181200  1
  N  N7  1  0.63818901  0.08543500  0.63818801  1
  N  N8  1  0.08543600  0.63818801  0.63818801  1
  N  N9  1  0.63818901  0.63818801  0.08543500  1
  N  N10  1  0.66456401  0.11181200  0.11181200  1
  N  N11  1  0.11181100  0.11181200  0.66456501  1
  N  N12  1  0.63818901  0.63818801  0.63818801  1
  N  N13  1  0.11181100  0.66456501  0.11181200  1
