# generated using pymatgen
data_Na2VO4
_symmetry_space_group_name_H-M   'P 1'
_cell_length_a   5.88169718
_cell_length_b   6.11419392
_cell_length_c   7.37182808
_cell_angle_alpha   90.00000000
_cell_angle_beta   90.00000000
_cell_angle_gamma   118.74988556
_symmetry_Int_Tables_number   1
_chemical_formula_structural   Na2VO4
_chemical_formula_sum   'Na4 V2 O8'
_cell_volume   232.42444583
_cell_formula_units_Z   2
loop_
 _symmetry_equiv_pos_site_id
 _symmetry_equiv_pos_as_xyz
  1  'x, y, z'
loop_
 _atom_site_type_symbol
 _atom_site_label
 _atom_site_symmetry_multiplicity
 _atom_site_fract_x
 _atom_site_fract_y
 _atom_site_fract_z
 _atom_site_occupancy
  Na  Na0  1  0.31300596  0.68629897  0.74999999  1
  Na  Na1  1  0.03057000  0.00000000  0.00000000  1
  Na  Na2  1  0.03057000  0.00000000  0.49999999  1
  Na  Na3  1  0.62670797  0.31370098  0.25000000  1
  V  V4  1  0.33649196  0.62505397  0.25000000  1
  V  V5  1  0.71143996  0.37494598  0.74999999  1
  O  O6  1  0.23796896  0.72865196  0.44698300  1
  O  O7  1  0.23796896  0.72865196  0.05301700  1
  O  O8  1  0.17685798  0.28774099  0.25000000  1
  O  O9  1  0.68456895  0.75147096  0.25000000  1
  O  O10  1  0.50931697  0.27134799  0.55301699  1
  O  O11  1  0.50931697  0.27134799  0.94698299  1
  O  O12  1  0.88911694  0.71225896  0.74999999  1
  O  O13  1  0.93309896  0.24852899  0.74999999  1
