# generated using pymatgen
data_ZrCrS5
_symmetry_space_group_name_H-M   'P 1'
_cell_length_a   3.52520204
_cell_length_b   6.15233040
_cell_length_c   10.19959831
_cell_angle_alpha   89.74524689
_cell_angle_beta   90.00000000
_cell_angle_gamma   90.00000000
_symmetry_Int_Tables_number   1
_chemical_formula_structural   ZrCrS5
_chemical_formula_sum   'Zr2 Cr2 S10'
_cell_volume   221.20881951
_cell_formula_units_Z   2
loop_
 _symmetry_equiv_pos_site_id
 _symmetry_equiv_pos_as_xyz
  1  'x, y, z'
loop_
 _atom_site_type_symbol
 _atom_site_label
 _atom_site_symmetry_multiplicity
 _atom_site_fract_x
 _atom_site_fract_y
 _atom_site_fract_z
 _atom_site_occupancy
  Zr  Zr0  1  0.49999999  0.42838099  0.82344498  1
  Zr  Zr1  1  0.49999999  0.07518100  0.31369299  1
  Cr  Cr2  1  0.49999999  0.92736099  0.67967598  1
  Cr  Cr3  1  0.49999999  0.57383499  0.18340199  1
  S  S4  1  -0.00000000  0.50196499  0.49646199  1
  S  S5  1  -0.00000000  0.99823099  0.00326400  1
  S  S6  1  0.49999999  0.72897299  0.44692799  1
  S  S7  1  0.49999999  0.27148100  0.54659298  1
  S  S8  1  0.49999999  0.23309100  0.05711100  1
  S  S9  1  0.49999999  0.77125299  0.95566197  1
  S  S10  1  -0.00000000  0.84689899  0.19414899  1
  S  S11  1  -0.00000000  0.13336200  0.80828498  1
  S  S12  1  -0.00000000  0.37637999  0.29813799  1
  S  S13  1  -0.00000000  0.63360699  0.69318998  1
