# generated using pymatgen
data_Na2La2Ta3O11
_symmetry_space_group_name_H-M   'P 1'
_cell_length_a   5.64176178
_cell_length_b   6.22355080
_cell_length_c   7.99172068
_cell_angle_alpha   90.00000000
_cell_angle_beta   95.01189423
_cell_angle_gamma   90.00000000
_symmetry_Int_Tables_number   1
_chemical_formula_structural   Na2La2Ta3O11
_chemical_formula_sum   'Na2 La2 Ta3 O11'
_cell_volume   279.53076178
_cell_formula_units_Z   1
loop_
 _symmetry_equiv_pos_site_id
 _symmetry_equiv_pos_as_xyz
  1  'x, y, z'
loop_
 _atom_site_type_symbol
 _atom_site_label
 _atom_site_symmetry_multiplicity
 _atom_site_fract_x
 _atom_site_fract_y
 _atom_site_fract_z
 _atom_site_occupancy
  Na  Na0  1  0.96677804  0.41678901  0.75564500  1
  Na  Na1  1  0.53322202  0.91678903  0.74435500  1
  La  La2  1  0.46677802  0.08321100  0.25564500  1
  La  La3  1  0.03322200  0.58321102  0.24435500  1
  Ta  Ta4  1  0.50000002  0.50000002  1.00000000  1
  Ta  Ta5  1  -0.00000000  0.00000000  0.50000000  1
  Ta  Ta6  1  0.85760803  0.93286803  0.27662500  1
  O  O7  1  0.86303203  0.73593002  0.58334600  1
  O  O8  1  0.78688603  0.65444402  0.95048600  1
  O  O9  1  0.71311403  0.15444401  0.54951400  1
  O  O10  1  0.63696803  0.23593001  0.91665400  1
  O  O11  1  0.64239203  0.43286801  0.22337500  1
  O  O12  1  0.14239201  0.06713200  0.72337500  1
  O  O13  1  0.13696801  0.26407001  0.41665400  1
  O  O14  1  0.21311401  0.34555601  0.04951400  1
  O  O15  1  0.28688601  0.84555603  0.45048600  1
  O  O16  1  0.36303201  0.76407002  0.08334600  1
  O  O17  1  0.35760801  0.56713202  0.77662500  1
