# generated using pymatgen
data_CuAsS2O7
_symmetry_space_group_name_H-M   'P 1'
_cell_length_a   4.68632650
_cell_length_b   5.21146870
_cell_length_c   5.38436365
_cell_angle_alpha   106.25675201
_cell_angle_beta   96.24169922
_cell_angle_gamma   97.84196472
_symmetry_Int_Tables_number   1
_chemical_formula_structural   CuAsS2O7
_chemical_formula_sum   'Cu1 As1 S2 O7'
_cell_volume   123.56070397
_cell_formula_units_Z   1
loop_
 _symmetry_equiv_pos_site_id
 _symmetry_equiv_pos_as_xyz
  1  'x, y, z'
loop_
 _atom_site_type_symbol
 _atom_site_label
 _atom_site_symmetry_multiplicity
 _atom_site_fract_x
 _atom_site_fract_y
 _atom_site_fract_z
 _atom_site_occupancy
  Cu  Cu0  1  0.99163902  0.32105799  0.69055499  1
  As  As1  1  0.00836096  0.67894397  0.30944294  1
  S  S2  1  0.59481998  0.77115196  0.77055194  1
  S  S3  1  0.40518000  0.22884799  0.22944799  1
  O  O4  1  0.78785798  0.92910796  0.60295694  1
  O  O5  1  0.78940300  0.59474397  0.91448596  1
  O  O6  1  0.27457298  0.59740197  0.60717795  1
  O  O7  1  0.49999896  0.99999695  0.00000295  1
  O  O8  1  0.72542701  0.40259898  0.39282099  1
  O  O9  1  0.21059699  0.40525298  0.08551098  1
  O  O10  1  0.21214200  0.07089500  0.39704699  1
