# generated using pymatgen
data_BaN3
_symmetry_space_group_name_H-M   'P 1'
_cell_length_a   5.71395016
_cell_length_b   5.71395016
_cell_length_c   5.71395016
_cell_angle_alpha   100.80387878
_cell_angle_beta   113.97112274
_cell_angle_gamma   113.97112274
_symmetry_Int_Tables_number   1
_chemical_formula_structural   BaN3
_chemical_formula_sum   'Ba2 N6'
_cell_volume   141.19992283
_cell_formula_units_Z   2
loop_
 _symmetry_equiv_pos_site_id
 _symmetry_equiv_pos_as_xyz
  1  'x, y, z'
loop_
 _atom_site_type_symbol
 _atom_site_label
 _atom_site_symmetry_multiplicity
 _atom_site_fract_x
 _atom_site_fract_y
 _atom_site_fract_z
 _atom_site_occupancy
  Ba  Ba0  1  1.00000015  0.75000007  0.75000015  1
  Ba  Ba1  1  1.00000008  0.25000002  0.25000009  1
  N  N2  1  0.50000017  1.00000009  0.50000015  1
  N  N3  1  0.50000009  0.50000005  1.00000010  1
  N  N4  1  0.23022614  0.86511308  0.36511311  1
  N  N5  1  0.76977405  0.13488701  0.63488707  1
  N  N6  1  0.50000007  0.36511303  0.13488707  1
  N  N7  1  0.50000011  0.63488706  0.86511311  1
