# generated using pymatgen
data_SiBr2
_symmetry_space_group_name_H-M   'P 1'
_cell_length_a   4.28004217
_cell_length_b   5.79006290
_cell_length_c   6.46678066
_cell_angle_alpha   106.96548462
_cell_angle_beta   90.00000000
_cell_angle_gamma   90.00000000
_symmetry_Int_Tables_number   1
_chemical_formula_structural   SiBr2
_chemical_formula_sum   'Si2 Br4'
_cell_volume   153.28359467
_cell_formula_units_Z   2
loop_
 _symmetry_equiv_pos_site_id
 _symmetry_equiv_pos_as_xyz
  1  'x, y, z'
loop_
 _atom_site_type_symbol
 _atom_site_label
 _atom_site_symmetry_multiplicity
 _atom_site_fract_x
 _atom_site_fract_y
 _atom_site_fract_z
 _atom_site_occupancy
  Si  Si0  1  0.00000000  0.00000000  0.50000001  1
  Si  Si1  1  0.49999998  0.00000000  1.00000001  1
  Br  Br2  1  0.24422699  0.23522000  0.30898800  1
  Br  Br3  1  0.74422697  0.76478001  0.19101200  1
  Br  Br4  1  0.75577297  0.76478001  0.69101200  1
  Br  Br5  1  0.25577299  0.23522000  0.80898801  1
