# generated using pymatgen
data_Na2H5
_symmetry_space_group_name_H-M   'P 1'
_cell_length_a   6.02239418
_cell_length_b   6.02470875
_cell_length_c   6.02496672
_cell_angle_alpha   119.99665070
_cell_angle_beta   119.98621368
_cell_angle_gamma   89.99870300
_symmetry_Int_Tables_number   1
_chemical_formula_structural   Na2H5
_chemical_formula_sum   'Na4 H10'
_cell_volume   154.61877950
_cell_formula_units_Z   2
loop_
 _symmetry_equiv_pos_site_id
 _symmetry_equiv_pos_as_xyz
  1  'x, y, z'
loop_
 _atom_site_type_symbol
 _atom_site_label
 _atom_site_symmetry_multiplicity
 _atom_site_fract_x
 _atom_site_fract_y
 _atom_site_fract_z
 _atom_site_occupancy
  Na  Na0  1  0.99999498  0.49997096  0.00001700  1
  Na  Na1  1  0.49995899  0.49998996  0.99993798  1
  Na  Na2  1  0.50000500  0.00003400  0.50002102  1
  Na  Na3  1  0.49994399  0.49996796  0.49996198  1
  H  H4  1  0.12489898  0.87496894  0.74996094  1
  H  H5  1  0.87501799  0.12503099  0.25002003  1
  H  H6  1  0.24705099  0.75303394  0.50604695  1
  H  H7  1  0.24097099  0.24700298  0.49397699  1
  H  H8  1  0.75298798  0.75898294  0.00600197  1
  H  H9  1  0.75304399  0.24697698  0.00603001  1
  H  H10  1  0.24704699  0.24099698  0.99403999  1
  H  H11  1  0.24703999  0.75307994  0.99403595  1
  H  H12  1  0.75298099  0.24691698  0.49387601  1
  H  H13  1  0.75905898  0.75304794  0.50607397  1
