# generated using pymatgen
data_RbNaAlCl9
_symmetry_space_group_name_H-M   'P 1'
_cell_length_a   7.42445278
_cell_length_b   7.42445278
_cell_length_c   7.42445278
_cell_angle_alpha   60.00000000
_cell_angle_beta   60.00000000
_cell_angle_gamma   60.00000000
_symmetry_Int_Tables_number   1
_chemical_formula_structural   RbNaAlCl9
_chemical_formula_sum   'Rb1 Na1 Al1 Cl9'
_cell_volume   289.38655569
_cell_formula_units_Z   1
loop_
 _symmetry_equiv_pos_site_id
 _symmetry_equiv_pos_as_xyz
  1  'x, y, z'
loop_
 _atom_site_type_symbol
 _atom_site_label
 _atom_site_symmetry_multiplicity
 _atom_site_fract_x
 _atom_site_fract_y
 _atom_site_fract_z
 _atom_site_occupancy
  Rb  Rb0  1  0.03441200  0.65519601  0.65519601  1
  Na  Na1  1  0.65519501  0.03441300  0.65519601  1
  Al  Al2  1  0.65519501  0.65519601  0.65519601  1
  Cl  Cl3  1  0.65519501  0.65519601  0.03441300  1
  Cl  Cl4  1  0.37108801  0.87630402  0.87630402  1
  Cl  Cl5  1  0.87630402  0.37108801  0.87630402  1
  Cl  Cl6  1  0.87630402  0.87630402  0.87630402  1
  Cl  Cl7  1  0.87630402  0.87630402  0.37108801  1
  Cl  Cl8  1  0.87053002  0.37649001  0.37649001  1
  Cl  Cl9  1  0.37648901  0.87053102  0.37649001  1
  Cl  Cl10  1  0.37648901  0.37649001  0.37649001  1
  Cl  Cl11  1  0.37648901  0.37649001  0.87053102  1
