# generated using pymatgen
data_LaPO3
_symmetry_space_group_name_H-M   'P 1'
_cell_length_a   7.36708784
_cell_length_b   7.36708784
_cell_length_c   7.36708784
_cell_angle_alpha   107.88481903
_cell_angle_beta   107.88481903
_cell_angle_gamma   112.69284821
_symmetry_Int_Tables_number   1
_chemical_formula_structural   LaPO3
_chemical_formula_sum   'La4 P4 O12'
_cell_volume   307.06366371
_cell_formula_units_Z   4
loop_
 _symmetry_equiv_pos_site_id
 _symmetry_equiv_pos_as_xyz
  1  'x, y, z'
loop_
 _atom_site_type_symbol
 _atom_site_label
 _atom_site_symmetry_multiplicity
 _atom_site_fract_x
 _atom_site_fract_y
 _atom_site_fract_z
 _atom_site_occupancy
  La  La0  1  0.70259287  0.70259293  0.99999987  1
  La  La1  1  0.29740695  0.29740697  0.99999994  1
  La  La2  1  0.74999995  0.24999997  0.49999992  1
  La  La3  1  0.24999987  0.74999992  0.49999988  1
  P  P4  1  0.80904286  0.73768592  0.54672885  1
  P  P5  1  0.26231386  0.80904292  0.07135687  1
  P  P6  1  0.73768596  0.19095698  0.92864293  1
  P  P7  1  0.19095695  0.26231397  0.45327095  1
  O  O8  1  0.74155989  0.57739194  0.31895088  1
  O  O9  1  0.42260887  0.74155992  0.16416887  1
  O  O10  1  0.57739095  0.25843997  0.83583093  1
  O  O11  1  0.25844093  0.42260896  0.68104893  1
  O  O12  1  0.93709797  0.10424399  0.34064493  1
  O  O13  1  0.59645283  0.93709790  0.83285384  1
  O  O14  1  0.10424387  0.76359892  0.16714589  1
  O  O15  1  0.76359889  0.59645294  0.65935488  1
  O  O16  1  0.23640093  0.40354696  0.34064493  1
  O  O17  1  0.89575595  0.23640098  0.83285392  1
  O  O18  1  0.40354698  0.06290199  0.16714597  1
  O  O19  1  0.06290185  0.89575591  0.65935488  1
