# generated using pymatgen
data_ZrCu2GeSeS12
_symmetry_space_group_name_H-M   'P 1'
_cell_length_a   3.85853791
_cell_length_b   3.85853791
_cell_length_c   16.35144615
_cell_angle_alpha   90.00000000
_cell_angle_beta   90.00000000
_cell_angle_gamma   90.00000000
_symmetry_Int_Tables_number   1
_chemical_formula_structural   ZrCu2GeSeS12
_chemical_formula_sum   'Zr1 Cu2 Ge1 Se1 S12'
_cell_volume   243.44547809
_cell_formula_units_Z   1
loop_
 _symmetry_equiv_pos_site_id
 _symmetry_equiv_pos_as_xyz
  1  'x, y, z'
loop_
 _atom_site_type_symbol
 _atom_site_label
 _atom_site_symmetry_multiplicity
 _atom_site_fract_x
 _atom_site_fract_y
 _atom_site_fract_z
 _atom_site_occupancy
  Zr  Zr0  1  0.50000001  0.00000000  0.24941100  1
  Ge  Ge1  1  -0.00000000  0.50000001  0.41665000  1
  Cu  Cu2  1  0.50000001  0.00000000  0.58334999  1
  Cu  Cu3  1  -0.00000000  0.50000001  0.75058899  1
  Se  Se4  1  0.50000001  0.00000000  0.90680799  1
  S  S5  1  -0.00000000  0.50000001  0.09319200  1
  S  S6  1  0.50000001  0.50000001  0.00000000  1
  S  S7  1  0.00000000  0.00000000  0.15390100  1
  S  S8  1  0.50000001  0.50000001  0.17449000  1
  S  S9  1  0.50000001  0.50000001  0.33691200  1
  S  S10  1  0.00000000  0.00000000  0.32908400  1
  S  S11  1  0.00000000  0.00000000  0.50000000  1
  S  S12  1  0.50000001  0.50000001  0.50000000  1
  S  S13  1  0.00000000  0.00000000  0.67091599  1
  S  S14  1  0.50000001  0.50000001  0.66308799  1
  S  S15  1  0.00000000  0.00000000  0.84609899  1
  S  S16  1  0.50000001  0.50000001  0.82550999  1
