# generated using pymatgen
data_Li5CrCu2S6O5
_symmetry_space_group_name_H-M   'P 1'
_cell_length_a   3.85038400
_cell_length_b   3.85038400
_cell_length_c   16.90045357
_cell_angle_alpha   96.54096985
_cell_angle_beta   96.54096985
_cell_angle_gamma   90.00000000
_symmetry_Int_Tables_number   1
_chemical_formula_structural   Li5CrCu2S6O5
_chemical_formula_sum   'Li5 Cr1 Cu2 S6 O5'
_cell_volume   247.28426625
_cell_formula_units_Z   1
loop_
 _symmetry_equiv_pos_site_id
 _symmetry_equiv_pos_as_xyz
  1  'x, y, z'
loop_
 _atom_site_type_symbol
 _atom_site_label
 _atom_site_symmetry_multiplicity
 _atom_site_fract_x
 _atom_site_fract_y
 _atom_site_fract_z
 _atom_site_occupancy
  Li  Li0  1  0.43491600  0.43491600  0.86983204  1
  Li  Li1  1  0.56508400  0.56508400  0.13016801  1
  Li  Li2  1  0.12707300  0.12707300  0.25414601  1
  Li  Li3  1  0.87292701  0.87292700  0.74585404  1
  Cr  Cr4  1  0.00000000  0.00000000  0.00000000  1
  Li  Li5  1  0.28850400  0.28850400  0.57700803  1
  Cu  Cu6  1  0.71149601  0.71149600  0.42299202  1
  Cu  Cu7  1  0.61443100  0.11443100  0.22886201  1
  S  S8  1  0.38556901  0.88556900  0.77113804  1
  S  S9  1  0.88556901  0.38556900  0.77113804  1
  S  S10  1  0.11443100  0.61443100  0.22886201  1
  O  O11  1  0.75000000  0.25000000  0.50000003  1
  O  O12  1  0.25000000  0.75000000  0.50000003  1
  O  O13  1  0.18087200  0.18087200  0.36174402  1
  O  O14  1  0.81912801  0.81912800  0.63825603  1
  O  O15  1  0.05824900  0.05824900  0.11649801  1
  S  S16  1  0.94175101  0.94175100  0.88350205  1
  S  S17  1  0.50000001  1.00000000  1.00000005  1
  S  S18  1  0.00000000  0.50000000  0.00000000  1
