# generated using pymatgen
data_CsInCuSe3
_symmetry_space_group_name_H-M   'P 1'
_cell_length_a   4.13926983
_cell_length_b   8.39624882
_cell_length_c   10.91196156
_cell_angle_alpha   90.00000000
_cell_angle_beta   90.00000000
_cell_angle_gamma   104.27021027
_symmetry_Int_Tables_number   1
_chemical_formula_structural   CsInCuSe3
_chemical_formula_sum   'Cs2 In2 Cu2 Se6'
_cell_volume   367.53625575
_cell_formula_units_Z   2
loop_
 _symmetry_equiv_pos_site_id
 _symmetry_equiv_pos_as_xyz
  1  'x, y, z'
loop_
 _atom_site_type_symbol
 _atom_site_label
 _atom_site_symmetry_multiplicity
 _atom_site_fract_x
 _atom_site_fract_y
 _atom_site_fract_z
 _atom_site_occupancy
  Cs  Cs0  1  0.74230598  0.48461198  0.25000001  1
  Cs  Cs1  1  0.25769396  0.51538798  0.75000003  1
  In  In2  1  0.00000000  0.00000000  0.00000000  1
  In  In3  1  0.00000000  0.00000000  0.50000002  1
  Cu  Cu4  1  0.46041493  0.92082996  0.25000001  1
  Cu  Cu5  1  0.53958501  0.07917000  0.75000003  1
  Se  Se6  1  0.38478794  0.76957597  0.05600700  1
  Se  Se7  1  0.61521200  0.23042399  0.94399304  1
  Se  Se8  1  0.61521200  0.23042399  0.55600702  1
  Se  Se9  1  0.38478794  0.76957597  0.44399302  1
  Se  Se10  1  0.05398799  0.10797600  0.25000001  1
  Se  Se11  1  0.94601195  0.89202396  0.75000003  1
