# generated using pymatgen
data_CeBi3Te11Pb
_symmetry_space_group_name_H-M   'P 1'
_cell_length_a   8.84607601
_cell_length_b   9.43577862
_cell_length_c   8.84607601
_cell_angle_alpha   117.95330048
_cell_angle_beta   90.00000000
_cell_angle_gamma   117.95330048
_symmetry_Int_Tables_number   1
_chemical_formula_structural   CeBi3Te11Pb
_chemical_formula_sum   'Ce1 Bi3 Te11 Pb1'
_cell_volume   552.82003281
_cell_formula_units_Z   1
loop_
 _symmetry_equiv_pos_site_id
 _symmetry_equiv_pos_as_xyz
  1  'x, y, z'
loop_
 _atom_site_type_symbol
 _atom_site_label
 _atom_site_symmetry_multiplicity
 _atom_site_fract_x
 _atom_site_fract_y
 _atom_site_fract_z
 _atom_site_occupancy
  Ce  Ce0  1  0.72080196  0.72982596  0.22080196  1
  Bi  Bi1  1  0.22080196  0.72982596  0.00902396  1
  Bi  Bi2  1  0.50902396  0.72982596  0.72080196  1
  Bi  Bi3  1  0.77919798  0.27017398  0.99097598  1
  Te  Te4  1  0.00902396  0.72982596  0.50902396  1
  Te  Te5  1  0.27919798  0.27017398  0.77919798  1
  Te  Te6  1  0.99097598  0.27017398  0.49097598  1
  Te  Te7  1  0.49097598  0.27017398  0.27919798  1
  Te  Te8  1  0.00000000  0.00000000  0.00000000  1
  Te  Te9  1  0.49999994  0.99999994  0.49999994  1
  Te  Te10  1  0.16195594  0.99999994  0.33804394  1
  Te  Te11  1  0.66195600  0.00000000  0.16195600  1
  Pb  Pb12  1  0.33804394  0.99999994  0.83804394  1
  Te  Te13  1  0.83804394  0.99999994  0.66195594  1
  Te  Te14  1  0.74999997  0.49999997  0.74999997  1
  Te  Te15  1  0.24999997  0.49999997  0.24999997  1
