# generated using pymatgen
data_Tl2Br4O12F
_symmetry_space_group_name_H-M   'P 1'
_cell_length_a   6.00896215
_cell_length_b   6.55026960
_cell_length_c   7.95639372
_cell_angle_alpha   111.39242554
_cell_angle_beta   96.77130127
_cell_angle_gamma   109.07338715
_symmetry_Int_Tables_number   1
_chemical_formula_structural   Tl2Br4O12F
_chemical_formula_sum   'Tl2 Br4 O12 F1'
_cell_volume   265.39073882
_cell_formula_units_Z   1
loop_
 _symmetry_equiv_pos_site_id
 _symmetry_equiv_pos_as_xyz
  1  'x, y, z'
loop_
 _atom_site_type_symbol
 _atom_site_label
 _atom_site_symmetry_multiplicity
 _atom_site_fract_x
 _atom_site_fract_y
 _atom_site_fract_z
 _atom_site_occupancy
  Tl  Tl0  1  0.33066327  0.70285289  0.24630801  1
  Tl  Tl1  1  0.66933675  0.29714707  0.75369195  1
  Br  Br2  1  0.00000000  0.00000000  0.00000000  1
  Br  Br3  1  0.33274891  0.66534977  0.76077631  1
  Br  Br4  1  0.66725111  0.33465018  0.23922365  1
  Br  Br5  1  0.92202883  0.86654801  0.28439071  1
  O  O6  1  0.07797119  0.13345194  0.71560925  1
  O  O7  1  0.12465733  0.12755968  0.37626560  1
  O  O8  1  0.87534269  0.87244027  0.62373436  1
  O  O9  1  0.36066563  0.82312196  0.62054960  1
  O  O10  1  0.63933439  0.17687799  0.37945036  1
  O  O11  1  0.23666938  0.34989123  0.61648938  1
  O  O12  1  0.76333064  0.65010872  0.38351058  1
  O  O13  1  0.62693463  0.76248815  0.92136501  1
  O  O14  1  0.37306539  0.23751180  0.07863496  1
  O  O15  1  0.10929346  0.70888611  0.89009385  1
  O  O16  1  0.89070656  0.29111385  0.10990611  1
  O  O17  1  0.05337461  0.97851333  0.25767832  1
  F  F18  1  0.94662541  0.02148662  0.74232165  1
