# generated using pymatgen
data_MgCl2
_symmetry_space_group_name_H-M   'P 1'
_cell_length_a   5.99264193
_cell_length_b   6.54368114
_cell_length_c   5.99264193
_cell_angle_alpha   117.25138092
_cell_angle_beta   90.00000000
_cell_angle_gamma   117.25138092
_symmetry_Int_Tables_number   1
_chemical_formula_structural   MgCl2
_chemical_formula_sum   'Mg2 Cl4'
_cell_volume   179.06929716
_cell_formula_units_Z   2
loop_
 _symmetry_equiv_pos_site_id
 _symmetry_equiv_pos_as_xyz
  1  'x, y, z'
loop_
 _atom_site_type_symbol
 _atom_site_label
 _atom_site_symmetry_multiplicity
 _atom_site_fract_x
 _atom_site_fract_y
 _atom_site_fract_z
 _atom_site_occupancy
  Mg  Mg0  1  0.25000003  0.50000003  0.75000004  1
  Mg  Mg1  1  0.00000000  0.00000000  0.00000000  1
  Cl  Cl2  1  0.12500004  0.75000005  0.63206605  1
  Cl  Cl3  1  0.88206602  0.25000002  0.87500002  1
  Cl  Cl4  1  0.62500005  0.75000005  0.11793404  1
  Cl  Cl5  1  0.36793402  0.25000002  0.37500002  1
