# generated using pymatgen
data_Sr2ScSbO6
_symmetry_space_group_name_H-M   'P 1'
_cell_length_a   5.85147095
_cell_length_b   5.87601423
_cell_length_c   8.26047421
_cell_angle_alpha   90.00000000
_cell_angle_beta   89.69002533
_cell_angle_gamma   90.00000000
_symmetry_Int_Tables_number   1
_chemical_formula_structural   Sr2ScSbO6
_chemical_formula_sum   'Sr4 Sc2 Sb2 O12'
_cell_volume   284.01842569
_cell_formula_units_Z   2
loop_
 _symmetry_equiv_pos_site_id
 _symmetry_equiv_pos_as_xyz
  1  'x, y, z'
loop_
 _atom_site_type_symbol
 _atom_site_label
 _atom_site_symmetry_multiplicity
 _atom_site_fract_x
 _atom_site_fract_y
 _atom_site_fract_z
 _atom_site_occupancy
  Sr  Sr0  1  0.00917000  0.03167400  0.25220699  1
  Sr  Sr1  1  0.49083000  0.53167398  0.24779301  1
  Sr  Sr2  1  0.50917000  0.46832598  0.75220699  1
  Sr  Sr3  1  0.99083001  0.96832596  0.74779301  1
  Sc  Sc4  1  -0.00000000  0.49999998  0.49999998  1
  Sc  Sc5  1  0.50000000  0.00000000  0.99999998  1
  Sb  Sb6  1  0.50000000  0.00000000  0.50000000  1
  Sb  Sb7  1  1.00000001  0.49999998  0.00000003  1
  O  O8  1  0.71513401  0.72097197  0.54391100  1
  O  O9  1  0.21982300  0.78494297  0.45983399  1
  O  O10  1  0.28486600  0.27902799  0.45608899  1
  O  O11  1  0.57935101  0.98099696  0.25304801  1
  O  O12  1  0.92064901  0.48099698  0.24695202  1
  O  O13  1  0.21513400  0.77902797  0.04391101  1
  O  O14  1  0.28017700  0.28494299  0.04016601  1
  O  O15  1  0.71982301  0.71505697  0.95983399  1
  O  O16  1  0.78486601  0.22097199  0.95608899  1
  O  O17  1  0.07935100  0.51900298  0.75304797  1
  O  O18  1  0.42064900  0.01900300  0.74695199  1
  O  O19  1  0.78017701  0.21505699  0.54016601  1
