# generated using pymatgen
data_Rb2H7O6
_symmetry_space_group_name_H-M   'P 1'
_cell_length_a   5.72521210
_cell_length_b   5.72521210
_cell_length_c   5.72521162
_cell_angle_alpha   71.38043213
_cell_angle_beta   71.38043213
_cell_angle_gamma   71.38042450
_symmetry_Int_Tables_number   1
_chemical_formula_structural   Rb2H7O6
_chemical_formula_sum   'Rb2 H7 O6'
_cell_volume   163.52089821
_cell_formula_units_Z   1
loop_
 _symmetry_equiv_pos_site_id
 _symmetry_equiv_pos_as_xyz
  1  'x, y, z'
loop_
 _atom_site_type_symbol
 _atom_site_label
 _atom_site_symmetry_multiplicity
 _atom_site_fract_x
 _atom_site_fract_y
 _atom_site_fract_z
 _atom_site_occupancy
  Rb  Rb0  1  0.70923594  0.70923600  0.70923607  1
  Rb  Rb1  1  0.29076397  0.29076400  0.29076403  1
  H  H2  1  0.00000000  0.00000000  0.00000000  1
  H  H3  1  0.63938498  0.18908900  0.75853504  1
  H  H4  1  0.75853494  0.63938500  0.18908907  1
  H  H5  1  0.18908894  0.75853500  0.63938505  1
  H  H6  1  0.36061494  0.81091100  0.24146507  1
  H  H7  1  0.24146497  0.36061500  0.81091103  1
  H  H8  1  0.81091097  0.24146500  0.36061505  1
  O  O9  1  0.81937897  0.19852500  0.70061305  1
  O  O10  1  0.70061293  0.81937900  0.19852508  1
  O  O11  1  0.19852495  0.70061300  0.81937905  1
  O  O12  1  0.18062094  0.80147500  0.29938706  1
  O  O13  1  0.29938698  0.18062100  0.80147502  1
  O  O14  1  0.80147496  0.29938700  0.18062105  1
