# generated using pymatgen
data_VNi2S2(OF4)2
_symmetry_space_group_name_H-M   'P 1'
_cell_length_a   5.50857401
_cell_length_b   5.93508625
_cell_length_c   8.38578701
_cell_angle_alpha   108.21181488
_cell_angle_beta   100.09514618
_cell_angle_gamma   104.70585632
_symmetry_Int_Tables_number   1
_chemical_formula_structural   VNi2S2(OF4)2
_chemical_formula_sum   'V1 Ni2 S2 O2 F8'
_cell_volume   242.03298829
_cell_formula_units_Z   1
loop_
 _symmetry_equiv_pos_site_id
 _symmetry_equiv_pos_as_xyz
  1  'x, y, z'
loop_
 _atom_site_type_symbol
 _atom_site_label
 _atom_site_symmetry_multiplicity
 _atom_site_fract_x
 _atom_site_fract_y
 _atom_site_fract_z
 _atom_site_occupancy
  Ni  Ni0  1  0.47766103  0.21554301  0.42451603  1
  Ni  Ni1  1  0.52233908  0.78445703  0.57548403  1
  V  V2  1  0.00000000  0.00000000  0.00000000  1
  S  S3  1  0.91731107  0.64900903  0.29991104  1
  S  S4  1  0.08268903  0.35099101  0.70008903  1
  O  O5  1  0.77976102  0.13916301  0.55042305  1
  F  F6  1  0.79817708  0.79241603  0.15250302  1
  O  O7  1  0.69219409  0.93452204  0.83976105  1
  F  F8  1  0.96808405  0.36500702  0.17110504  1
  F  F9  1  0.30777004  0.42814102  0.58220303  1
  F  F10  1  0.03191606  0.63499303  0.82889503  1
  F  F11  1  0.20182302  0.20758401  0.84749705  1
  F  F12  1  0.69223006  0.57185902  0.41779704  1
  F  F13  1  0.22023908  0.86083704  0.44957702  1
  F  F14  1  0.30780601  0.06547800  0.16023902  1
