# generated using pymatgen
data_CeBiS3
_symmetry_space_group_name_H-M   'P 1'
_cell_length_a   3.86809993
_cell_length_b   6.87815762
_cell_length_c   9.24131012
_cell_angle_alpha   90.00000000
_cell_angle_beta   90.00000000
_cell_angle_gamma   106.33107758
_symmetry_Int_Tables_number   1
_chemical_formula_structural   CeBiS3
_chemical_formula_sum   'Ce2 Bi2 S6'
_cell_volume   235.94867360
_cell_formula_units_Z   2
loop_
 _symmetry_equiv_pos_site_id
 _symmetry_equiv_pos_as_xyz
  1  'x, y, z'
loop_
 _atom_site_type_symbol
 _atom_site_label
 _atom_site_symmetry_multiplicity
 _atom_site_fract_x
 _atom_site_fract_y
 _atom_site_fract_z
 _atom_site_occupancy
  Ce  Ce0  1  0.00000000  0.00000000  0.49999999  1
  Ce  Ce1  1  0.00000000  0.00000000  0.00000000  1
  Bi  Bi2  1  0.24956505  0.49913000  0.74999999  1
  Bi  Bi3  1  0.75043506  0.50087000  0.25000000  1
  S  S4  1  0.35015907  0.70031800  0.42845799  1
  S  S5  1  0.35015907  0.70031800  0.07154200  1
  S  S6  1  0.64984104  0.29968200  0.92845799  1
  S  S7  1  0.64984104  0.29968200  0.57154199  1
  S  S8  1  0.89377209  0.78754400  0.74999999  1
  S  S9  1  0.10622802  0.21245600  0.25000000  1
