# generated using pymatgen
data_Rb2In2Se5
_symmetry_space_group_name_H-M   'P 1'
_cell_length_a   6.98291588
_cell_length_b   6.98291588
_cell_length_c   7.12799644
_cell_angle_alpha   105.06900787
_cell_angle_beta   105.06900787
_cell_angle_gamma   117.98448181
_symmetry_Int_Tables_number   1
_chemical_formula_structural   Rb2In2Se5
_chemical_formula_sum   'Rb2 In2 Se5'
_cell_volume   264.97618357
_cell_formula_units_Z   1
loop_
 _symmetry_equiv_pos_site_id
 _symmetry_equiv_pos_as_xyz
  1  'x, y, z'
loop_
 _atom_site_type_symbol
 _atom_site_label
 _atom_site_symmetry_multiplicity
 _atom_site_fract_x
 _atom_site_fract_y
 _atom_site_fract_z
 _atom_site_occupancy
  Rb  Rb0  1  0.49916693  0.99916694  0.49999993  1
  Rb  Rb1  1  0.99916695  0.49916697  0.49999994  1
  In  In2  1  0.51492197  0.28738298  0.99999998  1
  In  In3  1  0.28738296  0.51492197  -0.00000004  1
  Se  Se4  1  0.99377292  0.99377294  -0.00000009  1
  Se  Se5  1  0.92841295  0.56229597  -0.00000006  1
  Se  Se6  1  0.56229593  0.92841295  -0.00000007  1
  Se  Se7  1  0.42993796  0.42993798  0.34099596  1
  Se  Se8  1  0.08894199  0.08894199  0.65900400  1
