# generated using pymatgen
data_Li2SiGe2AsO12
_symmetry_space_group_name_H-M   'P 1'
_cell_length_a   5.44042826
_cell_length_b   6.74695492
_cell_length_c   6.74695492
_cell_angle_alpha   86.24068451
_cell_angle_beta   75.24900818
_cell_angle_gamma   75.24900818
_symmetry_Int_Tables_number   1
_chemical_formula_structural   Li2SiGe2AsO12
_chemical_formula_sum   'Li2 Si1 Ge2 As1 O12'
_cell_volume   231.60014255
_cell_formula_units_Z   1
loop_
 _symmetry_equiv_pos_site_id
 _symmetry_equiv_pos_as_xyz
  1  'x, y, z'
loop_
 _atom_site_type_symbol
 _atom_site_label
 _atom_site_symmetry_multiplicity
 _atom_site_fract_x
 _atom_site_fract_y
 _atom_site_fract_z
 _atom_site_occupancy
  Li  Li0  1  0.24304302  0.38740199  0.22475402  1
  Li  Li1  1  0.25695704  0.77524599  0.61259803  1
  Ge  Ge2  1  0.74304301  0.22475400  0.38740203  1
  As  As3  1  0.75695703  0.61259799  0.77524605  1
  Si  Si4  1  0.25000004  0.89378299  0.10621704  1
  Ge  Ge5  1  0.75000001  0.10621700  0.89378303  1
  O  O6  1  0.46271702  0.36238899  0.35656703  1
  O  O7  1  0.03728303  0.64343299  0.63761102  1
  O  O8  1  0.53728303  0.63761099  0.64343304  1
  O  O9  1  0.96271702  0.35656700  0.36238905  1
  O  O10  1  0.20407203  0.60703299  0.11290603  1
  O  O11  1  0.29592804  0.88709399  0.39296704  1
  O  O12  1  0.79592802  0.39296699  0.88709404  1
  O  O13  1  0.70407201  0.11290600  0.60703303  1
  O  O14  1  0.86099701  0.05813200  0.18862003  1
  O  O15  1  0.63900304  0.81137999  0.94186805  1
  O  O16  1  0.36099701  0.18862000  0.05813202  1
  O  O17  1  0.13900304  0.94186799  0.81138003  1
