# generated using pymatgen
data_BeV2Se
_symmetry_space_group_name_H-M   'P 1'
_cell_length_a   4.74663162
_cell_length_b   4.74663162
_cell_length_c   7.82112312
_cell_angle_alpha   90.00000000
_cell_angle_beta   90.00000000
_cell_angle_gamma   116.00747681
_symmetry_Int_Tables_number   1
_chemical_formula_structural   BeV2Se
_chemical_formula_sum   'Be1 V2 Se1'
_cell_volume   158.36992833
_cell_formula_units_Z   1
loop_
 _symmetry_equiv_pos_site_id
 _symmetry_equiv_pos_as_xyz
  1  'x, y, z'
loop_
 _atom_site_type_symbol
 _atom_site_label
 _atom_site_symmetry_multiplicity
 _atom_site_fract_x
 _atom_site_fract_y
 _atom_site_fract_z
 _atom_site_occupancy
  Be  Be0  1  0.00614300  0.00614300  0.62652399  1
  V  V1  1  0.99385706  0.99385703  0.12652400  1
  V  V2  1  0.71749404  0.71749402  0.37347599  1
  Se  Se3  1  0.28250602  0.28250601  0.87347599  1
