# generated using pymatgen
data_SrLi2Ti3O12
_symmetry_space_group_name_H-M   'P 1'
_cell_length_a   5.52305317
_cell_length_b   5.54126549
_cell_length_c   7.09795427
_cell_angle_alpha   72.68522644
_cell_angle_beta   72.55067444
_cell_angle_gamma   74.68904114
_symmetry_Int_Tables_number   1
_chemical_formula_structural   SrLi2Ti3O12
_chemical_formula_sum   'Sr1 Li2 Ti3 O12'
_cell_volume   194.16468872
_cell_formula_units_Z   1
loop_
 _symmetry_equiv_pos_site_id
 _symmetry_equiv_pos_as_xyz
  1  'x, y, z'
loop_
 _atom_site_type_symbol
 _atom_site_label
 _atom_site_symmetry_multiplicity
 _atom_site_fract_x
 _atom_site_fract_y
 _atom_site_fract_z
 _atom_site_occupancy
  Sr  Sr0  1  0.35131799  0.34607900  0.15116001  1
  Li  Li1  1  0.62647498  0.70798700  0.33422302  1
  Ti  Ti2  1  0.37352499  0.29201300  0.66577700  1
  Ti  Ti3  1  0.64868198  0.65392100  0.84884001  1
  Li  Li4  1  0.00000000  0.00000000  0.49999999  1
  Ti  Ti5  1  0.00000000  0.00000000  0.00000000  1
  O  O6  1  0.36349099  0.98149600  0.32732603  1
  O  O7  1  0.76672898  0.76123600  0.04089903  1
  O  O8  1  0.43568499  0.43959700  0.36907501  1
  O  O9  1  0.10363300  0.10382400  0.70192199  1
  O  O10  1  0.89636698  0.89617600  0.29807803  1
  O  O11  1  0.23327099  0.23876400  0.95910099  1
  O  O12  1  0.56431499  0.56040300  0.63092501  1
  O  O13  1  0.29501199  0.71002500  0.99900200  1
  O  O14  1  0.63650898  0.01850400  0.67267399  1
  O  O15  1  0.70498798  0.28997500  0.00099801  1
  O  O16  1  0.02651500  0.62745600  0.67483401  1
  O  O17  1  0.97348497  0.37254400  0.32516601  1
