# generated using pymatgen
data_K4I15Br
_symmetry_space_group_name_H-M   'P 1'
_cell_length_a   7.34290695
_cell_length_b   8.17535019
_cell_length_c   14.27279377
_cell_angle_alpha   93.59420776
_cell_angle_beta   90.00000000
_cell_angle_gamma   90.00000000
_symmetry_Int_Tables_number   1
_chemical_formula_structural   K4I15Br
_chemical_formula_sum   'K4 I15 Br1'
_cell_volume   855.12245838
_cell_formula_units_Z   1
loop_
 _symmetry_equiv_pos_site_id
 _symmetry_equiv_pos_as_xyz
  1  'x, y, z'
loop_
 _atom_site_type_symbol
 _atom_site_label
 _atom_site_symmetry_multiplicity
 _atom_site_fract_x
 _atom_site_fract_y
 _atom_site_fract_z
 _atom_site_occupancy
  K  K0  1  0.62068000  0.14375800  0.85214999  1
  K  K1  1  0.87932001  0.14375800  0.35215000  1
  K  K2  1  0.12068000  0.85624198  0.64784999  1
  K  K3  1  0.37932000  0.85624198  0.14785000  1
  Br  Br4  1  0.10815200  0.12892300  0.96809399  1
  I  I5  1  0.39184800  0.12892300  0.46809399  1
  I  I6  1  0.01749400  0.35021599  0.71317499  1
  I  I7  1  0.44109200  0.37764999  0.62548899  1
  I  I8  1  0.48250600  0.35021599  0.21317500  1
  I  I9  1  0.05890800  0.37764999  0.12548900  1
  I  I10  1  0.80612401  0.46338999  0.56700999  1
  I  I11  1  0.30612400  0.53660999  0.93298999  1
  I  I12  1  0.69387600  0.46338999  0.06701000  1
  I  I13  1  0.19387600  0.53660999  0.43299000  1
  I  I14  1  0.94109201  0.62234999  0.87451099  1
  I  I15  1  0.51749400  0.64978399  0.78682499  1
  I  I16  1  0.55890800  0.62234999  0.37451100  1
  I  I17  1  0.98250601  0.64978399  0.28682500  1
  I  I18  1  0.60815200  0.87107698  0.53190600  1
  I  I19  1  0.89184801  0.87107698  0.03190600  1
