# generated using pymatgen
data_LiBiO3
_symmetry_space_group_name_H-M   'P 1'
_cell_length_a   5.47867584
_cell_length_b   5.69176197
_cell_length_c   8.08332348
_cell_angle_alpha   90.00000000
_cell_angle_beta   89.73096466
_cell_angle_gamma   90.00000000
_symmetry_Int_Tables_number   1
_chemical_formula_structural   LiBiO3
_chemical_formula_sum   'Li4 Bi4 O12'
_cell_volume   252.06207428
_cell_formula_units_Z   4
loop_
 _symmetry_equiv_pos_site_id
 _symmetry_equiv_pos_as_xyz
  1  'x, y, z'
loop_
 _atom_site_type_symbol
 _atom_site_label
 _atom_site_symmetry_multiplicity
 _atom_site_fract_x
 _atom_site_fract_y
 _atom_site_fract_z
 _atom_site_occupancy
  Li  Li0  1  0.99145703  0.19474000  0.74936892  1
  Li  Li1  1  0.49145701  0.80526000  0.24936897  1
  Li  Li2  1  0.51561202  0.70178100  0.74967694  1
  Li  Li3  1  0.01561200  0.29821900  0.24967699  1
  Bi  Bi4  1  0.00127800  0.74692300  0.99955395  1
  Bi  Bi5  1  0.00195800  0.74342100  0.49973098  1
  Bi  Bi6  1  0.50127801  0.25307700  0.49955395  1
  Bi  Bi7  1  0.50195801  0.25657900  0.99973093  1
  O  O8  1  0.89164703  0.66907400  0.25155595  1
  O  O9  1  0.78711002  0.45505100  0.93120092  1
  O  O10  1  0.80449602  0.46069800  0.56809994  1
  O  O11  1  0.68932502  0.93108900  0.57018994  1
  O  O12  1  0.67119202  0.94263200  0.93404793  1
  O  O13  1  0.64592002  0.20243000  0.24660696  1
  O  O14  1  0.39164701  0.33092600  0.75155595  1
  O  O15  1  0.30449601  0.53930200  0.06809998  1
  O  O16  1  0.28711001  0.54494900  0.43120097  1
  O  O17  1  0.18932501  0.06891100  0.07018999  1
  O  O18  1  0.17119200  0.05736800  0.43404797  1
  O  O19  1  0.14592000  0.79757000  0.74660696  1
