# generated using pymatgen
data_Li4TiBi(TeO6)2
_symmetry_space_group_name_H-M   'P 1'
_cell_length_a   6.21954918
_cell_length_b   6.23975801
_cell_length_c   6.25289822
_cell_angle_alpha   89.72077179
_cell_angle_beta   89.86684418
_cell_angle_gamma   90.32724762
_symmetry_Int_Tables_number   1
_chemical_formula_structural   Li4TiBi(TeO6)2
_chemical_formula_sum   'Li4 Ti1 Bi1 Te2 O12'
_cell_volume   242.65797599
_cell_formula_units_Z   1
loop_
 _symmetry_equiv_pos_site_id
 _symmetry_equiv_pos_as_xyz
  1  'x, y, z'
loop_
 _atom_site_type_symbol
 _atom_site_label
 _atom_site_symmetry_multiplicity
 _atom_site_fract_x
 _atom_site_fract_y
 _atom_site_fract_z
 _atom_site_occupancy
  Li  Li0  1  0.43705996  0.95110601  0.74830099  1
  Li  Li1  1  0.95085697  0.25201800  0.56281099  1
  Li  Li2  1  0.25321698  0.43698700  0.04924701  1
  Li  Li3  1  0.74450897  0.56146000  0.94641398  1
  Ti  Ti4  1  0.56366099  0.05250900  0.25663599  1
  Bi  Bi5  1  0.05407497  0.74629001  0.43121600  1
  Te  Te6  1  0.50519997  0.50516400  0.49495899  1
  Te  Te7  1  0.99591295  0.99659801  0.00300502  1
  O  O8  1  0.20350398  0.44249200  0.42973499  1
  O  O9  1  0.44543797  0.56935300  0.79639799  1
  O  O10  1  0.57109398  0.20338100  0.55584399  1
  O  O11  1  0.80266796  0.57503600  0.57266799  1
  O  O12  1  0.57391397  0.42862600  0.19938100  1
  O  O13  1  0.42366196  0.80161301  0.42741200  1
  O  O14  1  0.94759797  0.29541500  0.91529898  1
  O  O15  1  0.29534399  0.08625500  0.05169500  1
  O  O16  1  0.08446296  0.94942601  0.70545699  1
  O  O17  1  0.04004097  0.69750801  0.08710301  1
  O  O18  1  0.69593495  0.91105401  0.96379499  1
  O  O19  1  0.91184698  0.03770900  0.30262499  1
