# generated using pymatgen
data_Be2Zn2S3
_symmetry_space_group_name_H-M   'P 1'
_cell_length_a   3.71523166
_cell_length_b   3.71523166
_cell_length_c   13.13743019
_cell_angle_alpha   81.87121582
_cell_angle_beta   81.87121582
_cell_angle_gamma   60.00000381
_symmetry_Int_Tables_number   1
_chemical_formula_structural   Be2Zn2S3
_chemical_formula_sum   'Be2 Zn2 S3'
_cell_volume   154.93358894
_cell_formula_units_Z   1
loop_
 _symmetry_equiv_pos_site_id
 _symmetry_equiv_pos_as_xyz
  1  'x, y, z'
loop_
 _atom_site_type_symbol
 _atom_site_label
 _atom_site_symmetry_multiplicity
 _atom_site_fract_x
 _atom_site_fract_y
 _atom_site_fract_z
 _atom_site_occupancy
  Zn  Zn0  1  0.00000000  0.00000000  0.00000000  1
  Be  Be1  1  0.24199600  0.24199601  0.27401200  1
  Be  Be2  1  0.75800401  0.75800402  0.72598800  1
  Zn  Zn3  1  0.11622400  0.11622400  0.65132802  1
  S  S4  1  0.88377601  0.88377603  0.34867199  1
  S  S5  1  0.29781300  0.29781301  0.10656100  1
  S  S6  1  0.70218701  0.70218702  0.89343901  1
