# generated using pymatgen
data_K3Ba2Te2PdPtAu2N
_symmetry_space_group_name_H-M   'P 1'
_cell_length_a   8.58256626
_cell_length_b   8.58256626
_cell_length_c   8.58256626
_cell_angle_alpha   60.00000000
_cell_angle_beta   60.00000000
_cell_angle_gamma   60.00000000
_symmetry_Int_Tables_number   1
_chemical_formula_structural   K3Ba2Te2PdPtAu2N
_chemical_formula_sum   'K3 Ba2 Te2 Pd1 Pt1 Au2 N1'
_cell_volume   447.02982287
_cell_formula_units_Z   1
loop_
 _symmetry_equiv_pos_site_id
 _symmetry_equiv_pos_as_xyz
  1  'x, y, z'
loop_
 _atom_site_type_symbol
 _atom_site_label
 _atom_site_symmetry_multiplicity
 _atom_site_fract_x
 _atom_site_fract_y
 _atom_site_fract_z
 _atom_site_occupancy
  Ba  Ba0  1  0.37500001  0.87500003  0.87500003  1
  K  K1  1  0.87500003  0.37500001  0.87500003  1
  Ba  Ba2  1  0.87500003  0.87500003  0.87500003  1
  K  K3  1  0.87500003  0.87500003  0.37500001  1
  K  K4  1  0.66361602  0.11212800  0.11212800  1
  Te  Te5  1  0.11212700  0.66361702  0.11212800  1
  Te  Te6  1  0.11212700  0.11212800  0.11212800  1
  Au  Au7  1  0.11212700  0.11212800  0.66361702  1
  Au  Au8  1  0.08638400  0.63787202  0.63787202  1
  Pd  Pd9  1  0.63787302  0.08638300  0.63787202  1
  N  N10  1  0.63787302  0.63787202  0.63787202  1
  Pt  Pt11  1  0.63787302  0.63787202  0.08638300  1
