# generated using pymatgen
data_HfGe3As4
_symmetry_space_group_name_H-M   'P 1'
_cell_length_a   4.12421894
_cell_length_b   4.48565006
_cell_length_c   11.61256981
_cell_angle_alpha   90.00000000
_cell_angle_beta   90.00000000
_cell_angle_gamma   90.00000000
_symmetry_Int_Tables_number   1
_chemical_formula_structural   HfGe3As4
_chemical_formula_sum   'Hf1 Ge3 As4'
_cell_volume   214.83025320
_cell_formula_units_Z   1
loop_
 _symmetry_equiv_pos_site_id
 _symmetry_equiv_pos_as_xyz
  1  'x, y, z'
loop_
 _atom_site_type_symbol
 _atom_site_label
 _atom_site_symmetry_multiplicity
 _atom_site_fract_x
 _atom_site_fract_y
 _atom_site_fract_z
 _atom_site_occupancy
  Hf  Hf0  1  -0.00000000  0.12133900  0.61782501  1
  Ge  Ge1  1  -0.00000000  0.87866099  0.11782500  1
  Ge  Ge2  1  0.50000001  0.35254400  0.37645401  1
  Ge  Ge3  1  0.50000001  0.64745599  0.87645401  1
  As  As4  1  -0.00000000  0.77416299  0.35539201  1
  As  As5  1  -0.00000000  0.22583700  0.85539201  1
  As  As6  1  0.50000001  0.73736999  0.65033001  1
  As  As7  1  0.50000001  0.26263000  0.15033000  1
