# generated using pymatgen
data_Cs10AgSb2Te3PAuI2
_symmetry_space_group_name_H-M   'P 1'
_cell_length_a   8.65009022
_cell_length_b   8.72100067
_cell_length_c   27.59240723
_cell_angle_alpha   89.58238220
_cell_angle_beta   85.27414703
_cell_angle_gamma   87.45202637
_symmetry_Int_Tables_number   1
_chemical_formula_structural   Cs10AgSb2Te3PAuI2
_chemical_formula_sum   'Cs10 Ag1 Sb2 Te3 P1 Au1 I2'
_cell_volume   2072.35955946
_cell_formula_units_Z   1
loop_
 _symmetry_equiv_pos_site_id
 _symmetry_equiv_pos_as_xyz
  1  'x, y, z'
loop_
 _atom_site_type_symbol
 _atom_site_label
 _atom_site_symmetry_multiplicity
 _atom_site_fract_x
 _atom_site_fract_y
 _atom_site_fract_z
 _atom_site_occupancy
  Cs  Cs0  1  0.87539798  0.15218101  0.05900200  1
  Cs  Cs1  1  0.12460202  0.84781903  0.94099800  1
  Cs  Cs2  1  0.61143701  0.86251404  0.17343401  1
  Cs  Cs3  1  0.38856299  0.13748601  0.82656599  1
  Cs  Cs4  1  0.11871002  0.88773004  0.04584801  1
  Cs  Cs5  1  0.88128998  0.11227000  0.95415199  1
  Cs  Cs6  1  0.65208601  0.88663904  0.06890701  1
  Cs  Cs7  1  0.34791399  0.11336100  0.93109299  1
  Te  Te8  1  0.87108198  0.09262500  0.16239700  1
  Cs  Cs9  1  0.12891802  0.90737504  0.83760300  1
  Cs  Cs10  1  0.80477800  0.68288403  0.22462301  1
  Au  Au11  1  0.19522200  0.31711601  0.77537700  1
  I  I12  1  0.10541201  0.35474901  0.06206200  1
  Ag  Ag13  1  0.89458800  0.64525103  0.93793800  1
  I  I14  1  0.62517199  0.35308201  0.05644401  1
  Sb  Sb15  1  0.37482801  0.64691803  0.94355600  1
  Te  Te16  1  0.43820599  0.07730900  0.22712100  1
  Sb  Sb17  1  0.56179401  0.92269104  0.77287901  1
  Te  Te18  1  0.38900801  0.65596903  0.16170901  1
  P  P19  1  0.61099199  0.34403101  0.83829100  1
