# generated using pymatgen
data_Tl7Br3Cl3O7
_symmetry_space_group_name_H-M   'P 1'
_cell_length_a   6.91930199
_cell_length_b   7.87961340
_cell_length_c   10.64013195
_cell_angle_alpha   90.00000000
_cell_angle_beta   90.00000000
_cell_angle_gamma   105.37339020
_symmetry_Int_Tables_number   1
_chemical_formula_structural   Tl7Br3Cl3O7
_chemical_formula_sum   'Tl7 Br3 Cl3 O7'
_cell_volume   559.35783872
_cell_formula_units_Z   1
loop_
 _symmetry_equiv_pos_site_id
 _symmetry_equiv_pos_as_xyz
  1  'x, y, z'
loop_
 _atom_site_type_symbol
 _atom_site_label
 _atom_site_symmetry_multiplicity
 _atom_site_fract_x
 _atom_site_fract_y
 _atom_site_fract_z
 _atom_site_occupancy
  Tl  Tl0  1  0.27834900  0.11795100  0.56895700  1
  Tl  Tl1  1  0.22165102  0.88204899  0.06895700  1
  Tl  Tl2  1  0.72165102  0.88204899  0.43104300  1
  Tl  Tl3  1  0.77834900  0.11795100  0.93104300  1
  Tl  Tl4  1  0.98604201  0.29770500  0.28081100  1
  Tl  Tl5  1  0.48604201  0.29770500  0.21918900  1
  Tl  Tl6  1  0.01395802  0.70229500  0.71918900  1
  Br  Br7  1  0.51395802  0.70229500  0.78081100  1
  Cl  Cl8  1  0.09354402  0.94555599  0.83476900  1
  Br  Br9  1  0.79742401  0.48330400  0.23210100  1
  Cl  Cl10  1  0.70257601  0.51669600  0.73210100  1
  Cl  Cl11  1  0.20257601  0.51669600  0.76789900  1
  O  O12  1  0.92707601  0.20735600  0.47984700  1
  Br  Br13  1  0.57292402  0.79264399  0.97984700  1
  O  O14  1  0.07292402  0.79264399  0.52015300  1
  O  O15  1  0.42707601  0.20735600  0.02015300  1
  O  O16  1  0.90645600  0.05444400  0.16523100  1
  O  O17  1  0.59354403  0.94555599  0.66523100  1
  O  O18  1  0.40645600  0.05444400  0.33476900  1
  O  O19  1  0.29742401  0.48330400  0.26789900  1
