# generated using pymatgen
data_V4O9F
_symmetry_space_group_name_H-M   'P 1'
_cell_length_a   3.93524504
_cell_length_b   4.37339687
_cell_length_c   12.27074242
_cell_angle_alpha   89.99990082
_cell_angle_beta   89.99985504
_cell_angle_gamma   89.99981689
_symmetry_Int_Tables_number   1
_chemical_formula_structural   V4O9F
_chemical_formula_sum   'V4 O9 F1'
_cell_volume   211.18424222
_cell_formula_units_Z   1
loop_
 _symmetry_equiv_pos_site_id
 _symmetry_equiv_pos_as_xyz
  1  'x, y, z'
loop_
 _atom_site_type_symbol
 _atom_site_label
 _atom_site_symmetry_multiplicity
 _atom_site_fract_x
 _atom_site_fract_y
 _atom_site_fract_z
 _atom_site_occupancy
  V  V0  1  0.01855796  0.89166503  0.15157100  1
  V  V1  1  0.51855699  0.10826400  0.34842198  1
  V  V2  1  0.51857099  0.10826200  0.65161197  1
  V  V3  1  0.01856496  0.89183903  0.84839498  1
  O  O4  1  0.51855195  0.99479403  0.18237200  1
  O  O5  1  0.01855200  0.00511900  0.31762299  1
  O  O6  1  0.01856200  0.00514200  0.68237198  1
  O  O7  1  0.51855995  0.99488603  0.81763298  1
  O  O8  1  0.01858497  0.49771301  0.85139798  1
  O  O9  1  0.51858897  0.50228801  0.64862898  1
  O  O10  1  0.51857697  0.50219501  0.35147399  1
  O  O11  1  0.51859295  0.99867803  0.50001099  1
  F  F12  1  0.01859500  0.00138100  0.99999897  1
  O  O13  1  0.01857697  0.49777201  0.14848500  1
