# generated using pymatgen
data_Sr2NdGaO5
_symmetry_space_group_name_H-M   'P 1'
_cell_length_a   6.77167940
_cell_length_b   6.77167940
_cell_length_c   7.41621065
_cell_angle_alpha   116.97676086
_cell_angle_beta   116.97676086
_cell_angle_gamma   90.36604309
_symmetry_Int_Tables_number   1
_chemical_formula_structural   Sr2NdGaO5
_chemical_formula_sum   'Sr4 Nd2 Ga2 O10'
_cell_volume   260.27883417
_cell_formula_units_Z   2
loop_
 _symmetry_equiv_pos_site_id
 _symmetry_equiv_pos_as_xyz
  1  'x, y, z'
loop_
 _atom_site_type_symbol
 _atom_site_label
 _atom_site_symmetry_multiplicity
 _atom_site_fract_x
 _atom_site_fract_y
 _atom_site_fract_z
 _atom_site_occupancy
  Sr  Sr0  1  0.74999998  0.75000000  0.49999997  1
  Sr  Sr1  1  0.24999999  0.25000000  0.50000000  1
  Sr  Sr2  1  0.82604698  0.67395300  -0.00000004  1
  Sr  Sr3  1  0.17395299  0.32604700  -0.00000001  1
  Nd  Nd4  1  0.68086600  0.18086600  -0.00000002  1
  Nd  Nd5  1  0.31913397  0.81913400  0.99999998  1
  Ga  Ga6  1  0.24671397  0.74671400  0.49342798  1
  Ga  Ga7  1  0.75328600  0.25328600  0.50657199  1
  O  O8  1  0.50177399  0.28235200  0.28412599  1
  O  O9  1  0.78235201  0.00177400  0.28412599  1
  O  O10  1  0.29413497  0.79413500  0.28421597  1
  O  O11  1  0.99008099  0.49008100  0.28421597  1
  O  O12  1  0.49822598  0.71764800  0.71587398  1
  O  O13  1  0.21764796  0.99822600  0.71587397  1
  O  O14  1  0.70586500  0.20586500  0.71578399  1
  O  O15  1  0.00991898  0.50991900  0.71578399  1
  O  O16  1  0.49999999  0.50000000  -0.00000003  1
  O  O17  1  0.00000000  0.00000000  0.00000000  1
