# generated using pymatgen
data_CsSrH8
_symmetry_space_group_name_H-M   'P 1'
_cell_length_a   5.26265907
_cell_length_b   6.01755381
_cell_length_c   9.51785755
_cell_angle_alpha   93.24877167
_cell_angle_beta   90.00000000
_cell_angle_gamma   90.00000000
_symmetry_Int_Tables_number   1
_chemical_formula_structural   CsSrH8
_chemical_formula_sum   'Cs2 Sr2 H16'
_cell_volume   300.93028534
_cell_formula_units_Z   2
loop_
 _symmetry_equiv_pos_site_id
 _symmetry_equiv_pos_as_xyz
  1  'x, y, z'
loop_
 _atom_site_type_symbol
 _atom_site_label
 _atom_site_symmetry_multiplicity
 _atom_site_fract_x
 _atom_site_fract_y
 _atom_site_fract_z
 _atom_site_occupancy
  Sr  Sr0  1  0.91672999  0.67007402  0.36231700  1
  Cs  Cs1  1  0.08327000  0.32992601  0.63768298  1
  Cs  Cs2  1  0.58326999  0.67007402  0.86231698  1
  Sr  Sr3  1  0.41672999  0.32992601  0.13768300  1
  H  H4  1  0.83472099  0.78738703  0.94983398  1
  H  H5  1  0.28021200  0.45890602  0.28816400  1
  H  H6  1  0.71978799  0.54109402  0.71183598  1
  H  H7  1  0.41500199  0.88882603  0.80577499  1
  H  H8  1  0.66527899  0.78738703  0.44983399  1
  H  H9  1  0.78021199  0.54109402  0.21183600  1
  H  H10  1  0.16527900  0.21261301  0.05016600  1
  H  H11  1  0.58499799  0.11117400  0.19422500  1
  H  H12  1  0.33472100  0.21261301  0.55016599  1
  H  H13  1  0.08499800  0.88882603  0.30577500  1
  H  H14  1  0.21978800  0.45890602  0.78816398  1
  H  H15  1  0.91500199  0.11117400  0.69422498  1
  H  H16  1  0.36657199  0.64943402  0.04209700  1
  H  H17  1  0.63342799  0.35056601  0.95790298  1
  H  H18  1  0.86657199  0.35056601  0.45790299  1
  H  H19  1  0.13342800  0.64943402  0.54209699  1
