# generated using pymatgen
data_Ca2NbWO8
_symmetry_space_group_name_H-M   'P 1'
_cell_length_a   5.56797981
_cell_length_b   5.56797981
_cell_length_c   7.28151703
_cell_angle_alpha   112.47848511
_cell_angle_beta   112.47848511
_cell_angle_gamma   90.00000000
_symmetry_Int_Tables_number   1
_chemical_formula_structural   Ca2NbWO8
_chemical_formula_sum   'Ca2 Nb1 W1 O8'
_cell_volume   189.89898011
_cell_formula_units_Z   1
loop_
 _symmetry_equiv_pos_site_id
 _symmetry_equiv_pos_as_xyz
  1  'x, y, z'
loop_
 _atom_site_type_symbol
 _atom_site_label
 _atom_site_symmetry_multiplicity
 _atom_site_fract_x
 _atom_site_fract_y
 _atom_site_fract_z
 _atom_site_occupancy
  Ca  Ca0  1  0.49999997  0.50000000  -0.00000006  1
  Ca  Ca1  1  0.24999995  0.75000000  0.49999992  1
  Nb  Nb2  1  0.00000000  0.00000000  0.00000000  1
  W  W3  1  0.74999999  0.25000000  0.49999993  1
  O  O4  1  0.68262096  0.77766100  0.83552189  1
  O  O5  1  0.52766098  0.40290100  0.33552194  1
  O  O6  1  0.80786095  0.93262100  0.33552288  1
  O  O7  1  0.15290200  0.05786200  0.83552297  1
  O  O8  1  0.59709799  0.19213800  0.66447694  1
  O  O9  1  0.94213899  0.31737900  0.16447692  1
  O  O10  1  0.22233895  0.84709900  0.16447792  1
  O  O11  1  0.06737897  0.47233900  0.66447795  1
