# generated using pymatgen
data_Li4AgTeS6
_symmetry_space_group_name_H-M   'P 1'
_cell_length_a   5.69179821
_cell_length_b   6.05299807
_cell_length_c   6.97130489
_cell_angle_alpha   115.73036957
_cell_angle_beta   114.09371948
_cell_angle_gamma   90.00000000
_symmetry_Int_Tables_number   1
_chemical_formula_structural   Li4AgTeS6
_chemical_formula_sum   'Li4 Ag1 Te1 S6'
_cell_volume   192.87294533
_cell_formula_units_Z   1
loop_
 _symmetry_equiv_pos_site_id
 _symmetry_equiv_pos_as_xyz
  1  'x, y, z'
loop_
 _atom_site_type_symbol
 _atom_site_label
 _atom_site_symmetry_multiplicity
 _atom_site_fract_x
 _atom_site_fract_y
 _atom_site_fract_z
 _atom_site_occupancy
  Li  Li0  1  0.76746695  0.01746700  0.53493398  1
  Li  Li1  1  0.76746693  0.51746699  0.53493397  1
  Li  Li2  1  0.49999996  0.24999999  -0.00000003  1
  Ag  Ag3  1  0.49999994  0.74999998  -0.00000004  1
  Li  Li4  1  0.23253297  0.48253299  0.46506599  1
  Te  Te5  1  0.23253295  0.98253298  0.46506598  1
  S  S6  1  0.99999992  0.49999999  0.99999997  1
  S  S7  1  0.00000000  0.00000000  0.00000000  1
  S  S8  1  0.40947297  0.13423400  0.26846798  1
  S  S9  1  0.85899492  0.63423399  0.26846695  1
  S  S10  1  0.14100498  0.36576599  0.73153301  1
  S  S11  1  0.59052693  0.86576598  0.73153197  1
