# generated using pymatgen
data_Li7I
_symmetry_space_group_name_H-M   'P 1'
_cell_length_a   5.73992491
_cell_length_b   5.73992491
_cell_length_c   5.73992491
_cell_angle_alpha   60.08612823
_cell_angle_beta   60.08612823
_cell_angle_gamma   60.08613205
_symmetry_Int_Tables_number   1
_chemical_formula_structural   Li7I
_chemical_formula_sum   'Li7 I1'
_cell_volume   133.98322422
_cell_formula_units_Z   1
loop_
 _symmetry_equiv_pos_site_id
 _symmetry_equiv_pos_as_xyz
  1  'x, y, z'
loop_
 _atom_site_type_symbol
 _atom_site_label
 _atom_site_symmetry_multiplicity
 _atom_site_fract_x
 _atom_site_fract_y
 _atom_site_fract_z
 _atom_site_occupancy
  Li  Li0  1  0.00000000  0.00000000  0.00000000  1
  Li  Li1  1  0.49999995  0.49999999  0.50000001  1
  Li  Li2  1  0.77349796  0.25000000  0.72650199  1
  Li  Li3  1  0.24999995  0.72650199  0.77349800  1
  Li  Li4  1  0.72650193  0.77349798  0.25000003  1
  Li  Li5  1  0.22650195  0.74999999  0.27349802  1
  I  I6  1  0.74999996  0.27349799  0.22650201  1
  Li  Li7  1  0.27349798  0.22650200  0.74999999  1
