# generated using pymatgen
data_Mg2ZnH3
_symmetry_space_group_name_H-M   'P 1'
_cell_length_a   5.29171705
_cell_length_b   5.55534124
_cell_length_c   5.55534124
_cell_angle_alpha   119.30310059
_cell_angle_beta   90.00000000
_cell_angle_gamma   90.00000000
_symmetry_Int_Tables_number   1
_chemical_formula_structural   Mg2ZnH3
_chemical_formula_sum   'Mg4 Zn2 H6'
_cell_volume   142.41505159
_cell_formula_units_Z   2
loop_
 _symmetry_equiv_pos_site_id
 _symmetry_equiv_pos_as_xyz
  1  'x, y, z'
loop_
 _atom_site_type_symbol
 _atom_site_label
 _atom_site_symmetry_multiplicity
 _atom_site_fract_x
 _atom_site_fract_y
 _atom_site_fract_z
 _atom_site_occupancy
  Mg  Mg0  1  0.53847699  0.83798799  0.83798799  1
  Mg  Mg1  1  0.03847700  0.16201200  0.16201200  1
  Mg  Mg2  1  0.02672100  0.83085899  0.49784000  1
  Mg  Mg3  1  0.02672100  0.49783999  0.83085899  1
  Zn  Zn4  1  0.52672099  0.16914100  0.50215999  1
  Zn  Zn5  1  0.52672099  0.50215999  0.16914100  1
  H  H6  1  0.64029999  0.83285599  0.52855100  1
  H  H7  1  0.64029999  0.52855099  0.83285599  1
  H  H8  1  0.14030000  0.16714400  0.47144899  1
  H  H9  1  0.14030000  0.47144899  0.16714400  1
  H  H10  1  0.18310100  0.85517499  0.85517499  1
  H  H11  1  0.68310099  0.14482500  0.14482500  1
