# generated using pymatgen
data_LiCa4MnF10
_symmetry_space_group_name_H-M   'P 1'
_cell_length_a   5.80981016
_cell_length_b   5.83210802
_cell_length_c   9.23033142
_cell_angle_alpha   98.37622833
_cell_angle_beta   108.34348297
_cell_angle_gamma   90.00000000
_symmetry_Int_Tables_number   1
_chemical_formula_structural   LiCa4MnF10
_chemical_formula_sum   'Li1 Ca4 Mn1 F10'
_cell_volume   293.34642694
_cell_formula_units_Z   1
loop_
 _symmetry_equiv_pos_site_id
 _symmetry_equiv_pos_as_xyz
  1  'x, y, z'
loop_
 _atom_site_type_symbol
 _atom_site_label
 _atom_site_symmetry_multiplicity
 _atom_site_fract_x
 _atom_site_fract_y
 _atom_site_fract_z
 _atom_site_occupancy
  Ca  Ca0  1  0.04840099  0.47340200  0.68811802  1
  Ca  Ca1  1  0.70378896  0.50000000  -0.00000003  1
  Ca  Ca2  1  0.63362696  0.97207900  0.68863200  1
  Ca  Ca3  1  0.29155797  1.00000000  -0.00000002  1
  Li  Li4  1  0.36028298  0.52659800  0.31188200  1
  Mn  Mn5  1  0.94499496  0.02792100  0.31136798  1
  F  F6  1  0.35915897  0.65247700  0.85515402  1
  F  F7  1  0.95167895  0.19127200  0.79851100  1
  F  F8  1  0.15316798  0.80872800  0.20148899  1
  F  F9  1  0.49273398  0.15343800  0.85572602  1
  F  F10  1  0.50400497  0.34752300  0.14484598  1
  F  F11  1  0.84586295  0.69437600  0.80106100  1
  F  F12  1  0.04480199  0.30562400  0.19893900  1
  F  F13  1  0.63700796  0.84656200  0.14427397  1
  F  F14  1  0.50546497  0.24905900  0.49896200  1
  F  F15  1  0.00650299  0.75094100  0.50103801  1
