# generated using pymatgen
data_EuHfO3
_symmetry_space_group_name_H-M   'P 1'
_cell_length_a   5.67030239
_cell_length_b   5.67030239
_cell_length_c   5.73464918
_cell_angle_alpha   119.00108337
_cell_angle_beta   119.00108337
_cell_angle_gamma   90.74234009
_symmetry_Int_Tables_number   1
_chemical_formula_structural   EuHfO3
_chemical_formula_sum   'Eu2 Hf2 O6'
_cell_volume   133.42308329
_cell_formula_units_Z   2
loop_
 _symmetry_equiv_pos_site_id
 _symmetry_equiv_pos_as_xyz
  1  'x, y, z'
loop_
 _atom_site_type_symbol
 _atom_site_label
 _atom_site_symmetry_multiplicity
 _atom_site_fract_x
 _atom_site_fract_y
 _atom_site_fract_z
 _atom_site_occupancy
  Eu  Eu0  1  0.75043403  0.75043401  0.49309409  1
  Eu  Eu1  1  0.24956601  0.24956600  0.50690602  1
  Hf  Hf2  1  0.49999999  0.00000000  0.00000002  1
  Hf  Hf3  1  1.00000002  0.50000000  1.00000007  1
  O  O4  1  0.23120004  0.76880001  0.50000006  1
  O  O5  1  0.67445103  0.67445100  0.96852107  1
  O  O6  1  0.76880000  0.23120000  0.50000005  1
  O  O7  1  0.32554901  0.32554900  0.03147904  1
  O  O8  1  0.81089400  0.18910600  1.00000003  1
  O  O9  1  0.18910604  0.81089401  1.00000005  1
