# generated using pymatgen
data_BaAgO2
_symmetry_space_group_name_H-M   'P 1'
_cell_length_a   5.87076426
_cell_length_b   5.87076426
_cell_length_c   5.94013596
_cell_angle_alpha   101.03545380
_cell_angle_beta   101.03545380
_cell_angle_gamma   105.99520874
_symmetry_Int_Tables_number   1
_chemical_formula_structural   BaAgO2
_chemical_formula_sum   'Ba2 Ag2 O4'
_cell_volume   186.58654061
_cell_formula_units_Z   2
loop_
 _symmetry_equiv_pos_site_id
 _symmetry_equiv_pos_as_xyz
  1  'x, y, z'
loop_
 _atom_site_type_symbol
 _atom_site_label
 _atom_site_symmetry_multiplicity
 _atom_site_fract_x
 _atom_site_fract_y
 _atom_site_fract_z
 _atom_site_occupancy
  Ba  Ba0  1  0.35374298  0.64625698  0.25000002  1
  Ba  Ba1  1  0.64625698  0.35374299  0.75000000  1
  Ag  Ag2  1  0.00000000  0.00000000  0.00000000  1
  Ag  Ag3  1  0.00000000  0.00000000  0.49999998  1
  O  O4  1  0.24549399  0.15379800  0.32561400  1
  O  O5  1  0.15379799  0.24549399  0.82561398  1
  O  O6  1  0.75450597  0.84620198  0.67438602  1
  O  O7  1  0.84620197  0.75450598  0.17438604  1
