# generated using pymatgen
data_Ba3La3Se10
_symmetry_space_group_name_H-M   'P 1'
_cell_length_a   8.45601177
_cell_length_b   9.54454041
_cell_length_c   8.45601177
_cell_angle_alpha   63.70605850
_cell_angle_beta   90.00000000
_cell_angle_gamma   116.29393768
_symmetry_Int_Tables_number   1
_chemical_formula_structural   Ba3La3Se10
_chemical_formula_sum   'Ba3 La3 Se10'
_cell_volume   531.95513431
_cell_formula_units_Z   1
loop_
 _symmetry_equiv_pos_site_id
 _symmetry_equiv_pos_as_xyz
  1  'x, y, z'
loop_
 _atom_site_type_symbol
 _atom_site_label
 _atom_site_symmetry_multiplicity
 _atom_site_fract_x
 _atom_site_fract_y
 _atom_site_fract_z
 _atom_site_occupancy
  Ba  Ba0  1  0.24999999  0.50000002  0.75000001  1
  Ba  Ba1  1  0.75000000  0.50000002  0.24999999  1
  Ba  Ba2  1  0.82439602  0.00000000  0.67560402  1
  La  La3  1  0.32439601  0.00000000  0.82439502  1
  La  La4  1  0.67560398  0.99999904  0.17560497  1
  La  La5  1  0.17560400  0.00000000  0.32439601  1
  Se  Se6  1  0.20378398  0.73071703  0.29621599  1
  Se  Se7  1  0.70378399  0.73071703  0.47306699  1
  Se  Se8  1  0.50000001  0.00000000  0.50000001  1
  Se  Se9  1  0.02693297  0.73071703  0.79621600  1
  Se  Se10  1  0.79621601  0.26928301  0.70378401  1
  Se  Se11  1  0.52693299  0.73071703  0.97306700  1
  Se  Se12  1  0.29621600  0.26928301  0.52693301  1
  Se  Se13  1  0.97306702  0.26928301  0.20378400  1
  Se  Se14  1  0.00000000  0.00000000  0.00000000  1
  Se  Se15  1  0.47306700  0.26928301  0.02693299  1
