# generated using pymatgen
data_CuClF3
_symmetry_space_group_name_H-M   'P 1'
_cell_length_a   5.88267565
_cell_length_b   5.88267565
_cell_length_c   6.08686972
_cell_angle_alpha   118.24583435
_cell_angle_beta   118.24583435
_cell_angle_gamma   90.99246216
_symmetry_Int_Tables_number   1
_chemical_formula_structural   CuClF3
_chemical_formula_sum   'Cu2 Cl2 F6'
_cell_volume   155.36137494
_cell_formula_units_Z   2
loop_
 _symmetry_equiv_pos_site_id
 _symmetry_equiv_pos_as_xyz
  1  'x, y, z'
loop_
 _atom_site_type_symbol
 _atom_site_label
 _atom_site_symmetry_multiplicity
 _atom_site_fract_x
 _atom_site_fract_y
 _atom_site_fract_z
 _atom_site_occupancy
  Cu  Cu0  1  0.50000003  0.50000003  1.00000006  1
  Cu  Cu1  1  0.50000003  0.50000003  0.50000004  1
  Cl  Cl2  1  0.50000002  0.00000000  0.50000003  1
  Cl  Cl3  1  0.00000001  0.50000003  1.00000005  1
  F  F4  1  0.12741402  0.87258605  0.75000005  1
  F  F5  1  0.87258605  0.12741401  0.25000003  1
  F  F6  1  0.71527405  0.85562505  0.70890806  1
  F  F7  1  0.14437501  0.28472602  0.79109204  1
  F  F8  1  0.28472602  0.14437501  0.29109202  1
  F  F9  1  0.85562505  0.71527404  0.20890805  1
