# generated using pymatgen
data_TlInAg2(SI)2
_symmetry_space_group_name_H-M   'P 1'
_cell_length_a   3.77816510
_cell_length_b   6.54607487
_cell_length_c   7.40478134
_cell_angle_alpha   107.15027618
_cell_angle_beta   90.00000000
_cell_angle_gamma   90.00000000
_symmetry_Int_Tables_number   1
_chemical_formula_structural   TlInAg2(SI)2
_chemical_formula_sum   'Tl1 In1 Ag2 S2 I2'
_cell_volume   174.99295723
_cell_formula_units_Z   1
loop_
 _symmetry_equiv_pos_site_id
 _symmetry_equiv_pos_as_xyz
  1  'x, y, z'
loop_
 _atom_site_type_symbol
 _atom_site_label
 _atom_site_symmetry_multiplicity
 _atom_site_fract_x
 _atom_site_fract_y
 _atom_site_fract_z
 _atom_site_occupancy
  Tl  Tl0  1  0.49999999  0.72764801  0.68690199  1
  In  In1  1  0.99999997  0.22378500  0.66541000  1
  Ag  Ag2  1  0.49999999  0.27385400  0.32186100  1
  Ag  Ag3  1  -0.00000000  0.77461101  0.32291399  1
  I  I4  1  0.99999997  0.00918500  0.01060200  1
  I  I5  1  0.49999999  0.49579301  0.00454599  1
  S  S6  1  -0.00000000  0.49130501  0.49247799  1
  S  S7  1  0.49999999  0.00381900  0.49528700  1
