# generated using pymatgen
data_Li4MnCuBr10
_symmetry_space_group_name_H-M   'P 1'
_cell_length_a   7.09422779
_cell_length_b   7.11713934
_cell_length_c   13.56368160
_cell_angle_alpha   84.36623383
_cell_angle_beta   78.63999939
_cell_angle_gamma   60.10643005
_symmetry_Int_Tables_number   1
_chemical_formula_structural   Li4MnCuBr10
_chemical_formula_sum   'Li4 Mn1 Cu1 Br10'
_cell_volume   582.09093625
_cell_formula_units_Z   1
loop_
 _symmetry_equiv_pos_site_id
 _symmetry_equiv_pos_as_xyz
  1  'x, y, z'
loop_
 _atom_site_type_symbol
 _atom_site_label
 _atom_site_symmetry_multiplicity
 _atom_site_fract_x
 _atom_site_fract_y
 _atom_site_fract_z
 _atom_site_occupancy
  Li  Li0  1  0.90328402  0.19343200  0.75000001  1
  Li  Li1  1  0.09671597  0.80656799  0.25000001  1
  Li  Li2  1  -0.00000002  0.49999999  0.50000002  1
  Li  Li3  1  0.50000000  0.49999999  1.00000003  1
  Br  Br4  1  0.93008500  0.87845899  0.64131502  1
  Br  Br5  1  0.19145598  0.87845899  0.85868503  1
  Mn  Mn6  1  0.06991500  0.12154100  0.35868501  1
  Cu  Cu7  1  0.80854402  0.12154100  0.14131499  1
  Br  Br8  1  0.34651899  0.49247899  0.37981201  1
  Br  Br9  1  0.16100199  0.49247899  0.12018801  1
  Br  Br10  1  0.65348100  0.50752099  0.62018801  1
  Br  Br11  1  0.83899801  0.50752099  0.87981202  1
  Br  Br12  1  0.44434899  0.79530099  0.12368801  1
  Br  Br13  1  0.76035000  0.79530099  0.37631201  1
  Br  Br14  1  0.55565101  0.20469900  0.87631202  1
  Br  Br15  1  0.23965100  0.20469800  0.62368802  1
