# generated using pymatgen
data_K2Ta2(CuSe3)3
_symmetry_space_group_name_H-M   'P 1'
_cell_length_a   6.27905321
_cell_length_b   7.40717316
_cell_length_c   9.10410690
_cell_angle_alpha   90.00000000
_cell_angle_beta   103.32945251
_cell_angle_gamma   90.00000000
_symmetry_Int_Tables_number   1
_chemical_formula_structural   K2Ta2(CuSe3)3
_chemical_formula_sum   'K2 Ta2 Cu3 Se9'
_cell_volume   412.02526528
_cell_formula_units_Z   1
loop_
 _symmetry_equiv_pos_site_id
 _symmetry_equiv_pos_as_xyz
  1  'x, y, z'
loop_
 _atom_site_type_symbol
 _atom_site_label
 _atom_site_symmetry_multiplicity
 _atom_site_fract_x
 _atom_site_fract_y
 _atom_site_fract_z
 _atom_site_occupancy
  K  K0  1  0.25791199  0.24999999  0.04629199  1
  K  K1  1  0.74208797  0.74999998  0.95370802  1
  Ta  Ta2  1  0.88168296  0.74999998  0.39167199  1
  Ta  Ta3  1  0.11831699  0.24999999  0.60832802  1
  Cu  Cu4  1  0.49999998  0.49999999  0.50000001  1
  Cu  Cu5  1  0.49999998  0.00000000  0.50000001  1
  Cu  Cu6  1  0.26865099  0.74999998  0.36477601  1
  Se  Se7  1  0.73134897  0.24999999  0.63522400  1
  Se  Se8  1  0.28769999  0.74999998  0.10586300  1
  Se  Se9  1  0.71229997  0.24999999  0.89413702  1
  Se  Se10  1  0.95908796  0.24999999  0.34191598  1
  Se  Se11  1  0.04091200  0.74999998  0.65808403  1
  Se  Se12  1  0.68189097  0.01046800  0.28360799  1
  Se  Se13  1  0.31810899  0.51046799  0.71639202  1
  Se  Se14  1  0.31810899  0.98953198  0.71639202  1
  Se  Se15  1  0.68189097  0.48953199  0.28360799  1
