# generated using pymatgen
data_Sr2LaSbO6
_symmetry_space_group_name_H-M   'P 1'
_cell_length_a   5.90359688
_cell_length_b   6.08077431
_cell_length_c   8.47719288
_cell_angle_alpha   89.78279877
_cell_angle_beta   90.68204498
_cell_angle_gamma   89.96092987
_symmetry_Int_Tables_number   1
_chemical_formula_structural   Sr2LaSbO6
_chemical_formula_sum   'Sr4 La2 Sb2 O12'
_cell_volume   304.29417363
_cell_formula_units_Z   2
loop_
 _symmetry_equiv_pos_site_id
 _symmetry_equiv_pos_as_xyz
  1  'x, y, z'
loop_
 _atom_site_type_symbol
 _atom_site_label
 _atom_site_symmetry_multiplicity
 _atom_site_fract_x
 _atom_site_fract_y
 _atom_site_fract_z
 _atom_site_occupancy
  Sr  Sr0  1  0.98716379  0.05006166  0.25013432  1
  Sr  Sr1  1  0.01283627  0.94993833  0.74986562  1
  Sr  Sr2  1  0.00000003  0.49999999  -0.00000001  1
  Sr  Sr3  1  0.50000000  0.00000000  0.49999998  1
  La  La4  1  0.51629601  0.55274677  0.24858727  1
  La  La5  1  0.48370406  0.44725321  0.75141267  1
  Sb  Sb6  1  0.50000000  0.00000000  -0.00000001  1
  Sb  Sb7  1  0.00000003  0.49999999  0.49999998  1
  O  O8  1  0.22153465  0.18286506  0.94604039  1
  O  O9  1  0.27794277  0.68123524  0.55864108  1
  O  O10  1  0.77846541  0.81713493  0.05395955  1
  O  O11  1  0.72205729  0.31876475  0.44135886  1
  O  O12  1  0.32785937  0.71862758  0.93887354  1
  O  O13  1  0.17552092  0.22155601  0.56010791  1
  O  O14  1  0.67214070  0.28137241  0.06112640  1
  O  O15  1  0.82447914  0.77844398  0.43989203  1
  O  O16  1  0.39668670  0.95452764  0.22698146  1
  O  O17  1  0.11291298  0.46231150  0.27376922  1
  O  O18  1  0.60331336  0.04547235  0.77301848  1
  O  O19  1  0.88708708  0.53768848  0.72623072  1
