# generated using pymatgen
data_Cs2ClF5
_symmetry_space_group_name_H-M   'P 1'
_cell_length_a   6.39092112
_cell_length_b   6.39092112
_cell_length_c   6.39092112
_cell_angle_alpha   109.47122192
_cell_angle_beta   109.47122192
_cell_angle_gamma   109.47122192
_symmetry_Int_Tables_number   1
_chemical_formula_structural   Cs2ClF5
_chemical_formula_sum   'Cs2 Cl1 F5'
_cell_volume   200.94095389
_cell_formula_units_Z   1
loop_
 _symmetry_equiv_pos_site_id
 _symmetry_equiv_pos_as_xyz
  1  'x, y, z'
loop_
 _atom_site_type_symbol
 _atom_site_label
 _atom_site_symmetry_multiplicity
 _atom_site_fract_x
 _atom_site_fract_y
 _atom_site_fract_z
 _atom_site_occupancy
  Cs  Cs0  1  0.50000006  1.00000003  0.50000006  1
  Cs  Cs1  1  0.50000003  0.50000002  1.00000003  1
  Cl  Cl2  1  0.00000003  0.50000002  0.50000002  1
  F  F3  1  0.00000000  0.00000000  0.00000000  1
  F  F4  1  1.00000006  1.00000003  0.35178008  1
  F  F5  1  0.00000002  0.35178001  1.00000001  1
  F  F6  1  0.64822004  0.64822002  0.64822005  1
  F  F7  1  0.35178000  0.00000000  1.00000000  1
