# generated using pymatgen
data_SrNdO2
_symmetry_space_group_name_H-M   'P 1'
_cell_length_a   4.00736952
_cell_length_b   4.00736952
_cell_length_c   5.56465244
_cell_angle_alpha   68.89527893
_cell_angle_beta   68.89527893
_cell_angle_gamma   60.00000763
_symmetry_Int_Tables_number   1
_chemical_formula_structural   SrNdO2
_chemical_formula_sum   'Sr1 Nd1 O2'
_cell_volume   70.38403796
_cell_formula_units_Z   1
loop_
 _symmetry_equiv_pos_site_id
 _symmetry_equiv_pos_as_xyz
  1  'x, y, z'
loop_
 _atom_site_type_symbol
 _atom_site_label
 _atom_site_symmetry_multiplicity
 _atom_site_fract_x
 _atom_site_fract_y
 _atom_site_fract_z
 _atom_site_occupancy
  Sr  Sr0  1  0.50000000  0.50000000  0.49999999  1
  Nd  Nd1  1  0.00000000  0.00000000  0.00000000  1
  O  O2  1  0.91837399  0.91837400  0.24487798  1
  O  O3  1  0.08162600  0.08162600  0.75512200  1
