# generated using pymatgen
data_Li5Mn3F12
_symmetry_space_group_name_H-M   'P 1'
_cell_length_a   5.37674189
_cell_length_b   5.62295103
_cell_length_c   7.66139221
_cell_angle_alpha   90.00000000
_cell_angle_beta   90.00000000
_cell_angle_gamma   90.00000000
_symmetry_Int_Tables_number   1
_chemical_formula_structural   Li5Mn3F12
_chemical_formula_sum   'Li5 Mn3 F12'
_cell_volume   231.62806845
_cell_formula_units_Z   1
loop_
 _symmetry_equiv_pos_site_id
 _symmetry_equiv_pos_as_xyz
  1  'x, y, z'
loop_
 _atom_site_type_symbol
 _atom_site_label
 _atom_site_symmetry_multiplicity
 _atom_site_fract_x
 _atom_site_fract_y
 _atom_site_fract_z
 _atom_site_occupancy
  Li  Li0  1  0.71574902  0.12461600  0.49999999  1
  Li  Li1  1  0.28425101  0.62461600  0.49999999  1
  Li  Li2  1  0.26443401  0.69661400  0.00000000  1
  Li  Li3  1  0.73556602  0.19661400  0.00000000  1
  Li  Li4  1  0.76178002  0.72080600  0.26611099  1
  Mn  Mn5  1  0.76178002  0.72080600  0.73388898  1
  Mn  Mn6  1  0.23822001  0.22080600  0.73388898  1
  Mn  Mn7  1  0.23822001  0.22080600  0.26611099  1
  F  F8  1  0.94425002  0.05812900  0.71291298  1
  F  F9  1  0.94425002  0.05812900  0.28708699  1
  F  F10  1  0.05575000  0.55812900  0.28708699  1
  F  F11  1  0.05575000  0.55812900  0.71291298  1
  F  F12  1  0.45829001  0.97728699  0.79979398  1
  F  F13  1  0.45829001  0.97728699  0.20020599  1
  F  F14  1  0.54171001  0.47728700  0.20020599  1
  F  F15  1  0.54171001  0.47728700  0.79979398  1
  F  F16  1  0.17141200  0.27272800  -0.00000000  1
  F  F17  1  0.82858802  0.77272800  0.00000000  1
  F  F18  1  0.35014601  0.25359700  0.49999999  1
  F  F19  1  0.64985401  0.75359700  0.49999999  1
