# generated using pymatgen
data_K2HgPbI3Cl
_symmetry_space_group_name_H-M   'P 1'
_cell_length_a   6.71885681
_cell_length_b   6.71885681
_cell_length_c   6.84445190
_cell_angle_alpha   90.00000000
_cell_angle_beta   90.00000000
_cell_angle_gamma   107.18053436
_symmetry_Int_Tables_number   1
_chemical_formula_structural   K2HgPbI3Cl
_chemical_formula_sum   'K2 Hg1 Pb1 I3 Cl1'
_cell_volume   295.19230637
_cell_formula_units_Z   1
loop_
 _symmetry_equiv_pos_site_id
 _symmetry_equiv_pos_as_xyz
  1  'x, y, z'
loop_
 _atom_site_type_symbol
 _atom_site_label
 _atom_site_symmetry_multiplicity
 _atom_site_fract_x
 _atom_site_fract_y
 _atom_site_fract_z
 _atom_site_occupancy
  K  K0  1  0.84648898  0.50267800  0.75000001  1
  K  K1  1  0.49732200  0.15351100  0.25000000  1
  I  I2  1  0.15351097  0.49732200  0.25000000  1
  I  I3  1  0.50267795  0.84648899  0.75000001  1
  Hg  Hg4  1  0.27359799  0.27359800  0.75000001  1
  I  I5  1  0.72640196  0.72640199  0.25000000  1
  Pb  Pb6  1  0.00000000  0.00000000  0.50000001  1
  Cl  Cl7  1  0.00000000  0.00000000  0.00000000  1
