# generated using pymatgen
data_K2PtSe2
_symmetry_space_group_name_H-M   'P 1'
_cell_length_a   3.69121408
_cell_length_b   6.49017143
_cell_length_c   6.49017143
_cell_angle_alpha   69.28942108
_cell_angle_beta   73.47883606
_cell_angle_gamma   73.47883606
_symmetry_Int_Tables_number   1
_chemical_formula_structural   K2PtSe2
_chemical_formula_sum   'K2 Pt1 Se2'
_cell_volume   136.47057128
_cell_formula_units_Z   1
loop_
 _symmetry_equiv_pos_site_id
 _symmetry_equiv_pos_as_xyz
  1  'x, y, z'
loop_
 _atom_site_type_symbol
 _atom_site_label
 _atom_site_symmetry_multiplicity
 _atom_site_fract_x
 _atom_site_fract_y
 _atom_site_fract_z
 _atom_site_occupancy
  K  K0  1  0.19261601  0.30738400  0.30738400  1
  K  K1  1  0.80738401  0.69261600  0.69261601  1
  Pt  Pt2  1  0.00000000  0.00000000  0.00000000  1
  Se  Se3  1  0.50000002  0.79313700  0.20686300  1
  Se  Se4  1  0.49999999  0.20686300  0.79313701  1
