# generated using pymatgen
data_LiTiMn2F6
_symmetry_space_group_name_H-M   'P 1'
_cell_length_a   4.88311481
_cell_length_b   4.93971062
_cell_length_c   5.29551697
_cell_angle_alpha   62.59751129
_cell_angle_beta   89.61589813
_cell_angle_gamma   61.62306976
_symmetry_Int_Tables_number   1
_chemical_formula_structural   LiTiMn2F6
_chemical_formula_sum   'Li1 Ti1 Mn2 F6'
_cell_volume   96.02909860
_cell_formula_units_Z   1
loop_
 _symmetry_equiv_pos_site_id
 _symmetry_equiv_pos_as_xyz
  1  'x, y, z'
loop_
 _atom_site_type_symbol
 _atom_site_label
 _atom_site_symmetry_multiplicity
 _atom_site_fract_x
 _atom_site_fract_y
 _atom_site_fract_z
 _atom_site_occupancy
  Mn  Mn0  1  0.84766299  0.30433502  0.53497104  1
  Li  Li1  1  0.16042397  0.69062904  0.47114202  1
  Mn  Mn2  1  0.35478999  0.28781202  0.06736502  1
  Ti  Ti3  1  0.64756497  0.70793704  0.93788404  1
  F  F4  1  0.41839796  0.80695605  0.25261103  1
  F  F5  1  0.23818496  0.80726905  0.74161603  1
  F  F6  1  0.94960898  0.49410203  0.73335105  1
  F  F7  1  0.04399097  0.51524303  0.26353101  1
  F  F8  1  0.78438600  0.16580701  0.27197803  1
  F  F9  1  0.55498699  0.21991201  0.72555003  1
