# generated using pymatgen
data_LiHfO3
_symmetry_space_group_name_H-M   'P 1'
_cell_length_a   5.08888388
_cell_length_b   5.40796089
_cell_length_c   7.55396795
_cell_angle_alpha   90.00001526
_cell_angle_beta   90.00002289
_cell_angle_gamma   89.99997711
_symmetry_Int_Tables_number   1
_chemical_formula_structural   LiHfO3
_chemical_formula_sum   'Li4 Hf4 O12'
_cell_volume   207.88886164
_cell_formula_units_Z   4
loop_
 _symmetry_equiv_pos_site_id
 _symmetry_equiv_pos_as_xyz
  1  'x, y, z'
loop_
 _atom_site_type_symbol
 _atom_site_label
 _atom_site_symmetry_multiplicity
 _atom_site_fract_x
 _atom_site_fract_y
 _atom_site_fract_z
 _atom_site_occupancy
  Li  Li0  1  0.02612700  0.06909500  0.75000000  1
  Li  Li1  1  0.52612800  0.43090301  0.24999996  1
  Li  Li2  1  0.47387100  0.56909701  0.74999996  1
  Li  Li3  1  0.97387201  0.93090502  0.24999993  1
  Hf  Hf4  1  0.49999901  0.00000100  0.99999999  1
  Hf  Hf5  1  0.50000001  0.00000000  0.49999998  1
  Hf  Hf6  1  -0.00000001  0.50000301  0.99999799  1
  Hf  Hf7  1  0.00000199  0.49999901  0.50000098  1
  O  O8  1  0.85828601  0.43622701  0.74999995  1
  O  O9  1  0.35828501  0.06377400  0.24999998  1
  O  O10  1  0.64171500  0.93622602  0.74999994  1
  O  O11  1  0.14171299  0.56377301  0.24999998  1
  O  O12  1  0.31445000  0.30880801  0.57325398  1
  O  O13  1  0.81445002  0.19119400  0.42674596  1
  O  O14  1  0.18554999  0.80880502  0.92674597  1
  O  O15  1  0.68555000  0.69119201  0.07325295  1
  O  O16  1  0.68555000  0.69119201  0.42674595  1
  O  O17  1  0.18554999  0.80880502  0.57325397  1
  O  O18  1  0.81445002  0.19119400  0.07325396  1
  O  O19  1  0.31445000  0.30880801  0.92674698  1
