# generated using pymatgen
data_Rb5AsH2F10
_symmetry_space_group_name_H-M   'P 1'
_cell_length_a   7.41747379
_cell_length_b   7.97121906
_cell_length_c   7.41747379
_cell_angle_alpha   62.27256393
_cell_angle_beta   90.00000000
_cell_angle_gamma   117.72743988
_symmetry_Int_Tables_number   1
_chemical_formula_structural   Rb5AsH2F10
_chemical_formula_sum   'Rb5 As1 H2 F10'
_cell_volume   330.25501474
_cell_formula_units_Z   1
loop_
 _symmetry_equiv_pos_site_id
 _symmetry_equiv_pos_as_xyz
  1  'x, y, z'
loop_
 _atom_site_type_symbol
 _atom_site_label
 _atom_site_symmetry_multiplicity
 _atom_site_fract_x
 _atom_site_fract_y
 _atom_site_fract_z
 _atom_site_occupancy
  Rb  Rb0  1  0.25000003  0.50000000  0.75000003  1
  Rb  Rb1  1  0.75000005  0.50000000  0.25000001  1
  Rb  Rb2  1  0.18140305  0.99999900  0.68140403  1
  Rb  Rb3  1  0.81859702  0.00000100  0.31859601  1
  Rb  Rb4  1  0.68140302  0.00000000  0.81859702  1
  As  As5  1  0.31859706  1.00000000  0.18140302  1
  H  H6  1  0.75000005  0.50000000  0.75000003  1
  H  H7  1  0.25000003  0.50000000  0.25000001  1
  F  F8  1  0.79549704  0.31432300  0.98117403  1
  F  F9  1  0.20450304  0.68567700  0.01882601  1
  F  F10  1  0.51882603  0.31432300  0.70450302  1
  F  F11  1  0.29549702  0.31432300  0.20450301  1
  F  F12  1  0.98117406  0.68567700  0.51882602  1
  F  F13  1  0.48117405  0.68567700  0.29549702  1
  F  F14  1  0.70450305  0.68567700  0.79549703  1
  F  F15  1  0.01882602  0.31432300  0.48117402  1
  F  F16  1  0.00000000  0.00000000  0.00000000  1
  F  F17  1  0.50000001  0.00000000  0.50000001  1
