# generated using pymatgen
data_V2O7
_symmetry_space_group_name_H-M   'P 1'
_cell_length_a   5.59248161
_cell_length_b   6.76553297
_cell_length_c   6.76553297
_cell_angle_alpha   83.96620178
_cell_angle_beta   76.43664551
_cell_angle_gamma   76.43664551
_symmetry_Int_Tables_number   1
_chemical_formula_structural   V2O7
_chemical_formula_sum   'V4 O14'
_cell_volume   241.56216831
_cell_formula_units_Z   2
loop_
 _symmetry_equiv_pos_site_id
 _symmetry_equiv_pos_as_xyz
  1  'x, y, z'
loop_
 _atom_site_type_symbol
 _atom_site_label
 _atom_site_symmetry_multiplicity
 _atom_site_fract_x
 _atom_site_fract_y
 _atom_site_fract_z
 _atom_site_occupancy
  V  V0  1  0.25000001  0.10701700  0.89298303  1
  V  V1  1  0.75000006  0.89298300  0.10701707  1
  V  V2  1  0.22717404  0.61976900  0.79122705  1
  V  V3  1  0.27282602  0.20877300  0.38023103  1
  O  O4  1  0.77282604  0.38023100  0.20877305  1
  O  O5  1  0.72717406  0.79122700  0.61976907  1
  O  O6  1  0.49974704  0.65371200  0.61484406  1
  O  O7  1  0.00025302  0.38515600  0.34628802  1
  O  O8  1  0.50025303  0.34628800  0.38515604  1
  O  O9  1  0.99974705  0.61484400  0.65371208  1
  O  O10  1  0.78567906  0.90300700  0.36942008  1
  O  O11  1  0.71432105  0.63058000  0.09699306  1
  O  O12  1  0.21432101  0.09699300  0.63058002  1
  O  O13  1  0.28567903  0.36942000  0.90300704  1
  O  O14  1  0.11629804  0.82389400  0.95993605  1
  O  O15  1  0.38370201  0.04006400  0.17610602  1
  O  O16  1  0.88370203  0.17610600  0.04006405  1
  O  O17  1  0.61629806  0.95993600  0.82389408  1
