# generated using pymatgen
data_Ni3SbHPb2W(O2F3)2
_symmetry_space_group_name_H-M   'P 1'
_cell_length_a   5.86591482
_cell_length_b   5.99202681
_cell_length_c   8.69708443
_cell_angle_alpha   89.75054169
_cell_angle_beta   73.74913025
_cell_angle_gamma   88.98494720
_symmetry_Int_Tables_number   1
_chemical_formula_structural   Ni3SbHPb2W(O2F3)2
_chemical_formula_sum   'Ni3 Sb1 H1 Pb2 W1 O4 F6'
_cell_volume   293.43155001
_cell_formula_units_Z   1
loop_
 _symmetry_equiv_pos_site_id
 _symmetry_equiv_pos_as_xyz
  1  'x, y, z'
loop_
 _atom_site_type_symbol
 _atom_site_label
 _atom_site_symmetry_multiplicity
 _atom_site_fract_x
 _atom_site_fract_y
 _atom_site_fract_z
 _atom_site_occupancy
  Ni  Ni0  1  0.76836900  0.65605499  0.84641001  1
  H  H1  1  0.23163100  0.34394500  0.15359000  1
  Ni  Ni2  1  0.20059399  0.86983399  0.94763402  1
  Ni  Ni3  1  0.79940601  0.13016600  0.05236600  1
  Pb  Pb4  1  0.17024499  0.65411199  0.45329301  1
  W  W5  1  0.82975500  0.34588800  0.54670700  1
  O  O6  1  0.49157500  0.13658100  0.37575800  1
  Sb  Sb7  1  0.50842499  0.86341899  0.62424201  1
  Pb  Pb8  1  0.71908400  0.61658499  0.23455600  1
  O  O9  1  0.28091600  0.38341500  0.76544401  1
  F  F10  1  0.47023999  0.80609399  0.40492801  1
  F  F11  1  0.52976000  0.19390600  0.59507201  1
  O  O12  1  0.85020100  0.80015199  0.02669200  1
  F  F13  1  0.14979900  0.19984800  0.97330801  1
  F  F14  1  0.55405400  0.32433700  0.18516100  1
  O  O15  1  0.44594600  0.67566299  0.81483901  1
  F  F16  1  0.01431999  0.50597900  0.67045101  1
  F  F17  1  0.98568000  0.49402100  0.32954900  1
