# generated using pymatgen
data_Cs2Be2(OF)3
_symmetry_space_group_name_H-M   'P 1'
_cell_length_a   4.39177513
_cell_length_b   6.94380093
_cell_length_c   12.88414574
_cell_angle_alpha   95.07137299
_cell_angle_beta   90.00000000
_cell_angle_gamma   90.00000000
_symmetry_Int_Tables_number   1
_chemical_formula_structural   Cs2Be2(OF)3
_chemical_formula_sum   'Cs4 Be4 O6 F6'
_cell_volume   391.37180973
_cell_formula_units_Z   2
loop_
 _symmetry_equiv_pos_site_id
 _symmetry_equiv_pos_as_xyz
  1  'x, y, z'
loop_
 _atom_site_type_symbol
 _atom_site_label
 _atom_site_symmetry_multiplicity
 _atom_site_fract_x
 _atom_site_fract_y
 _atom_site_fract_z
 _atom_site_occupancy
  Cs  Cs0  1  0.63483798  0.72367901  0.40833300  1
  Cs  Cs1  1  0.36516199  0.27632100  0.59166701  1
  Cs  Cs2  1  0.13483800  0.77632101  0.09166700  1
  Cs  Cs3  1  0.86516197  0.22367900  0.90833301  1
  Be  Be4  1  0.99018497  0.18498700  0.31724600  1
  Be  Be5  1  0.00981500  0.81501301  0.68275401  1
  Be  Be6  1  0.49018499  0.31501300  0.18275400  1
  Be  Be7  1  0.50981498  0.68498701  0.81724601  1
  O  O8  1  0.62636798  0.51293601  0.17971800  1
  O  O9  1  0.37363199  0.48706401  0.82028201  1
  O  O10  1  0.12636800  0.98706401  0.32028200  1
  O  O11  1  0.87363197  0.01293600  0.67971801  1
  F  F12  1  0.74498798  0.16465500  0.22111200  1
  O  O13  1  0.25501199  0.83534501  0.77888801  1
  F  F14  1  0.24498799  0.33534500  0.27888800  1
  O  O15  1  0.75501198  0.66465501  0.72111201  1
  F  F16  1  0.84700197  0.28546900  0.41312700  1
  F  F17  1  0.15299800  0.71453101  0.58687301  1
  F  F18  1  0.34700199  0.21453100  0.08687300  1
  F  F19  1  0.65299798  0.78546901  0.91312701  1
