# generated using pymatgen
data_Na2NF8
_symmetry_space_group_name_H-M   'P 1'
_cell_length_a   4.12180614
_cell_length_b   5.98086023
_cell_length_c   7.55884838
_cell_angle_alpha   67.29381561
_cell_angle_beta   74.17406464
_cell_angle_gamma   90.40063477
_symmetry_Int_Tables_number   1
_chemical_formula_structural   Na2NF8
_chemical_formula_sum   'Na2 N1 F8'
_cell_volume   164.05408116
_cell_formula_units_Z   1
loop_
 _symmetry_equiv_pos_site_id
 _symmetry_equiv_pos_as_xyz
  1  'x, y, z'
loop_
 _atom_site_type_symbol
 _atom_site_label
 _atom_site_symmetry_multiplicity
 _atom_site_fract_x
 _atom_site_fract_y
 _atom_site_fract_z
 _atom_site_occupancy
  Na  Na0  1  0.68218001  0.65138799  0.67430701  1
  Na  Na1  1  0.32526800  0.31618699  0.34286100  1
  N  N2  1  0.98623301  0.99005198  0.98853601  1
  F  F3  1  0.09382603  0.66648799  0.85443801  1
  F  F4  1  0.82842200  0.56385499  0.36977201  1
  F  F5  1  0.73891198  0.05079800  0.66367698  1
  F  F6  1  0.52158000  0.28386999  0.98194099  1
  F  F7  1  0.28629703  0.87545598  0.46287702  1
  F  F8  1  0.20595501  0.37972499  0.65232100  1
  F  F9  1  0.86926998  0.17337800  0.26025399  1
  F  F10  1  0.46739002  0.71813698  0.08235002  1
