# generated using pymatgen
data_K2AgAsCl6
_symmetry_space_group_name_H-M   'P 1'
_cell_length_a   7.42005873
_cell_length_b   7.42005873
_cell_length_c   7.42005873
_cell_angle_alpha   60.00000000
_cell_angle_beta   60.00000000
_cell_angle_gamma   60.00000000
_symmetry_Int_Tables_number   1
_chemical_formula_structural   K2AgAsCl6
_chemical_formula_sum   'K2 Ag1 As1 Cl6'
_cell_volume   288.87305205
_cell_formula_units_Z   1
loop_
 _symmetry_equiv_pos_site_id
 _symmetry_equiv_pos_as_xyz
  1  'x, y, z'
loop_
 _atom_site_type_symbol
 _atom_site_label
 _atom_site_symmetry_multiplicity
 _atom_site_fract_x
 _atom_site_fract_y
 _atom_site_fract_z
 _atom_site_occupancy
  K  K0  1  0.25000001  0.25000001  0.25000001  1
  K  K1  1  0.75000002  0.75000002  0.75000002  1
  Ag  Ag2  1  0.50000002  0.50000002  0.50000002  1
  As  As3  1  0.00000000  0.00000000  0.00000000  1
  Cl  Cl4  1  0.24439401  0.75560602  0.24439401  1
  Cl  Cl5  1  0.24439401  0.24439401  0.75560602  1
  Cl  Cl6  1  0.75560602  0.24439401  0.75560602  1
  Cl  Cl7  1  0.24439401  0.75560602  0.75560602  1
  Cl  Cl8  1  0.75560602  0.24439401  0.24439401  1
  Cl  Cl9  1  0.75560602  0.75560602  0.24439401  1
