# generated using pymatgen
data_NaBiTe2
_symmetry_space_group_name_H-M   'P 1'
_cell_length_a   4.50237226
_cell_length_b   4.50237226
_cell_length_c   8.31546593
_cell_angle_alpha   74.29272461
_cell_angle_beta   74.29272461
_cell_angle_gamma   59.99999237
_symmetry_Int_Tables_number   1
_chemical_formula_structural   NaBiTe2
_chemical_formula_sum   'Na1 Bi1 Te2'
_cell_volume   138.66613376
_cell_formula_units_Z   1
loop_
 _symmetry_equiv_pos_site_id
 _symmetry_equiv_pos_as_xyz
  1  'x, y, z'
loop_
 _atom_site_type_symbol
 _atom_site_label
 _atom_site_symmetry_multiplicity
 _atom_site_fract_x
 _atom_site_fract_y
 _atom_site_fract_z
 _atom_site_occupancy
  Na  Na0  1  0.00000000  0.00000000  0.00000000  1
  Bi  Bi1  1  0.49999999  0.50000002  0.50000005  1
  Te  Te2  1  0.76073899  0.76073903  0.71778307  1
  Te  Te3  1  0.23926100  0.23926101  0.28221702  1
