# generated using pymatgen
data_LaCuTePdPbBrO9
_symmetry_space_group_name_H-M   'P 1'
_cell_length_a   6.62763977
_cell_length_b   6.65614271
_cell_length_c   6.67576790
_cell_angle_alpha   75.76771545
_cell_angle_beta   60.40791702
_cell_angle_gamma   60.14155197
_symmetry_Int_Tables_number   1
_chemical_formula_structural   LaCuTePdPbBrO9
_chemical_formula_sum   'La1 Cu1 Te1 Pd1 Pb1 Br1 O9'
_cell_volume   222.09164417
_cell_formula_units_Z   1
loop_
 _symmetry_equiv_pos_site_id
 _symmetry_equiv_pos_as_xyz
  1  'x, y, z'
loop_
 _atom_site_type_symbol
 _atom_site_label
 _atom_site_symmetry_multiplicity
 _atom_site_fract_x
 _atom_site_fract_y
 _atom_site_fract_z
 _atom_site_occupancy
  Cu  Cu0  1  0.41745502  0.00000000  0.67358399  1
  La  La1  1  0.58309905  0.32554199  0.00013995  1
  Te  Te2  1  0.90864109  0.67445797  0.00013991  1
  Pb  Pb3  1  0.08757300  0.00000000  0.32121200  1
  Pd  Pd4  1  0.00098303  0.50237098  0.49917695  1
  Br  Br5  1  0.50335406  0.49762898  0.49917694  1
  O  O6  1  0.99970407  0.34677399  0.64474994  1
  O  O7  1  0.00270704  0.65798097  0.35161894  1
  O  O8  1  0.34647806  0.65322597  0.64474993  1
  O  O9  1  0.66068805  0.34201899  0.35161895  1
  O  O10  1  0.00223006  0.99999996  0.00832691  1
  O  O11  1  0.77528710  0.99999996  0.72141989  1
  O  O12  1  0.48876509  0.99999996  0.27037390  1
  O  O13  1  0.49339607  0.73624297  0.00685392  1
  O  O14  1  0.22963903  0.26375699  0.00685397  1
