# generated using pymatgen
data_Rb3NaBr6
_symmetry_space_group_name_H-M   'P 1'
_cell_length_a   4.30059814
_cell_length_b   7.43768072
_cell_length_c   10.85887623
_cell_angle_alpha   90.00000000
_cell_angle_beta   90.00000000
_cell_angle_gamma   106.80461121
_symmetry_Int_Tables_number   1
_chemical_formula_structural   Rb3NaBr6
_chemical_formula_sum   'Rb3 Na1 Br6'
_cell_volume   332.50457673
_cell_formula_units_Z   1
loop_
 _symmetry_equiv_pos_site_id
 _symmetry_equiv_pos_as_xyz
  1  'x, y, z'
loop_
 _atom_site_type_symbol
 _atom_site_label
 _atom_site_symmetry_multiplicity
 _atom_site_fract_x
 _atom_site_fract_y
 _atom_site_fract_z
 _atom_site_occupancy
  Na  Na0  1  0.00000000  0.00000000  0.00000000  1
  Rb  Rb1  1  0.00000000  0.00000000  0.49999999  1
  Rb  Rb2  1  0.74975001  0.49950002  0.74999998  1
  Rb  Rb3  1  0.25025003  0.50050002  0.24999999  1
  Br  Br4  1  0.36779305  0.73558603  0.94876498  1
  Br  Br5  1  0.63220700  0.26441401  0.05123500  1
  Br  Br6  1  0.63220700  0.26441401  0.44876499  1
  Br  Br7  1  0.36779305  0.73558603  0.55123499  1
  Br  Br8  1  0.07388801  0.14777601  0.74999998  1
  Br  Br9  1  0.92611204  0.85222403  0.24999999  1
