# generated using pymatgen
data_Cd2SnP5S12
_symmetry_space_group_name_H-M   'P 1'
_cell_length_a   6.78859615
_cell_length_b   7.67932081
_cell_length_c   9.49580288
_cell_angle_alpha   90.00000000
_cell_angle_beta   91.89713287
_cell_angle_gamma   90.00000000
_symmetry_Int_Tables_number   1
_chemical_formula_structural   Cd2SnP5S12
_chemical_formula_sum   'Cd2 Sn1 P5 S12'
_cell_volume   494.76202915
_cell_formula_units_Z   1
loop_
 _symmetry_equiv_pos_site_id
 _symmetry_equiv_pos_as_xyz
  1  'x, y, z'
loop_
 _atom_site_type_symbol
 _atom_site_label
 _atom_site_symmetry_multiplicity
 _atom_site_fract_x
 _atom_site_fract_y
 _atom_site_fract_z
 _atom_site_occupancy
  P  P0  1  0.03813200  0.38591601  0.74978600  1
  Sn  Sn1  1  0.46186799  0.88591602  0.75021401  1
  Cd  Cd2  1  0.96186798  0.61408402  0.25021401  1
  Cd  Cd3  1  0.53813199  0.11408400  0.24978601  1
  P  P4  1  0.56289499  0.39309101  0.93432101  1
  P  P5  1  0.93710498  0.89309102  0.56567901  1
  P  P6  1  0.43710499  0.60690901  0.06567900  1
  P  P7  1  0.06289500  0.10690900  0.43432100  1
  S  S8  1  0.85318898  0.29716301  0.44057901  1
  S  S9  1  0.64681099  0.79716302  0.05942101  1
  S  S10  1  0.14681100  0.70283702  0.55942100  1
  S  S11  1  0.35318899  0.20283700  0.94057901  1
  S  S12  1  0.10214900  0.00385700  0.24104500  1
  S  S13  1  0.39785099  0.50385701  0.25895500  1
  S  S14  1  0.89785098  0.99614302  0.75895501  1
  S  S15  1  0.60214899  0.49614301  0.74104501  1
  S  S16  1  0.31440199  0.18804300  0.53747600  1
  S  S17  1  0.18559800  0.68804302  0.96252400  1
  S  S18  1  0.68559798  0.81195702  0.46252401  1
  S  S19  1  0.81440198  0.31195701  0.03747601  1
