# generated using pymatgen
data_HgAs4H2O13
_symmetry_space_group_name_H-M   'P 1'
_cell_length_a   5.71229124
_cell_length_b   5.71229124
_cell_length_c   7.77117062
_cell_angle_alpha   86.29094696
_cell_angle_beta   86.29094696
_cell_angle_gamma   68.90895081
_symmetry_Int_Tables_number   1
_chemical_formula_structural   HgAs4H2O13
_chemical_formula_sum   'Hg1 As4 H2 O13'
_cell_volume   235.85912966
_cell_formula_units_Z   1
loop_
 _symmetry_equiv_pos_site_id
 _symmetry_equiv_pos_as_xyz
  1  'x, y, z'
loop_
 _atom_site_type_symbol
 _atom_site_label
 _atom_site_symmetry_multiplicity
 _atom_site_fract_x
 _atom_site_fract_y
 _atom_site_fract_z
 _atom_site_occupancy
  Hg  Hg0  1  0.28781899  0.25966401  0.25545700  1
  As  As1  1  0.74033596  0.71218101  0.74454300  1
  As  As2  1  0.76650299  0.23349700  0.50000000  1
  As  As3  1  0.23184496  0.76815502  1.00000001  1
  H  H4  1  0.79588999  0.13431000  0.90739601  1
  As  As5  1  0.86568999  0.20411000  0.09260399  1
  H  H6  1  0.13072096  0.79423002  0.40845700  1
  O  O7  1  0.20576996  0.86927902  0.59154300  1
  O  O8  1  0.91714200  0.08285800  1.00000001  1
  O  O9  1  0.08140795  0.91859202  0.50000000  1
  O  O10  1  0.58754000  0.07486500  0.38686600  1
  O  O11  1  0.68714900  0.09401500  0.71054101  1
  O  O12  1  0.03258597  0.63408101  0.89480302  1
  O  O13  1  0.51686698  0.48313301  1.00000001  1
  O  O14  1  0.90598498  0.31285101  0.28945899  1
  O  O15  1  0.14460297  0.64256201  0.21914299  1
  O  O16  1  0.48413297  0.51586701  0.50000000  1
  O  O17  1  0.92513498  0.41246001  0.61313400  1
  O  O18  1  0.35743796  0.85539702  0.78085700  1
  O  O19  1  0.36591895  0.96741402  0.10519698  1
