# generated using pymatgen
data_Cs2KVB2SO7F5
_symmetry_space_group_name_H-M   'P 1'
_cell_length_a   5.70798397
_cell_length_b   8.06972790
_cell_length_c   8.06972790
_cell_angle_alpha   90.00000000
_cell_angle_beta   90.00000000
_cell_angle_gamma   90.00000000
_symmetry_Int_Tables_number   1
_chemical_formula_structural   Cs2KVB2SO7F5
_chemical_formula_sum   'Cs2 K1 V1 B2 S1 O7 F5'
_cell_volume   371.70681778
_cell_formula_units_Z   1
loop_
 _symmetry_equiv_pos_site_id
 _symmetry_equiv_pos_as_xyz
  1  'x, y, z'
loop_
 _atom_site_type_symbol
 _atom_site_label
 _atom_site_symmetry_multiplicity
 _atom_site_fract_x
 _atom_site_fract_y
 _atom_site_fract_z
 _atom_site_occupancy
  Cs  Cs0  1  0.50000000  0.00000000  0.50000001  1
  Cs  Cs1  1  0.50000000  0.50000001  0.00000000  1
  K  K2  1  0.50000000  0.50000001  0.50000001  1
  B  B3  1  -0.00000000  0.22240200  0.22240200  1
  B  B4  1  -0.00000000  0.77759801  0.22240200  1
  V  V5  1  -0.00000000  0.22240200  0.77759801  1
  S  S6  1  -0.00000000  0.77759801  0.77759801  1
  F  F7  1  0.75841500  0.69393001  0.69393001  1
  O  O8  1  0.75841500  0.30607000  0.30607000  1
  O  O9  1  0.75841500  0.69393001  0.30607000  1
  O  O10  1  0.75841500  0.30607000  0.69393001  1
  O  O11  1  0.24158500  0.30607000  0.69393001  1
  O  O12  1  0.24158500  0.30607000  0.30607000  1
  O  O13  1  0.24158500  0.69393001  0.69393001  1
  O  O14  1  0.24158500  0.69393001  0.30607000  1
  F  F15  1  1.00000001  0.26201200  0.00000000  1
  F  F16  1  0.00000000  0.00000000  0.26201200  1
  F  F17  1  0.00000000  0.00000000  0.73798801  1
  F  F18  1  -0.00000000  0.73798801  0.00000000  1
