# generated using pymatgen
data_IO
_symmetry_space_group_name_H-M   'P 1'
_cell_length_a   4.34793186
_cell_length_b   7.08528996
_cell_length_c   10.40958023
_cell_angle_alpha   90.00000000
_cell_angle_beta   90.00000000
_cell_angle_gamma   90.00000000
_symmetry_Int_Tables_number   1
_chemical_formula_structural   IO
_chemical_formula_sum   'I6 O6'
_cell_volume   320.68125466
_cell_formula_units_Z   6
loop_
 _symmetry_equiv_pos_site_id
 _symmetry_equiv_pos_as_xyz
  1  'x, y, z'
loop_
 _atom_site_type_symbol
 _atom_site_label
 _atom_site_symmetry_multiplicity
 _atom_site_fract_x
 _atom_site_fract_y
 _atom_site_fract_z
 _atom_site_occupancy
  I  I0  1  0.62252602  0.32190200  0.50703999  1
  I  I1  1  0.37747401  0.82190201  0.49295999  1
  I  I2  1  0.87747403  0.32190200  0.00704000  1
  I  I3  1  0.12252600  0.82190201  0.99295998  1
  I  I4  1  0.07190500  0.50311000  0.21579900  1
  O  O5  1  0.92809503  0.00311000  0.78420098  1
  O  O6  1  0.42809501  0.50311000  0.71579898  1
  I  I7  1  0.57190502  0.00311000  0.28420099  1
  O  O8  1  0.30768201  0.69688800  0.14479100  1
  O  O9  1  0.69231802  0.19688800  0.85520898  1
  O  O10  1  0.19231801  0.69688800  0.64479099  1
  O  O11  1  0.80768203  0.19688800  0.35520899  1
