# generated using pymatgen
data_CsMo3O8
_symmetry_space_group_name_H-M   'P 1'
_cell_length_a   5.65032387
_cell_length_b   5.65032387
_cell_length_c   8.26478577
_cell_angle_alpha   90.00000000
_cell_angle_beta   90.00000000
_cell_angle_gamma   120.00000000
_symmetry_Int_Tables_number   1
_chemical_formula_structural   CsMo3O8
_chemical_formula_sum   'Cs1 Mo3 O8'
_cell_volume   228.51194956
_cell_formula_units_Z   1
loop_
 _symmetry_equiv_pos_site_id
 _symmetry_equiv_pos_as_xyz
  1  'x, y, z'
loop_
 _atom_site_type_symbol
 _atom_site_label
 _atom_site_symmetry_multiplicity
 _atom_site_fract_x
 _atom_site_fract_y
 _atom_site_fract_z
 _atom_site_occupancy
  Cs  Cs0  1  0.00000000  0.00000000  0.00000000  1
  Mo  Mo1  1  0.00000000  0.00000000  0.50000001  1
  Mo  Mo2  1  0.66666668  0.33333333  0.29779101  1
  Mo  Mo3  1  0.33333333  0.66666667  0.70220902  1
  O  O4  1  0.66666668  0.33333333  0.08565500  1
  O  O5  1  0.33333333  0.66666667  0.91434503  1
  O  O6  1  0.84249702  0.15750300  0.36416301  1
  O  O7  1  0.31500601  0.15750300  0.36416301  1
  O  O8  1  0.84249701  0.68499400  0.36416301  1
  O  O9  1  0.15750299  0.84249700  0.63583702  1
  O  O10  1  0.15750300  0.31500600  0.63583702  1
  O  O11  1  0.68499401  0.84249700  0.63583702  1
