# generated using pymatgen
data_V2(CuO3)3
_symmetry_space_group_name_H-M   'P 1'
_cell_length_a   5.33423233
_cell_length_b   5.33423233
_cell_length_c   5.33423281
_cell_angle_alpha   70.55465698
_cell_angle_beta   70.55465698
_cell_angle_gamma   70.55465698
_symmetry_Int_Tables_number   1
_chemical_formula_structural   V2(CuO3)3
_chemical_formula_sum   'V2 Cu3 O9'
_cell_volume   130.68184902
_cell_formula_units_Z   1
loop_
 _symmetry_equiv_pos_site_id
 _symmetry_equiv_pos_as_xyz
  1  'x, y, z'
loop_
 _atom_site_type_symbol
 _atom_site_label
 _atom_site_symmetry_multiplicity
 _atom_site_fract_x
 _atom_site_fract_y
 _atom_site_fract_z
 _atom_site_occupancy
  V  V0  1  0.98461399  0.98461401  0.67526411  1
  V  V1  1  0.98461400  0.67526401  0.98461409  1
  Cu  Cu2  1  0.17773999  0.72825401  0.17774005  1
  Cu  Cu3  1  0.17774000  0.17774000  0.72825402  1
  Cu  Cu4  1  0.72825400  0.17774000  0.17774005  1
  O  O5  1  0.27174599  0.82226001  0.82226006  1
  O  O6  1  0.82226000  0.27174600  0.82226006  1
  O  O7  1  0.82225999  0.82226001  0.27174609  1
  O  O8  1  0.01538599  0.32473600  0.01538602  1
  O  O9  1  0.01538600  0.01538600  0.32473600  1
  O  O10  1  0.32473600  0.01538600  0.01538602  1
  O  O11  1  0.67526399  0.98461401  0.98461409  1
  O  O12  1  0.39897000  0.39897000  0.39897004  1
  O  O13  1  0.60102999  0.60103001  0.60103007  1
