# generated using pymatgen
data_CaBiNO5
_symmetry_space_group_name_H-M   'P 1'
_cell_length_a   5.83214378
_cell_length_b   5.99050426
_cell_length_c   7.90475178
_cell_angle_alpha   89.85900116
_cell_angle_beta   68.35213470
_cell_angle_gamma   89.61778259
_symmetry_Int_Tables_number   1
_chemical_formula_structural   CaBiNO5
_chemical_formula_sum   'Ca2 Bi2 N2 O10'
_cell_volume   256.68761403
_cell_formula_units_Z   2
loop_
 _symmetry_equiv_pos_site_id
 _symmetry_equiv_pos_as_xyz
  1  'x, y, z'
loop_
 _atom_site_type_symbol
 _atom_site_label
 _atom_site_symmetry_multiplicity
 _atom_site_fract_x
 _atom_site_fract_y
 _atom_site_fract_z
 _atom_site_occupancy
  Ca  Ca0  1  0.84145802  0.99925700  0.31713900  1
  Ca  Ca1  1  0.15859699  0.99925700  0.68286102  1
  Bi  Bi2  1  0.68138702  0.50189100  0.63154100  1
  Bi  Bi3  1  0.31292801  0.50189100  0.36845901  1
  N  N4  1  0.01159099  0.48411700  1.00000002  1
  N  N5  1  0.51760801  0.98742800  1.00000002  1
  O  O6  1  0.49952601  0.73196000  0.49622901  1
  O  O7  1  0.99846104  0.27097400  0.50140599  1
  O  O8  1  0.49986702  0.27097400  0.49859400  1
  O  O9  1  0.99575503  0.73196000  0.50377100  1
  O  O10  1  0.73358402  0.96564000  1.00000001  1
  O  O11  1  0.33736300  0.99788600  0.15076901  1
  O  O12  1  0.48813201  0.99788600  0.84923102  1
  O  O13  1  0.03189800  0.27252000  0.00000000  1
  O  O14  1  0.07715199  0.58617900  0.84954102  1
  O  O15  1  0.92669303  0.58617900  0.15045899  1
