# generated using pymatgen
data_Cs3Cl2(OF)2
_symmetry_space_group_name_H-M   'P 1'
_cell_length_a   6.32802820
_cell_length_b   8.33198643
_cell_length_c   8.33198643
_cell_angle_alpha   90.00000000
_cell_angle_beta   90.00000000
_cell_angle_gamma   90.00000000
_symmetry_Int_Tables_number   1
_chemical_formula_structural   Cs3Cl2(OF)2
_chemical_formula_sum   'Cs6 Cl4 O4 F4'
_cell_volume   439.30436008
_cell_formula_units_Z   2
loop_
 _symmetry_equiv_pos_site_id
 _symmetry_equiv_pos_as_xyz
  1  'x, y, z'
loop_
 _atom_site_type_symbol
 _atom_site_label
 _atom_site_symmetry_multiplicity
 _atom_site_fract_x
 _atom_site_fract_y
 _atom_site_fract_z
 _atom_site_occupancy
  Cs  Cs0  1  -0.00000000  0.49999997  0.49999997  1
  Cs  Cs1  1  0.00000000  0.00000000  0.00000000  1
  Cs  Cs2  1  0.49999998  0.18351199  0.68351196  1
  Cs  Cs3  1  0.49999998  0.81648796  0.31648798  1
  Cs  Cs4  1  0.49999998  0.68351196  0.81648796  1
  Cs  Cs5  1  0.49999998  0.31648798  0.18351199  1
  Cl  Cl6  1  0.49999998  0.49999997  0.49999997  1
  Cl  Cl7  1  0.49999998  0.00000000  -0.00000000  1
  Cl  Cl8  1  0.81353897  0.60058897  0.10058899  1
  Cl  Cl9  1  0.81353897  0.39941098  0.89941095  1
  O  O10  1  0.81353897  0.10058899  0.39941098  1
  O  O11  1  0.81353897  0.89941095  0.60058897  1
  O  O12  1  0.18646099  0.39941098  0.89941095  1
  O  O13  1  0.18646099  0.60058897  0.10058899  1
  F  F14  1  0.18646099  0.89941095  0.60058897  1
  F  F15  1  0.18646099  0.10058899  0.39941098  1
  F  F16  1  -0.00000000  0.49999997  0.00000000  1
  F  F17  1  0.00000000  0.00000000  0.49999997  1
