# generated using pymatgen
data_Na2EuTlSbPbClO7
_symmetry_space_group_name_H-M   'P 1'
_cell_length_a   6.81416321
_cell_length_b   6.81416321
_cell_length_c   6.81416321
_cell_angle_alpha   60.00000000
_cell_angle_beta   60.00000000
_cell_angle_gamma   60.00000000
_symmetry_Int_Tables_number   1
_chemical_formula_structural   Na2EuTlSbPbClO7
_chemical_formula_sum   'Na2 Eu1 Tl1 Sb1 Pb1 Cl1 O7'
_cell_volume   223.72916202
_cell_formula_units_Z   1
loop_
 _symmetry_equiv_pos_site_id
 _symmetry_equiv_pos_as_xyz
  1  'x, y, z'
loop_
 _atom_site_type_symbol
 _atom_site_label
 _atom_site_symmetry_multiplicity
 _atom_site_fract_x
 _atom_site_fract_y
 _atom_site_fract_z
 _atom_site_occupancy
  Na  Na0  1  0.50000000  0.50000000  0.50000000  1
  Na  Na1  1  0.25000000  0.25000000  0.25000000  1
  Pb  Pb2  1  0.87500000  0.37500000  0.87500000  1
  Eu  Eu3  1  0.87500000  0.87500000  0.87500000  1
  Tl  Tl4  1  0.37500000  0.87500000  0.87500000  1
  Sb  Sb5  1  0.87500000  0.87500000  0.37500000  1
  Cl  Cl6  1  0.10671000  0.10671000  0.67987000  1
  O  O7  1  0.64329000  0.64329000  0.64329000  1
  O  O8  1  0.07013000  0.64329000  0.64329000  1
  O  O9  1  0.10671000  0.67987000  0.10671000  1
  O  O10  1  0.64329000  0.07013000  0.64329000  1
  O  O11  1  0.67987000  0.10671000  0.10671000  1
  O  O12  1  0.10671000  0.10671000  0.10671000  1
  O  O13  1  0.64329000  0.64329000  0.07013000  1
