# generated using pymatgen
data_LiAgF3
_symmetry_space_group_name_H-M   'P 1'
_cell_length_a   5.92978001
_cell_length_b   6.67262030
_cell_length_c   6.67262030
_cell_angle_alpha   84.41017151
_cell_angle_beta   88.39624786
_cell_angle_gamma   88.39624786
_symmetry_Int_Tables_number   1
_chemical_formula_structural   LiAgF3
_chemical_formula_sum   'Li4 Ag4 F12'
_cell_volume   262.57361410
_cell_formula_units_Z   4
loop_
 _symmetry_equiv_pos_site_id
 _symmetry_equiv_pos_as_xyz
  1  'x, y, z'
loop_
 _atom_site_type_symbol
 _atom_site_label
 _atom_site_symmetry_multiplicity
 _atom_site_fract_x
 _atom_site_fract_y
 _atom_site_fract_z
 _atom_site_occupancy
  Li  Li0  1  0.11268599  0.32898299  0.32898301  1
  Li  Li1  1  0.49999998  0.67210199  0.32789803  1
  Li  Li2  1  0.49999999  0.32789800  0.67210201  1
  Li  Li3  1  0.88731397  0.67101699  0.67101702  1
  Ag  Ag4  1  0.68911198  0.23242100  0.23242100  1
  Ag  Ag5  1  0.99999997  0.81074699  0.18925303  1
  Ag  Ag6  1  0.99999998  0.18925300  0.81074699  1
  Ag  Ag7  1  0.31088798  0.76757899  0.76757903  1
  F  F8  1  0.05297100  0.13771100  0.13771101  1
  F  F9  1  0.41702899  0.37173299  0.37173301  1
  F  F10  1  0.32710099  0.08237000  0.72377799  1
  F  F11  1  0.32710098  0.72377799  0.08237004  1
  F  F12  1  0.86761798  0.22521800  0.51932100  1
  F  F13  1  0.86761798  0.51932099  0.22521802  1
  F  F14  1  0.13238199  0.48067899  0.77478202  1
  F  F15  1  0.13238198  0.77478199  0.48067904  1
  F  F16  1  0.67289897  0.91762999  0.27622204  1
  F  F17  1  0.67289898  0.27622200  0.91763000  1
  F  F18  1  0.58297098  0.62826699  0.62826702  1
  F  F19  1  0.94702897  0.86228899  0.86228903  1
