# generated using pymatgen
data_KRbLi7TlO6
_symmetry_space_group_name_H-M   'P 1'
_cell_length_a   3.97181106
_cell_length_b   3.97181106
_cell_length_c   15.72054577
_cell_angle_alpha   90.00000000
_cell_angle_beta   90.00000000
_cell_angle_gamma   90.00000000
_symmetry_Int_Tables_number   1
_chemical_formula_structural   KRbLi7TlO6
_chemical_formula_sum   'Rb1 K1 Li7 Tl1 O6'
_cell_volume   247.99605945
_cell_formula_units_Z   1
loop_
 _symmetry_equiv_pos_site_id
 _symmetry_equiv_pos_as_xyz
  1  'x, y, z'
loop_
 _atom_site_type_symbol
 _atom_site_label
 _atom_site_symmetry_multiplicity
 _atom_site_fract_x
 _atom_site_fract_y
 _atom_site_fract_z
 _atom_site_occupancy
  Li  Li0  1  0.49999999  0.49999999  0.50000001  1
  Li  Li1  1  0.49999999  0.49999999  0.85589301  1
  Rb  Rb2  1  0.49999999  0.49999999  0.14410700  1
  K  K3  1  0.00000000  0.00000000  0.00000000  1
  Li  Li4  1  0.00000000  0.00000000  0.27988600  1
  Li  Li5  1  0.00000000  0.00000000  0.72011401  1
  Li  Li6  1  0.00000000  0.00000000  0.60614501  1
  Li  Li7  1  0.00000000  0.00000000  0.39385501  1
  Li  Li8  1  0.49999999  0.00000000  0.74578701  1
  Tl  Tl9  1  -0.00000000  0.49999999  0.74578701  1
  O  O10  1  0.49999999  0.00000000  0.25421300  1
  O  O11  1  -0.00000000  0.49999999  0.25421300  1
  O  O12  1  -0.00000000  0.49999999  0.00000000  1
  O  O13  1  0.49999999  0.00000000  -0.00000000  1
  O  O14  1  0.00000000  0.00000000  0.12565900  1
  O  O15  1  0.00000000  0.00000000  0.87434101  1
