# generated using pymatgen
data_Li2Mn4AgF13
_symmetry_space_group_name_H-M   'P 1'
_cell_length_a   5.19147205
_cell_length_b   5.55086994
_cell_length_c   10.30716228
_cell_angle_alpha   100.22042084
_cell_angle_beta   90.00000000
_cell_angle_gamma   90.00000000
_symmetry_Int_Tables_number   1
_chemical_formula_structural   Li2Mn4AgF13
_chemical_formula_sum   'Li2 Mn4 Ag1 F13'
_cell_volume   292.31037484
_cell_formula_units_Z   1
loop_
 _symmetry_equiv_pos_site_id
 _symmetry_equiv_pos_as_xyz
  1  'x, y, z'
loop_
 _atom_site_type_symbol
 _atom_site_label
 _atom_site_symmetry_multiplicity
 _atom_site_fract_x
 _atom_site_fract_y
 _atom_site_fract_z
 _atom_site_occupancy
  Li  Li0  1  0.93999699  0.50000000  0.75000002  1
  Li  Li1  1  0.06000300  0.50000000  0.25000000  1
  Mn  Mn2  1  0.24935800  0.07083300  0.92660104  1
  Mn  Mn3  1  0.75064199  0.07083300  0.42660102  1
  Mn  Mn4  1  0.24935800  0.92916700  0.57339900  1
  Mn  Mn5  1  0.75064199  0.92916700  0.07339898  1
  Ag  Ag6  1  0.42082700  0.00000000  0.75000003  1
  F  F7  1  0.57917299  0.00000000  0.25000001  1
  F  F8  1  0.94806499  0.15376800  0.60555702  1
  F  F9  1  0.05193500  0.15376800  0.10555700  1
  F  F10  1  0.44114600  0.21771000  0.51640002  1
  F  F11  1  0.55885399  0.21771000  0.01640000  1
  F  F12  1  0.08688400  0.33346200  0.87001903  1
  F  F13  1  0.91311599  0.33346200  0.37001901  1
  F  F14  1  0.08688400  0.66653800  0.62998101  1
  F  F15  1  0.91311599  0.66653800  0.12998099  1
  F  F16  1  0.44114600  0.78229000  0.98360002  1
  F  F17  1  0.55885399  0.78229000  0.48360000  1
  F  F18  1  0.94806499  0.84623200  0.89444302  1
  F  F19  1  0.05193500  0.84623200  0.39444300  1
