# generated using pymatgen
data_Sr3TlP2N
_symmetry_space_group_name_H-M   'P 1'
_cell_length_a   4.88349819
_cell_length_b   4.88349819
_cell_length_c   8.92487335
_cell_angle_alpha   105.87796021
_cell_angle_beta   105.87796021
_cell_angle_gamma   90.00000000
_symmetry_Int_Tables_number   1
_chemical_formula_structural   Sr3TlP2N
_chemical_formula_sum   'Sr3 Tl1 P2 N1'
_cell_volume   196.26807551
_cell_formula_units_Z   1
loop_
 _symmetry_equiv_pos_site_id
 _symmetry_equiv_pos_as_xyz
  1  'x, y, z'
loop_
 _atom_site_type_symbol
 _atom_site_label
 _atom_site_symmetry_multiplicity
 _atom_site_fract_x
 _atom_site_fract_y
 _atom_site_fract_z
 _atom_site_occupancy
  Sr  Sr0  1  0.67382399  0.67382398  0.34764801  1
  Sr  Sr1  1  0.32617600  0.32617599  0.65235199  1
  Sr  Sr2  1  0.49999999  0.00000000  0.00000001  1
  Tl  Tl3  1  0.00000001  0.49999999  0.99999997  1
  P  P4  1  0.86394099  0.86394098  0.72788201  1
  P  P5  1  0.13605900  0.13605900  0.27211799  1
  N  N6  1  0.50000000  0.49999999  0.00000002  1
