# generated using pymatgen
data_Te2Mo3Se3S
_symmetry_space_group_name_H-M   'P 1'
_cell_length_a   3.39981008
_cell_length_b   3.39981008
_cell_length_c   31.48266983
_cell_angle_alpha   90.00000000
_cell_angle_beta   90.00000000
_cell_angle_gamma   120.00000000
_symmetry_Int_Tables_number   1
_chemical_formula_structural   Te2Mo3Se3S
_chemical_formula_sum   'Te2 Mo3 Se3 S1'
_cell_volume   315.14578273
_cell_formula_units_Z   1
loop_
 _symmetry_equiv_pos_site_id
 _symmetry_equiv_pos_as_xyz
  1  'x, y, z'
loop_
 _atom_site_type_symbol
 _atom_site_label
 _atom_site_symmetry_multiplicity
 _atom_site_fract_x
 _atom_site_fract_y
 _atom_site_fract_z
 _atom_site_occupancy
  Te  Te0  1  0.00000000  0.00000000  0.94020598  1
  Te  Te1  1  0.00000000  0.00000000  0.05979400  1
  Mo  Mo2  1  0.00000000  0.00000000  0.23134899  1
  Mo  Mo3  1  0.00000000  0.00000000  0.76865098  1
  Mo  Mo4  1  0.66666666  0.33333335  0.99999997  1
  Se  Se5  1  0.66666666  0.33333335  0.28396099  1
  Se  Se6  1  0.66666666  0.33333335  0.82130198  1
  Se  Se7  1  0.66666666  0.33333335  0.17869800  1
  S  S8  1  0.66666666  0.33333335  0.71603898  1
