# generated using pymatgen
data_La7Zr2Sb5Ru6
_symmetry_space_group_name_H-M   'P 1'
_cell_length_a   8.53817558
_cell_length_b   8.53817558
_cell_length_c   8.53817558
_cell_angle_alpha   109.47122192
_cell_angle_beta   109.47122192
_cell_angle_gamma   109.47122192
_symmetry_Int_Tables_number   1
_chemical_formula_structural   La7Zr2Sb5Ru6
_chemical_formula_sum   'La7 Zr2 Sb5 Ru6'
_cell_volume   479.15203092
_cell_formula_units_Z   1
loop_
 _symmetry_equiv_pos_site_id
 _symmetry_equiv_pos_as_xyz
  1  'x, y, z'
loop_
 _atom_site_type_symbol
 _atom_site_label
 _atom_site_symmetry_multiplicity
 _atom_site_fract_x
 _atom_site_fract_y
 _atom_site_fract_z
 _atom_site_occupancy
  La  La0  1  0.87500002  0.12500001  0.75000003  1
  La  La1  1  0.62500003  0.37500002  0.25000004  1
  La  La2  1  0.12500002  0.25000001  0.37500002  1
  La  La3  1  0.37500005  0.75000003  0.12500005  1
  La  La4  1  0.75000005  0.62500003  0.87500006  1
  La  La5  1  0.25000006  0.87500004  0.62500006  1
  La  La6  1  1.00000005  0.50000002  0.67875206  1
  Zr  Zr7  1  0.32124802  0.32124801  0.82124803  1
  Sb  Sb8  1  0.50000002  0.17875201  0.50000002  1
  Sb  Sb9  1  0.17875200  0.00000000  1.00000001  1
  Sb  Sb10  1  0.82124806  0.82124804  0.32124807  1
  Sb  Sb11  1  1.00000005  0.50000002  0.17875205  1
  Zr  Zr12  1  0.50000005  0.67875203  0.50000005  1
  Sb  Sb13  1  0.67875201  0.00000000  1.00000002  1
  Ru  Ru14  1  0.37500004  0.62500003  0.75000005  1
  Ru  Ru15  1  0.12500006  0.87500004  0.25000005  1
  Ru  Ru16  1  0.62500002  0.25000001  0.87500003  1
  Ru  Ru17  1  0.87500006  0.75000003  0.62500007  1
  Ru  Ru18  1  0.75000002  0.12500001  0.37500003  1
  Ru  Ru19  1  0.25000003  0.37500002  0.12500003  1
