# generated using pymatgen
data_NaCa3Ti2(FeO6)2
_symmetry_space_group_name_H-M   'P 1'
_cell_length_a   5.18405390
_cell_length_b   5.18405342
_cell_length_c   10.82240963
_cell_angle_alpha   90.00000000
_cell_angle_beta   90.00000000
_cell_angle_gamma   120.00000000
_symmetry_Int_Tables_number   1
_chemical_formula_structural   NaCa3Ti2(FeO6)2
_chemical_formula_sum   'Na1 Ca3 Ti2 Fe2 O12'
_cell_volume   251.87993707
_cell_formula_units_Z   1
loop_
 _symmetry_equiv_pos_site_id
 _symmetry_equiv_pos_as_xyz
  1  'x, y, z'
loop_
 _atom_site_type_symbol
 _atom_site_label
 _atom_site_symmetry_multiplicity
 _atom_site_fract_x
 _atom_site_fract_y
 _atom_site_fract_z
 _atom_site_occupancy
  Ca  Ca0  1  0.33333331  0.66666667  0.04040000  1
  Na  Na1  1  0.33333331  0.66666667  0.45960002  1
  Ca  Ca2  1  0.66666666  0.33333334  0.54040002  1
  Ca  Ca3  1  0.66666666  0.33333334  0.95960003  1
  Ti  Ti4  1  0.66666666  0.33333334  0.25000001  1
  Ti  Ti5  1  0.33333331  0.66666667  0.75000003  1
  Fe  Fe6  1  0.00000000  0.00000000  0.75000003  1
  Fe  Fe7  1  0.00000000  0.00000000  0.25000001  1
  O  O8  1  0.05526396  0.71649101  0.85202403  1
  O  O9  1  0.66122696  0.94473701  0.85202403  1
  O  O10  1  0.28350999  0.33877400  0.85202403  1
  O  O11  1  0.66122698  0.71649101  0.64797602  1
  O  O12  1  0.28350996  0.94473701  0.64797602  1
  O  O13  1  0.05526398  0.33877400  0.64797602  1
  O  O14  1  0.94473600  0.28350900  0.14797601  1
  O  O15  1  0.33877300  0.05526300  0.14797601  1
  O  O16  1  0.94473598  0.66122601  0.35202401  1
  O  O17  1  0.71649001  0.05526300  0.35202401  1
  O  O18  1  0.33877299  0.28350900  0.35202401  1
  O  O19  1  0.71648998  0.66122601  0.14797601  1
