# generated using pymatgen
data_Li5Bi(SbS4)2
_symmetry_space_group_name_H-M   'P 1'
_cell_length_a   6.57568407
_cell_length_b   7.04438591
_cell_length_c   8.07699299
_cell_angle_alpha   90.00000000
_cell_angle_beta   90.00000000
_cell_angle_gamma   90.00000000
_symmetry_Int_Tables_number   1
_chemical_formula_structural   Li5Bi(SbS4)2
_chemical_formula_sum   'Li5 Bi1 Sb2 S8'
_cell_volume   374.13969247
_cell_formula_units_Z   1
loop_
 _symmetry_equiv_pos_site_id
 _symmetry_equiv_pos_as_xyz
  1  'x, y, z'
loop_
 _atom_site_type_symbol
 _atom_site_label
 _atom_site_symmetry_multiplicity
 _atom_site_fract_x
 _atom_site_fract_y
 _atom_site_fract_z
 _atom_site_occupancy
  Li  Li0  1  0.19534800  0.33207300  0.74663900  1
  Li  Li1  1  0.19534800  0.33207300  0.25336100  1
  Li  Li2  1  0.69534799  0.66792701  0.75336100  1
  Li  Li3  1  0.69534799  0.66792701  0.24663900  1
  Li  Li4  1  0.19514700  0.84256401  0.00000000  1
  Bi  Bi5  1  0.69514699  0.15743600  0.50000000  1
  Sb  Sb6  1  0.69160599  0.17096000  -0.00000000  1
  Sb  Sb7  1  0.19160600  0.82904001  0.50000000  1
  S  S8  1  0.32331400  0.18697900  0.00000000  1
  S  S9  1  0.82331399  0.81302101  0.50000000  1
  S  S10  1  0.80248399  0.84206001  0.00000000  1
  S  S11  1  0.30248400  0.15794000  0.50000000  1
  S  S12  1  0.82114699  0.33849000  0.75917400  1
  S  S13  1  0.82114699  0.33849000  0.24082600  1
  S  S14  1  0.32114700  0.66151001  0.74082600  1
  S  S15  1  0.32114700  0.66151001  0.25917400  1
