# generated using pymatgen
data_SrHfN2
_symmetry_space_group_name_H-M   'P 1'
_cell_length_a   3.28629446
_cell_length_b   3.28629446
_cell_length_c   6.72278929
_cell_angle_alpha   75.85275269
_cell_angle_beta   75.85275269
_cell_angle_gamma   59.99999237
_symmetry_Int_Tables_number   1
_chemical_formula_structural   SrHfN2
_chemical_formula_sum   'Sr1 Hf1 N2'
_cell_volume   60.32109645
_cell_formula_units_Z   1
loop_
 _symmetry_equiv_pos_site_id
 _symmetry_equiv_pos_as_xyz
  1  'x, y, z'
loop_
 _atom_site_type_symbol
 _atom_site_label
 _atom_site_symmetry_multiplicity
 _atom_site_fract_x
 _atom_site_fract_y
 _atom_site_fract_z
 _atom_site_occupancy
  Sr  Sr0  1  0.00000000  0.00000000  0.00000000  1
  Hf  Hf1  1  0.50000001  0.49999999  0.49999998  1
  N  N2  1  0.77742802  0.77742799  0.66771597  1
  N  N3  1  0.22257200  0.22257200  0.33228399  1
