# generated using pymatgen
data_CdCu(MoO4)2
_symmetry_space_group_name_H-M   'P 1'
_cell_length_a   4.98111582
_cell_length_b   5.05946112
_cell_length_c   6.54803419
_cell_angle_alpha   112.34041595
_cell_angle_beta   111.96427917
_cell_angle_gamma   90.93786621
_symmetry_Int_Tables_number   1
_chemical_formula_structural   CdCu(MoO4)2
_chemical_formula_sum   'Cd1 Cu1 Mo2 O8'
_cell_volume   139.11834048
_cell_formula_units_Z   1
loop_
 _symmetry_equiv_pos_site_id
 _symmetry_equiv_pos_as_xyz
  1  'x, y, z'
loop_
 _atom_site_type_symbol
 _atom_site_label
 _atom_site_symmetry_multiplicity
 _atom_site_fract_x
 _atom_site_fract_y
 _atom_site_fract_z
 _atom_site_occupancy
  Cu  Cu0  1  0.62416612  0.87416600  0.74833308  1
  Cd  Cd1  1  0.37583403  0.12583400  0.25166702  1
  Mo  Mo2  1  0.13008104  0.38008100  0.76016202  1
  Mo  Mo3  1  0.86991911  0.61991900  0.23983809  1
  O  O4  1  0.21353810  0.85319700  0.41067007  1
  O  O5  1  0.30286906  0.44252800  0.58933004  1
  O  O6  1  0.94925108  0.28171400  0.08441607  1
  O  O7  1  0.78646206  0.14680300  0.58933004  1
  O  O8  1  0.63516511  0.80270200  0.08441609  1
  O  O9  1  0.05074907  0.71828600  0.91558404  1
  O  O10  1  0.36483504  0.19729800  0.91558402  1
  O  O11  1  0.69713109  0.55747200  0.41067007  1
