# generated using pymatgen
data_Te2Mo
_symmetry_space_group_name_H-M   'P 1'
_cell_length_a   3.55422807
_cell_length_b   3.55422735
_cell_length_c   32.58380127
_cell_angle_alpha   90.00000000
_cell_angle_beta   90.00000000
_cell_angle_gamma   120.00000763
_symmetry_Int_Tables_number   1
_chemical_formula_structural   Te2Mo
_chemical_formula_sum   'Te6 Mo3'
_cell_volume   356.46988291
_cell_formula_units_Z   3
loop_
 _symmetry_equiv_pos_site_id
 _symmetry_equiv_pos_as_xyz
  1  'x, y, z'
loop_
 _atom_site_type_symbol
 _atom_site_label
 _atom_site_symmetry_multiplicity
 _atom_site_fract_x
 _atom_site_fract_y
 _atom_site_fract_z
 _atom_site_occupancy
  Te  Te0  1  0.00000000  0.00000000  0.59727000  1
  Te  Te1  1  0.66666667  0.33333334  0.93998799  1
  Te  Te2  1  0.66666667  0.33333334  0.47744200  1
  Te  Te3  1  0.66666667  0.33333334  0.82867599  1
  Te  Te4  1  0.66666667  0.33333334  0.36595300  1
  Te  Te5  1  0.00000000  0.00000000  0.70876399  1
  Mo  Mo6  1  0.00000000  0.00000000  0.88435599  1
  Mo  Mo7  1  0.00000000  0.00000000  0.42168600  1
  Mo  Mo8  1  0.66666667  0.33333334  0.65302499  1
