# generated using pymatgen
data_Ni2F3
_symmetry_space_group_name_H-M   'P 1'
_cell_length_a   5.11649895
_cell_length_b   5.49680424
_cell_length_c   7.50623846
_cell_angle_alpha   84.21641541
_cell_angle_beta   89.95014954
_cell_angle_gamma   89.98526001
_symmetry_Int_Tables_number   1
_chemical_formula_structural   Ni2F3
_chemical_formula_sum   'Ni8 F12'
_cell_volume   210.03369678
_cell_formula_units_Z   4
loop_
 _symmetry_equiv_pos_site_id
 _symmetry_equiv_pos_as_xyz
  1  'x, y, z'
loop_
 _atom_site_type_symbol
 _atom_site_label
 _atom_site_symmetry_multiplicity
 _atom_site_fract_x
 _atom_site_fract_y
 _atom_site_fract_z
 _atom_site_occupancy
  Ni  Ni0  1  0.49892500  0.20017500  0.85069698  1
  Ni  Ni1  1  0.99958999  0.70228600  0.85077196  1
  Ni  Ni2  1  0.50052399  0.79448600  0.64756296  1
  Ni  Ni3  1  0.99959000  0.30054500  0.14946700  1
  Ni  Ni4  1  0.99899400  0.30035100  0.64924598  1
  Ni  Ni5  1  0.50030400  0.20093700  0.35081199  1
  Ni  Ni6  1  0.00052998  0.69918600  0.34900796  1
  Ni  Ni7  1  0.50088299  0.80355700  0.15273797  1
  F  F8  1  0.30100599  0.49594700  0.74817996  1
  F  F9  1  0.85116200  0.34605000  0.90055397  1
  F  F10  1  0.65079800  0.14995400  0.59882099  1
  F  F11  1  0.19511598  0.99843100  0.74880594  1
  F  F12  1  0.15126199  0.35049500  0.40087498  1
  F  F13  1  0.65001699  0.84567900  0.90272495  1
  F  F14  1  0.84871299  0.64864500  0.59658597  1
  F  F15  1  0.35151100  0.15297700  0.10033200  1
  F  F16  1  0.34753398  0.85122900  0.40022396  1
  F  F17  1  0.15373199  0.65538300  0.09993797  1
  F  F18  1  0.69749399  0.50296200  0.25116198  1
  F  F19  1  0.80231501  0.00072500  0.25149200  1
