# generated using pymatgen
data_SrCa2Ti2O7
_symmetry_space_group_name_H-M   'P 1'
_cell_length_a   3.95491195
_cell_length_b   3.95491195
_cell_length_c   10.75219631
_cell_angle_alpha   100.59769440
_cell_angle_beta   100.59769440
_cell_angle_gamma   90.00000000
_symmetry_Int_Tables_number   1
_chemical_formula_structural   SrCa2Ti2O7
_chemical_formula_sum   'Sr1 Ca2 Ti2 O7'
_cell_volume   162.39063723
_cell_formula_units_Z   1
loop_
 _symmetry_equiv_pos_site_id
 _symmetry_equiv_pos_as_xyz
  1  'x, y, z'
loop_
 _atom_site_type_symbol
 _atom_site_label
 _atom_site_symmetry_multiplicity
 _atom_site_fract_x
 _atom_site_fract_y
 _atom_site_fract_z
 _atom_site_occupancy
  Sr  Sr0  1  0.00000000  0.00000000  0.00000000  1
  Ca  Ca1  1  0.18207200  0.18207200  0.36414399  1
  Ca  Ca2  1  0.81792800  0.81792801  0.63585598  1
  Ti  Ti3  1  0.40680200  0.40680200  0.81360399  1
  Ti  Ti4  1  0.59319800  0.59319800  0.18639599  1
  O  O5  1  0.50000000  0.50000000  -0.00000001  1
  O  O6  1  0.09995799  0.59995800  0.19991599  1
  O  O7  1  0.40004199  0.90004201  0.80008398  1
  O  O8  1  0.29491100  0.29491100  0.58982199  1
  O  O9  1  0.70508900  0.70508901  0.41017798  1
  O  O10  1  0.60480000  0.10480000  0.20959999  1
  O  O11  1  0.89520000  0.39520000  0.79039998  1
