# generated using pymatgen
data_Sr8Zr2GeN7
_symmetry_space_group_name_H-M   'P 1'
_cell_length_a   6.50349808
_cell_length_b   6.50756025
_cell_length_c   9.80799103
_cell_angle_alpha   80.51395416
_cell_angle_beta   71.12979126
_cell_angle_gamma   67.98117065
_symmetry_Int_Tables_number   1
_chemical_formula_structural   Sr8Zr2GeN7
_chemical_formula_sum   'Sr8 Zr2 Ge1 N7'
_cell_volume   363.68478677
_cell_formula_units_Z   1
loop_
 _symmetry_equiv_pos_site_id
 _symmetry_equiv_pos_as_xyz
  1  'x, y, z'
loop_
 _atom_site_type_symbol
 _atom_site_label
 _atom_site_symmetry_multiplicity
 _atom_site_fract_x
 _atom_site_fract_y
 _atom_site_fract_z
 _atom_site_occupancy
  Sr  Sr0  1  0.39128301  0.25823499  0.81631303  1
  Sr  Sr1  1  0.60871703  0.74176496  0.18368702  1
  Sr  Sr2  1  0.75869801  0.24742299  0.01307600  1
  Sr  Sr3  1  0.24130204  0.75257696  0.98692404  1
  Sr  Sr4  1  0.52353201  0.26565598  0.42618602  1
  Sr  Sr5  1  0.47646804  0.73434396  0.57381403  1
  Sr  Sr6  1  0.04791904  0.76156196  0.39767802  1
  Sr  Sr7  1  0.95208100  0.23843799  0.60232202  1
  Zr  Zr8  1  0.15466701  0.28227698  0.23945201  1
  Zr  Zr9  1  0.84533303  0.71772296  0.76054803  1
  Ge  Ge10  1  0.30070100  0.02469400  0.38050201  1
  N  N11  1  0.69929905  0.97530594  0.61949803  1
  N  N12  1  0.15087501  0.14436599  0.06124600  1
  N  N13  1  0.84912504  0.85563395  0.93875404  1
  N  N14  1  0.36438802  0.48332397  0.19733501  1
  N  N15  1  0.63561202  0.51667597  0.80266503  1
  N  N16  1  0.17402503  0.51971497  0.62707503  1
  N  N17  1  0.82597502  0.48028497  0.37292502  1
