# generated using pymatgen
data_Sm2LuCr(SO)3
_symmetry_space_group_name_H-M   'P 1'
_cell_length_a   3.77726793
_cell_length_b   3.77726889
_cell_length_c   13.31796360
_cell_angle_alpha   90.00000000
_cell_angle_beta   90.00000000
_cell_angle_gamma   119.99999237
_symmetry_Int_Tables_number   1
_chemical_formula_structural   Sm2LuCr(SO)3
_chemical_formula_sum   'Sm2 Lu1 Cr1 S3 O3'
_cell_volume   164.55996327
_cell_formula_units_Z   1
loop_
 _symmetry_equiv_pos_site_id
 _symmetry_equiv_pos_as_xyz
  1  'x, y, z'
loop_
 _atom_site_type_symbol
 _atom_site_label
 _atom_site_symmetry_multiplicity
 _atom_site_fract_x
 _atom_site_fract_y
 _atom_site_fract_z
 _atom_site_occupancy
  Sm  Sm0  1  0.66666668  0.33333333  0.10761900  1
  Sm  Sm1  1  0.66666668  0.33333333  0.39238101  1
  Lu  Lu2  1  0.33333333  0.66666665  0.60761902  1
  Cr  Cr3  1  0.33333333  0.66666665  0.89238103  1
  S  S4  1  0.00000000  0.00000000  0.75000002  1
  S  S5  1  0.00000000  0.00000000  0.25000001  1
  S  S6  1  0.66666668  0.33333333  0.93527503  1
  O  O7  1  0.66666668  0.33333333  0.56472502  1
  O  O8  1  0.33333333  0.66666665  0.06472500  1
  O  O9  1  0.33333333  0.66666665  0.43527501  1
