# generated using pymatgen
data_TmBr3
_symmetry_space_group_name_H-M   'P 1'
_cell_length_a   3.74022007
_cell_length_b   10.15962791
_cell_length_c   10.15962696
_cell_angle_alpha   120.00000000
_cell_angle_beta   90.00000000
_cell_angle_gamma   90.00000000
_symmetry_Int_Tables_number   1
_chemical_formula_structural   TmBr3
_chemical_formula_sum   'Tm2 Br6'
_cell_volume   334.33616190
_cell_formula_units_Z   2
loop_
 _symmetry_equiv_pos_site_id
 _symmetry_equiv_pos_as_xyz
  1  'x, y, z'
loop_
 _atom_site_type_symbol
 _atom_site_label
 _atom_site_symmetry_multiplicity
 _atom_site_fract_x
 _atom_site_fract_y
 _atom_site_fract_z
 _atom_site_occupancy
  Tm  Tm0  1  0.25000000  0.66666665  0.33333331  1
  Tm  Tm1  1  0.74999999  0.33333333  0.66666666  1
  Br  Br2  1  0.74999999  0.78743299  0.21256696  1
  Br  Br3  1  0.74999999  0.42513399  0.21256698  1
  Br  Br4  1  0.74999999  0.78743299  0.57486597  1
  Br  Br5  1  0.25000000  0.21256700  0.78743301  1
  Br  Br6  1  0.25000000  0.57486599  0.78743299  1
  Br  Br7  1  0.25000000  0.21256700  0.42513400  1
