# generated using pymatgen
data_Zn(GaO2)2
_symmetry_space_group_name_H-M   'P 1'
_cell_length_a   5.97983074
_cell_length_b   5.97983074
_cell_length_c   5.97983074
_cell_angle_alpha   60.00000000
_cell_angle_beta   60.00000000
_cell_angle_gamma   60.00000000
_symmetry_Int_Tables_number   1
_chemical_formula_structural   Zn(GaO2)2
_chemical_formula_sum   'Zn2 Ga4 O8'
_cell_volume   151.19996017
_cell_formula_units_Z   2
loop_
 _symmetry_equiv_pos_site_id
 _symmetry_equiv_pos_as_xyz
  1  'x, y, z'
loop_
 _atom_site_type_symbol
 _atom_site_label
 _atom_site_symmetry_multiplicity
 _atom_site_fract_x
 _atom_site_fract_y
 _atom_site_fract_z
 _atom_site_occupancy
  Zn  Zn0  1  0.50000002  0.50000002  0.50000002  1
  Zn  Zn1  1  0.25000001  0.25000001  0.25000001  1
  Ga  Ga2  1  0.87500003  0.37500001  0.87500003  1
  Ga  Ga3  1  0.87500003  0.87500003  0.87500003  1
  Ga  Ga4  1  0.87500003  0.87500003  0.37500001  1
  Ga  Ga5  1  0.37500001  0.87500003  0.87500003  1
  O  O6  1  0.11389200  0.11389300  0.11389300  1
  O  O7  1  0.63610802  0.09167800  0.63610702  1
  O  O8  1  0.09167900  0.63610702  0.63610702  1
  O  O9  1  0.63610802  0.63610702  0.09167800  1
  O  O10  1  0.65832102  0.11389300  0.11389300  1
  O  O11  1  0.11389200  0.11389300  0.65832202  1
  O  O12  1  0.63610802  0.63610702  0.63610702  1
  O  O13  1  0.11389200  0.65832202  0.11389300  1
