# generated using pymatgen
data_Ag2Pt5Au3O8
_symmetry_space_group_name_H-M   'P 1'
_cell_length_a   7.95327282
_cell_length_b   7.95327282
_cell_length_c   7.95327282
_cell_angle_alpha   60.00000000
_cell_angle_beta   60.00000000
_cell_angle_gamma   60.00000000
_symmetry_Int_Tables_number   1
_chemical_formula_structural   Ag2Pt5Au3O8
_chemical_formula_sum   'Ag2 Pt5 Au3 O8'
_cell_volume   355.73176146
_cell_formula_units_Z   1
loop_
 _symmetry_equiv_pos_site_id
 _symmetry_equiv_pos_as_xyz
  1  'x, y, z'
loop_
 _atom_site_type_symbol
 _atom_site_label
 _atom_site_symmetry_multiplicity
 _atom_site_fract_x
 _atom_site_fract_y
 _atom_site_fract_z
 _atom_site_occupancy
  Ag  Ag0  1  0.74999998  0.74999998  0.74999998  1
  Ag  Ag1  1  0.00000000  0.00000000  0.00000000  1
  Pt  Pt2  1  0.37499999  0.87499998  0.37499999  1
  Au  Au3  1  0.37499999  0.37499999  0.37499999  1
  Au  Au4  1  0.37499999  0.37499999  0.87499998  1
  Au  Au5  1  0.87499998  0.37499999  0.37499999  1
  Pt  Pt6  1  0.44038699  0.05961300  0.44038699  1
  Pt  Pt7  1  0.69038698  0.30961299  0.69038698  1
  Pt  Pt8  1  0.44038699  0.05961300  0.05961300  1
  Pt  Pt9  1  0.44038699  0.44038699  0.05961300  1
  O  O10  1  0.05961300  0.05961300  0.44038699  1
  O  O11  1  0.05961300  0.44038699  0.44038699  1
  O  O12  1  0.05961300  0.44038699  0.05961300  1
  O  O13  1  0.30961299  0.69038698  0.69038698  1
  O  O14  1  0.69038698  0.30961299  0.30961299  1
  O  O15  1  0.69038698  0.69038698  0.30961299  1
  O  O16  1  0.30961299  0.30961299  0.69038698  1
  O  O17  1  0.30961299  0.69038698  0.30961299  1
