# generated using pymatgen
data_Al4SbAsO8
_symmetry_space_group_name_H-M   'P 1'
_cell_length_a   3.62161589
_cell_length_b   5.41882944
_cell_length_c   10.24564457
_cell_angle_alpha   90.00000000
_cell_angle_beta   90.00000000
_cell_angle_gamma   109.52204895
_symmetry_Int_Tables_number   1
_chemical_formula_structural   Al4SbAsO8
_chemical_formula_sum   'Al4 Sb1 As1 O8'
_cell_volume   189.51102750
_cell_formula_units_Z   1
loop_
 _symmetry_equiv_pos_site_id
 _symmetry_equiv_pos_as_xyz
  1  'x, y, z'
loop_
 _atom_site_type_symbol
 _atom_site_label
 _atom_site_symmetry_multiplicity
 _atom_site_fract_x
 _atom_site_fract_y
 _atom_site_fract_z
 _atom_site_occupancy
  Al  Al0  1  0.11648900  0.23297800  0.43891102  1
  Al  Al1  1  0.88351103  0.76702200  0.93891104  1
  Al  Al2  1  0.19022501  0.38045000  0.74819103  1
  Al  Al3  1  0.80977503  0.61955000  0.24819101  1
  Sb  Sb4  1  0.30085201  0.60170400  0.26117901  1
  As  As5  1  0.69914802  0.39829600  0.76117903  1
  O  O6  1  0.32255501  0.64511000  0.88363704  1
  O  O7  1  0.30758701  0.61517400  0.61723303  1
  O  O8  1  0.05550500  0.11101000  0.86839304  1
  O  O9  1  0.06427800  0.12855600  0.62122203  1
  O  O10  1  0.93572203  0.87144400  0.12122201  1
  O  O11  1  0.94449503  0.88899000  0.36839302  1
  O  O12  1  0.69241302  0.38482600  0.11723300  1
  O  O13  1  0.67744502  0.35489000  0.38363702  1
