# generated using pymatgen
data_BaIBr13O3
_symmetry_space_group_name_H-M   'P 1'
_cell_length_a   6.57534266
_cell_length_b   8.46613789
_cell_length_c   10.20696354
_cell_angle_alpha   85.69298553
_cell_angle_beta   76.69928741
_cell_angle_gamma   83.55584717
_symmetry_Int_Tables_number   1
_chemical_formula_structural   BaIBr13O3
_chemical_formula_sum   'Ba1 I1 Br13 O3'
_cell_volume   548.74975142
_cell_formula_units_Z   1
loop_
 _symmetry_equiv_pos_site_id
 _symmetry_equiv_pos_as_xyz
  1  'x, y, z'
loop_
 _atom_site_type_symbol
 _atom_site_label
 _atom_site_symmetry_multiplicity
 _atom_site_fract_x
 _atom_site_fract_y
 _atom_site_fract_z
 _atom_site_occupancy
  Ba  Ba0  1  0.45935299  0.39818699  0.95320098  1
  Br  Br1  1  0.21022498  0.95613398  0.51716801  1
  I  I2  1  0.99822701  0.00803700  0.99605397  1
  Br  Br3  1  0.78282299  0.56139899  0.52749901  1
  Br  Br4  1  0.87644098  0.79325798  0.95323199  1
  Br  Br5  1  0.66193800  0.19088400  0.87054098  1
  Br  Br6  1  0.13415999  0.34084199  0.00118401  1
  Br  Br7  1  0.26566498  0.89410798  0.07006303  1
  Br  Br8  1  0.78541000  0.04983800  0.19025901  1
  Br  Br9  1  0.28123200  0.01336600  0.70478397  1
  Br  Br10  1  0.64231899  0.34549699  0.50895800  1
  Br  Br11  1  0.02465899  0.46359799  0.63238799  1
  Br  Br12  1  0.41263498  0.75165798  0.42842501  1
  Br  Br13  1  0.88583398  0.89870298  0.55599502  1
  Br  Br14  1  0.97485299  0.56964599  0.32283102  1
  O  O15  1  0.48187199  0.59017399  0.79580999  1
  O  O16  1  0.53989499  0.47996999  0.12447202  1
  O  O17  1  0.25956100  0.15519900  0.37533399  1
