# generated using pymatgen
data_NbSe3O8
_symmetry_space_group_name_H-M   'P 1'
_cell_length_a   5.49924994
_cell_length_b   5.50075150
_cell_length_c   7.34273291
_cell_angle_alpha   85.62590027
_cell_angle_beta   85.97377014
_cell_angle_gamma   77.88372803
_symmetry_Int_Tables_number   1
_chemical_formula_structural   NbSe3O8
_chemical_formula_sum   'Nb1 Se3 O8'
_cell_volume   216.20223541
_cell_formula_units_Z   1
loop_
 _symmetry_equiv_pos_site_id
 _symmetry_equiv_pos_as_xyz
  1  'x, y, z'
loop_
 _atom_site_type_symbol
 _atom_site_label
 _atom_site_symmetry_multiplicity
 _atom_site_fract_x
 _atom_site_fract_y
 _atom_site_fract_z
 _atom_site_occupancy
  Nb  Nb0  1  0.88679100  0.99270102  0.88758591  1
  Se  Se1  1  0.60648200  0.50586201  0.36807695  1
  Se  Se2  1  0.40684001  0.01705600  0.61843197  1
  Se  Se3  1  0.16883100  0.40563001  0.11658598  1
  O  O4  1  0.00466599  0.65281901  0.94221596  1
  O  O5  1  0.94915401  0.51280101  0.32082894  1
  O  O6  1  0.56170601  0.07170000  0.81873096  1
  O  O7  1  0.49595001  0.21227700  0.41890397  1
  O  O8  1  0.51265200  0.69335801  0.56595894  1
  O  O9  1  0.41463200  0.63412201  0.18380596  1
  O  O10  1  0.07431100  0.07773800  0.68754898  1
  O  O11  1  0.91798501  0.17553600  0.07132596  1
