# generated using pymatgen
data_Si2C3
_symmetry_space_group_name_H-M   'P 1'
_cell_length_a   5.04537582
_cell_length_b   5.04537582
_cell_length_c   5.52456284
_cell_angle_alpha   62.83006287
_cell_angle_beta   62.83006287
_cell_angle_gamma   60.00000000
_symmetry_Int_Tables_number   1
_chemical_formula_structural   Si2C3
_chemical_formula_sum   'Si4 C6'
_cell_volume   103.48546648
_cell_formula_units_Z   2
loop_
 _symmetry_equiv_pos_site_id
 _symmetry_equiv_pos_as_xyz
  1  'x, y, z'
loop_
 _atom_site_type_symbol
 _atom_site_label
 _atom_site_symmetry_multiplicity
 _atom_site_fract_x
 _atom_site_fract_y
 _atom_site_fract_z
 _atom_site_occupancy
  Si  Si0  1  0.63163299  0.63163302  0.10510102  1
  Si  Si1  1  0.36836699  0.36836701  0.89489901  1
  Si  Si2  1  0.84365299  0.84365302  0.46904103  1
  Si  Si3  1  0.15634700  0.15634700  0.53095900  1
  C  C4  1  0.95362800  0.56093301  0.27125702  1
  C  C5  1  0.21418197  0.95362802  0.27125702  1
  C  C6  1  0.56093300  0.21418201  0.27125701  1
  C  C7  1  0.04637199  0.43906701  0.72874301  1
  C  C8  1  0.43906698  0.78581802  0.72874302  1
  C  C9  1  0.78581801  0.04637200  0.72874301  1
