# generated using pymatgen
data_Hg3Se5I
_symmetry_space_group_name_H-M   'P 1'
_cell_length_a   7.58721018
_cell_length_b   7.58720970
_cell_length_c   10.06009197
_cell_angle_alpha   90.00000000
_cell_angle_beta   90.00000000
_cell_angle_gamma   120.00000000
_symmetry_Int_Tables_number   1
_chemical_formula_structural   Hg3Se5I
_chemical_formula_sum   'Hg6 Se10 I2'
_cell_volume   501.52984884
_cell_formula_units_Z   2
loop_
 _symmetry_equiv_pos_site_id
 _symmetry_equiv_pos_as_xyz
  1  'x, y, z'
loop_
 _atom_site_type_symbol
 _atom_site_label
 _atom_site_symmetry_multiplicity
 _atom_site_fract_x
 _atom_site_fract_y
 _atom_site_fract_z
 _atom_site_occupancy
  Hg  Hg0  1  0.50261097  0.49738897  0.75740900  1
  Hg  Hg1  1  0.00522198  0.50261097  0.25740900  1
  Hg  Hg2  1  0.99477795  0.49738897  0.75740900  1
  Hg  Hg3  1  0.49738894  0.99477795  0.25740900  1
  Hg  Hg4  1  0.49738897  0.50261097  0.25740900  1
  Hg  Hg5  1  0.50261099  0.00522200  0.75740900  1
  Se  Se6  1  0.00000000  0.00000000  0.26563300  1
  Se  Se7  1  0.00000000  0.00000000  0.76563300  1
  Se  Se8  1  0.29850299  0.14925099  0.14523600  1
  Se  Se9  1  0.33333329  0.66666663  0.38268500  1
  Se  Se10  1  0.14925198  0.29850398  0.64523600  1
  Se  Se11  1  0.85074797  0.14925099  0.14523600  1
  Se  Se12  1  0.70149694  0.85074896  0.64523600  1
  Se  Se13  1  0.14925196  0.85074896  0.64523600  1
  Se  Se14  1  0.85074795  0.70149596  0.14523600  1
  Se  Se15  1  0.66666664  0.33333332  0.88268500  1
  I  I16  1  0.33333329  0.66666663  0.96374400  1
  I  I17  1  0.66666664  0.33333332  0.46374400  1
