# generated using pymatgen
data_AgI5
_symmetry_space_group_name_H-M   'P 1'
_cell_length_a   4.48171282
_cell_length_b   6.81523085
_cell_length_c   6.81523085
_cell_angle_alpha   90.00000000
_cell_angle_beta   90.00000000
_cell_angle_gamma   90.00000000
_symmetry_Int_Tables_number   1
_chemical_formula_structural   AgI5
_chemical_formula_sum   'Ag1 I5'
_cell_volume   208.16378017
_cell_formula_units_Z   1
loop_
 _symmetry_equiv_pos_site_id
 _symmetry_equiv_pos_as_xyz
  1  'x, y, z'
loop_
 _atom_site_type_symbol
 _atom_site_label
 _atom_site_symmetry_multiplicity
 _atom_site_fract_x
 _atom_site_fract_y
 _atom_site_fract_z
 _atom_site_occupancy
  Ag  Ag0  1  0.00000000  0.00000000  0.00000000  1
  I  I1  1  0.50000002  0.50000001  0.50000001  1
  I  I2  1  1.00000004  0.30315201  0.30315201  1
  I  I3  1  1.00000004  0.69684802  0.69684802  1
  I  I4  1  0.50000002  0.19684800  0.80315202  1
  I  I5  1  0.50000002  0.80315202  0.19684800  1
