# generated using pymatgen
data_K3BaTe2
_symmetry_space_group_name_H-M   'P 1'
_cell_length_a   5.58805799
_cell_length_b   5.91599035
_cell_length_c   10.99562168
_cell_angle_alpha   83.10736847
_cell_angle_beta   75.27951050
_cell_angle_gamma   61.81732559
_symmetry_Int_Tables_number   1
_chemical_formula_structural   K3BaTe2
_chemical_formula_sum   'K3 Ba1 Te2'
_cell_volume   309.89170262
_cell_formula_units_Z   1
loop_
 _symmetry_equiv_pos_site_id
 _symmetry_equiv_pos_as_xyz
  1  'x, y, z'
loop_
 _atom_site_type_symbol
 _atom_site_label
 _atom_site_symmetry_multiplicity
 _atom_site_fract_x
 _atom_site_fract_y
 _atom_site_fract_z
 _atom_site_occupancy
  K  K0  1  0.68930799  0.65413402  0.87350200  1
  K  K1  1  0.21694399  0.34586601  0.12649800  1
  K  K2  1  0.09344197  0.84586603  0.37350202  1
  Ba  Ba3  1  0.31281000  0.15413400  0.62649800  1
  Te  Te4  1  0.97014802  0.00000000  -0.00000003  1
  Te  Te5  1  0.72014799  0.50000002  0.49999999  1
