# generated using pymatgen
data_In3SnSe10
_symmetry_space_group_name_H-M   'P 1'
_cell_length_a   7.80790424
_cell_length_b   7.80790424
_cell_length_c   7.80790472
_cell_angle_alpha   60.99311829
_cell_angle_beta   60.99311829
_cell_angle_gamma   60.99311829
_symmetry_Int_Tables_number   1
_chemical_formula_structural   In3SnSe10
_chemical_formula_sum   'In3 Sn1 Se10'
_cell_volume   344.10972487
_cell_formula_units_Z   1
loop_
 _symmetry_equiv_pos_site_id
 _symmetry_equiv_pos_as_xyz
  1  'x, y, z'
loop_
 _atom_site_type_symbol
 _atom_site_label
 _atom_site_symmetry_multiplicity
 _atom_site_fract_x
 _atom_site_fract_y
 _atom_site_fract_z
 _atom_site_occupancy
  In  In0  1  0.00000000  0.00000000  0.00000000  1
  In  In1  1  0.49999995  1.00000001  0.00000007  1
  In  In2  1  -0.00000002  0.50000000  0.00000002  1
  Sn  Sn3  1  0.00000000  0.00000000  0.50000001  1
  Se  Se4  1  0.41946698  0.41946700  0.41946704  1
  Se  Se5  1  0.58053297  0.58053300  0.58053306  1
  Se  Se6  1  0.20781797  0.75892601  0.75892605  1
  Se  Se7  1  0.75892599  0.20781800  0.75892605  1
  Se  Se8  1  0.75892596  0.75892601  0.20781807  1
  Se  Se9  1  0.79218198  0.24107400  0.24107404  1
  Se  Se10  1  0.24107397  0.79218201  0.24107405  1
  Se  Se11  1  0.24107399  0.24107400  0.79218203  1
  Se  Se12  1  0.73832696  0.73832701  0.73832707  1
  Se  Se13  1  0.26167299  0.26167300  0.26167303  1
