# generated using pymatgen
data_MgV(GeO3)2
_symmetry_space_group_name_H-M   'P 1'
_cell_length_a   5.24408531
_cell_length_b   6.64890242
_cell_length_c   6.65101528
_cell_angle_alpha   85.80583191
_cell_angle_beta   82.17656708
_cell_angle_gamma   82.23040771
_symmetry_Int_Tables_number   1
_chemical_formula_structural   MgV(GeO3)2
_chemical_formula_sum   'Mg2 V2 Ge4 O12'
_cell_volume   227.28189749
_cell_formula_units_Z   2
loop_
 _symmetry_equiv_pos_site_id
 _symmetry_equiv_pos_as_xyz
  1  'x, y, z'
loop_
 _atom_site_type_symbol
 _atom_site_label
 _atom_site_symmetry_multiplicity
 _atom_site_fract_x
 _atom_site_fract_y
 _atom_site_fract_z
 _atom_site_occupancy
  Mg  Mg0  1  0.25018503  0.26827599  0.73172596  1
  Mg  Mg1  1  0.75012408  0.73163498  0.26819795  1
  V  V2  1  0.25016908  0.90584997  0.09417298  1
  V  V3  1  0.75013103  0.09467800  0.90627193  1
  Ge  Ge4  1  0.21036707  0.79378998  0.60482896  1
  Ge  Ge5  1  0.28963604  0.39518099  0.20640597  1
  Ge  Ge6  1  0.78945204  0.20616799  0.39522995  1
  Ge  Ge7  1  0.71020307  0.60485598  0.79356193  1
  O  O8  1  0.40190406  0.56900698  0.70932195  1
  O  O9  1  0.09786903  0.29053299  0.43111698  1
  O  O10  1  0.59807505  0.43099299  0.29056896  1
  O  O11  1  0.90208809  0.70928898  0.56889993  1
  O  O12  1  0.88363606  0.37420599  0.85835492  1
  O  O13  1  0.61552103  0.14159300  0.62561195  1
  O  O14  1  0.11602405  0.62558698  0.14161398  1
  O  O15  1  0.38405608  0.85836098  0.37420796  1
  O  O16  1  0.13509808  0.97536597  0.79145596  1
  O  O17  1  0.36493903  0.20910599  0.02419298  1
  O  O18  1  0.86518503  0.02437100  0.20876695  1
  O  O19  1  0.63534008  0.79115598  0.97549193  1
