# generated using pymatgen
data_Li2AlAsO4
_symmetry_space_group_name_H-M   'P 1'
_cell_length_a   5.09411192
_cell_length_b   5.46649981
_cell_length_c   6.45705080
_cell_angle_alpha   90.00000000
_cell_angle_beta   90.00000000
_cell_angle_gamma   90.00000000
_symmetry_Int_Tables_number   1
_chemical_formula_structural   Li2AlAsO4
_chemical_formula_sum   'Li4 Al2 As2 O8'
_cell_volume   179.80924708
_cell_formula_units_Z   2
loop_
 _symmetry_equiv_pos_site_id
 _symmetry_equiv_pos_as_xyz
  1  'x, y, z'
loop_
 _atom_site_type_symbol
 _atom_site_label
 _atom_site_symmetry_multiplicity
 _atom_site_fract_x
 _atom_site_fract_y
 _atom_site_fract_z
 _atom_site_occupancy
  Li  Li0  1  0.00014600  0.58233702  0.87562203  1
  Li  Li1  1  0.50014601  0.91766303  0.37562201  1
  Li  Li2  1  0.00014600  0.08233700  0.62437802  1
  Li  Li3  1  0.50014601  0.41766301  0.12437800  1
  Al  Al4  1  0.00455700  0.58107102  0.37386601  1
  Al  Al5  1  0.50455701  0.41892901  0.62613402  1
  As  As6  1  0.50455701  0.91892903  0.87386603  1
  As  As7  1  0.00455700  0.08107100  0.12613400  1
  O  O8  1  0.37259001  0.06883600  0.11246400  1
  O  O9  1  0.37259001  0.56883602  0.38753601  1
  O  O10  1  0.87259001  0.93116403  0.88753603  1
  O  O11  1  0.87259001  0.43116402  0.61246402  1
  O  O12  1  0.89590701  0.40722601  0.13821300  1
  O  O13  1  0.39590701  0.59277402  0.86178703  1
  O  O14  1  0.39590701  0.09277400  0.63821302  1
  O  O15  1  0.89590701  0.90722603  0.36178701  1
