# generated using pymatgen
data_Cs(CS3)2
_symmetry_space_group_name_H-M   'P 1'
_cell_length_a   7.44508696
_cell_length_b   7.44508696
_cell_length_c   7.44508696
_cell_angle_alpha   60.94369888
_cell_angle_beta   60.94369888
_cell_angle_gamma   60.94369507
_symmetry_Int_Tables_number   1
_chemical_formula_structural   Cs(CS3)2
_chemical_formula_sum   'Cs2 C4 S12'
_cell_volume   298.01125768
_cell_formula_units_Z   2
loop_
 _symmetry_equiv_pos_site_id
 _symmetry_equiv_pos_as_xyz
  1  'x, y, z'
loop_
 _atom_site_type_symbol
 _atom_site_label
 _atom_site_symmetry_multiplicity
 _atom_site_fract_x
 _atom_site_fract_y
 _atom_site_fract_z
 _atom_site_occupancy
  Cs  Cs0  1  0.63652401  0.63652403  0.63652394  1
  Cs  Cs1  1  0.36347601  0.36347602  0.36347597  1
  C  C2  1  0.00000000  0.00000000  0.00000000  1
  C  C3  1  -0.00000001  0.50000002  -0.00000001  1
  C  C4  1  0.00000000  0.00000000  0.49999999  1
  C  C5  1  0.50000000  1.00000005  0.99999993  1
  S  S6  1  0.68345803  0.06883800  0.68345796  1
  S  S7  1  0.06888999  0.67050903  0.06888998  1
  S  S8  1  0.68345802  0.68345803  0.06883796  1
  S  S9  1  0.06889000  0.06889000  0.67050898  1
  S  S10  1  0.67050903  0.06889000  0.06888997  1
  S  S11  1  0.06883799  0.68345803  0.68345796  1
  S  S12  1  0.31654200  0.93116204  0.31654195  1
  S  S13  1  0.93111003  0.32949101  0.93110994  1
  S  S14  1  0.31654201  0.31654201  0.93116196  1
  S  S15  1  0.93111002  0.93111004  0.32949093  1
  S  S16  1  0.32949100  0.93111004  0.93110994  1
  S  S17  1  0.93116203  0.31654201  0.31654195  1
