# generated using pymatgen
data_LiCN2
_symmetry_space_group_name_H-M   'P 1'
_cell_length_a   3.79143119
_cell_length_b   3.79143119
_cell_length_c   5.44023180
_cell_angle_alpha   69.60670471
_cell_angle_beta   69.60670471
_cell_angle_gamma   60.00001526
_symmetry_Int_Tables_number   1
_chemical_formula_structural   LiCN2
_chemical_formula_sum   'Li1 C1 N2'
_cell_volume   62.00147500
_cell_formula_units_Z   1
loop_
 _symmetry_equiv_pos_site_id
 _symmetry_equiv_pos_as_xyz
  1  'x, y, z'
loop_
 _atom_site_type_symbol
 _atom_site_label
 _atom_site_symmetry_multiplicity
 _atom_site_fract_x
 _atom_site_fract_y
 _atom_site_fract_z
 _atom_site_occupancy
  Li  Li0  1  0.00012800  0.00012800  0.99961602  1
  C  C1  1  0.42435000  0.42434999  0.72695000  1
  N  N2  1  0.50351100  0.50351099  0.48946699  1
  N  N3  1  0.58301100  0.58301099  0.25096698  1
