# generated using pymatgen
data_Mg2Fe2O5F
_symmetry_space_group_name_H-M   'P 1'
_cell_length_a   5.79063177
_cell_length_b   7.03236151
_cell_length_c   7.03236151
_cell_angle_alpha   67.64287567
_cell_angle_beta   72.29660034
_cell_angle_gamma   72.29660034
_symmetry_Int_Tables_number   1
_chemical_formula_structural   Mg2Fe2O5F
_chemical_formula_sum   'Mg4 Fe4 O10 F2'
_cell_volume   246.46486981
_cell_formula_units_Z   2
loop_
 _symmetry_equiv_pos_site_id
 _symmetry_equiv_pos_as_xyz
  1  'x, y, z'
loop_
 _atom_site_type_symbol
 _atom_site_label
 _atom_site_symmetry_multiplicity
 _atom_site_fract_x
 _atom_site_fract_y
 _atom_site_fract_z
 _atom_site_occupancy
  Mg  Mg0  1  0.75000002  0.93164297  0.06835704  1
  Mg  Mg1  1  0.75000000  0.30790999  0.69209002  1
  Mg  Mg2  1  0.25000000  0.06835700  0.93164300  1
  Mg  Mg3  1  0.25000002  0.69208998  0.30791002  1
  Fe  Fe4  1  0.81267800  0.33937399  0.16735103  1
  Fe  Fe5  1  0.31267800  0.16735100  0.33937401  1
  Fe  Fe6  1  0.68732201  0.83264898  0.66062603  1
  Fe  Fe7  1  0.18732202  0.66062598  0.83264901  1
  O  O8  1  0.88467400  0.20945799  0.93836802  1
  O  O9  1  0.38467402  0.93836797  0.20945802  1
  O  O10  1  0.78454401  0.65445298  0.97253602  1
  O  O11  1  0.93959700  0.31767599  0.41664203  1
  F  F12  1  0.28454402  0.97253597  0.65445302  1
  O  O13  1  0.43959701  0.41664199  0.31767602  1
  O  O14  1  0.56040301  0.58335798  0.68232402  1
  O  O15  1  0.71545599  0.02746400  0.34554702  1
  O  O16  1  0.06040302  0.68232398  0.58335801  1
  F  F17  1  0.21545601  0.34554699  0.02746401  1
  O  O18  1  0.61532599  0.06163200  0.79054201  1
  O  O19  1  0.11532602  0.79054198  0.06163202  1
