# generated using pymatgen
data_Sr4Ta2(CrN3)3
_symmetry_space_group_name_H-M   'P 1'
_cell_length_a   5.83568430
_cell_length_b   6.47296000
_cell_length_c   8.18331337
_cell_angle_alpha   66.70299530
_cell_angle_beta   77.83449554
_cell_angle_gamma   90.00000000
_symmetry_Int_Tables_number   1
_chemical_formula_structural   Sr4Ta2(CrN3)3
_chemical_formula_sum   'Sr4 Ta2 Cr3 N9'
_cell_volume   276.34016402
_cell_formula_units_Z   1
loop_
 _symmetry_equiv_pos_site_id
 _symmetry_equiv_pos_as_xyz
  1  'x, y, z'
loop_
 _atom_site_type_symbol
 _atom_site_label
 _atom_site_symmetry_multiplicity
 _atom_site_fract_x
 _atom_site_fract_y
 _atom_site_fract_z
 _atom_site_occupancy
  Sr  Sr0  1  0.98811103  0.24344700  0.76144204  1
  Sr  Sr1  1  0.48811101  0.99511100  0.76144204  1
  Sr  Sr2  1  0.01188899  0.75655300  0.23855801  1
  Sr  Sr3  1  0.51188902  0.00488900  0.23855802  1
  Ta  Ta4  1  0.08487599  0.80869100  0.61771602  1
  Ta  Ta5  1  0.58487601  0.57359300  0.61771603  1
  Cr  Cr6  1  0.91512403  0.19130900  0.38228403  1
  Cr  Cr7  1  0.25000000  0.48066200  0.00000001  1
  N  N8  1  0.75000002  0.51933800  0.00000001  1
  Cr  Cr9  1  0.41512401  0.42640700  0.38228402  1
  N  N10  1  0.21366001  0.14173000  0.47160402  1
  N  N11  1  0.04482799  0.73552100  0.88337203  1
  N  N12  1  0.45517201  0.61889300  0.11662801  1
  N  N13  1  0.95517203  0.26447900  0.11662802  1
  N  N14  1  0.28634000  0.61333400  0.52839602  1
  N  N15  1  0.78634002  0.85827000  0.52839603  1
  N  N16  1  0.71366002  0.38666600  0.47160403  1
  N  N17  1  0.54482802  0.38110700  0.88337204  1
