# generated using pymatgen
data_Rb2InBr4Cl3
_symmetry_space_group_name_H-M   'P 1'
_cell_length_a   6.31714201
_cell_length_b   7.36564398
_cell_length_c   7.42028522
_cell_angle_alpha   60.24329376
_cell_angle_beta   88.81918335
_cell_angle_gamma   90.00000000
_symmetry_Int_Tables_number   1
_chemical_formula_structural   Rb2InBr4Cl3
_chemical_formula_sum   'Rb2 In1 Br4 Cl3'
_cell_volume   299.65373921
_cell_formula_units_Z   1
loop_
 _symmetry_equiv_pos_site_id
 _symmetry_equiv_pos_as_xyz
  1  'x, y, z'
loop_
 _atom_site_type_symbol
 _atom_site_label
 _atom_site_symmetry_multiplicity
 _atom_site_fract_x
 _atom_site_fract_y
 _atom_site_fract_z
 _atom_site_occupancy
  Rb  Rb0  1  0.74664798  0.66705401  0.66589205  1
  Rb  Rb1  1  0.25335199  0.33294600  0.33410802  1
  In  In2  1  0.50000000  0.00000000  0.00000003  1
  Cl  Cl3  1  0.00000000  0.00000000  0.00000000  1
  Br  Br4  1  0.23087397  0.84596901  0.84992302  1
  Br  Br5  1  0.76912598  0.69589201  0.15007704  1
  Cl  Cl6  1  0.76912600  0.15403100  0.15007704  1
  Br  Br7  1  0.23087399  0.30410800  0.84992303  1
  Cl  Cl8  1  0.70631200  0.15762700  0.68474605  1
  Br  Br9  1  0.29368797  0.84237301  0.31525401  1
