# generated using pymatgen
data_Cs2H7F3
_symmetry_space_group_name_H-M   'P 1'
_cell_length_a   4.96859932
_cell_length_b   4.96859932
_cell_length_c   9.18445492
_cell_angle_alpha   74.30660248
_cell_angle_beta   74.30660248
_cell_angle_gamma   60.00001144
_symmetry_Int_Tables_number   1
_chemical_formula_structural   Cs2H7F3
_chemical_formula_sum   'Cs2 H7 F3'
_cell_volume   186.53611442
_cell_formula_units_Z   1
loop_
 _symmetry_equiv_pos_site_id
 _symmetry_equiv_pos_as_xyz
  1  'x, y, z'
loop_
 _atom_site_type_symbol
 _atom_site_label
 _atom_site_symmetry_multiplicity
 _atom_site_fract_x
 _atom_site_fract_y
 _atom_site_fract_z
 _atom_site_occupancy
  Cs  Cs0  1  0.50000002  0.49999999  0.49999998  1
  Cs  Cs1  1  0.00000000  0.00000000  0.00000000  1
  H  H2  1  0.25827401  0.25827399  0.22517799  1
  H  H3  1  0.74172603  0.74172598  0.77482197  1
  H  H4  1  0.43200503  0.73294798  0.83259399  1
  H  H5  1  0.00245302  0.43200499  0.83259401  1
  H  H6  1  0.99754701  0.26705199  0.16740596  1
  H  H7  1  0.73294800  0.00245300  0.83259400  1
  F  F8  1  0.26705203  0.56799499  0.16740598  1
  F  F9  1  0.56799505  0.99754698  0.16740595  1
  H  H10  1  0.20233301  0.20233300  0.39300100  1
  F  F11  1  0.79766704  0.79766698  0.60699896  1
