# generated using pymatgen
data_KBeH3
_symmetry_space_group_name_H-M   'P 1'
_cell_length_a   5.41686010
_cell_length_b   6.96727514
_cell_length_c   8.84305573
_cell_angle_alpha   112.18064880
_cell_angle_beta   90.00000000
_cell_angle_gamma   90.00000000
_symmetry_Int_Tables_number   1
_chemical_formula_structural   KBeH3
_chemical_formula_sum   'K4 Be4 H12'
_cell_volume   309.04595198
_cell_formula_units_Z   4
loop_
 _symmetry_equiv_pos_site_id
 _symmetry_equiv_pos_as_xyz
  1  'x, y, z'
loop_
 _atom_site_type_symbol
 _atom_site_label
 _atom_site_symmetry_multiplicity
 _atom_site_fract_x
 _atom_site_fract_y
 _atom_site_fract_z
 _atom_site_occupancy
  K  K0  1  0.73711999  0.69214197  0.17625697  1
  K  K1  1  0.23712000  0.30785799  0.32374299  1
  K  K2  1  0.76287999  0.69214197  0.67625697  1
  K  K3  1  0.26287999  0.30785799  0.82374298  1
  Be  Be4  1  0.77739199  0.17694099  0.02494599  1
  Be  Be5  1  0.27739199  0.82305897  0.47505397  1
  Be  Be6  1  0.72260799  0.17694099  0.52494599  1
  Be  Be7  1  0.22260800  0.82305897  0.97505396  1
  H  H8  1  0.15690800  0.90821497  0.15363697  1
  H  H9  1  0.52230199  0.27224399  0.04334099  1
  H  H10  1  0.95603398  0.35699799  0.10687399  1
  H  H11  1  0.45603399  0.64300198  0.39312597  1
  H  H12  1  0.02230200  0.72775597  0.45665897  1
  H  H13  1  0.65690799  0.09178500  0.34636299  1
  H  H14  1  0.34309199  0.90821497  0.65363696  1
  H  H15  1  0.97769798  0.27224399  0.54334099  1
  H  H16  1  0.54396599  0.35699799  0.60687398  1
  H  H17  1  0.04396600  0.64300198  0.89312597  1
  H  H18  1  0.47769799  0.72775597  0.95665897  1
  H  H19  1  0.84309198  0.09178500  0.84636299  1
