# generated using pymatgen
data_Mg2B2CO
_symmetry_space_group_name_H-M   'P 1'
_cell_length_a   2.93420196
_cell_length_b   2.93420243
_cell_length_c   7.80370808
_cell_angle_alpha   90.00000000
_cell_angle_beta   90.00000000
_cell_angle_gamma   119.99999237
_symmetry_Int_Tables_number   1
_chemical_formula_structural   Mg2B2CO
_chemical_formula_sum   'Mg2 B2 C1 O1'
_cell_volume   58.18509596
_cell_formula_units_Z   1
loop_
 _symmetry_equiv_pos_site_id
 _symmetry_equiv_pos_as_xyz
  1  'x, y, z'
loop_
 _atom_site_type_symbol
 _atom_site_label
 _atom_site_symmetry_multiplicity
 _atom_site_fract_x
 _atom_site_fract_y
 _atom_site_fract_z
 _atom_site_occupancy
  Mg  Mg0  1  0.33333331  0.66666666  0.74999999  1
  Mg  Mg1  1  0.66666666  0.33333333  0.25000000  1
  B  B2  1  0.00000000  0.00000000  0.59000599  1
  B  B3  1  0.00000000  0.00000000  0.40999400  1
  C  C4  1  0.00000000  0.00000000  0.09000600  1
  O  O5  1  0.00000000  0.00000000  0.90999399  1
