# generated using pymatgen
data_Li3Mg3Br8
_symmetry_space_group_name_H-M   'P 1'
_cell_length_a   7.87432575
_cell_length_b   7.87432575
_cell_length_c   7.87432575
_cell_angle_alpha   60.00000000
_cell_angle_beta   60.00000000
_cell_angle_gamma   60.00000000
_symmetry_Int_Tables_number   1
_chemical_formula_structural   Li3Mg3Br8
_chemical_formula_sum   'Li3 Mg3 Br8'
_cell_volume   345.24320012
_cell_formula_units_Z   1
loop_
 _symmetry_equiv_pos_site_id
 _symmetry_equiv_pos_as_xyz
  1  'x, y, z'
loop_
 _atom_site_type_symbol
 _atom_site_label
 _atom_site_symmetry_multiplicity
 _atom_site_fract_x
 _atom_site_fract_y
 _atom_site_fract_z
 _atom_site_occupancy
  Mg  Mg0  1  0.37499999  0.37499999  0.37499999  1
  Mg  Mg1  1  0.37499999  0.87499998  0.37499999  1
  Mg  Mg2  1  0.37499999  0.37499999  0.87499998  1
  Li  Li3  1  0.87499998  0.37499999  0.37499999  1
  Li  Li4  1  0.00000000  0.00000000  0.00000000  1
  Li  Li5  1  0.74999998  0.74999998  0.74999998  1
  Br  Br6  1  0.13955900  0.62014698  0.62014698  1
  Br  Br7  1  0.62014698  0.62014698  0.13955900  1
  Br  Br8  1  0.62014698  0.62014698  0.62014698  1
  Br  Br9  1  0.62014698  0.13955900  0.62014698  1
  Br  Br10  1  0.12985300  0.61044099  0.12985300  1
  Br  Br11  1  0.12985300  0.12985300  0.12985300  1
  Br  Br12  1  0.12985300  0.12985300  0.61044099  1
  Br  Br13  1  0.61044099  0.12985300  0.12985300  1
