# generated using pymatgen
data_TlCO3
_symmetry_space_group_name_H-M   'P 1'
_cell_length_a   5.67559385
_cell_length_b   6.95963478
_cell_length_c   7.79946804
_cell_angle_alpha   90.00000000
_cell_angle_beta   90.00000000
_cell_angle_gamma   90.00000000
_symmetry_Int_Tables_number   1
_chemical_formula_structural   TlCO3
_chemical_formula_sum   'Tl4 C4 O12'
_cell_volume   308.07945854
_cell_formula_units_Z   4
loop_
 _symmetry_equiv_pos_site_id
 _symmetry_equiv_pos_as_xyz
  1  'x, y, z'
loop_
 _atom_site_type_symbol
 _atom_site_label
 _atom_site_symmetry_multiplicity
 _atom_site_fract_x
 _atom_site_fract_y
 _atom_site_fract_z
 _atom_site_occupancy
  Tl  Tl0  1  0.25000001  0.80900303  0.98351999  1
  Tl  Tl1  1  0.75000002  0.19099701  0.01648000  1
  Tl  Tl2  1  0.75000002  0.30900301  0.51648000  1
  Tl  Tl3  1  0.25000001  0.69099702  0.48352000  1
  C  C4  1  0.25000001  0.35933101  0.84596200  1
  C  C5  1  0.75000002  0.64066902  0.15403800  1
  C  C6  1  0.75000002  0.85933103  0.65403800  1
  C  C7  1  0.25000001  0.14066900  0.34596200  1
  O  O8  1  0.55633201  0.93518003  0.70025000  1
  O  O9  1  0.05633200  0.06482000  0.29975000  1
  O  O10  1  0.44366801  0.43518001  0.79975000  1
  O  O11  1  0.94366802  0.56482002  0.20025000  1
  O  O12  1  0.25000001  0.28802101  0.44106800  1
  O  O13  1  0.75000002  0.71197902  0.55893200  1
  O  O14  1  0.75000002  0.78802102  0.05893200  1
  O  O15  1  0.25000001  0.21197901  0.94106800  1
  O  O16  1  0.44366801  0.06482000  0.29975000  1
  O  O17  1  0.94366802  0.93518003  0.70025000  1
  O  O18  1  0.55633201  0.56482002  0.20025000  1
  O  O19  1  0.05633200  0.43518001  0.79975000  1
