# generated using pymatgen
data_Fe2As3Se
_symmetry_space_group_name_H-M   'P 1'
_cell_length_a   5.85166216
_cell_length_b   5.85166216
_cell_length_c   5.85166216
_cell_angle_alpha   90.00000000
_cell_angle_beta   90.00000000
_cell_angle_gamma   90.00000000
_symmetry_Int_Tables_number   1
_chemical_formula_structural   Fe2As3Se
_chemical_formula_sum   'Fe4 As6 Se2'
_cell_volume   200.37232320
_cell_formula_units_Z   2
loop_
 _symmetry_equiv_pos_site_id
 _symmetry_equiv_pos_as_xyz
  1  'x, y, z'
loop_
 _atom_site_type_symbol
 _atom_site_label
 _atom_site_symmetry_multiplicity
 _atom_site_fract_x
 _atom_site_fract_y
 _atom_site_fract_z
 _atom_site_occupancy
  Fe  Fe0  1  0.11621900  0.88378098  0.38378099  1
  Fe  Fe1  1  0.88378098  0.38378099  0.11621900  1
  Fe  Fe2  1  0.38378099  0.11621900  0.88378098  1
  Fe  Fe3  1  0.61621898  0.61621898  0.61621898  1
  As  As4  1  0.49690699  0.50309299  0.00309300  1
  As  As5  1  0.50309299  0.00309300  0.49690699  1
  As  As6  1  0.00309300  0.49690699  0.50309299  1
  As  As7  1  0.99690697  0.99690697  0.99690697  1
  Se  Se8  1  0.88676898  0.11323100  0.61323098  1
  As  As9  1  0.11323100  0.61323098  0.88676898  1
  Se  Se10  1  0.61323098  0.88676898  0.11323100  1
  As  As11  1  0.38676899  0.38676899  0.38676899  1
