# generated using pymatgen
data_K3Sn3Te10
_symmetry_space_group_name_H-M   'P 1'
_cell_length_a   8.47852230
_cell_length_b   9.62016678
_cell_length_c   8.47852230
_cell_angle_alpha   116.14625549
_cell_angle_beta   90.00000000
_cell_angle_gamma   116.14625549
_symmetry_Int_Tables_number   1
_chemical_formula_structural   K3Sn3Te10
_chemical_formula_sum   'K3 Sn3 Te10'
_cell_volume   540.83835800
_cell_formula_units_Z   1
loop_
 _symmetry_equiv_pos_site_id
 _symmetry_equiv_pos_as_xyz
  1  'x, y, z'
loop_
 _atom_site_type_symbol
 _atom_site_label
 _atom_site_symmetry_multiplicity
 _atom_site_fract_x
 _atom_site_fract_y
 _atom_site_fract_z
 _atom_site_occupancy
  K  K0  1  0.74999998  0.49999999  0.74999999  1
  K  K1  1  0.25000000  0.49999999  0.25000000  1
  K  K2  1  0.32297699  0.00000000  0.17702299  1
  Sn  Sn3  1  0.67702298  0.00000000  0.82297697  1
  Sn  Sn4  1  0.17702299  0.00000000  0.67702298  1
  Sn  Sn5  1  0.82297699  0.99999997  0.32297701  1
  Te  Te6  1  0.70356599  0.73239098  0.52882500  1
  Te  Te7  1  0.29643400  0.26760899  0.47117499  1
  Te  Te8  1  0.02882502  0.73239098  0.20356601  1
  Te  Te9  1  0.97117497  0.26760899  0.79643398  1
  Te  Te10  1  0.00000000  0.00000000  0.00000000  1
  Te  Te11  1  0.49999998  0.00000000  0.49999998  1
  Te  Te12  1  0.47117499  0.26760899  0.97117497  1
  Te  Te13  1  0.52882500  0.73239098  0.02882502  1
  Te  Te14  1  0.79643398  0.26760899  0.29643400  1
  Te  Te15  1  0.20356601  0.73239098  0.70356599  1
