# generated using pymatgen
data_LiVF10
_symmetry_space_group_name_H-M   'P 1'
_cell_length_a   5.25778484
_cell_length_b   6.14154673
_cell_length_c   6.43487024
_cell_angle_alpha   102.42066193
_cell_angle_beta   93.00685883
_cell_angle_gamma   98.96270752
_symmetry_Int_Tables_number   1
_chemical_formula_structural   LiVF10
_chemical_formula_sum   'Li1 V1 F10'
_cell_volume   199.64944305
_cell_formula_units_Z   1
loop_
 _symmetry_equiv_pos_site_id
 _symmetry_equiv_pos_as_xyz
  1  'x, y, z'
loop_
 _atom_site_type_symbol
 _atom_site_label
 _atom_site_symmetry_multiplicity
 _atom_site_fract_x
 _atom_site_fract_y
 _atom_site_fract_z
 _atom_site_occupancy
  Li  Li0  1  0.86521504  0.25739600  0.78535202  1
  V  V1  1  0.13478504  0.74260399  0.21464801  1
  F  F2  1  0.65857802  0.00451100  0.73969701  1
  F  F3  1  0.34142206  0.99548898  0.26030303  1
  F  F4  1  0.17805601  0.16483900  0.86277799  1
  F  F5  1  0.14524804  0.62304599  0.90514100  1
  F  F6  1  0.63173704  0.45352899  0.74588202  1
  F  F7  1  0.98143504  0.26269500  0.51392003  1
  F  F8  1  0.01856504  0.73730499  0.48608000  1
  F  F9  1  0.36826304  0.54647099  0.25411802  1
  F  F10  1  0.85475305  0.37695399  0.09485904  1
  F  F11  1  0.82194407  0.83516099  0.13722205  1
