# generated using pymatgen
data_MnBr
_symmetry_space_group_name_H-M   'P 1'
_cell_length_a   4.25380802
_cell_length_b   4.25380802
_cell_length_c   6.88526678
_cell_angle_alpha   90.00000000
_cell_angle_beta   90.00000000
_cell_angle_gamma   120.00000000
_symmetry_Int_Tables_number   1
_chemical_formula_structural   MnBr
_chemical_formula_sum   'Mn2 Br2'
_cell_volume   107.89645497
_cell_formula_units_Z   2
loop_
 _symmetry_equiv_pos_site_id
 _symmetry_equiv_pos_as_xyz
  1  'x, y, z'
loop_
 _atom_site_type_symbol
 _atom_site_label
 _atom_site_symmetry_multiplicity
 _atom_site_fract_x
 _atom_site_fract_y
 _atom_site_fract_z
 _atom_site_occupancy
  Mn  Mn0  1  0.33333335  0.66666670  0.50124302  1
  Mn  Mn1  1  0.66666667  0.33333335  0.00124300  1
  Br  Br2  1  0.33333335  0.66666670  0.12375700  1
  Br  Br3  1  0.66666667  0.33333335  0.62375702  1
