# generated using pymatgen
data_Ce3Zr3O13
_symmetry_space_group_name_H-M   'P 1'
_cell_length_a   6.54346228
_cell_length_b   6.54346228
_cell_length_c   6.54346132
_cell_angle_alpha   98.42520905
_cell_angle_beta   98.42520905
_cell_angle_gamma   98.42520905
_symmetry_Int_Tables_number   1
_chemical_formula_structural   Ce3Zr3O13
_chemical_formula_sum   'Ce3 Zr3 O13'
_cell_volume   270.08608394
_cell_formula_units_Z   1
loop_
 _symmetry_equiv_pos_site_id
 _symmetry_equiv_pos_as_xyz
  1  'x, y, z'
loop_
 _atom_site_type_symbol
 _atom_site_label
 _atom_site_symmetry_multiplicity
 _atom_site_fract_x
 _atom_site_fract_y
 _atom_site_fract_z
 _atom_site_occupancy
  Ce  Ce0  1  0.39464795  0.69518997  0.86521100  1
  Ce  Ce1  1  0.30480998  0.13478899  0.60535199  1
  Ce  Ce2  1  0.13478897  0.60535197  0.30481000  1
  Zr  Zr3  1  0.86521095  0.39464798  0.69519000  1
  Zr  Zr4  1  0.69518994  0.86521096  0.39464801  1
  Zr  Zr5  1  0.60535197  0.30480999  0.13478901  1
  O  O6  1  0.00000000  0.00000000  0.00000000  1
  O  O7  1  0.03215897  0.70766997  0.91850899  1
  O  O8  1  0.29232999  0.08149100  0.96784099  1
  O  O9  1  0.17430997  0.41951498  0.60233499  1
  O  O10  1  0.58048496  0.39766498  0.82569000  1
  O  O11  1  0.08149095  0.96784096  0.29233001  1
  O  O12  1  0.39766495  0.82568997  0.58048500  1
  O  O13  1  0.60233497  0.17430999  0.41951500  1
  O  O14  1  0.91850897  0.03215900  0.70767000  1
  O  O15  1  0.41951496  0.60233498  0.17431001  1
  O  O16  1  0.82568995  0.58048498  0.39766501  1
  O  O17  1  0.70766993  0.91850896  0.03215902  1
  O  O18  1  0.96784095  0.29232999  0.08149102  1
