# generated using pymatgen
data_Mg3Se4
_symmetry_space_group_name_H-M   'P 1'
_cell_length_a   7.50531054
_cell_length_b   7.50531054
_cell_length_c   7.51231098
_cell_angle_alpha   60.03082275
_cell_angle_beta   60.03082275
_cell_angle_gamma   59.99999619
_symmetry_Int_Tables_number   1
_chemical_formula_structural   Mg3Se4
_chemical_formula_sum   'Mg6 Se8'
_cell_volume   299.36295300
_cell_formula_units_Z   2
loop_
 _symmetry_equiv_pos_site_id
 _symmetry_equiv_pos_as_xyz
  1  'x, y, z'
loop_
 _atom_site_type_symbol
 _atom_site_label
 _atom_site_symmetry_multiplicity
 _atom_site_fract_x
 _atom_site_fract_y
 _atom_site_fract_z
 _atom_site_occupancy
  Mg  Mg0  1  0.49999998  0.49999999  0.50000001  1
  Mg  Mg1  1  0.88277897  0.88277898  0.35166302  1
  Mg  Mg2  1  0.11722100  0.11722100  0.64833700  1
  Mg  Mg3  1  -0.00000001  0.49999999  0.00000001  1
  Mg  Mg4  1  0.49999998  0.49999999  0.00000001  1
  Mg  Mg5  1  0.49999998  0.99999998  0.00000002  1
  Se  Se6  1  0.24911499  0.24911500  0.76274201  1
  Se  Se7  1  0.24911499  0.73902799  0.76274202  1
  Se  Se8  1  0.26097199  0.75088499  0.23725802  1
  Se  Se9  1  0.75052198  0.75052199  0.74843402  1
  Se  Se10  1  0.75088498  0.75088499  0.23725802  1
  Se  Se11  1  0.75088498  0.26097200  0.23725801  1
  Se  Se12  1  0.73902798  0.24911500  0.76274201  1
  Se  Se13  1  0.24947799  0.24947800  0.25156601  1
