# generated using pymatgen
data_SrLa5Te7PtS6
_symmetry_space_group_name_H-M   'P 1'
_cell_length_a   8.56574821
_cell_length_b   8.56574821
_cell_length_c   8.56574821
_cell_angle_alpha   109.47122192
_cell_angle_beta   109.47122192
_cell_angle_gamma   109.47122192
_symmetry_Int_Tables_number   1
_chemical_formula_structural   SrLa5Te7PtS6
_chemical_formula_sum   'Sr1 La5 Te7 Pt1 S6'
_cell_volume   483.80906543
_cell_formula_units_Z   1
loop_
 _symmetry_equiv_pos_site_id
 _symmetry_equiv_pos_as_xyz
  1  'x, y, z'
loop_
 _atom_site_type_symbol
 _atom_site_label
 _atom_site_symmetry_multiplicity
 _atom_site_fract_x
 _atom_site_fract_y
 _atom_site_fract_z
 _atom_site_occupancy
  La  La0  1  0.87500001  0.12500000  0.75000002  1
  La  La1  1  0.62500002  0.37500001  0.25000003  1
  La  La2  1  0.12500002  0.25000001  0.37500001  1
  La  La3  1  0.37500005  0.75000002  0.12500005  1
  La  La4  1  0.75000004  0.62500002  0.87500005  1
  Sr  Sr5  1  0.25000006  0.87500003  0.62500005  1
  Te  Te6  1  0.37500004  0.62500002  0.75000004  1
  Te  Te7  1  0.12500006  0.87500003  0.25000005  1
  Te  Te8  1  0.62500002  0.25000001  0.87500002  1
  Te  Te9  1  0.87500005  0.75000002  0.62500006  1
  Pt  Pt10  1  0.75000001  0.12500000  0.37500002  1
  Te  Te11  1  0.25000002  0.37500001  0.12500003  1
  Te  Te12  1  1.00000003  0.50000002  0.65942605  1
  Te  Te13  1  0.34057402  0.34057401  0.84057402  1
  S  S14  1  0.50000001  0.15942601  0.50000002  1
  S  S15  1  0.15942600  0.00000000  1.00000000  1
  S  S16  1  0.84057405  0.84057403  0.34057406  1
  S  S17  1  1.00000003  0.50000002  0.15942605  1
  S  S18  1  0.50000004  0.65942602  0.50000004  1
  S  S19  1  0.65942606  1.00000003  1.00000006  1
