# generated using pymatgen
data_K2As2Pt
_symmetry_space_group_name_H-M   'P 1'
_cell_length_a   6.31885004
_cell_length_b   6.64700794
_cell_length_c   7.90267849
_cell_angle_alpha   65.13042450
_cell_angle_beta   90.00000000
_cell_angle_gamma   90.00000000
_symmetry_Int_Tables_number   1
_chemical_formula_structural   K2As2Pt
_chemical_formula_sum   'K4 As4 Pt2'
_cell_volume   301.14377808
_cell_formula_units_Z   2
loop_
 _symmetry_equiv_pos_site_id
 _symmetry_equiv_pos_as_xyz
  1  'x, y, z'
loop_
 _atom_site_type_symbol
 _atom_site_label
 _atom_site_symmetry_multiplicity
 _atom_site_fract_x
 _atom_site_fract_y
 _atom_site_fract_z
 _atom_site_occupancy
  K  K0  1  0.75000000  0.78767000  0.42466001  1
  K  K1  1  0.25000000  0.21233000  0.57534000  1
  K  K2  1  0.75000000  0.42006300  0.15987401  1
  K  K3  1  0.25000000  0.57993700  0.84012601  1
  As  As4  1  0.75000000  0.26751300  0.79493500  1
  As  As5  1  0.25000000  0.73248700  0.20506501  1
  As  As6  1  0.75000000  0.93755200  0.79493501  1
  As  As7  1  0.25000000  0.06244800  0.20506500  1
  Pt  Pt8  1  0.00000000  0.00000000  0.00000000  1
  Pt  Pt9  1  0.50000000  0.00000000  0.00000000  1
