# generated using pymatgen
data_Sr2TaCrO6
_symmetry_space_group_name_H-M   'P 1'
_cell_length_a   5.61202669
_cell_length_b   5.61579418
_cell_length_c   5.68593836
_cell_angle_alpha   119.58331299
_cell_angle_beta   119.56148529
_cell_angle_gamma   90.01661682
_symmetry_Int_Tables_number   1
_chemical_formula_structural   Sr2TaCrO6
_chemical_formula_sum   'Sr2 Ta1 Cr1 O6'
_cell_volume   128.31484748
_cell_formula_units_Z   1
loop_
 _symmetry_equiv_pos_site_id
 _symmetry_equiv_pos_as_xyz
  1  'x, y, z'
loop_
 _atom_site_type_symbol
 _atom_site_label
 _atom_site_symmetry_multiplicity
 _atom_site_fract_x
 _atom_site_fract_y
 _atom_site_fract_z
 _atom_site_occupancy
  Sr  Sr0  1  0.75004301  0.25004298  0.50008599  1
  Sr  Sr1  1  0.24995698  0.74995695  0.49991396  1
  Ta  Ta2  1  0.00000000  0.00000000  0.00000000  1
  Cr  Cr3  1  0.50000000  0.49999997  -0.00000003  1
  O  O4  1  0.25972000  0.25971998  0.51943999  1
  O  O5  1  0.74027999  0.74027995  0.48055997  1
  O  O6  1  0.69578799  0.78717995  0.99999997  1
  O  O7  1  0.30421200  0.21281999  1.00000000  1
  O  O8  1  0.78687301  0.30435198  0.99999999  1
  O  O9  1  0.21312698  0.69564796  -0.00000004  1
