# generated using pymatgen
data_CaN2
_symmetry_space_group_name_H-M   'P 1'
_cell_length_a   4.20907211
_cell_length_b   4.20907211
_cell_length_c   7.22202730
_cell_angle_alpha   73.05789185
_cell_angle_beta   73.05789185
_cell_angle_gamma   59.99999619
_symmetry_Int_Tables_number   1
_chemical_formula_structural   CaN2
_chemical_formula_sum   'Ca2 N4'
_cell_volume   104.34454518
_cell_formula_units_Z   2
loop_
 _symmetry_equiv_pos_site_id
 _symmetry_equiv_pos_as_xyz
  1  'x, y, z'
loop_
 _atom_site_type_symbol
 _atom_site_label
 _atom_site_symmetry_multiplicity
 _atom_site_fract_x
 _atom_site_fract_y
 _atom_site_fract_z
 _atom_site_occupancy
  Ca  Ca0  1  0.37199800  0.37199801  0.88400602  1
  Ca  Ca1  1  0.87887700  0.87887702  0.36336899  1
  N  N2  1  0.99731400  0.99731403  0.00805798  1
  N  N3  1  0.50107000  0.50107001  0.49679000  1
  N  N4  1  0.12335200  0.12335200  0.62994401  1
  N  N5  1  0.62738900  0.62738902  0.11783299  1
