# generated using pymatgen
data_SrNdSnS6
_symmetry_space_group_name_H-M   'P 1'
_cell_length_a   7.56449986
_cell_length_b   8.56477928
_cell_length_c   7.67981195
_cell_angle_alpha   116.63703156
_cell_angle_beta   90.00000000
_cell_angle_gamma   116.20633698
_symmetry_Int_Tables_number   1
_chemical_formula_structural   SrNdSnS6
_chemical_formula_sum   'Sr2 Nd2 Sn2 S12'
_cell_volume   386.68550009
_cell_formula_units_Z   2
loop_
 _symmetry_equiv_pos_site_id
 _symmetry_equiv_pos_as_xyz
  1  'x, y, z'
loop_
 _atom_site_type_symbol
 _atom_site_label
 _atom_site_symmetry_multiplicity
 _atom_site_fract_x
 _atom_site_fract_y
 _atom_site_fract_z
 _atom_site_occupancy
  Sr  Sr0  1  0.50000001  0.00000000  0.78230900  1
  Sr  Sr1  1  0.00000000  0.00000000  0.28230900  1
  Nd  Nd2  1  0.38428401  0.50000000  0.91594305  1
  Nd  Nd3  1  0.61571602  0.50000000  0.41594304  1
  Sn  Sn4  1  0.50000001  0.00000000  0.31666200  1
  Sn  Sn5  1  0.00000000  0.00000000  0.81666200  1
  S  S6  1  0.07917401  0.50000000  0.24744004  1
  S  S7  1  0.92082602  0.50000000  0.74744005  1
  S  S8  1  0.76243702  0.20261600  0.21585302  1
  S  S9  1  0.23756301  0.79738400  0.01323807  1
  S  S10  1  0.05982001  0.79738300  0.51323707  1
  S  S11  1  0.94018002  0.20261700  0.71585402  1
  S  S12  1  0.57488502  0.78945100  0.34976807  1
  S  S13  1  0.42511501  0.21054900  0.56031702  1
  S  S14  1  0.28543401  0.21055000  0.06031802  1
  S  S15  1  0.71456602  0.78945000  0.84976707  1
  S  S16  1  0.24193601  0.50000000  0.53316904  1
  S  S17  1  0.75806502  0.50000100  0.03317004  1
