# generated using pymatgen
data_LiTaMn4O8
_symmetry_space_group_name_H-M   'P 1'
_cell_length_a   6.07813406
_cell_length_b   6.07991028
_cell_length_c   6.09686470
_cell_angle_alpha   61.78488922
_cell_angle_beta   86.90844727
_cell_angle_gamma   118.12699127
_symmetry_Int_Tables_number   1
_chemical_formula_structural   LiTaMn4O8
_chemical_formula_sum   'Li1 Ta1 Mn4 O8'
_cell_volume   163.60471162
_cell_formula_units_Z   1
loop_
 _symmetry_equiv_pos_site_id
 _symmetry_equiv_pos_as_xyz
  1  'x, y, z'
loop_
 _atom_site_type_symbol
 _atom_site_label
 _atom_site_symmetry_multiplicity
 _atom_site_fract_x
 _atom_site_fract_y
 _atom_site_fract_z
 _atom_site_occupancy
  Li  Li0  1  0.87283499  0.24504799  0.87745400  1
  Ta  Ta1  1  0.12711796  0.75489796  0.12247501  1
  Mn  Mn2  1  0.99999295  0.99998495  0.49999900  1
  Mn  Mn3  1  0.49994197  0.49995798  0.50004300  1
  Mn  Mn4  1  0.50005897  0.50006398  0.00000899  1
  Mn  Mn5  1  0.50003200  0.00005600  0.49996800  1
  O  O6  1  0.26202800  0.07352200  0.23782200  1
  O  O7  1  0.23910700  0.00505900  0.68878301  1
  O  O8  1  0.31418597  0.50770998  0.25858400  1
  O  O9  1  0.30597297  0.57233797  0.68938202  1
  O  O10  1  0.68585498  0.49233298  0.74150200  1
  O  O11  1  0.76093795  0.99493195  0.31113900  1
  O  O12  1  0.69391298  0.42768098  0.31076299  1
  O  O13  1  0.73802095  0.92641695  0.76207701  1
