# generated using pymatgen
data_U2Br2Cl
_symmetry_space_group_name_H-M   'P 1'
_cell_length_a   6.68642807
_cell_length_b   6.68642807
_cell_length_c   6.68642807
_cell_angle_alpha   90.00000000
_cell_angle_beta   90.00000000
_cell_angle_gamma   90.00000000
_symmetry_Int_Tables_number   1
_chemical_formula_structural   U2Br2Cl
_chemical_formula_sum   'U2 Br2 Cl1'
_cell_volume   298.93896806
_cell_formula_units_Z   1
loop_
 _symmetry_equiv_pos_site_id
 _symmetry_equiv_pos_as_xyz
  1  'x, y, z'
loop_
 _atom_site_type_symbol
 _atom_site_label
 _atom_site_symmetry_multiplicity
 _atom_site_fract_x
 _atom_site_fract_y
 _atom_site_fract_z
 _atom_site_occupancy
  U  U0  1  0.00000000  0.00000000  0.00000000  1
  U  U1  1  0.23390300  0.76609699  0.76609699  1
  Br  Br2  1  0.76609699  0.23390300  0.76609699  1
  Cl  Cl3  1  0.76609699  0.76609699  0.23390300  1
  Br  Br4  1  0.23390300  0.23390300  0.23390300  1
