# generated using pymatgen
data_KCuTe2
_symmetry_space_group_name_H-M   'P 1'
_cell_length_a   6.81969595
_cell_length_b   6.95358992
_cell_length_c   6.95358992
_cell_angle_alpha   76.08601379
_cell_angle_beta   60.63494492
_cell_angle_gamma   60.63494492
_symmetry_Int_Tables_number   1
_chemical_formula_structural   KCuTe2
_chemical_formula_sum   'K2 Cu2 Te4'
_cell_volume   250.45571986
_cell_formula_units_Z   2
loop_
 _symmetry_equiv_pos_site_id
 _symmetry_equiv_pos_as_xyz
  1  'x, y, z'
loop_
 _atom_site_type_symbol
 _atom_site_label
 _atom_site_symmetry_multiplicity
 _atom_site_fract_x
 _atom_site_fract_y
 _atom_site_fract_z
 _atom_site_occupancy
  K  K0  1  0.25000000  0.00000000  0.99999998  1
  K  K1  1  0.74999999  0.00000000  0.00000002  1
  Cu  Cu2  1  0.75000000  0.49999998  0.50000002  1
  Cu  Cu3  1  0.25000001  0.49999998  0.50000001  1
  Te  Te4  1  0.32867302  0.84265396  0.50000002  1
  Te  Te5  1  0.82867300  0.49999998  0.84265402  1
  Te  Te6  1  0.17132701  0.49999998  0.15734601  1
  Te  Te7  1  0.67132700  0.15734599  0.50000001  1
