# generated using pymatgen
data_K8Sn7Sb
_symmetry_space_group_name_H-M   'P 1'
_cell_length_a   7.08261299
_cell_length_b   7.54190207
_cell_length_c   14.09632015
_cell_angle_alpha   90.00000000
_cell_angle_beta   90.00000000
_cell_angle_gamma   90.00000000
_symmetry_Int_Tables_number   1
_chemical_formula_structural   K8Sn7Sb
_chemical_formula_sum   'K8 Sn7 Sb1'
_cell_volume   752.97430289
_cell_formula_units_Z   1
loop_
 _symmetry_equiv_pos_site_id
 _symmetry_equiv_pos_as_xyz
  1  'x, y, z'
loop_
 _atom_site_type_symbol
 _atom_site_label
 _atom_site_symmetry_multiplicity
 _atom_site_fract_x
 _atom_site_fract_y
 _atom_site_fract_z
 _atom_site_occupancy
  K  K0  1  0.16603300  0.00000000  0.75382899  1
  K  K1  1  0.16603300  0.00000000  0.24617100  1
  K  K2  1  0.43549100  0.50000000  0.49999999  1
  K  K3  1  0.56450900  0.00000000  0.00000000  1
  K  K4  1  0.83396700  0.50000000  0.25382900  1
  K  K5  1  0.83396700  0.50000000  0.74617099  1
  K  K6  1  0.05125700  0.28111500  0.00000000  1
  K  K7  1  0.05125700  0.71888499  0.00000000  1
  Sn  Sn8  1  0.34520600  0.50000000  0.88380999  1
  Sn  Sn9  1  0.34520600  0.50000000  0.11619000  1
  Sn  Sn10  1  0.65479400  0.00000000  0.38381000  1
  Sn  Sn11  1  0.65479400  0.00000000  0.61618999  1
  Sn  Sn12  1  0.94874300  0.78111499  0.49999999  1
  Sn  Sn13  1  0.94874300  0.21888500  0.49999999  1
  Sn  Sn14  1  0.30155700  0.00000000  0.49999999  1
  Sb  Sb15  1  0.69844300  0.50000000  0.00000000  1
