# generated using pymatgen
data_Ca2MnWO6
_symmetry_space_group_name_H-M   'P 1'
_cell_length_a   5.47519922
_cell_length_b   5.58823586
_cell_length_c   7.78174019
_cell_angle_alpha   90.00000000
_cell_angle_beta   89.98715210
_cell_angle_gamma   90.00000000
_symmetry_Int_Tables_number   1
_chemical_formula_structural   Ca2MnWO6
_chemical_formula_sum   'Ca4 Mn2 W2 O12'
_cell_volume   238.09559991
_cell_formula_units_Z   2
loop_
 _symmetry_equiv_pos_site_id
 _symmetry_equiv_pos_as_xyz
  1  'x, y, z'
loop_
 _atom_site_type_symbol
 _atom_site_label
 _atom_site_symmetry_multiplicity
 _atom_site_fract_x
 _atom_site_fract_y
 _atom_site_fract_z
 _atom_site_occupancy
  Ca  Ca0  1  0.98930996  0.45012901  0.25047100  1
  Ca  Ca1  1  0.01069000  0.54987101  0.74952900  1
  Ca  Ca2  1  0.51068998  0.95012902  0.24952900  1
  Ca  Ca3  1  0.48930998  0.04987100  0.75047100  1
  Mn  Mn4  1  0.00000000  0.00000000  0.00000000  1
  Mn  Mn5  1  0.49999998  0.50000001  0.50000000  1
  W  W6  1  -0.00000000  0.00000000  0.50000000  1
  W  W7  1  0.49999998  0.50000001  1.00000000  1
  O  O8  1  0.07953100  0.01770700  0.24222600  1
  O  O9  1  0.92046896  0.98229303  0.75777400  1
  O  O10  1  0.42046898  0.51770701  0.25777400  1
  O  O11  1  0.57953098  0.48229301  0.74222600  1
  O  O12  1  0.79978397  0.71710502  0.04326500  1
  O  O13  1  0.20021599  0.28289501  0.95673500  1
  O  O14  1  0.70021597  0.21710501  0.45673500  1
  O  O15  1  0.29978399  0.78289502  0.54326500  1
  O  O16  1  0.71716497  0.20156201  0.04174000  1
  O  O17  1  0.28283499  0.79843802  0.95826000  1
  O  O18  1  0.78283497  0.70156202  0.45826000  1
  O  O19  1  0.21716499  0.29843801  0.54174000  1
