# generated using pymatgen
data_Li6TiO5
_symmetry_space_group_name_H-M   'P 1'
_cell_length_a   3.02928400
_cell_length_b   5.63711357
_cell_length_c   7.97762775
_cell_angle_alpha   107.51142120
_cell_angle_beta   100.94468689
_cell_angle_gamma   90.00000000
_symmetry_Int_Tables_number   1
_chemical_formula_structural   Li6TiO5
_chemical_formula_sum   'Li6 Ti1 O5'
_cell_volume   127.31533223
_cell_formula_units_Z   1
loop_
 _symmetry_equiv_pos_site_id
 _symmetry_equiv_pos_as_xyz
  1  'x, y, z'
loop_
 _atom_site_type_symbol
 _atom_site_label
 _atom_site_symmetry_multiplicity
 _atom_site_fract_x
 _atom_site_fract_y
 _atom_site_fract_z
 _atom_site_occupancy
  Li  Li0  1  0.66651101  0.00178500  0.33302200  1
  Li  Li1  1  0.00012302  0.99972502  0.00024600  1
  Li  Li2  1  0.33202503  0.99566202  0.66404999  1
  Li  Li3  1  0.49982302  0.50073301  0.99964598  1
  Ti  Ti4  1  0.17373601  0.49349201  0.34747199  1
  Li  Li5  1  0.83296402  0.50580001  0.66592800  1
  O  O6  1  0.07231702  0.69008101  0.14463400  1
  Li  Li7  1  0.41867902  0.69828001  0.83735799  1
  O  O8  1  0.74119502  0.71081802  0.48239000  1
  O  O9  1  0.92924602  0.30547001  0.85849199  1
  O  O10  1  0.24877101  0.29142501  0.49754199  1
  O  O11  1  0.58461101  0.30672801  0.16922201  1
