# generated using pymatgen
data_NaLi2TiO5
_symmetry_space_group_name_H-M   'P 1'
_cell_length_a   4.97363997
_cell_length_b   4.97364044
_cell_length_c   5.57759714
_cell_angle_alpha   90.00000000
_cell_angle_beta   90.00000000
_cell_angle_gamma   120.00000000
_symmetry_Int_Tables_number   1
_chemical_formula_structural   NaLi2TiO5
_chemical_formula_sum   'Na1 Li2 Ti1 O5'
_cell_volume   119.48860871
_cell_formula_units_Z   1
loop_
 _symmetry_equiv_pos_site_id
 _symmetry_equiv_pos_as_xyz
  1  'x, y, z'
loop_
 _atom_site_type_symbol
 _atom_site_label
 _atom_site_symmetry_multiplicity
 _atom_site_fract_x
 _atom_site_fract_y
 _atom_site_fract_z
 _atom_site_occupancy
  Ti  Ti0  1  0.33333337  0.66666667  0.49999999  1
  Li  Li1  1  0.66666669  0.33333334  0.49999999  1
  Na  Na2  1  0.00000000  0.00000000  0.00000000  1
  Li  Li3  1  0.61544700  0.00000000  0.31038599  1
  O  O4  1  0.38455302  0.38455300  0.31038599  1
  O  O5  1  1.00000004  0.61544700  0.31038599  1
  O  O6  1  0.61544703  0.61544700  0.68961398  1
  O  O7  1  0.00000002  0.38455300  0.68961398  1
  O  O8  1  0.38455300  0.00000000  0.68961398  1
