# generated using pymatgen
data_Al5Si3O8
_symmetry_space_group_name_H-M   'P 1'
_cell_length_a   5.21021366
_cell_length_b   5.21021366
_cell_length_c   6.28610134
_cell_angle_alpha   89.81507874
_cell_angle_beta   89.81507874
_cell_angle_gamma   90.83815765
_symmetry_Int_Tables_number   1
_chemical_formula_structural   Al5Si3O8
_chemical_formula_sum   'Al5 Si3 O8'
_cell_volume   170.62449670
_cell_formula_units_Z   1
loop_
 _symmetry_equiv_pos_site_id
 _symmetry_equiv_pos_as_xyz
  1  'x, y, z'
loop_
 _atom_site_type_symbol
 _atom_site_label
 _atom_site_symmetry_multiplicity
 _atom_site_fract_x
 _atom_site_fract_y
 _atom_site_fract_z
 _atom_site_occupancy
  Al  Al0  1  0.79959801  0.82487403  0.25839899  1
  Al  Al1  1  0.69219002  0.30781001  -0.00000001  1
  Al  Al2  1  0.32982100  0.67017903  0.50000000  1
  Al  Al3  1  0.68318002  0.31682001  0.50000000  1
  Al  Al4  1  0.17512600  0.20040201  0.74160101  1
  Si  Si5  1  0.81621101  0.82998303  0.74582599  1
  Si  Si6  1  0.17001700  0.18378901  0.25417400  1
  Si  Si7  1  0.32063600  0.67936403  -0.00000001  1
  O  O8  1  0.68209401  0.69934203  0.96578500  1
  O  O9  1  0.70225901  0.69561103  0.53465599  1
  O  O10  1  0.22592399  0.86324103  0.23664799  1
  O  O11  1  0.86078903  0.19965201  0.24900199  1
  O  O12  1  0.13675899  0.77407603  0.76335200  1
  O  O13  1  0.80034803  0.13921101  0.75099800  1
  O  O14  1  0.30065800  0.31790601  0.03421499  1
  O  O15  1  0.30438901  0.29774101  0.46534400  1
