# generated using pymatgen
data_Ba4CaInSn3
_symmetry_space_group_name_H-M   'P 1'
_cell_length_a   8.04570293
_cell_length_b   8.04570293
_cell_length_c   9.46689606
_cell_angle_alpha   109.59742737
_cell_angle_beta   109.59742737
_cell_angle_gamma   102.16268158
_symmetry_Int_Tables_number   1
_chemical_formula_structural   Ba4CaInSn3
_chemical_formula_sum   'Ba4 Ca1 In1 Sn3'
_cell_volume   506.53774003
_cell_formula_units_Z   1
loop_
 _symmetry_equiv_pos_site_id
 _symmetry_equiv_pos_as_xyz
  1  'x, y, z'
loop_
 _atom_site_type_symbol
 _atom_site_label
 _atom_site_symmetry_multiplicity
 _atom_site_fract_x
 _atom_site_fract_y
 _atom_site_fract_z
 _atom_site_occupancy
  Ba  Ba0  1  0.00000005  0.50000000  0.00000003  1
  Ba  Ba1  1  0.49999998  0.00000000  0.00000001  1
  Ba  Ba2  1  0.00000000  0.00000000  0.00000000  1
  Ba  Ba3  1  0.05023106  0.69406999  0.74430104  1
  Sn  Sn4  1  0.30593008  0.94976899  0.25569906  1
  In  In5  1  0.69828704  0.69828699  0.00000006  1
  Ca  Ca6  1  0.94976899  0.30593000  0.25569904  1
  Sn  Sn7  1  0.69406997  0.05023100  0.74430101  1
  Sn  Sn8  1  0.30171302  0.30171300  1.00000002  1
