# generated using pymatgen
data_Cu5PS
_symmetry_space_group_name_H-M   'P 1'
_cell_length_a   7.24555302
_cell_length_b   7.24527407
_cell_length_c   7.25451803
_cell_angle_alpha   60.04074097
_cell_angle_beta   60.04120255
_cell_angle_gamma   60.00026703
_symmetry_Int_Tables_number   1
_chemical_formula_structural   Cu5PS
_chemical_formula_sum   'Cu10 P2 S2'
_cell_volume   269.45700410
_cell_formula_units_Z   2
loop_
 _symmetry_equiv_pos_site_id
 _symmetry_equiv_pos_as_xyz
  1  'x, y, z'
loop_
 _atom_site_type_symbol
 _atom_site_label
 _atom_site_symmetry_multiplicity
 _atom_site_fract_x
 _atom_site_fract_y
 _atom_site_fract_z
 _atom_site_occupancy
  Cu  Cu0  1  0.87553204  0.87549101  0.37346197  1
  Cu  Cu1  1  0.12450001  0.12449700  0.62651698  1
  Cu  Cu2  1  0.49983502  0.50010601  0.00012699  1
  Cu  Cu3  1  0.49993803  0.99990601  0.00012897  1
  Cu  Cu4  1  0.00011301  0.50003701  0.99976995  1
  Cu  Cu5  1  0.50001902  0.50002001  0.49999598  1
  P  P6  1  0.73662503  0.73657701  0.79020996  1
  Cu  Cu7  1  0.25961501  0.25965100  0.76872197  1
  Cu  Cu8  1  0.71205202  0.25963100  0.76867098  1
  Cu  Cu9  1  0.25963702  0.71199401  0.76873796  1
  S  S10  1  0.28801602  0.74035001  0.23126497  1
  S  S11  1  0.74035002  0.28796100  0.23131800  1
  Cu  Cu12  1  0.26342301  0.26338600  0.20978399  1
  P  P13  1  0.74033903  0.74039901  0.23128998  1
