# generated using pymatgen
data_NaSr7LiBPN8
_symmetry_space_group_name_H-M   'P 1'
_cell_length_a   6.00673771
_cell_length_b   6.00673771
_cell_length_c   8.70984554
_cell_angle_alpha   90.00000000
_cell_angle_beta   90.00000000
_cell_angle_gamma   91.13507080
_symmetry_Int_Tables_number   1
_chemical_formula_structural   NaSr7LiBPN8
_chemical_formula_sum   'Na1 Sr7 Li1 B1 P1 N8'
_cell_volume   314.19738202
_cell_formula_units_Z   1
loop_
 _symmetry_equiv_pos_site_id
 _symmetry_equiv_pos_as_xyz
  1  'x, y, z'
loop_
 _atom_site_type_symbol
 _atom_site_label
 _atom_site_symmetry_multiplicity
 _atom_site_fract_x
 _atom_site_fract_y
 _atom_site_fract_z
 _atom_site_occupancy
  Sr  Sr0  1  0.47560099  0.02152500  0.72104004  1
  Sr  Sr1  1  0.47560099  0.02152500  0.27896001  1
  Sr  Sr2  1  0.97847495  0.52439899  0.72104004  1
  Sr  Sr3  1  0.97847495  0.52439899  0.27896001  1
  Sr  Sr4  1  0.48389796  0.51610199  0.50000003  1
  Sr  Sr5  1  0.02149395  0.97850598  -0.00000000  1
  Sr  Sr6  1  0.49885196  0.50114799  -0.00000000  1
  Li  Li7  1  0.97980898  0.02019100  0.50000003  1
  B  B8  1  0.75396797  0.24603099  0.50000003  1
  N  N9  1  0.21057796  0.78942198  0.50000003  1
  Na  Na10  1  0.75570494  0.78160198  0.50000003  1
  N  N11  1  0.21839798  0.24429499  0.50000003  1
  N  N12  1  0.97672398  0.02327600  0.72858304  1
  N  N13  1  0.97672398  0.02327600  0.27141701  1
  N  N14  1  0.50728796  0.49271199  0.22256101  1
  N  N15  1  0.50728796  0.49271199  0.77743904  1
  P  P16  1  0.28324096  0.71675898  1.00000005  1
  N  N17  1  0.80144295  0.59729999  -0.00000000  1
  N  N18  1  0.40269998  0.19855700  -0.00000000  1
