# generated using pymatgen
data_Cs3HgCl4
_symmetry_space_group_name_H-M   'P 1'
_cell_length_a   6.48603916
_cell_length_b   6.48603916
_cell_length_c   6.97694969
_cell_angle_alpha   111.02034760
_cell_angle_beta   111.02034760
_cell_angle_gamma   93.73826599
_symmetry_Int_Tables_number   1
_chemical_formula_structural   Cs3HgCl4
_chemical_formula_sum   'Cs3 Hg1 Cl4'
_cell_volume   249.33616870
_cell_formula_units_Z   1
loop_
 _symmetry_equiv_pos_site_id
 _symmetry_equiv_pos_as_xyz
  1  'x, y, z'
loop_
 _atom_site_type_symbol
 _atom_site_label
 _atom_site_symmetry_multiplicity
 _atom_site_fract_x
 _atom_site_fract_y
 _atom_site_fract_z
 _atom_site_occupancy
  Cs  Cs0  1  0.14217297  0.85782700  0.75000004  1
  Cs  Cs1  1  0.85782700  0.14217300  0.25000003  1
  Cs  Cs2  1  0.41490798  0.58509200  0.25000003  1
  Hg  Hg3  1  0.58509199  0.41490800  0.75000004  1
  Cl  Cl4  1  0.37334699  0.21954400  0.27988102  1
  Cl  Cl5  1  0.78045598  0.62665300  0.22011904  1
  Cl  Cl6  1  0.21954399  0.37334700  0.77988103  1
  Cl  Cl7  1  0.62665297  0.78045600  0.72011905  1
