# generated using pymatgen
data_Rb3Al3(BS6)2
_symmetry_space_group_name_H-M   'P 1'
_cell_length_a   5.61229086
_cell_length_b   5.90076303
_cell_length_c   12.54641342
_cell_angle_alpha   90.00000000
_cell_angle_beta   90.00000000
_cell_angle_gamma   90.00000000
_symmetry_Int_Tables_number   1
_chemical_formula_structural   Rb3Al3(BS6)2
_chemical_formula_sum   'Rb3 Al3 B2 S12'
_cell_volume   415.49704446
_cell_formula_units_Z   1
loop_
 _symmetry_equiv_pos_site_id
 _symmetry_equiv_pos_as_xyz
  1  'x, y, z'
loop_
 _atom_site_type_symbol
 _atom_site_label
 _atom_site_symmetry_multiplicity
 _atom_site_fract_x
 _atom_site_fract_y
 _atom_site_fract_z
 _atom_site_occupancy
  Rb  Rb0  1  0.08583500  0.75000000  0.40147199  1
  Rb  Rb1  1  0.08583500  0.25000000  0.09852800  1
  Rb  Rb2  1  0.91416502  0.25000000  0.59852798  1
  Al  Al3  1  0.91416502  0.75000000  0.90147197  1
  Al  Al4  1  0.54888401  0.75000000  0.17283699  1
  Al  Al5  1  0.54888401  0.25000000  0.32716299  1
  B  B6  1  0.45111601  0.25000000  0.82716297  1
  B  B7  1  0.45111601  0.75000000  0.67283698  1
  S  S8  1  0.84499702  0.75000000  0.15360899  1
  S  S9  1  0.84499702  0.25000000  0.34639099  1
  S  S10  1  0.15500300  0.25000000  0.84639097  1
  S  S11  1  0.15500300  0.75000000  0.65360898  1
  S  S12  1  0.40811801  0.75000000  0.05568300  1
  S  S13  1  0.40811801  0.25000000  0.44431699  1
  S  S14  1  0.59188101  0.25000000  0.94431697  1
  S  S15  1  0.59188101  0.75000000  0.55568298  1
  S  S16  1  0.45730301  0.00000000  0.24999999  1
  S  S17  1  0.54269701  0.50000000  0.74999997  1
  S  S18  1  0.54269701  0.00000000  0.74999997  1
  S  S19  1  0.45730301  0.50000000  0.24999999  1
