# generated using pymatgen
data_SrCa3(CuS3)4
_symmetry_space_group_name_H-M   'P 1'
_cell_length_a   7.51359987
_cell_length_b   7.51359987
_cell_length_c   7.51359987
_cell_angle_alpha   109.47122192
_cell_angle_beta   109.47122192
_cell_angle_gamma   109.47122192
_symmetry_Int_Tables_number   1
_chemical_formula_structural   SrCa3(CuS3)4
_chemical_formula_sum   'Sr1 Ca3 Cu4 S12'
_cell_volume   326.52939158
_cell_formula_units_Z   1
loop_
 _symmetry_equiv_pos_site_id
 _symmetry_equiv_pos_as_xyz
  1  'x, y, z'
loop_
 _atom_site_type_symbol
 _atom_site_label
 _atom_site_symmetry_multiplicity
 _atom_site_fract_x
 _atom_site_fract_y
 _atom_site_fract_z
 _atom_site_occupancy
  Sr  Sr0  1  0.00000003  0.50000003  0.00000003  1
  Ca  Ca1  1  0.00000000  0.00000000  0.50000001  1
  Ca  Ca2  1  0.50000005  0.50000003  0.50000005  1
  Ca  Ca3  1  0.50000008  1.00000006  0.00000007  1
  Cu  Cu4  1  0.00000000  0.00000000  0.00000000  1
  Cu  Cu5  1  0.50000005  0.50000003  1.00000006  1
  Cu  Cu6  1  0.50000008  1.00000006  0.50000008  1
  Cu  Cu7  1  0.00000003  0.50000003  0.50000004  1
  S  S8  1  0.50000003  0.25000002  0.75000004  1
  S  S9  1  0.75000004  0.25000002  0.50000004  1
  S  S10  1  0.25000005  0.75000005  0.50000006  1
  S  S11  1  0.75000005  0.50000003  0.25000005  1
  S  S12  1  0.25000004  0.50000003  0.75000005  1
  S  S13  1  0.50000006  0.75000005  0.25000006  1
  S  S14  1  1.00000008  0.72660404  0.72660408  1
  S  S15  1  0.72660407  0.72660404  0.00000006  1
  S  S16  1  0.00000002  0.27339602  0.27339602  1
  S  S17  1  0.72660408  1.00000006  0.72660409  1
  S  S18  1  0.27339601  0.00000000  0.27339601  1
  S  S19  1  0.27339603  0.27339602  0.00000002  1
