# generated using pymatgen
data_Li4MnCo2PO3F
_symmetry_space_group_name_H-M   'P 1'
_cell_length_a   4.78284883
_cell_length_b   4.93880606
_cell_length_c   5.87079716
_cell_angle_alpha   90.07757568
_cell_angle_beta   94.61580658
_cell_angle_gamma   92.18327332
_symmetry_Int_Tables_number   1
_chemical_formula_structural   Li4MnCo2PO3F
_chemical_formula_sum   'Li4 Mn1 Co2 P1 O3 F1'
_cell_volume   138.12593148
_cell_formula_units_Z   1
loop_
 _symmetry_equiv_pos_site_id
 _symmetry_equiv_pos_as_xyz
  1  'x, y, z'
loop_
 _atom_site_type_symbol
 _atom_site_label
 _atom_site_symmetry_multiplicity
 _atom_site_fract_x
 _atom_site_fract_y
 _atom_site_fract_z
 _atom_site_occupancy
  Li  Li0  1  0.50803305  0.75193502  0.66640501  1
  Li  Li1  1  0.49196703  0.24806501  0.33359501  1
  Li  Li2  1  0.01586301  0.25326901  0.82463801  1
  Li  Li3  1  0.98413706  0.74673102  0.17536200  1
  Co  Co4  1  0.21428704  0.94849402  0.90012701  1
  O  O5  1  0.25016902  0.40782101  0.63928701  1
  Mn  Mn6  1  0.20911802  0.43553201  0.11366100  1
  Co  Co7  1  0.26172604  0.88997602  0.37188900  1
  O  O8  1  0.73827403  0.11002400  0.62811101  1
  F  F9  1  0.79088205  0.56446801  0.88633901  1
  P  P10  1  0.74983105  0.59217901  0.36071300  1
  O  O11  1  0.78571303  0.05150600  0.09987300  1
