# generated using pymatgen
data_Al5Ga3Si2P2(RuC)2
_symmetry_space_group_name_H-M   'P 1'
_cell_length_a   6.49939299
_cell_length_b   6.49939299
_cell_length_c   6.66246700
_cell_angle_alpha   90.00000000
_cell_angle_beta   90.00000000
_cell_angle_gamma   90.00000000
_symmetry_Int_Tables_number   1
_chemical_formula_structural   Al5Ga3Si2P2(RuC)2
_chemical_formula_sum   'Al5 Ga3 Si2 P2 Ru2 C2'
_cell_volume   281.43665861
_cell_formula_units_Z   1
loop_
 _symmetry_equiv_pos_site_id
 _symmetry_equiv_pos_as_xyz
  1  'x, y, z'
loop_
 _atom_site_type_symbol
 _atom_site_label
 _atom_site_symmetry_multiplicity
 _atom_site_fract_x
 _atom_site_fract_y
 _atom_site_fract_z
 _atom_site_occupancy
  Al  Al0  1  0.00000000  0.00000000  0.25000000  1
  Al  Al1  1  0.00000000  0.00000000  0.75000000  1
  Al  Al2  1  0.00000000  0.50000000  0.50000000  1
  Al  Al3  1  0.50000000  0.00000000  0.00000000  1
  Al  Al4  1  0.52929700  0.25646100  0.50000000  1
  Ga  Ga5  1  0.47070300  0.74353900  0.50000000  1
  Ga  Ga6  1  0.25646100  0.47070300  0.00000000  1
  Ga  Ga7  1  0.74353900  0.52929700  0.00000000  1
  P  P8  1  0.80675900  0.30757800  0.27325800  1
  Si  Si9  1  0.19324100  0.69242200  0.27325800  1
  Ru  Ru10  1  0.30757800  0.19324100  0.77325800  1
  Ru  Ru11  1  0.69242200  0.80675900  0.77325800  1
  C  C12  1  0.19324100  0.69242200  0.72674200  1
  C  C13  1  0.80675900  0.30757800  0.72674200  1
  P  P14  1  0.69242200  0.80675900  0.22674200  1
  Si  Si15  1  0.30757800  0.19324100  0.22674200  1
