# generated using pymatgen
data_GdLuTl2BrO3
_symmetry_space_group_name_H-M   'P 1'
_cell_length_a   3.50569010
_cell_length_b   3.50569034
_cell_length_c   13.69877338
_cell_angle_alpha   90.00000000
_cell_angle_beta   90.00000000
_cell_angle_gamma   120.00000000
_symmetry_Int_Tables_number   1
_chemical_formula_structural   GdLuTl2BrO3
_chemical_formula_sum   'Gd1 Lu1 Tl2 Br1 O3'
_cell_volume   145.80062524
_cell_formula_units_Z   1
loop_
 _symmetry_equiv_pos_site_id
 _symmetry_equiv_pos_as_xyz
  1  'x, y, z'
loop_
 _atom_site_type_symbol
 _atom_site_label
 _atom_site_symmetry_multiplicity
 _atom_site_fract_x
 _atom_site_fract_y
 _atom_site_fract_z
 _atom_site_occupancy
  Tl  Tl0  1  0.66666667  0.33333335  0.24999999  1
  Tl  Tl1  1  0.33333337  0.66666669  0.74999998  1
  Lu  Lu2  1  0.00000000  0.00000000  0.00000000  1
  Gd  Gd3  1  0.00000000  0.00000000  0.49999999  1
  Br  Br4  1  0.66666667  0.33333335  0.58097398  1
  O  O5  1  0.66666667  0.33333335  0.91902597  1
  O  O6  1  0.33333337  0.66666669  0.41902599  1
  O  O7  1  0.33333337  0.66666669  0.08097400  1
