# generated using pymatgen
data_Cs3Au(BrO4)2
_symmetry_space_group_name_H-M   'P 1'
_cell_length_a   4.68451500
_cell_length_b   5.83482409
_cell_length_c   9.60144901
_cell_angle_alpha   90.00000000
_cell_angle_beta   90.00000000
_cell_angle_gamma   90.00000000
_symmetry_Int_Tables_number   1
_chemical_formula_structural   Cs3Au(BrO4)2
_chemical_formula_sum   'Cs3 Au1 Br2 O8'
_cell_volume   262.43948741
_cell_formula_units_Z   1
loop_
 _symmetry_equiv_pos_site_id
 _symmetry_equiv_pos_as_xyz
  1  'x, y, z'
loop_
 _atom_site_type_symbol
 _atom_site_label
 _atom_site_symmetry_multiplicity
 _atom_site_fract_x
 _atom_site_fract_y
 _atom_site_fract_z
 _atom_site_occupancy
  Cs  Cs0  1  0.24253800  0.00000000  0.13243900  1
  Au  Au1  1  0.74253800  0.49999999  0.86756100  1
  Cs  Cs2  1  0.75417300  0.49999999  0.32406900  1
  Cs  Cs3  1  0.25417300  0.00000000  0.67593100  1
  Br  Br4  1  0.66842600  0.00000000  0.46715600  1
  Br  Br5  1  0.16842600  0.49999999  0.53284400  1
  O  O6  1  0.62958500  0.25014500  0.77960300  1
  O  O7  1  0.12958500  0.75014499  0.22039700  1
  O  O8  1  0.63173900  0.49999999  0.04169900  1
  O  O9  1  0.61326400  0.00000000  0.13341200  1
  O  O10  1  0.62958500  0.74985499  0.77960300  1
  O  O11  1  0.12958500  0.24985500  0.22039700  1
  O  O12  1  0.13173900  0.00000000  0.95830100  1
  O  O13  1  0.11326400  0.49999999  0.86658800  1
