# generated using pymatgen
data_K3TlAsP4Se11
_symmetry_space_group_name_H-M   'P 1'
_cell_length_a   6.26587486
_cell_length_b   7.82474136
_cell_length_c   13.12753296
_cell_angle_alpha   90.00000000
_cell_angle_beta   90.00000000
_cell_angle_gamma   106.99607086
_symmetry_Int_Tables_number   1
_chemical_formula_structural   K3TlAsP4Se11
_chemical_formula_sum   'K3 Tl1 As1 P4 Se11'
_cell_volume   615.51727447
_cell_formula_units_Z   1
loop_
 _symmetry_equiv_pos_site_id
 _symmetry_equiv_pos_as_xyz
  1  'x, y, z'
loop_
 _atom_site_type_symbol
 _atom_site_label
 _atom_site_symmetry_multiplicity
 _atom_site_fract_x
 _atom_site_fract_y
 _atom_site_fract_z
 _atom_site_occupancy
  Tl  Tl0  1  0.78655299  0.74001298  0.57752400  1
  K  K1  1  0.21344699  0.25998699  0.42247600  1
  K  K2  1  0.71344701  0.25998699  0.07752400  1
  K  K3  1  0.28655298  0.74001298  0.92247600  1
  P  P4  1  0.84379201  0.29431399  0.73124100  1
  P  P5  1  0.34379200  0.29431399  0.76875900  1
  P  P6  1  0.65620799  0.70568598  0.23124100  1
  P  P7  1  0.15620797  0.70568598  0.26875900  1
  As  As8  1  0.33824100  0.06655700  0.68299200  1
  Se  Se9  1  0.16402999  0.44687399  0.69696400  1
  Se  Se10  1  0.31597997  0.79898497  0.40327600  1
  Se  Se11  1  0.81597999  0.79898497  0.09672400  1
  Se  Se12  1  0.66403000  0.44687399  0.80303600  1
  Se  Se13  1  0.83824102  0.06655700  0.81700800  1
  Se  Se14  1  0.83597000  0.55312598  0.30303600  1
  Se  Se15  1  0.18402000  0.20101499  0.90327600  1
  Se  Se16  1  0.33596998  0.55312598  0.19696400  1
  Se  Se17  1  0.66175898  0.93344297  0.31700800  1
  Se  Se18  1  0.16175897  0.93344297  0.18299200  1
  Se  Se19  1  0.68402001  0.20101499  0.59672400  1
