# generated using pymatgen
data_Na2Li5Fe(O3F)2
_symmetry_space_group_name_H-M   'P 1'
_cell_length_a   5.85647392
_cell_length_b   5.85629654
_cell_length_c   6.04219103
_cell_angle_alpha   61.54244995
_cell_angle_beta   61.53070831
_cell_angle_gamma   90.31459045
_symmetry_Int_Tables_number   1
_chemical_formula_structural   Na2Li5Fe(O3F)2
_chemical_formula_sum   'Na2 Li5 Fe1 O6 F2'
_cell_volume   152.73113973
_cell_formula_units_Z   1
loop_
 _symmetry_equiv_pos_site_id
 _symmetry_equiv_pos_as_xyz
  1  'x, y, z'
loop_
 _atom_site_type_symbol
 _atom_site_label
 _atom_site_symmetry_multiplicity
 _atom_site_fract_x
 _atom_site_fract_y
 _atom_site_fract_z
 _atom_site_occupancy
  Na  Na0  1  0.49998302  0.00002900  0.99998199  1
  Na  Na1  1  0.99999508  0.49998102  0.50003895  1
  Li  Li2  1  0.49993806  0.49993202  0.50003496  1
  Li  Li3  1  0.49998506  0.49994802  0.00003196  1
  Li  Li4  1  0.99988108  0.49979502  0.00016294  1
  Li  Li5  1  0.49995802  0.00010600  0.49990099  1
  Li  Li6  1  0.00006100  0.00024300  0.99988601  1
  Fe  Fe7  1  0.00011800  0.00009000  0.49994000  1
  O  O8  1  0.22518707  0.73824302  0.01156795  1
  F  F9  1  0.26179108  0.77480202  0.48843295  1
  F  F10  1  0.73818205  0.22505901  0.51154997  1
  O  O11  1  0.77489505  0.26189701  0.98845797  1
  O  O12  1  0.77548610  0.75320702  0.97972694  1
  O  O13  1  0.24685703  0.22428801  0.52035098  1
  O  O14  1  0.75328710  0.77546302  0.47963094  1
  O  O15  1  0.22439603  0.24691601  0.02030498  1
