# generated using pymatgen
data_Li5Mn3O8
_symmetry_space_group_name_H-M   'P 1'
_cell_length_a   3.06168199
_cell_length_b   6.05189610
_cell_length_c   8.10163784
_cell_angle_alpha   90.68845367
_cell_angle_beta   90.92554474
_cell_angle_gamma   94.89096069
_symmetry_Int_Tables_number   1
_chemical_formula_structural   Li5Mn3O8
_chemical_formula_sum   'Li5 Mn3 O8'
_cell_volume   149.53546212
_cell_formula_units_Z   1
loop_
 _symmetry_equiv_pos_site_id
 _symmetry_equiv_pos_as_xyz
  1  'x, y, z'
loop_
 _atom_site_type_symbol
 _atom_site_label
 _atom_site_symmetry_multiplicity
 _atom_site_fract_x
 _atom_site_fract_y
 _atom_site_fract_z
 _atom_site_occupancy
  Li  Li0  1  0.00251094  0.49878302  0.00316099  1
  Li  Li1  1  0.49697891  0.75189003  0.24671300  1
  Li  Li2  1  0.50174797  0.25093901  0.75359004  1
  Li  Li3  1  0.00014600  0.00212000  0.49604603  1
  Li  Li4  1  0.48855191  0.75065602  0.75159403  1
  Mn  Mn5  1  0.00014794  0.49648902  0.49866002  1
  Mn  Mn6  1  0.99398199  0.00457500  0.00117501  1
  Mn  Mn7  1  0.51325397  0.24877901  0.24797601  1
  O  O8  1  0.47655491  0.76461203  0.99071404  1
  O  O9  1  0.97500694  0.48586002  0.25786301  1
  O  O10  1  0.04486200  0.01265700  0.23934801  1
  O  O11  1  0.52043497  0.23825901  0.01358700  1
  O  O12  1  0.02333094  0.50489302  0.74057303  1
  O  O13  1  0.46677191  0.74193402  0.51034102  1
  O  O14  1  0.52970097  0.25515301  0.48551203  1
  O  O15  1  0.96601888  0.99240103  0.76314803  1
