# generated using pymatgen
data_CsTlIn2HgBr8
_symmetry_space_group_name_H-M   'P 1'
_cell_length_a   8.69022274
_cell_length_b   8.99889755
_cell_length_c   9.01920605
_cell_angle_alpha   61.51589584
_cell_angle_beta   61.36173630
_cell_angle_gamma   61.98674011
_symmetry_Int_Tables_number   1
_chemical_formula_structural   CsTlIn2HgBr8
_chemical_formula_sum   'Cs1 Tl1 In2 Hg1 Br8'
_cell_volume   516.84470725
_cell_formula_units_Z   1
loop_
 _symmetry_equiv_pos_site_id
 _symmetry_equiv_pos_as_xyz
  1  'x, y, z'
loop_
 _atom_site_type_symbol
 _atom_site_label
 _atom_site_symmetry_multiplicity
 _atom_site_fract_x
 _atom_site_fract_y
 _atom_site_fract_z
 _atom_site_occupancy
  Cs  Cs0  1  0.00000000  0.00000000  0.00000000  1
  Tl  Tl1  1  -0.00000001  0.50000000  0.50000003  1
  Hg  Hg2  1  0.50000001  0.50000000  0.50000002  1
  In  In3  1  0.50000002  0.00000000  0.50000002  1
  In  In4  1  0.00000000  0.00000000  0.50000002  1
  Br  Br5  1  0.27037200  0.23236000  0.70870403  1
  Br  Br6  1  0.72962801  0.76764000  0.29129601  1
  Br  Br7  1  0.20676699  0.78340800  0.29498902  1
  Br  Br8  1  0.79323302  0.21659200  0.70501103  1
  Br  Br9  1  0.76391902  0.20819000  0.29215601  1
  Br  Br10  1  0.23608099  0.79181000  0.70784404  1
  Br  Br11  1  0.23576700  0.20089100  0.29681601  1
  Br  Br12  1  0.76423301  0.79910900  0.70318403  1
