# generated using pymatgen
data_Sr2CaAl2Cu(BS6)2
_symmetry_space_group_name_H-M   'P 1'
_cell_length_a   6.08731604
_cell_length_b   6.10283756
_cell_length_c   8.57081318
_cell_angle_alpha   89.82213593
_cell_angle_beta   90.79803467
_cell_angle_gamma   89.84074402
_symmetry_Int_Tables_number   1
_chemical_formula_structural   Sr2CaAl2Cu(BS6)2
_chemical_formula_sum   'Sr2 Ca1 Al2 Cu1 B2 S12'
_cell_volume   318.37117352
_cell_formula_units_Z   1
loop_
 _symmetry_equiv_pos_site_id
 _symmetry_equiv_pos_as_xyz
  1  'x, y, z'
loop_
 _atom_site_type_symbol
 _atom_site_label
 _atom_site_symmetry_multiplicity
 _atom_site_fract_x
 _atom_site_fract_y
 _atom_site_fract_z
 _atom_site_occupancy
  Sr  Sr0  1  0.49254894  0.52809908  0.75122130  1
  Sr  Sr1  1  0.50745115  0.47190092  0.24877876  1
  Al  Al2  1  0.00767771  0.03558077  0.74652915  1
  Ca  Ca3  1  0.99232238  0.96441923  0.25347091  1
  Cu  Cu4  1  0.00000003  0.50000000  1.00000003  1
  Al  Al5  1  0.50000001  0.00000000  0.50000003  1
  B  B6  1  0.50000001  0.00000000  0.00000001  1
  B  B7  1  0.00000003  0.50000000  0.50000002  1
  S  S8  1  0.76481632  0.19323367  0.04454563  1
  S  S9  1  0.73615711  0.69463690  0.47173154  1
  S  S10  1  0.23518377  0.80676633  0.95545443  1
  S  S11  1  0.26384298  0.30536310  0.52826851  1
  S  S12  1  0.70008496  0.73769530  0.04439682  1
  S  S13  1  0.81048301  0.22636177  0.45396464  1
  S  S14  1  0.29991513  0.26230470  0.95560323  1
  S  S15  1  0.18951708  0.77363823  0.54603541  1
  S  S16  1  0.58744619  0.99853670  0.77336442  1
  S  S17  1  0.93041443  0.46997068  0.72784397  1
  S  S18  1  0.41255390  0.00146330  0.22663564  1
  S  S19  1  0.06958566  0.53002932  0.27215609  1
