# generated using pymatgen
data_NaLiTaCoSn2GeO11
_symmetry_space_group_name_H-M   'P 1'
_cell_length_a   5.23443604
_cell_length_b   5.23443651
_cell_length_c   9.68369198
_cell_angle_alpha   90.00000000
_cell_angle_beta   90.00000000
_cell_angle_gamma   120.00000000
_symmetry_Int_Tables_number   1
_chemical_formula_structural   NaLiTaCoSn2GeO11
_chemical_formula_sum   'Na1 Li1 Ta1 Co1 Sn2 Ge1 O11'
_cell_volume   229.77958052
_cell_formula_units_Z   1
loop_
 _symmetry_equiv_pos_site_id
 _symmetry_equiv_pos_as_xyz
  1  'x, y, z'
loop_
 _atom_site_type_symbol
 _atom_site_label
 _atom_site_symmetry_multiplicity
 _atom_site_fract_x
 _atom_site_fract_y
 _atom_site_fract_z
 _atom_site_occupancy
  Na  Na0  1  0.66666668  0.33333333  0.25000000  1
  Li  Li1  1  0.33333336  0.66666667  0.75000000  1
  Ta  Ta2  1  0.33333336  0.66666667  0.25000000  1
  Co  Co3  1  0.66666668  0.33333333  0.75000000  1
  Sn  Sn4  1  0.00000000  0.00000000  0.50000000  1
  Sn  Sn5  1  0.00000000  0.00000000  0.00000000  1
  O  O6  1  0.34700402  0.35974700  0.36318500  1
  Ge  Ge7  1  0.65299603  0.64025300  0.63681500  1
  O  O8  1  0.01274303  0.65299600  0.36318500  1
  O  O9  1  0.34700405  0.98725700  0.13681500  1
  O  O10  1  0.98725701  0.34700400  0.63681500  1
  O  O11  1  0.65299600  0.01274300  0.86318500  1
  O  O12  1  0.64025304  0.98725700  0.36318500  1
  O  O13  1  0.01274302  0.35974700  0.13681500  1
  O  O14  1  0.35974700  0.01274300  0.63681500  1
  O  O15  1  0.98725703  0.64025300  0.86318500  1
  O  O16  1  0.64025303  0.65299600  0.13681500  1
  O  O17  1  0.35974701  0.34700400  0.86318500  1
