# generated using pymatgen
data_Ba5CeSN2Cl7
_symmetry_space_group_name_H-M   'P 1'
_cell_length_a   4.44627523
_cell_length_b   7.71557808
_cell_length_c   10.53073215
_cell_angle_alpha   90.00000000
_cell_angle_beta   90.00000000
_cell_angle_gamma   90.00000000
_symmetry_Int_Tables_number   1
_chemical_formula_structural   Ba5CeSN2Cl7
_chemical_formula_sum   'Ba5 Ce1 S1 N2 Cl7'
_cell_volume   361.26291369
_cell_formula_units_Z   1
loop_
 _symmetry_equiv_pos_site_id
 _symmetry_equiv_pos_as_xyz
  1  'x, y, z'
loop_
 _atom_site_type_symbol
 _atom_site_label
 _atom_site_symmetry_multiplicity
 _atom_site_fract_x
 _atom_site_fract_y
 _atom_site_fract_z
 _atom_site_occupancy
  Ba  Ba0  1  0.24999999  0.69720799  0.40778099  1
  Ba  Ba1  1  0.24999999  0.19720800  0.09221900  1
  Ba  Ba2  1  0.74999996  0.30279200  0.59221899  1
  Ba  Ba3  1  0.74999996  0.80279199  0.90778099  1
  Ce  Ce4  1  0.24999999  0.76646399  0.09997000  1
  Ba  Ba5  1  0.24999999  0.26646400  0.40002999  1
  Cl  Cl6  1  0.74999996  0.23353600  0.90002999  1
  N  N7  1  0.74999996  0.73353599  0.59996999  1
  Cl  Cl8  1  0.74999996  0.53120699  0.17788400  1
  Cl  Cl9  1  0.74999996  0.03120700  0.32211600  1
  Cl  Cl10  1  0.24999999  0.46879300  0.82211599  1
  Cl  Cl11  1  0.24999999  0.96879299  0.67788399  1
  Cl  Cl12  1  0.24999999  0.86234599  0.03890000  1
  N  N13  1  0.24999999  0.36234600  0.46109999  1
  Cl  Cl14  1  0.74999996  0.13765400  0.96109999  1
  S  S15  1  0.74999996  0.63765399  0.53889999  1
