# generated using pymatgen
data_LiTiFeNi5O6
_symmetry_space_group_name_H-M   'P 1'
_cell_length_a   5.47489977
_cell_length_b   5.47489977
_cell_length_c   6.66595459
_cell_angle_alpha   114.24639130
_cell_angle_beta   114.24639130
_cell_angle_gamma   90.00000000
_symmetry_Int_Tables_number   1
_chemical_formula_structural   LiTiFeNi5O6
_chemical_formula_sum   'Li1 Ti1 Fe1 Ni5 O6'
_cell_volume   162.65892428
_cell_formula_units_Z   1
loop_
 _symmetry_equiv_pos_site_id
 _symmetry_equiv_pos_as_xyz
  1  'x, y, z'
loop_
 _atom_site_type_symbol
 _atom_site_label
 _atom_site_symmetry_multiplicity
 _atom_site_fract_x
 _atom_site_fract_y
 _atom_site_fract_z
 _atom_site_occupancy
  Ti  Ti0  1  0.00000000  0.00000000  0.00000000  1
  Li  Li1  1  0.75000007  0.25000002  0.50000005  1
  Fe  Fe2  1  0.37500003  0.12500001  0.75000001  1
  Ni  Ni3  1  0.87500010  0.62500005  0.25000009  1
  Ni  Ni4  1  0.37500007  0.62500005  0.75000005  1
  Ni  Ni5  1  0.37500007  0.62500005  0.25000006  1
  Ni  Ni6  1  0.14383603  0.37143103  0.74286102  1
  Ni  Ni7  1  0.62857010  0.85616507  0.25714010  1
  O  O8  1  0.62857007  0.40097503  0.25713906  1
  O  O9  1  0.60616410  0.87856907  0.75713909  1
  O  O10  1  0.15097507  0.87857007  0.75714006  1
  O  O11  1  0.12143003  0.39383503  0.24286003  1
  O  O12  1  0.59902507  0.37143003  0.74286005  1
  O  O13  1  0.12143006  0.84902507  0.24286107  1
