# generated using pymatgen
data_Li4AgF5
_symmetry_space_group_name_H-M   'P 1'
_cell_length_a   3.08296800
_cell_length_b   5.87615347
_cell_length_c   6.41420507
_cell_angle_alpha   103.27512360
_cell_angle_beta   103.90563202
_cell_angle_gamma   90.00000000
_symmetry_Int_Tables_number   1
_chemical_formula_structural   Li4AgF5
_chemical_formula_sum   'Li4 Ag1 F5'
_cell_volume   109.59276068
_cell_formula_units_Z   1
loop_
 _symmetry_equiv_pos_site_id
 _symmetry_equiv_pos_as_xyz
  1  'x, y, z'
loop_
 _atom_site_type_symbol
 _atom_site_label
 _atom_site_symmetry_multiplicity
 _atom_site_fract_x
 _atom_site_fract_y
 _atom_site_fract_z
 _atom_site_occupancy
  Li  Li0  1  0.34159002  0.68591802  0.68318004  1
  Li  Li1  1  0.65841001  0.31408201  0.31682001  1
  Li  Li2  1  0.91012200  0.20523901  0.82024400  1
  Li  Li3  1  0.08987802  0.79476103  0.17975605  1
  F  F4  1  0.50410302  0.74350903  0.00820605  1
  Ag  Ag5  1  0.49589701  0.25649101  0.99179400  1
  F  F6  1  0.82640201  0.43570602  0.65280402  1
  F  F7  1  0.17359802  0.56429402  0.34719603  1
  F  F8  1  0.16350300  0.10895300  0.32700600  1
  F  F9  1  0.83649702  0.89104703  0.67299405  1
