# generated using pymatgen
data_BaSrCaS4
_symmetry_space_group_name_H-M   'P 1'
_cell_length_a   7.88669920
_cell_length_b   7.88669920
_cell_length_c   7.88669920
_cell_angle_alpha   109.52327728
_cell_angle_beta   109.44519806
_cell_angle_gamma   109.44519806
_symmetry_Int_Tables_number   1
_chemical_formula_structural   BaSrCaS4
_chemical_formula_sum   'Ba2 Sr2 Ca2 S8'
_cell_volume   377.62755538
_cell_formula_units_Z   2
loop_
 _symmetry_equiv_pos_site_id
 _symmetry_equiv_pos_as_xyz
  1  'x, y, z'
loop_
 _atom_site_type_symbol
 _atom_site_label
 _atom_site_symmetry_multiplicity
 _atom_site_fract_x
 _atom_site_fract_y
 _atom_site_fract_z
 _atom_site_occupancy
  Ba  Ba0  1  0.49999997  0.74999998  0.24999998  1
  Ba  Ba1  1  -0.00000001  0.49999998  0.49999998  1
  Sr  Sr2  1  0.87672897  0.25172899  0.87499997  1
  Sr  Sr3  1  0.37672899  0.12500000  0.00172900  1
  Ca  Ca4  1  0.12327098  0.99827097  0.37499998  1
  Ca  Ca5  1  0.62327097  0.62499998  0.74827097  1
  S  S6  1  0.75061598  0.02084200  0.11771499  1
  S  S7  1  0.59687298  0.22915799  0.47977398  1
  S  S8  1  0.40312697  0.88290097  0.63228497  1
  S  S9  1  0.09687298  0.72977398  0.97915797  1
  S  S10  1  0.74938397  0.52022598  0.11709898  1
  S  S11  1  0.25061599  0.36771499  0.77084198  1
  S  S12  1  0.90312696  0.88228497  0.63290097  1
  S  S13  1  0.24938399  0.36709899  0.27022599  1
