# generated using pymatgen
data_NaLi3FeNi3N2(OF3)2
_symmetry_space_group_name_H-M   'P 1'
_cell_length_a   3.19209695
_cell_length_b   4.84973288
_cell_length_c   14.47527027
_cell_angle_alpha   91.03800201
_cell_angle_beta   90.00000000
_cell_angle_gamma   90.00000000
_symmetry_Int_Tables_number   1
_chemical_formula_structural   NaLi3FeNi3N2(OF3)2
_chemical_formula_sum   'Na1 Li3 Fe1 Ni3 N2 O2 F6'
_cell_volume   224.05224448
_cell_formula_units_Z   1
loop_
 _symmetry_equiv_pos_site_id
 _symmetry_equiv_pos_as_xyz
  1  'x, y, z'
loop_
 _atom_site_type_symbol
 _atom_site_label
 _atom_site_symmetry_multiplicity
 _atom_site_fract_x
 _atom_site_fract_y
 _atom_site_fract_z
 _atom_site_occupancy
  Na  Na0  1  0.00000000  0.00000000  0.00000000  1
  Li  Li1  1  1.00000002  0.98711403  0.33062002  1
  Li  Li2  1  0.00000000  0.01288600  0.66938001  1
  Li  Li3  1  0.50000001  0.52859801  0.17753101  1
  Fe  Fe4  1  0.50000001  0.50000001  0.50000001  1
  Ni  Ni5  1  0.50000001  0.47140201  0.82246901  1
  Ni  Ni6  1  1.00000002  0.30778101  0.77197801  1
  Ni  Ni7  1  1.00000002  0.69221902  0.22802201  1
  O  O8  1  0.50000001  0.20889601  0.26153601  1
  N  N9  1  0.50000001  0.20080801  0.59678801  1
  F  F10  1  0.50000001  0.21304101  0.93408701  1
  F  F11  1  0.00000000  0.30607001  0.10170401  1
  N  N12  1  0.00000000  0.29506601  0.42956501  1
  F  F13  1  0.00000000  0.70493402  0.57043501  1
  F  F14  1  1.00000002  0.69393002  0.89829602  1
  F  F15  1  0.50000001  0.78695902  0.06591301  1
  O  O16  1  0.50000001  0.79919202  0.40321202  1
  F  F17  1  0.50000001  0.79110402  0.73846402  1
