# generated using pymatgen
data_CsRb4BaAlTlI12
_symmetry_space_group_name_H-M   'P 1'
_cell_length_a   7.84951019
_cell_length_b   7.91933584
_cell_length_c   11.22331619
_cell_angle_alpha   90.00000000
_cell_angle_beta   90.00000000
_cell_angle_gamma   89.54064941
_symmetry_Int_Tables_number   1
_chemical_formula_structural   CsRb4BaAlTlI12
_chemical_formula_sum   'Cs1 Rb4 Ba1 Al1 Tl1 I12'
_cell_volume   697.65154392
_cell_formula_units_Z   1
loop_
 _symmetry_equiv_pos_site_id
 _symmetry_equiv_pos_as_xyz
  1  'x, y, z'
loop_
 _atom_site_type_symbol
 _atom_site_label
 _atom_site_symmetry_multiplicity
 _atom_site_fract_x
 _atom_site_fract_y
 _atom_site_fract_z
 _atom_site_occupancy
  Ba  Ba0  1  0.02579899  0.51025501  0.74999999  1
  Al  Al1  1  0.97420096  0.48974500  0.25000000  1
  Cs  Cs2  1  0.52490396  0.99284601  0.74999999  1
  Tl  Tl3  1  0.47509599  0.00715400  0.25000000  1
  Rb  Rb4  1  0.49999997  0.50000001  0.00000000  1
  Rb  Rb5  1  0.49999997  0.50000001  0.49999999  1
  Rb  Rb6  1  0.00000000  0.00000000  0.00000000  1
  Rb  Rb7  1  0.00000000  0.00000000  0.49999999  1
  I  I8  1  0.80342597  0.30238800  0.95044698  1
  I  I9  1  0.19657398  0.69761201  0.04955300  1
  I  I10  1  0.19657398  0.69761201  0.45044699  1
  I  I11  1  0.80342597  0.30238800  0.54955299  1
  I  I12  1  0.69032496  0.80829301  0.47520799  1
  I  I13  1  0.30967499  0.19170700  0.52479199  1
  I  I14  1  0.30967499  0.19170700  0.97520798  1
  I  I15  1  0.69032496  0.80829301  0.02479200  1
  I  I16  1  0.45434497  0.57075601  0.74999999  1
  I  I17  1  0.54565497  0.42924400  0.25000000  1
  I  I18  1  0.00194398  0.92228301  0.74999999  1
  I  I19  1  0.99805597  0.07771700  0.25000000  1
