# generated using pymatgen
data_KRb2TlO4
_symmetry_space_group_name_H-M   'P 1'
_cell_length_a   5.43903303
_cell_length_b   5.43903303
_cell_length_c   7.00896311
_cell_angle_alpha   90.00000000
_cell_angle_beta   90.00000000
_cell_angle_gamma   95.99145508
_symmetry_Int_Tables_number   1
_chemical_formula_structural   KRb2TlO4
_chemical_formula_sum   'K1 Rb2 Tl1 O4'
_cell_volume   206.21408160
_cell_formula_units_Z   1
loop_
 _symmetry_equiv_pos_site_id
 _symmetry_equiv_pos_as_xyz
  1  'x, y, z'
loop_
 _atom_site_type_symbol
 _atom_site_label
 _atom_site_symmetry_multiplicity
 _atom_site_fract_x
 _atom_site_fract_y
 _atom_site_fract_z
 _atom_site_occupancy
  Tl  Tl0  1  0.99742504  0.99742504  -0.00000000  1
  K  K1  1  0.49742502  0.49742502  0.49999999  1
  Rb  Rb2  1  0.46683302  0.46683302  -0.00000000  1
  Rb  Rb3  1  0.96683304  0.96683304  0.49999999  1
  O  O4  1  0.47530502  0.80433703  0.85758099  1
  O  O5  1  0.80433703  0.47530502  0.14241900  1
  O  O6  1  0.97530504  0.30433701  0.64241899  1
  O  O7  1  0.30433701  0.97530504  0.35758099  1
