# generated using pymatgen
data_Sr3Ca5GaBP8
_symmetry_space_group_name_H-M   'P 1'
_cell_length_a   3.91495299
_cell_length_b   9.01488876
_cell_length_c   9.60712719
_cell_angle_alpha   90.00000000
_cell_angle_beta   90.00000000
_cell_angle_gamma   90.00000000
_symmetry_Int_Tables_number   1
_chemical_formula_structural   Sr3Ca5GaBP8
_chemical_formula_sum   'Sr3 Ca5 Ga1 B1 P8'
_cell_volume   339.06305014
_cell_formula_units_Z   1
loop_
 _symmetry_equiv_pos_site_id
 _symmetry_equiv_pos_as_xyz
  1  'x, y, z'
loop_
 _atom_site_type_symbol
 _atom_site_label
 _atom_site_symmetry_multiplicity
 _atom_site_fract_x
 _atom_site_fract_y
 _atom_site_fract_z
 _atom_site_occupancy
  Sr  Sr0  1  0.00000000  0.05898800  0.25000000  1
  Sr  Sr1  1  0.00000000  0.94101202  0.74999999  1
  Sr  Sr2  1  0.50000000  0.71444402  0.25000000  1
  Ca  Ca3  1  0.50000000  0.57675502  0.88672898  1
  Ca  Ca4  1  0.00000000  0.63998102  0.07809300  1
  Ca  Ca5  1  0.50000000  0.42324501  0.38672899  1
  Ca  Ca6  1  0.50000000  0.42324501  0.11327100  1
  Ca  Ca7  1  0.00000000  0.36001901  0.92190698  1
  Ga  Ga8  1  0.00000000  0.36001901  0.57809299  1
  B  B9  1  0.50000000  0.57675502  0.61327099  1
  P  P10  1  0.00000000  0.63998102  0.42190699  1
  P  P11  1  0.50000000  0.28555601  0.74999999  1
  P  P12  1  0.50000000  0.22032201  0.52799899  1
  P  P13  1  0.00000000  0.45750201  0.25000000  1
  P  P14  1  0.50000000  0.77967802  0.02799900  1
  P  P15  1  0.00000000  0.54249801  0.74999999  1
  P  P16  1  0.50000000  0.22032201  0.97200098  1
  P  P17  1  0.50000000  0.77967802  0.47200099  1
