# generated using pymatgen
data_LuCu7S12
_symmetry_space_group_name_H-M   'P 1'
_cell_length_a   5.76886988
_cell_length_b   5.97263288
_cell_length_c   8.23964024
_cell_angle_alpha   90.00000000
_cell_angle_beta   90.00000000
_cell_angle_gamma   89.57276154
_symmetry_Int_Tables_number   1
_chemical_formula_structural   LuCu7S12
_chemical_formula_sum   'Lu1 Cu7 S12'
_cell_volume   283.89172901
_cell_formula_units_Z   1
loop_
 _symmetry_equiv_pos_site_id
 _symmetry_equiv_pos_as_xyz
  1  'x, y, z'
loop_
 _atom_site_type_symbol
 _atom_site_label
 _atom_site_symmetry_multiplicity
 _atom_site_fract_x
 _atom_site_fract_y
 _atom_site_fract_z
 _atom_site_occupancy
  Lu  Lu0  1  0.48824602  0.44338401  0.24999999  1
  Cu  Cu1  1  0.51175403  0.55661602  0.74999998  1
  Cu  Cu2  1  0.00375603  0.94865203  0.24999999  1
  Cu  Cu3  1  0.99624402  0.05134800  0.74999998  1
  Cu  Cu4  1  0.50000001  0.00000000  0.49999999  1
  Cu  Cu5  1  0.50000001  0.00000000  0.00000000  1
  Cu  Cu6  1  0.00000001  0.50000001  0.49999999  1
  Cu  Cu7  1  0.00000001  0.50000001  -0.00000000  1
  S  S8  1  0.71249703  0.33281901  0.56142298  1
  S  S9  1  0.83947904  0.78691402  0.94123297  1
  S  S10  1  0.28750303  0.66718102  0.06142300  1
  S  S11  1  0.16052101  0.21308601  0.44123299  1
  S  S12  1  0.83947904  0.78691402  0.55876698  1
  S  S13  1  0.16052101  0.21308601  0.05876700  1
  S  S14  1  0.11807002  0.44477601  0.74999998  1
  S  S15  1  0.71249703  0.33281901  0.93857697  1
  S  S16  1  0.63526002  0.07439900  0.24999999  1
  S  S17  1  0.28750303  0.66718102  0.43857699  1
  S  S18  1  0.88193004  0.55522402  0.24999999  1
  S  S19  1  0.36474004  0.92560103  0.74999998  1
