# generated using pymatgen
data_Ce2Mg2Fe2CuAs6P4Ru3
_symmetry_space_group_name_H-M   'P 1'
_cell_length_a   5.82337284
_cell_length_b   5.82337284
_cell_length_c   9.37394905
_cell_angle_alpha   90.00000000
_cell_angle_beta   90.00000000
_cell_angle_gamma   90.00000000
_symmetry_Int_Tables_number   1
_chemical_formula_structural   Ce2Mg2Fe2CuAs6P4Ru3
_chemical_formula_sum   'Ce2 Mg2 Fe2 Cu1 As6 P4 Ru3'
_cell_volume   317.88627847
_cell_formula_units_Z   1
loop_
 _symmetry_equiv_pos_site_id
 _symmetry_equiv_pos_as_xyz
  1  'x, y, z'
loop_
 _atom_site_type_symbol
 _atom_site_label
 _atom_site_symmetry_multiplicity
 _atom_site_fract_x
 _atom_site_fract_y
 _atom_site_fract_z
 _atom_site_occupancy
  Cu  Cu0  1  0.21755101  0.35034201  0.08491200  1
  Mg  Mg1  1  0.35034201  0.78244902  0.91508800  1
  Mg  Mg2  1  0.64965802  0.21755101  0.91508800  1
  As  As3  1  0.78244902  0.64965802  0.08491200  1
  Ce  Ce4  1  0.35034201  0.21755101  0.41508800  1
  Ce  Ce5  1  0.64965802  0.78244902  0.41508800  1
  Fe  Fe6  1  0.78244902  0.35034201  0.58491200  1
  Fe  Fe7  1  0.21755101  0.64965802  0.58491200  1
  As  As8  1  0.17111600  0.17111600  0.75000000  1
  As  As9  1  0.17111600  0.82888402  0.25000000  1
  As  As10  1  0.82888402  0.17111600  0.25000000  1
  As  As11  1  0.82888402  0.82888402  0.75000000  1
  As  As12  1  0.00000000  0.50000001  0.37575700  1
  Ru  Ru13  1  0.50000001  0.00000000  0.62424300  1
  P  P14  1  0.50000001  0.00000000  0.12424300  1
  P  P15  1  0.00000000  0.50000001  0.87575700  1
  P  P16  1  0.50000001  0.50000001  0.25000000  1
  Ru  Ru17  1  0.50000001  0.50000001  0.75000000  1
  P  P18  1  0.00000000  0.00000000  0.00000000  1
  Ru  Ru19  1  0.00000000  0.00000000  0.50000000  1
