# generated using pymatgen
data_BaBr2
_symmetry_space_group_name_H-M   'P 1'
_cell_length_a   5.19632816
_cell_length_b   8.18933105
_cell_length_c   9.67823696
_cell_angle_alpha   90.00000000
_cell_angle_beta   90.00000000
_cell_angle_gamma   90.00000000
_symmetry_Int_Tables_number   1
_chemical_formula_structural   BaBr2
_chemical_formula_sum   'Ba4 Br8'
_cell_volume   411.85206631
_cell_formula_units_Z   4
loop_
 _symmetry_equiv_pos_site_id
 _symmetry_equiv_pos_as_xyz
  1  'x, y, z'
loop_
 _atom_site_type_symbol
 _atom_site_label
 _atom_site_symmetry_multiplicity
 _atom_site_fract_x
 _atom_site_fract_y
 _atom_site_fract_z
 _atom_site_occupancy
  Ba  Ba0  1  0.74999998  0.34923500  0.07809800  1
  Ba  Ba1  1  0.24999999  0.65076500  0.92190200  1
  Ba  Ba2  1  0.74999998  0.84923499  0.42190200  1
  Ba  Ba3  1  0.24999999  0.15076500  0.57809800  1
  Br  Br4  1  0.24999999  0.01836200  0.17358100  1
  Br  Br5  1  0.74999998  0.98163799  0.82641900  1
  Br  Br6  1  0.24999999  0.51836200  0.32641900  1
  Br  Br7  1  0.74999998  0.48163800  0.67358100  1
  Br  Br8  1  0.24999999  0.75220699  0.60197000  1
  Br  Br9  1  0.74999998  0.24779300  0.39803000  1
  Br  Br10  1  0.24999999  0.25220700  0.89803000  1
  Br  Br11  1  0.74999998  0.74779300  0.10197000  1
