# generated using pymatgen
data_AlB5WO7
_symmetry_space_group_name_H-M   'P 1'
_cell_length_a   6.41306591
_cell_length_b   6.43031025
_cell_length_c   6.44445753
_cell_angle_alpha   107.23200989
_cell_angle_beta   107.12876129
_cell_angle_gamma   107.78905487
_symmetry_Int_Tables_number   1
_chemical_formula_structural   AlB5WO7
_chemical_formula_sum   'Al1 B5 W1 O7'
_cell_volume   218.96289006
_cell_formula_units_Z   1
loop_
 _symmetry_equiv_pos_site_id
 _symmetry_equiv_pos_as_xyz
  1  'x, y, z'
loop_
 _atom_site_type_symbol
 _atom_site_label
 _atom_site_symmetry_multiplicity
 _atom_site_fract_x
 _atom_site_fract_y
 _atom_site_fract_z
 _atom_site_occupancy
  W  W0  1  0.34954503  0.34910102  0.34898703  1
  Al  Al1  1  0.98102008  0.98047606  0.98356508  1
  B  B2  1  0.48683400  0.04994600  0.91239801  1
  B  B3  1  0.04699108  0.91225106  0.48800307  1
  B  B4  1  0.91574504  0.48875703  0.04916704  1
  B  B5  1  0.64064902  0.28765302  0.88774703  1
  O  O6  1  0.12530001  0.07927901  0.37586401  1
  B  B7  1  0.96976005  0.64011804  0.91783705  1
  O  O8  1  0.63716308  0.91828006  0.96451307  1
  O  O9  1  0.37147401  0.12511301  0.07641501  1
  O  O10  1  0.28488508  0.88894806  0.64057907  1
  O  O11  1  0.07785303  0.37157102  0.12266203  1
  O  O12  1  0.90880308  0.95610606  0.63340107  1
  O  O13  1  0.88996605  0.63839304  0.28485005  1
