# generated using pymatgen
data_Na3LiAlZn2BiSbSe11
_symmetry_space_group_name_H-M   'P 1'
_cell_length_a   3.89084697
_cell_length_b   8.86234570
_cell_length_c   14.29641438
_cell_angle_alpha   90.00000000
_cell_angle_beta   90.00000000
_cell_angle_gamma   90.00000000
_symmetry_Int_Tables_number   1
_chemical_formula_structural   Na3LiAlZn2BiSbSe11
_chemical_formula_sum   'Na3 Li1 Al1 Zn2 Bi1 Sb1 Se11'
_cell_volume   492.96940191
_cell_formula_units_Z   1
loop_
 _symmetry_equiv_pos_site_id
 _symmetry_equiv_pos_as_xyz
  1  'x, y, z'
loop_
 _atom_site_type_symbol
 _atom_site_label
 _atom_site_symmetry_multiplicity
 _atom_site_fract_x
 _atom_site_fract_y
 _atom_site_fract_z
 _atom_site_occupancy
  Al  Al0  1  0.75000001  0.05742900  0.67208798  1
  Na  Na1  1  0.25000000  0.94257103  0.32791199  1
  Li  Li2  1  0.75000001  0.55742902  0.82791198  1
  Na  Na3  1  0.25000000  0.44257102  0.17208800  1
  Na  Na4  1  0.75000001  0.33829101  0.44809999  1
  Zn  Zn5  1  0.25000000  0.66170902  0.55189999  1
  Bi  Bi6  1  0.75000001  0.83829103  0.05190000  1
  Zn  Zn7  1  0.25000000  0.16170901  0.94809998  1
  Sb  Sb8  1  0.25000000  0.02042100  0.09620400  1
  Se  Se9  1  0.75000001  0.97957903  0.90379598  1
  Se  Se10  1  0.25000000  0.52042102  0.40379599  1
  Se  Se11  1  0.75000001  0.47957902  0.59620398  1
  Se  Se12  1  0.25000000  0.18261101  0.50580699  1
  Se  Se13  1  0.75000001  0.81738903  0.49419299  1
  Se  Se14  1  0.25000000  0.68261102  0.99419297  1
  Se  Se15  1  0.75000001  0.31738901  0.00580700  1
  Se  Se16  1  0.75000001  0.23235901  0.29735699  1
  Se  Se17  1  0.25000000  0.76764103  0.70264298  1
  Se  Se18  1  0.75000001  0.73235903  0.20264299  1
  Se  Se19  1  0.25000000  0.26764101  0.79735698  1
