# generated using pymatgen
data_CsK4IO2
_symmetry_space_group_name_H-M   'P 1'
_cell_length_a   5.80436563
_cell_length_b   5.80436563
_cell_length_c   7.64933586
_cell_angle_alpha   67.70327759
_cell_angle_beta   67.70327759
_cell_angle_gamma   60.00000381
_symmetry_Int_Tables_number   1
_chemical_formula_structural   CsK4IO2
_chemical_formula_sum   'Cs1 K4 I1 O2'
_cell_volume   200.62665799
_cell_formula_units_Z   1
loop_
 _symmetry_equiv_pos_site_id
 _symmetry_equiv_pos_as_xyz
  1  'x, y, z'
loop_
 _atom_site_type_symbol
 _atom_site_label
 _atom_site_symmetry_multiplicity
 _atom_site_fract_x
 _atom_site_fract_y
 _atom_site_fract_z
 _atom_site_occupancy
  K  K0  1  0.08937100  0.08937100  0.73188699  1
  K  K1  1  0.91062899  0.91062900  0.26811295  1
  K  K2  1  0.50000000  0.50000000  0.49999997  1
  Cs  Cs3  1  0.50000000  0.50000000  -0.00000003  1
  K  K4  1  -0.00000000  0.50000000  -0.00000001  1
  I  I5  1  0.50000000  0.00000000  -0.00000001  1
  O  O6  1  0.74765499  0.74765500  0.75703495  1
  O  O7  1  0.25234500  0.25234500  0.24296498  1
