# generated using pymatgen
data_Mg4PS5
_symmetry_space_group_name_H-M   'P 1'
_cell_length_a   3.64701390
_cell_length_b   3.64701343
_cell_length_c   12.92159653
_cell_angle_alpha   90.00000000
_cell_angle_beta   90.00000000
_cell_angle_gamma   120.00000763
_symmetry_Int_Tables_number   1
_chemical_formula_structural   Mg4PS5
_chemical_formula_sum   'Mg4 P1 S5'
_cell_volume   148.84064915
_cell_formula_units_Z   1
loop_
 _symmetry_equiv_pos_site_id
 _symmetry_equiv_pos_as_xyz
  1  'x, y, z'
loop_
 _atom_site_type_symbol
 _atom_site_label
 _atom_site_symmetry_multiplicity
 _atom_site_fract_x
 _atom_site_fract_y
 _atom_site_fract_z
 _atom_site_occupancy
  Mg  Mg0  1  0.66666669  0.33333333  0.39749001  1
  Mg  Mg1  1  0.33333336  0.66666666  0.89749003  1
  Mg  Mg2  1  0.33333336  0.66666666  0.60251002  1
  Mg  Mg3  1  0.66666669  0.33333333  0.10251000  1
  P  P4  1  0.00000000  0.00000000  0.75000003  1
  S  S5  1  0.00000000  0.00000000  0.25000001  1
  S  S6  1  0.33333336  0.66666666  0.43175002  1
  S  S7  1  0.66666669  0.33333333  0.93175003  1
  S  S8  1  0.66666669  0.33333333  0.56825002  1
  S  S9  1  0.33333336  0.66666666  0.06825000  1
