# generated using pymatgen
data_Ba4UInSnHgO12
_symmetry_space_group_name_H-M   'P 1'
_cell_length_a   5.81094694
_cell_length_b   6.13298988
_cell_length_c   8.33586311
_cell_angle_alpha   90.00000000
_cell_angle_beta   90.00000000
_cell_angle_gamma   90.00000000
_symmetry_Int_Tables_number   1
_chemical_formula_structural   Ba4UInSnHgO12
_chemical_formula_sum   'Ba4 U1 In1 Sn1 Hg1 O12'
_cell_volume   297.07748088
_cell_formula_units_Z   1
loop_
 _symmetry_equiv_pos_site_id
 _symmetry_equiv_pos_as_xyz
  1  'x, y, z'
loop_
 _atom_site_type_symbol
 _atom_site_label
 _atom_site_symmetry_multiplicity
 _atom_site_fract_x
 _atom_site_fract_y
 _atom_site_fract_z
 _atom_site_occupancy
  Ba  Ba0  1  0.50000001  0.80315402  0.76849099  1
  Ba  Ba1  1  0.00000000  0.19684600  0.26849100  1
  Ba  Ba2  1  0.50000001  0.80315402  0.23150900  1
  Ba  Ba3  1  0.00000000  0.19684600  0.73150899  1
  Hg  Hg4  1  0.00000000  0.72166401  0.49999999  1
  U  U5  1  0.50000001  0.27833601  -0.00000000  1
  In  In6  1  0.50000001  0.23532900  0.49999999  1
  Sn  Sn7  1  0.00000000  0.76467101  0.00000000  1
  O  O8  1  0.50000001  0.21776300  0.73243899  1
  O  O9  1  0.50000001  0.21776300  0.26756100  1
  O  O10  1  0.00000000  0.78223701  0.76756099  1
  O  O11  1  0.00000000  0.78223701  0.23243900  1
  O  O12  1  0.74694901  0.43754301  0.49999999  1
  O  O13  1  0.25305100  0.43754301  0.49999999  1
  O  O14  1  0.73150201  0.99367702  0.49999999  1
  O  O15  1  0.26849800  0.99367702  0.49999999  1
  O  O16  1  0.24694900  0.56245701  -0.00000000  1
  O  O17  1  0.75305101  0.56245701  -0.00000000  1
  O  O18  1  0.76849801  0.00632300  0.00000000  1
  O  O19  1  0.23150200  0.00632300  0.00000000  1
