# generated using pymatgen
data_Ba4Al(GeS4)3
_symmetry_space_group_name_H-M   'P 1'
_cell_length_a   6.85667992
_cell_length_b   7.92195320
_cell_length_c   10.03915310
_cell_angle_alpha   90.00000000
_cell_angle_beta   91.44361115
_cell_angle_gamma   90.00000000
_symmetry_Int_Tables_number   1
_chemical_formula_structural   Ba4Al(GeS4)3
_chemical_formula_sum   'Ba4 Al1 Ge3 S12'
_cell_volume   545.13662439
_cell_formula_units_Z   1
loop_
 _symmetry_equiv_pos_site_id
 _symmetry_equiv_pos_as_xyz
  1  'x, y, z'
loop_
 _atom_site_type_symbol
 _atom_site_label
 _atom_site_symmetry_multiplicity
 _atom_site_fract_x
 _atom_site_fract_y
 _atom_site_fract_z
 _atom_site_occupancy
  Ba  Ba0  1  0.54285601  0.10231300  0.24643699  1
  Ba  Ba1  1  0.95714401  0.60231298  0.25356297  1
  Ba  Ba2  1  0.45714400  0.89768698  0.75356300  1
  Ba  Ba3  1  0.04285600  0.39768699  0.74643702  1
  Al  Al4  1  0.05226500  0.10849300  0.43747301  1
  Ge  Ge5  1  0.44773500  0.60849298  0.06252698  1
  Ge  Ge6  1  0.94773501  0.89150698  0.56252698  1
  Ge  Ge7  1  0.55226501  0.39150699  0.93747301  1
  S  S8  1  0.57200301  0.48221399  0.74940100  1
  S  S9  1  0.92799701  0.98221398  0.75059899  1
  S  S10  1  0.42799700  0.51778599  0.25059899  1
  S  S11  1  0.07200300  0.01778600  0.24940100  1
  S  S12  1  0.80737001  0.31138199  0.02410997  1
  S  S13  1  0.69263001  0.81138198  0.47588999  1
  S  S14  1  0.19263000  0.68861798  0.97589002  1
  S  S15  1  0.30737000  0.18861800  0.52411000  1
  S  S16  1  0.34111000  0.21139099  0.95398902  1
  S  S17  1  0.15889000  0.71139098  0.54601101  1
  S  S18  1  0.65889001  0.78860898  0.04601097  1
  S  S19  1  0.84111001  0.28860899  0.45398898  1
