# generated using pymatgen
data_LiF
_symmetry_space_group_name_H-M   'P 1'
_cell_length_a   3.01138210
_cell_length_b   7.39423513
_cell_length_c   7.40976238
_cell_angle_alpha   108.94548798
_cell_angle_beta   90.00000000
_cell_angle_gamma   90.00000000
_symmetry_Int_Tables_number   1
_chemical_formula_structural   LiF
_chemical_formula_sum   'Li8 F8'
_cell_volume   156.05422195
_cell_formula_units_Z   8
loop_
 _symmetry_equiv_pos_site_id
 _symmetry_equiv_pos_as_xyz
  1  'x, y, z'
loop_
 _atom_site_type_symbol
 _atom_site_label
 _atom_site_symmetry_multiplicity
 _atom_site_fract_x
 _atom_site_fract_y
 _atom_site_fract_z
 _atom_site_occupancy
  Li  Li0  1  0.24999999  0.31140999  0.93643300  1
  Li  Li1  1  0.74999997  0.68858998  0.06356699  1
  Li  Li2  1  0.74999997  0.43889999  0.31229400  1
  Li  Li3  1  0.24999999  0.56109999  0.68770600  1
  Li  Li4  1  0.74999997  0.93534398  0.81254899  1
  Li  Li5  1  0.74999997  0.18841000  0.56163400  1
  Li  Li6  1  0.24999999  0.81158998  0.43836599  1
  Li  Li7  1  0.24999999  0.06465600  0.18745100  1
  F  F8  1  0.74999997  0.93626598  0.30806899  1
  F  F9  1  0.74999997  0.68203798  0.56078400  1
  F  F10  1  0.24999999  0.31796199  0.43921600  1
  F  F11  1  0.24999999  0.06373400  0.69193100  1
  F  F12  1  0.24999999  0.80681298  0.93406100  1
  F  F13  1  0.74999997  0.43917499  0.81602400  1
  F  F14  1  0.74999997  0.19318700  0.06593900  1
  F  F15  1  0.24999999  0.56082499  0.18397599  1
