# generated using pymatgen
data_TlIn4CuGePSe12
_symmetry_space_group_name_H-M   'P 1'
_cell_length_a   6.49132776
_cell_length_b   8.56234169
_cell_length_c   8.56234169
_cell_angle_alpha   102.39601135
_cell_angle_beta   90.00000000
_cell_angle_gamma   90.00000000
_symmetry_Int_Tables_number   1
_chemical_formula_structural   TlIn4CuGePSe12
_chemical_formula_sum   'Tl1 In4 Cu1 Ge1 P1 Se12'
_cell_volume   464.80860023
_cell_formula_units_Z   1
loop_
 _symmetry_equiv_pos_site_id
 _symmetry_equiv_pos_as_xyz
  1  'x, y, z'
loop_
 _atom_site_type_symbol
 _atom_site_label
 _atom_site_symmetry_multiplicity
 _atom_site_fract_x
 _atom_site_fract_y
 _atom_site_fract_z
 _atom_site_occupancy
  Cu  Cu0  1  0.77565903  0.08528500  0.28419299  1
  Tl  Tl1  1  0.77565903  0.71580698  0.91471496  1
  In  In2  1  0.27565901  0.91471497  0.71580697  1
  In  In3  1  0.27565901  0.28419299  0.08528499  1
  In  In4  1  0.85886303  0.59911898  0.40088098  1
  In  In5  1  0.35886301  0.40088099  0.59911898  1
  Ge  Ge6  1  0.23850501  0.79863997  0.20135999  1
  P  P7  1  0.73850503  0.20135999  0.79863997  1
  Se  Se8  1  0.55898002  0.10113000  0.56774798  1
  Se  Se9  1  0.55898002  0.43225199  0.89886997  1
  Se  Se10  1  0.05898000  0.89886997  0.43225198  1
  Se  Se11  1  0.05898000  0.56774798  0.10112999  1
  Se  Se12  1  0.56652502  0.68981098  0.63413997  1
  Se  Se13  1  0.56652502  0.36585999  0.31018899  1
  Se  Se14  1  0.06652500  0.31018899  0.36585999  1
  Se  Se15  1  0.06652500  0.63413998  0.68981097  1
  Se  Se16  1  0.58964902  0.78229797  0.21770199  1
  Se  Se17  1  0.08964900  0.21770199  0.78229797  1
  Se  Se18  1  0.59565402  0.04033800  0.95966197  1
  Se  Se19  1  0.09565400  0.95966197  0.04033799  1
