# generated using pymatgen
data_V2O5
_symmetry_space_group_name_H-M   'P 1'
_cell_length_a   4.27319098
_cell_length_b   4.50773811
_cell_length_c   6.88532877
_cell_angle_alpha   70.89237213
_cell_angle_beta   90.00000000
_cell_angle_gamma   90.00000000
_symmetry_Int_Tables_number   1
_chemical_formula_structural   V2O5
_chemical_formula_sum   'V4 O10'
_cell_volume   125.32103282
_cell_formula_units_Z   2
loop_
 _symmetry_equiv_pos_site_id
 _symmetry_equiv_pos_as_xyz
  1  'x, y, z'
loop_
 _atom_site_type_symbol
 _atom_site_label
 _atom_site_symmetry_multiplicity
 _atom_site_fract_x
 _atom_site_fract_y
 _atom_site_fract_z
 _atom_site_occupancy
  V  V0  1  0.25000000  0.67926098  0.64147801  1
  V  V1  1  0.75000000  0.32073899  0.35852200  1
  V  V2  1  0.75000000  0.09091700  0.81816601  1
  V  V3  1  0.25000000  0.90908298  0.18183400  1
  O  O4  1  0.47039700  0.59878998  0.18418300  1
  O  O5  1  0.02960300  0.21702699  0.18418300  1
  O  O6  1  0.97039701  0.40120999  0.81581701  1
  O  O7  1  0.52960300  0.78297298  0.81581701  1
  O  O8  1  0.02948200  0.64982998  0.38936900  1
  O  O9  1  0.47051800  0.96080098  0.38936900  1
  O  O10  1  0.52948200  0.35016999  0.61063101  1
  O  O11  1  0.97051801  0.03919900  0.61063101  1
  O  O12  1  0.00000000  0.83557598  1.00000001  1
  O  O13  1  0.50000000  0.16442400  1.00000001  1
