# generated using pymatgen
data_K2NaAgCl4
_symmetry_space_group_name_H-M   'P 1'
_cell_length_a   6.96263599
_cell_length_b   8.25757790
_cell_length_c   8.25757790
_cell_angle_alpha   90.00000000
_cell_angle_beta   90.00000000
_cell_angle_gamma   90.00000000
_symmetry_Int_Tables_number   1
_chemical_formula_structural   K2NaAgCl4
_chemical_formula_sum   'K4 Na2 Ag2 Cl8'
_cell_volume   474.76538735
_cell_formula_units_Z   2
loop_
 _symmetry_equiv_pos_site_id
 _symmetry_equiv_pos_as_xyz
  1  'x, y, z'
loop_
 _atom_site_type_symbol
 _atom_site_label
 _atom_site_symmetry_multiplicity
 _atom_site_fract_x
 _atom_site_fract_y
 _atom_site_fract_z
 _atom_site_occupancy
  K  K0  1  0.50000000  0.50000001  0.50000001  1
  K  K1  1  0.00000000  0.50000001  0.50000001  1
  K  K2  1  0.50000000  0.00000000  0.00000000  1
  K  K3  1  0.50000000  0.50000001  -0.00000000  1
  Na  Na4  1  0.00000000  0.00000000  0.50000001  1
  Na  Na5  1  0.50000000  0.00000000  0.50000001  1
  Ag  Ag6  1  0.00000000  0.50000001  -0.00000000  1
  Ag  Ag7  1  0.00000000  0.00000000  0.00000000  1
  Cl  Cl8  1  0.24950000  0.17140000  0.67220701  1
  Cl  Cl9  1  0.75050000  0.67220701  0.17140000  1
  Cl  Cl10  1  0.75050000  0.32779300  0.82860001  1
  Cl  Cl11  1  0.24950000  0.82860001  0.32779300  1
  Cl  Cl12  1  0.24950000  0.67220701  0.82860001  1
  Cl  Cl13  1  0.75050000  0.17140000  0.32779300  1
  Cl  Cl14  1  0.75050000  0.82860001  0.67220701  1
  Cl  Cl15  1  0.24950000  0.32779300  0.17140000  1
