# generated using pymatgen
data_KSr2CaInPSN
_symmetry_space_group_name_H-M   'P 1'
_cell_length_a   4.26001787
_cell_length_b   4.26001787
_cell_length_c   10.68799305
_cell_angle_alpha   90.00000000
_cell_angle_beta   90.00000000
_cell_angle_gamma   90.00000000
_symmetry_Int_Tables_number   1
_chemical_formula_structural   KSr2CaInPSN
_chemical_formula_sum   'K1 Sr2 Ca1 In1 P1 S1 N1'
_cell_volume   193.96305011
_cell_formula_units_Z   1
loop_
 _symmetry_equiv_pos_site_id
 _symmetry_equiv_pos_as_xyz
  1  'x, y, z'
loop_
 _atom_site_type_symbol
 _atom_site_label
 _atom_site_symmetry_multiplicity
 _atom_site_fract_x
 _atom_site_fract_y
 _atom_site_fract_z
 _atom_site_occupancy
  K  K0  1  0.00000000  0.00000000  0.50000000  1
  Sr  Sr1  1  0.50000002  0.00000000  0.84819800  1
  Sr  Sr2  1  0.00000000  0.50000002  0.84819800  1
  Ca  Ca3  1  0.50000002  0.00000000  0.15180200  1
  In  In4  1  0.00000000  0.50000002  0.15180200  1
  N  N5  1  0.50000002  0.50000002  0.71985500  1
  P  P6  1  0.50000002  0.50000002  0.28014500  1
  S  S7  1  0.00000000  0.00000000  0.00000000  1
