# generated using pymatgen
data_ScBiSb4PPbO9
_symmetry_space_group_name_H-M   'P 1'
_cell_length_a   3.79267406
_cell_length_b   8.20559788
_cell_length_c   8.42451954
_cell_angle_alpha   73.32201385
_cell_angle_beta   76.99140167
_cell_angle_gamma   76.63799286
_symmetry_Int_Tables_number   1
_chemical_formula_structural   ScBiSb4PPbO9
_chemical_formula_sum   'Sc1 Bi1 Sb4 P1 Pb1 O9'
_cell_volume   240.78092995
_cell_formula_units_Z   1
loop_
 _symmetry_equiv_pos_site_id
 _symmetry_equiv_pos_as_xyz
  1  'x, y, z'
loop_
 _atom_site_type_symbol
 _atom_site_label
 _atom_site_symmetry_multiplicity
 _atom_site_fract_x
 _atom_site_fract_y
 _atom_site_fract_z
 _atom_site_occupancy
  Sc  Sc0  1  0.88500500  0.47068801  0.75930205  1
  Sb  Sb1  1  0.11499502  0.52931201  0.24069800  1
  Bi  Bi2  1  0.84783798  0.15798000  0.14634403  1
  Sb  Sb3  1  0.37133303  0.83556602  0.42176801  1
  P  P4  1  0.62866699  0.16443400  0.57823204  1
  Sb  Sb5  1  0.15216204  0.84202002  0.85365602  1
  Sb  Sb6  1  0.83586302  0.91950602  0.40876802  1
  Pb  Pb7  1  0.65295903  0.91231802  0.78176403  1
  O  O8  1  0.82403599  0.35786301  0.99406506  1
  O  O9  1  0.68358999  0.28407501  0.34874503  1
  O  O10  1  0.51025502  0.66620102  0.31328901  1
  O  O11  1  0.48974500  0.33379901  0.68671104  1
  O  O12  1  0.31641003  0.71592502  0.65125502  1
  O  O13  1  0.00000000  0.00000000  0.00000000  1
  O  O14  1  0.17596403  0.64213701  0.00593499  1
  O  O15  1  0.34704099  0.08768200  0.21823602  1
  O  O16  1  0.16413700  0.08049400  0.59123203  1
