# generated using pymatgen
data_SrCa3In3CuO12
_symmetry_space_group_name_H-M   'P 1'
_cell_length_a   5.35450983
_cell_length_b   5.66560411
_cell_length_c   7.73239613
_cell_angle_alpha   90.00000000
_cell_angle_beta   90.00000000
_cell_angle_gamma   90.00000000
_symmetry_Int_Tables_number   1
_chemical_formula_structural   SrCa3In3CuO12
_chemical_formula_sum   'Sr1 Ca3 In3 Cu1 O12'
_cell_volume   234.57408967
_cell_formula_units_Z   1
loop_
 _symmetry_equiv_pos_site_id
 _symmetry_equiv_pos_as_xyz
  1  'x, y, z'
loop_
 _atom_site_type_symbol
 _atom_site_label
 _atom_site_symmetry_multiplicity
 _atom_site_fract_x
 _atom_site_fract_y
 _atom_site_fract_z
 _atom_site_occupancy
  Sr  Sr0  1  0.01857100  0.93171898  0.74999999  1
  Ca  Ca1  1  0.51857102  0.56828099  0.25000000  1
  Ca  Ca2  1  0.48142902  0.43171899  0.74999999  1
  Ca  Ca3  1  0.98142903  0.06828100  0.25000000  1
  In  In4  1  0.50000002  0.00000000  0.49999999  1
  In  In5  1  0.00000000  0.49999999  0.49999999  1
  In  In6  1  0.00000000  0.49999999  -0.00000000  1
  Cu  Cu7  1  0.50000002  0.00000000  0.00000000  1
  O  O8  1  0.69244602  0.30533599  0.44163499  1
  O  O9  1  0.19244601  0.19466400  0.55836499  1
  O  O10  1  0.80755403  0.80533598  0.05836500  1
  O  O11  1  0.30755401  0.69466399  0.94163498  1
  O  O12  1  0.30755401  0.69466399  0.55836499  1
  O  O13  1  0.80755403  0.80533598  0.44163499  1
  O  O14  1  0.19244601  0.19466400  0.94163498  1
  O  O15  1  0.69244602  0.30533599  0.05836500  1
  O  O16  1  0.11365500  0.45905499  0.25000000  1
  O  O17  1  0.61365502  0.04094500  0.74999999  1
  O  O18  1  0.38634501  0.95905498  0.25000000  1
  O  O19  1  0.88634503  0.54094499  0.74999999  1
