# generated using pymatgen
data_Na2ThWO6
_symmetry_space_group_name_H-M   'P 1'
_cell_length_a   5.86090374
_cell_length_b   5.86090374
_cell_length_c   5.86090422
_cell_angle_alpha   60.00000381
_cell_angle_beta   60.00000381
_cell_angle_gamma   60.00000000
_symmetry_Int_Tables_number   1
_chemical_formula_structural   Na2ThWO6
_chemical_formula_sum   'Na2 Th1 W1 O6'
_cell_volume   142.35700032
_cell_formula_units_Z   1
loop_
 _symmetry_equiv_pos_site_id
 _symmetry_equiv_pos_as_xyz
  1  'x, y, z'
loop_
 _atom_site_type_symbol
 _atom_site_label
 _atom_site_symmetry_multiplicity
 _atom_site_fract_x
 _atom_site_fract_y
 _atom_site_fract_z
 _atom_site_occupancy
  Na  Na0  1  0.74999995  0.75000002  0.75000007  1
  Na  Na1  1  0.24999998  0.25000001  0.25000002  1
  Th  Th2  1  0.00000000  0.00000000  0.00000000  1
  W  W3  1  0.49999997  0.50000001  0.50000005  1
  O  O4  1  0.73509998  0.26490001  0.73510004  1
  O  O5  1  0.26489995  0.73510002  0.73510005  1
  O  O6  1  0.73509998  0.26490001  0.26490004  1
  O  O7  1  0.26489998  0.26490001  0.73510003  1
  O  O8  1  0.26489995  0.73510002  0.26490005  1
  O  O9  1  0.73509995  0.73510002  0.26490007  1
