# generated using pymatgen
data_Er2LuZnInGeSe8
_symmetry_space_group_name_H-M   'P 1'
_cell_length_a   8.36693954
_cell_length_b   8.36693954
_cell_length_c   8.36693954
_cell_angle_alpha   60.00000000
_cell_angle_beta   60.00000000
_cell_angle_gamma   60.00000000
_symmetry_Int_Tables_number   1
_chemical_formula_structural   Er2LuZnInGeSe8
_chemical_formula_sum   'Er2 Lu1 Zn1 In1 Ge1 Se8'
_cell_volume   414.17596727
_cell_formula_units_Z   1
loop_
 _symmetry_equiv_pos_site_id
 _symmetry_equiv_pos_as_xyz
  1  'x, y, z'
loop_
 _atom_site_type_symbol
 _atom_site_label
 _atom_site_symmetry_multiplicity
 _atom_site_fract_x
 _atom_site_fract_y
 _atom_site_fract_z
 _atom_site_occupancy
  In  In0  1  0.37500002  0.37500002  0.87500005  1
  Er  Er1  1  0.37500002  0.37500002  0.37500002  1
  Er  Er2  1  0.37500002  0.87500005  0.37500002  1
  Lu  Lu3  1  0.87500005  0.37500002  0.37500002  1
  Zn  Zn4  1  0.75000004  0.75000004  0.75000004  1
  Ge  Ge5  1  0.00000000  0.00000000  0.00000000  1
  Se  Se6  1  0.61813903  0.61813903  0.14558301  1
  Se  Se7  1  0.61813903  0.61813903  0.61813903  1
  Se  Se8  1  0.61813903  0.14558301  0.61813903  1
  Se  Se9  1  0.14558301  0.61813903  0.61813903  1
  Se  Se10  1  0.13186101  0.13186101  0.60441703  1
  Se  Se11  1  0.13186101  0.13186101  0.13186101  1
  Se  Se12  1  0.13186101  0.60441703  0.13186101  1
  Se  Se13  1  0.60441703  0.13186101  0.13186101  1
