# generated using pymatgen
data_NbAl3InCu(IO)7
_symmetry_space_group_name_H-M   'P 1'
_cell_length_a   7.45422602
_cell_length_b   7.65825415
_cell_length_c   10.16413116
_cell_angle_alpha   85.13777924
_cell_angle_beta   69.92330933
_cell_angle_gamma   61.26936340
_symmetry_Int_Tables_number   1
_chemical_formula_structural   NbAl3InCu(IO)7
_chemical_formula_sum   'Nb1 Al3 In1 Cu1 I7 O7'
_cell_volume   475.60851882
_cell_formula_units_Z   1
loop_
 _symmetry_equiv_pos_site_id
 _symmetry_equiv_pos_as_xyz
  1  'x, y, z'
loop_
 _atom_site_type_symbol
 _atom_site_label
 _atom_site_symmetry_multiplicity
 _atom_site_fract_x
 _atom_site_fract_y
 _atom_site_fract_z
 _atom_site_occupancy
  Nb  Nb0  1  0.23359799  0.27763301  0.49472700  1
  In  In1  1  0.08032398  0.92727003  0.17128803  1
  Al  Al2  1  0.93457497  0.54719602  0.83391502  1
  Al  Al3  1  0.91967598  0.07273000  0.82871200  1
  I  I4  1  0.60157198  0.43382501  0.14035803  1
  I  I5  1  0.06542499  0.45280402  0.16608501  1
  Al  Al6  1  0.39842798  0.56617502  0.85964200  1
  Cu  Cu7  1  0.76640197  0.72236702  0.50527303  1
  O  O8  1  0.59863497  0.94135803  0.13200605  1
  I  I9  1  0.29854198  0.71460702  0.47493102  1
  I  I10  1  0.70145798  0.28539301  0.52506901  1
  O  O11  1  0.40136499  0.05864200  0.86799398  1
  O  O12  1  0.49854097  0.79773903  0.00626505  1
  I  I13  1  0.81255298  0.39911801  0.64940601  1
  O  O14  1  0.94174097  0.78286103  0.01749706  1
  O  O15  1  0.50145899  0.20226101  0.99373498  1
  O  O16  1  0.05825899  0.21713901  0.98250297  1
  I  I17  1  0.18744698  0.60088202  0.35059402  1
  O  O18  1  0.66425498  0.51768002  0.36861603  1
  I  I19  1  0.33574498  0.48232002  0.63138400  1
