# generated using pymatgen
data_LiFe2CuS6
_symmetry_space_group_name_H-M   'P 1'
_cell_length_a   5.79168606
_cell_length_b   5.79168606
_cell_length_c   5.79168606
_cell_angle_alpha   89.54521942
_cell_angle_beta   119.47603607
_cell_angle_gamma   59.99979401
_symmetry_Int_Tables_number   1
_chemical_formula_structural   LiFe2CuS6
_chemical_formula_sum   'Li1 Fe2 Cu1 S6'
_cell_volume   137.90806451
_cell_formula_units_Z   1
loop_
 _symmetry_equiv_pos_site_id
 _symmetry_equiv_pos_as_xyz
  1  'x, y, z'
loop_
 _atom_site_type_symbol
 _atom_site_label
 _atom_site_symmetry_multiplicity
 _atom_site_fract_x
 _atom_site_fract_y
 _atom_site_fract_z
 _atom_site_occupancy
  Li  Li0  1  0.99038408  0.74999998  0.24038409  1
  Fe  Fe1  1  0.00961602  0.24999999  0.75961604  1
  Cu  Cu2  1  0.50000001  0.00000000  0.50000002  1
  Fe  Fe3  1  0.50000005  0.49999999  0.00000006  1
  S  S4  1  0.50000003  0.20529099  0.79470904  1
  S  S5  1  0.00000002  0.29470899  0.20529103  1
  S  S6  1  0.50000008  0.79470898  0.20529109  1
  S  S7  1  0.00000006  0.70529098  0.79470908  1
  S  S8  1  0.57993803  0.24999999  0.32993804  1
  S  S9  1  0.42006207  0.74999998  0.67006209  1
