# generated using pymatgen
data_Nb3Zn(MoO4)2
_symmetry_space_group_name_H-M   'P 1'
_cell_length_a   6.10187578
_cell_length_b   6.11801434
_cell_length_c   6.11801434
_cell_angle_alpha   60.03915024
_cell_angle_beta   60.08721924
_cell_angle_gamma   60.08721924
_symmetry_Int_Tables_number   1
_chemical_formula_structural   Nb3Zn(MoO4)2
_chemical_formula_sum   'Nb3 Zn1 Mo2 O8'
_cell_volume   161.75931474
_cell_formula_units_Z   1
loop_
 _symmetry_equiv_pos_site_id
 _symmetry_equiv_pos_as_xyz
  1  'x, y, z'
loop_
 _atom_site_type_symbol
 _atom_site_label
 _atom_site_symmetry_multiplicity
 _atom_site_fract_x
 _atom_site_fract_y
 _atom_site_fract_z
 _atom_site_occupancy
  Nb  Nb0  1  0.87435603  0.37564398  0.87564398  1
  Zn  Zn1  1  0.12564399  0.62435597  0.12435602  1
  Nb  Nb2  1  0.00000000  0.00000000  0.49999998  1
  Nb  Nb3  1  0.50000002  0.00000000  0.49999998  1
  Mo  Mo4  1  0.50000001  0.49999998  0.50000000  1
  Mo  Mo5  1  0.50000002  0.00000000  -0.00000000  1
  O  O6  1  0.70872301  0.76574097  0.26574001  1
  O  O7  1  0.25979700  0.76573997  0.26574002  1
  O  O8  1  0.26249501  0.20756299  0.26744700  1
  O  O9  1  0.26249500  0.76744697  0.70756300  1
  O  O10  1  0.29127701  0.23425899  0.73425998  1
  O  O11  1  0.74020302  0.23425999  0.73425998  1
  O  O12  1  0.73750501  0.79243697  0.73255300  1
  O  O13  1  0.73750502  0.23255299  0.29243699  1
