# generated using pymatgen
data_BaNaYScWN2Cl5
_symmetry_space_group_name_H-M   'P 1'
_cell_length_a   4.28236198
_cell_length_b   8.15387249
_cell_length_c   9.97037506
_cell_angle_alpha   108.33606720
_cell_angle_beta   90.00000000
_cell_angle_gamma   105.22420502
_symmetry_Int_Tables_number   1
_chemical_formula_structural   BaNaYScWN2Cl5
_chemical_formula_sum   'Ba1 Na1 Y1 Sc1 W1 N2 Cl5'
_cell_volume   317.57059690
_cell_formula_units_Z   1
loop_
 _symmetry_equiv_pos_site_id
 _symmetry_equiv_pos_as_xyz
  1  'x, y, z'
loop_
 _atom_site_type_symbol
 _atom_site_label
 _atom_site_symmetry_multiplicity
 _atom_site_fract_x
 _atom_site_fract_y
 _atom_site_fract_z
 _atom_site_occupancy
  Ba  Ba0  1  0.69237602  0.38475101  0.85982496  1
  Sc  Sc1  1  0.30762403  0.61524902  0.14017497  1
  Na  Na2  1  0.66631402  0.33262901  0.54968797  1
  Y  Y3  1  0.33368603  0.66737102  0.45031196  1
  N  N4  1  0.67513802  0.35027701  0.15311998  1
  W  W5  1  0.32486203  0.64972302  0.84687995  1
  Cl  Cl6  1  0.48867704  0.97735403  0.22925595  1
  N  N7  1  0.51132300  0.02264600  0.77074398  1
  Cl  Cl8  1  0.75062702  0.50125402  0.39210797  1
  Cl  Cl9  1  0.24937302  0.49874602  0.60789196  1
  Cl  Cl10  1  0.74757502  0.49515002  0.83419296  1
  Cl  Cl11  1  0.25242502  0.50485002  0.16580698  1
