# generated using pymatgen
data_Ba2Sr3LaBiSbS2
_symmetry_space_group_name_H-M   'P 1'
_cell_length_a   4.22278261
_cell_length_b   4.22278261
_cell_length_c   18.33123970
_cell_angle_alpha   83.38600159
_cell_angle_beta   83.38600159
_cell_angle_gamma   59.99999237
_symmetry_Int_Tables_number   1
_chemical_formula_structural   Ba2Sr3LaBiSbS2
_chemical_formula_sum   'Ba2 Sr3 La1 Bi1 Sb1 S2'
_cell_volume   280.57210587
_cell_formula_units_Z   1
loop_
 _symmetry_equiv_pos_site_id
 _symmetry_equiv_pos_as_xyz
  1  'x, y, z'
loop_
 _atom_site_type_symbol
 _atom_site_label
 _atom_site_symmetry_multiplicity
 _atom_site_fract_x
 _atom_site_fract_y
 _atom_site_fract_z
 _atom_site_occupancy
  Ba  Ba0  1  0.40755697  0.40755699  0.77732897  1
  Ba  Ba1  1  0.80315294  0.80315297  0.59054096  1
  Sr  Sr2  1  0.20268599  0.20268599  0.39194199  1
  Sr  Sr3  1  0.60240996  0.60240998  0.19276998  1
  Sr  Sr4  1  0.00198700  0.00198700  0.99403898  1
  La  La5  1  0.49668996  0.49668998  0.50992997  1
  Sb  Sb6  1  0.89634794  0.89634797  0.31095597  1
  Bi  Bi7  1  0.29600098  0.29600099  0.11199699  1
  S  S8  1  0.69560495  0.69560498  0.91318496  1
  S  S9  1  0.10104099  0.10104100  0.69687698  1
