# generated using pymatgen
data_NaLi
_symmetry_space_group_name_H-M   'P 1'
_cell_length_a   3.95883203
_cell_length_b   3.95883203
_cell_length_c   5.59073782
_cell_angle_alpha   90.00000000
_cell_angle_beta   90.00000000
_cell_angle_gamma   90.00000000
_symmetry_Int_Tables_number   1
_chemical_formula_structural   NaLi
_chemical_formula_sum   'Na2 Li2'
_cell_volume   87.62000549
_cell_formula_units_Z   2
loop_
 _symmetry_equiv_pos_site_id
 _symmetry_equiv_pos_as_xyz
  1  'x, y, z'
loop_
 _atom_site_type_symbol
 _atom_site_label
 _atom_site_symmetry_multiplicity
 _atom_site_fract_x
 _atom_site_fract_y
 _atom_site_fract_z
 _atom_site_occupancy
  Na  Na0  1  0.50000000  0.00000000  0.76298702  1
  Na  Na1  1  0.00000000  0.50000000  0.23701301  1
  Li  Li2  1  0.00000000  0.00000000  0.50000002  1
  Li  Li3  1  0.50000000  0.50000000  -0.00000000  1
