# generated using pymatgen
data_Li3NiO5
_symmetry_space_group_name_H-M   'P 1'
_cell_length_a   3.76074910
_cell_length_b   5.07673454
_cell_length_c   6.66232061
_cell_angle_alpha   110.31642151
_cell_angle_beta   90.00000000
_cell_angle_gamma   111.73970032
_symmetry_Int_Tables_number   1
_chemical_formula_structural   Li3NiO5
_chemical_formula_sum   'Li3 Ni1 O5'
_cell_volume   109.58783974
_cell_formula_units_Z   1
loop_
 _symmetry_equiv_pos_site_id
 _symmetry_equiv_pos_as_xyz
  1  'x, y, z'
loop_
 _atom_site_type_symbol
 _atom_site_label
 _atom_site_symmetry_multiplicity
 _atom_site_fract_x
 _atom_site_fract_y
 _atom_site_fract_z
 _atom_site_occupancy
  Li  Li0  1  0.99957999  0.99915901  0.00569299  1
  Li  Li1  1  0.81755399  0.63510900  0.35056599  1
  Li  Li2  1  0.17878700  0.35757400  0.63529799  1
  O  O3  1  0.98614799  0.97229700  0.30362099  1
  O  O4  1  0.01427100  0.02854300  0.71295800  1
  O  O5  1  0.67776199  0.35552400  0.11177400  1
  O  O6  1  0.33323100  0.66646100  0.88896899  1
  Ni  Ni7  1  0.30482300  0.60964700  0.43051699  1
  O  O8  1  0.68784299  0.37568500  0.56060299  1
