# generated using pymatgen
data_K6RbSiO8
_symmetry_space_group_name_H-M   'P 1'
_cell_length_a   5.97999382
_cell_length_b   6.69720602
_cell_length_c   8.00759983
_cell_angle_alpha   90.00000000
_cell_angle_beta   90.00000000
_cell_angle_gamma   116.51642609
_symmetry_Int_Tables_number   1
_chemical_formula_structural   K6RbSiO8
_chemical_formula_sum   'K6 Rb1 Si1 O8'
_cell_volume   286.96295763
_cell_formula_units_Z   1
loop_
 _symmetry_equiv_pos_site_id
 _symmetry_equiv_pos_as_xyz
  1  'x, y, z'
loop_
 _atom_site_type_symbol
 _atom_site_label
 _atom_site_symmetry_multiplicity
 _atom_site_fract_x
 _atom_site_fract_y
 _atom_site_fract_z
 _atom_site_occupancy
  K  K0  1  0.60445902  0.20891801  0.45085901  1
  K  K1  1  0.39554100  0.79108202  0.95085902  1
  K  K2  1  0.93624302  0.87248602  0.58892001  1
  K  K3  1  0.06375700  0.12751400  0.08892000  1
  K  K4  1  0.79915202  0.59830402  0.17114100  1
  K  K5  1  0.20084800  0.40169601  0.67114101  1
  Si  Si6  1  0.30873000  0.61746002  0.38930301  1
  Rb  Rb7  1  0.69127002  0.38254001  0.88930302  1
  O  O8  1  0.88534402  0.29388801  0.78269802  1
  O  O9  1  0.11465599  0.70611202  0.28269801  1
  O  O10  1  0.63525002  0.27050001  0.09080200  1
  O  O11  1  0.36475000  0.72950002  0.59080201  1
  O  O12  1  0.40854401  0.29388801  0.78269802  1
  O  O13  1  0.59145601  0.70611202  0.28269801  1
  O  O14  1  0.16399700  0.32799401  0.42228001  1
  O  O15  1  0.83600302  0.67200602  0.92228002  1
