# generated using pymatgen
data_Na2LaNd3Bi2SbS
_symmetry_space_group_name_H-M   'P 1'
_cell_length_a   9.43115139
_cell_length_b   9.43115139
_cell_length_c   9.43115139
_cell_angle_alpha   60.00000000
_cell_angle_beta   60.00000000
_cell_angle_gamma   60.00000000
_symmetry_Int_Tables_number   1
_chemical_formula_structural   Na2LaNd3Bi2SbS
_chemical_formula_sum   'Na2 La1 Nd3 Bi2 Sb1 S1'
_cell_volume   593.16996284
_cell_formula_units_Z   1
loop_
 _symmetry_equiv_pos_site_id
 _symmetry_equiv_pos_as_xyz
  1  'x, y, z'
loop_
 _atom_site_type_symbol
 _atom_site_label
 _atom_site_symmetry_multiplicity
 _atom_site_fract_x
 _atom_site_fract_y
 _atom_site_fract_z
 _atom_site_occupancy
  Na  Na0  1  0.25000000  0.25000000  0.25000000  1
  Na  Na1  1  0.74999999  0.74999999  0.74999999  1
  La  La2  1  0.49999999  0.49999999  0.49999999  1
  Nd  Nd3  1  0.00000000  0.00000000  0.00000000  1
  Bi  Bi4  1  0.22711700  0.77288299  0.22711700  1
  Bi  Bi5  1  0.22711700  0.22711700  0.77288299  1
  Nd  Nd6  1  0.77288299  0.22711700  0.77288299  1
  Nd  Nd7  1  0.22711700  0.77288299  0.77288299  1
  S  S8  1  0.77288299  0.22711700  0.22711700  1
  Sb  Sb9  1  0.77288299  0.77288299  0.22711700  1
