# generated using pymatgen
data_Li4NiO4
_symmetry_space_group_name_H-M   'P 1'
_cell_length_a   3.71803808
_cell_length_b   5.08450842
_cell_length_c   6.78209448
_cell_angle_alpha   110.69625854
_cell_angle_beta   90.00000000
_cell_angle_gamma   111.44599915
_symmetry_Int_Tables_number   1
_chemical_formula_structural   Li4NiO4
_chemical_formula_sum   'Li4 Ni1 O4'
_cell_volume   110.39721395
_cell_formula_units_Z   1
loop_
 _symmetry_equiv_pos_site_id
 _symmetry_equiv_pos_as_xyz
  1  'x, y, z'
loop_
 _atom_site_type_symbol
 _atom_site_label
 _atom_site_symmetry_multiplicity
 _atom_site_fract_x
 _atom_site_fract_y
 _atom_site_fract_z
 _atom_site_occupancy
  Li  Li0  1  0.99141901  0.98283702  0.98209707  1
  Li  Li1  1  0.18934001  0.37868101  0.65575204  1
  Li  Li2  1  0.81704100  0.63408201  0.35901004  1
  Li  Li3  1  0.31031801  0.62063601  0.44074404  1
  Ni  Ni4  1  0.69638800  0.39277501  0.57118303  1
  O  O5  1  0.02376500  0.04752900  0.70222202  1
  O  O6  1  0.97608001  0.95216102  0.28282405  1
  O  O7  1  0.33333335  0.66666668  0.88985405  1
  O  O8  1  0.66229800  0.32459701  0.11631502  1
