# generated using pymatgen
data_Li5MnF10
_symmetry_space_group_name_H-M   'P 1'
_cell_length_a   3.66101789
_cell_length_b   5.29399395
_cell_length_c   10.08881187
_cell_angle_alpha   90.00000000
_cell_angle_beta   90.00000000
_cell_angle_gamma   110.22885895
_symmetry_Int_Tables_number   1
_chemical_formula_structural   Li5MnF10
_chemical_formula_sum   'Li5 Mn1 F10'
_cell_volume   183.47454467
_cell_formula_units_Z   1
loop_
 _symmetry_equiv_pos_site_id
 _symmetry_equiv_pos_as_xyz
  1  'x, y, z'
loop_
 _atom_site_type_symbol
 _atom_site_label
 _atom_site_symmetry_multiplicity
 _atom_site_fract_x
 _atom_site_fract_y
 _atom_site_fract_z
 _atom_site_occupancy
  Li  Li0  1  0.17921899  0.35843800  0.25000000  1
  Li  Li1  1  0.82078099  0.64156200  0.75000001  1
  Li  Li2  1  0.13676899  0.27353800  0.55908101  1
  Li  Li3  1  0.13676899  0.27353800  0.94091901  1
  Mn  Mn4  1  0.86323099  0.72646200  0.05908100  1
  Li  Li5  1  0.86323099  0.72646200  0.44091901  1
  F  F6  1  0.04703100  0.09406200  0.11925800  1
  F  F7  1  0.04703100  0.09406200  0.38074200  1
  F  F8  1  0.69240600  0.38481200  0.92457301  1
  F  F9  1  0.69240600  0.38481200  0.57542701  1
  F  F10  1  0.24869898  0.49739800  0.75000001  1
  F  F11  1  0.75130100  0.50260200  0.25000000  1
  F  F12  1  0.30759398  0.61518800  0.07542700  1
  F  F13  1  0.30759398  0.61518800  0.42457301  1
  F  F14  1  0.95296898  0.90593800  0.61925801  1
  F  F15  1  0.95296898  0.90593800  0.88074201  1
