# generated using pymatgen
data_AlSi2O3
_symmetry_space_group_name_H-M   'P 1'
_cell_length_a   5.14592409
_cell_length_b   5.14681768
_cell_length_c   5.63305950
_cell_angle_alpha   117.05341339
_cell_angle_beta   90.00000000
_cell_angle_gamma   119.99425507
_symmetry_Int_Tables_number   1
_chemical_formula_structural   AlSi2O3
_chemical_formula_sum   'Al2 Si4 O6'
_cell_volume   109.96039018
_cell_formula_units_Z   2
loop_
 _symmetry_equiv_pos_site_id
 _symmetry_equiv_pos_as_xyz
  1  'x, y, z'
loop_
 _atom_site_type_symbol
 _atom_site_label
 _atom_site_symmetry_multiplicity
 _atom_site_fract_x
 _atom_site_fract_y
 _atom_site_fract_z
 _atom_site_occupancy
  Al  Al0  1  0.16969900  0.50750303  0.50672804  1
  Si  Si1  1  0.33780400  0.50750303  0.00672802  1
  Al  Al2  1  0.49675299  0.16051201  0.49224603  1
  Si  Si3  1  0.66375899  0.16051201  0.99224604  1
  Si  Si4  1  0.82818699  0.82562705  0.49122405  1
  Si  Si5  1  0.99743999  0.82562705  0.99122407  1
  O  O6  1  0.27746700  0.74070304  0.88565406  1
  O  O7  1  0.97171398  0.07512400  0.86534104  1
  O  O8  1  0.62876299  0.44052402  0.88380705  1
  O  O9  1  0.10341000  0.07512400  0.36534102  1
  O  O10  1  0.81176099  0.44052402  0.38380703  1
  O  O11  1  0.46323600  0.74070304  0.38565404  1
