# generated using pymatgen
data_YbEu(HO2)2
_symmetry_space_group_name_H-M   'P 1'
_cell_length_a   3.85262895
_cell_length_b   4.35718203
_cell_length_c   6.29332399
_cell_angle_alpha   106.47941589
_cell_angle_beta   90.00000000
_cell_angle_gamma   90.00000000
_symmetry_Int_Tables_number   1
_chemical_formula_structural   YbEu(HO2)2
_chemical_formula_sum   'Yb1 Eu1 H2 O4'
_cell_volume   101.30389132
_cell_formula_units_Z   1
loop_
 _symmetry_equiv_pos_site_id
 _symmetry_equiv_pos_as_xyz
  1  'x, y, z'
loop_
 _atom_site_type_symbol
 _atom_site_label
 _atom_site_symmetry_multiplicity
 _atom_site_fract_x
 _atom_site_fract_y
 _atom_site_fract_z
 _atom_site_occupancy
  Eu  Eu0  1  0.76170901  0.67045898  0.30746298  1
  Yb  Yb1  1  0.26170900  0.32954099  0.69253700  1
  H  H2  1  0.39529101  0.95540998  0.02831696  1
  H  H3  1  0.89529101  0.04459000  0.97168301  1
  O  O4  1  0.25972100  0.75674698  0.53273198  1
  O  O5  1  0.75972101  0.24325299  0.46726800  1
  O  O6  1  0.26266700  0.76867698  0.04500597  1
  O  O7  1  0.76266701  0.23132299  0.95499401  1
