# generated using pymatgen
data_Ba5Sr4Zr(OF)5
_symmetry_space_group_name_H-M   'P 1'
_cell_length_a   7.15883017
_cell_length_b   7.20019722
_cell_length_c   10.15259838
_cell_angle_alpha   90.00000000
_cell_angle_beta   90.00000000
_cell_angle_gamma   90.00000000
_symmetry_Int_Tables_number   1
_chemical_formula_structural   Ba5Sr4Zr(OF)5
_chemical_formula_sum   'Ba5 Sr4 Zr1 O5 F5'
_cell_volume   523.31557246
_cell_formula_units_Z   1
loop_
 _symmetry_equiv_pos_site_id
 _symmetry_equiv_pos_as_xyz
  1  'x, y, z'
loop_
 _atom_site_type_symbol
 _atom_site_label
 _atom_site_symmetry_multiplicity
 _atom_site_fract_x
 _atom_site_fract_y
 _atom_site_fract_z
 _atom_site_occupancy
  Sr  Sr0  1  0.21796099  0.78153198  0.96596396  1
  Ba  Ba1  1  0.28203899  0.28153199  0.53403598  1
  Ba  Ba2  1  0.71796098  0.71846798  0.03403600  1
  Ba  Ba3  1  0.78203898  0.21846799  0.46596398  1
  Sr  Sr4  1  0.21796099  0.78153198  0.53403598  1
  Ba  Ba5  1  0.28203899  0.28153199  0.96596396  1
  Sr  Sr6  1  0.71796098  0.71846798  0.46596398  1
  Ba  Ba7  1  0.78203898  0.21846799  0.03403600  1
  Sr  Sr8  1  0.93488898  0.48847799  0.74999997  1
  Zr  Zr9  1  0.56511099  0.98847797  0.74999997  1
  O  O10  1  0.43488899  0.01152200  0.24999999  1
  O  O11  1  0.06511100  0.51152198  0.24999999  1
  F  F12  1  0.00708900  0.02757300  0.74999997  1
  F  F13  1  0.49291099  0.52757298  0.74999997  1
  F  F14  1  0.50708899  0.47242699  0.24999999  1
  F  F15  1  0.99291098  0.97242697  0.24999999  1
  O  O16  1  0.49999999  0.00000000  0.49999998  1
  O  O17  1  0.00000000  0.49999998  -0.00000000  1
  O  O18  1  0.00000000  0.49999998  0.49999998  1
  F  F19  1  0.49999999  0.00000000  -0.00000000  1
