# generated using pymatgen
data_Si2PO6
_symmetry_space_group_name_H-M   'P 1'
_cell_length_a   5.10537577
_cell_length_b   5.10537577
_cell_length_c   5.59136391
_cell_angle_alpha   90.00000000
_cell_angle_beta   90.00000000
_cell_angle_gamma   120.00000000
_symmetry_Int_Tables_number   1
_chemical_formula_structural   Si2PO6
_chemical_formula_sum   'Si2 P1 O6'
_cell_volume   126.21292033
_cell_formula_units_Z   1
loop_
 _symmetry_equiv_pos_site_id
 _symmetry_equiv_pos_as_xyz
  1  'x, y, z'
loop_
 _atom_site_type_symbol
 _atom_site_label
 _atom_site_symmetry_multiplicity
 _atom_site_fract_x
 _atom_site_fract_y
 _atom_site_fract_z
 _atom_site_occupancy
  P  P0  1  -0.00000002  0.49999999  0.66666668  1
  Si  Si1  1  0.50000002  0.00000000  0.33333334  1
  Si  Si2  1  0.50000001  0.49999999  1.00000002  1
  O  O3  1  0.41653301  0.20826599  0.16666700  1
  O  O4  1  0.20826698  0.79173398  0.50000001  1
  O  O5  1  0.20826699  0.41653399  0.83333301  1
  O  O6  1  0.58346700  0.79173398  0.16666700  1
  O  O7  1  0.79173303  0.20826599  0.50000001  1
  O  O8  1  0.79173302  0.58346599  0.83333301  1
