# generated using pymatgen
data_Ba2CuMoO8
_symmetry_space_group_name_H-M   'P 1'
_cell_length_a   5.24164200
_cell_length_b   5.24164200
_cell_length_c   7.05157185
_cell_angle_alpha   111.81832886
_cell_angle_beta   111.81832886
_cell_angle_gamma   90.00000000
_symmetry_Int_Tables_number   1
_chemical_formula_structural   Ba2CuMoO8
_chemical_formula_sum   'Ba2 Cu1 Mo1 O8'
_cell_volume   164.81968611
_cell_formula_units_Z   1
loop_
 _symmetry_equiv_pos_site_id
 _symmetry_equiv_pos_as_xyz
  1  'x, y, z'
loop_
 _atom_site_type_symbol
 _atom_site_label
 _atom_site_symmetry_multiplicity
 _atom_site_fract_x
 _atom_site_fract_y
 _atom_site_fract_z
 _atom_site_occupancy
  Ba  Ba0  1  0.75000002  0.25000001  0.50000002  1
  Ba  Ba1  1  0.00000000  0.00000000  0.00000000  1
  Cu  Cu2  1  0.25000003  0.75000002  0.50000002  1
  Mo  Mo3  1  0.50000002  0.50000001  0.00000003  1
  O  O4  1  0.30311202  0.42553001  0.34696402  1
  O  O5  1  0.04385203  0.92143402  0.34696403  1
  O  O6  1  0.17553001  0.29385201  0.84696399  1
  O  O7  1  0.67143403  0.55311201  0.84696402  1
  O  O8  1  0.44688803  0.82447002  0.15303604  1
  O  O9  1  0.70614802  0.32856601  0.15303603  1
  O  O10  1  0.57447004  0.95614802  0.65303603  1
  O  O11  1  0.07856602  0.69688801  0.65303601  1
