# generated using pymatgen
data_Li2BH4O
_symmetry_space_group_name_H-M   'P 1'
_cell_length_a   2.91145706
_cell_length_b   3.76146793
_cell_length_c   6.33364058
_cell_angle_alpha   90.00000000
_cell_angle_beta   100.39103699
_cell_angle_gamma   90.00000000
_symmetry_Int_Tables_number   1
_chemical_formula_structural   Li2BH4O
_chemical_formula_sum   'Li2 B1 H4 O1'
_cell_volume   68.22437319
_cell_formula_units_Z   1
loop_
 _symmetry_equiv_pos_site_id
 _symmetry_equiv_pos_as_xyz
  1  'x, y, z'
loop_
 _atom_site_type_symbol
 _atom_site_label
 _atom_site_symmetry_multiplicity
 _atom_site_fract_x
 _atom_site_fract_y
 _atom_site_fract_z
 _atom_site_occupancy
  Li  Li0  1  0.30252199  0.25000000  0.63296900  1
  Li  Li1  1  0.69747798  0.75000001  0.36703100  1
  B  B2  1  0.94610298  0.25000000  0.98437500  1
  H  H3  1  0.05389700  0.75000001  0.01562500  1
  H  H4  1  0.72142998  0.25000000  0.42584200  1
  H  H5  1  0.27856999  0.75000001  0.57415800  1
  O  O6  1  0.87893198  0.25000000  0.82763700  1
  H  H7  1  0.12106800  0.75000001  0.17236300  1
