# generated using pymatgen
data_SrAlO4
_symmetry_space_group_name_H-M   'P 1'
_cell_length_a   5.12890387
_cell_length_b   5.12890387
_cell_length_c   6.83651924
_cell_angle_alpha   112.03115845
_cell_angle_beta   112.03115845
_cell_angle_gamma   90.00000000
_symmetry_Int_Tables_number   1
_chemical_formula_structural   SrAlO4
_chemical_formula_sum   'Sr2 Al2 O8'
_cell_volume   152.44840379
_cell_formula_units_Z   2
loop_
 _symmetry_equiv_pos_site_id
 _symmetry_equiv_pos_as_xyz
  1  'x, y, z'
loop_
 _atom_site_type_symbol
 _atom_site_label
 _atom_site_symmetry_multiplicity
 _atom_site_fract_x
 _atom_site_fract_y
 _atom_site_fract_z
 _atom_site_occupancy
  Sr  Sr0  1  0.00000000  0.00000000  0.00000000  1
  Sr  Sr1  1  0.75000001  0.25000000  0.49999998  1
  Al  Al2  1  0.50000000  0.50000001  -0.00000002  1
  Al  Al3  1  0.24999999  0.75000001  0.49999997  1
  O  O4  1  0.17226300  0.27961600  0.84361898  1
  O  O5  1  0.31400300  0.42226301  0.34361898  1
  O  O6  1  0.02961698  0.92135701  0.34361997  1
  O  O7  1  0.67135600  0.56400301  0.84361996  1
  O  O8  1  0.07864399  0.68599701  0.65637997  1
  O  O9  1  0.72038301  0.32864300  0.15637998  1
  O  O10  1  0.43599699  0.82773701  0.15638097  1
  O  O11  1  0.57773699  0.97038401  0.65638096  1
