# generated using pymatgen
data_Ba5PrS6
_symmetry_space_group_name_H-M   'P 1'
_cell_length_a   4.36275196
_cell_length_b   8.47050667
_cell_length_c   11.38591862
_cell_angle_alpha   90.00000000
_cell_angle_beta   90.00000000
_cell_angle_gamma   104.92331696
_symmetry_Int_Tables_number   1
_chemical_formula_structural   Ba5PrS6
_chemical_formula_sum   'Ba5 Pr1 S6'
_cell_volume   406.57165016
_cell_formula_units_Z   1
loop_
 _symmetry_equiv_pos_site_id
 _symmetry_equiv_pos_as_xyz
  1  'x, y, z'
loop_
 _atom_site_type_symbol
 _atom_site_label
 _atom_site_symmetry_multiplicity
 _atom_site_fract_x
 _atom_site_fract_y
 _atom_site_fract_z
 _atom_site_occupancy
  Ba  Ba0  1  0.74314702  0.48629400  0.25000001  1
  Ba  Ba1  1  0.25685301  0.51370600  0.75000003  1
  Ba  Ba2  1  0.00000000  0.00000000  0.00000000  1
  Ba  Ba3  1  0.00000000  0.00000000  0.50000002  1
  Pr  Pr4  1  0.45961302  0.91922600  0.25000001  1
  Ba  Ba5  1  0.54038701  0.08077400  0.75000003  1
  S  S6  1  0.38094102  0.76188200  0.04895900  1
  S  S7  1  0.61905901  0.23811800  0.95104103  1
  S  S8  1  0.61905901  0.23811800  0.54895902  1
  S  S9  1  0.38094102  0.76188200  0.45104102  1
  S  S10  1  0.05962300  0.11924600  0.25000001  1
  S  S11  1  0.94037703  0.88075400  0.75000003  1
