# generated using pymatgen
data_K2PS
_symmetry_space_group_name_H-M   'P 1'
_cell_length_a   4.27327538
_cell_length_b   4.27327538
_cell_length_c   4.27327538
_cell_angle_alpha   60.00000000
_cell_angle_beta   60.00000000
_cell_angle_gamma   60.00000000
_symmetry_Int_Tables_number   1
_chemical_formula_structural   K2PS
_chemical_formula_sum   'K2 P1 S1'
_cell_volume   55.17821446
_cell_formula_units_Z   1
loop_
 _symmetry_equiv_pos_site_id
 _symmetry_equiv_pos_as_xyz
  1  'x, y, z'
loop_
 _atom_site_type_symbol
 _atom_site_label
 _atom_site_symmetry_multiplicity
 _atom_site_fract_x
 _atom_site_fract_y
 _atom_site_fract_z
 _atom_site_occupancy
  K  K0  1  0.00000000  0.00000000  0.00000000  1
  K  K1  1  0.75000000  0.75000000  0.75000000  1
  P  P2  1  0.25000000  0.25000000  0.25000000  1
  S  S3  1  0.50000000  0.50000000  0.50000000  1
