# generated using pymatgen
data_Mg2HOsN2
_symmetry_space_group_name_H-M   'P 1'
_cell_length_a   5.41559601
_cell_length_b   5.41559601
_cell_length_c   5.41559601
_cell_angle_alpha   90.00000000
_cell_angle_beta   90.00000000
_cell_angle_gamma   90.00000000
_symmetry_Int_Tables_number   1
_chemical_formula_structural   Mg2HOsN2
_chemical_formula_sum   'Mg4 H2 Os2 N4'
_cell_volume   158.83228301
_cell_formula_units_Z   2
loop_
 _symmetry_equiv_pos_site_id
 _symmetry_equiv_pos_as_xyz
  1  'x, y, z'
loop_
 _atom_site_type_symbol
 _atom_site_label
 _atom_site_symmetry_multiplicity
 _atom_site_fract_x
 _atom_site_fract_y
 _atom_site_fract_z
 _atom_site_occupancy
  Mg  Mg0  1  0.49787800  0.50212200  0.00212200  1
  Mg  Mg1  1  0.50212200  0.00212200  0.49787800  1
  Mg  Mg2  1  0.00212200  0.49787800  0.50212200  1
  Mg  Mg3  1  0.99787800  0.99787800  0.99787800  1
  H  H4  1  0.88473200  0.11526800  0.61526800  1
  N  N5  1  0.11526800  0.61526800  0.88473200  1
  Os  Os6  1  0.61526800  0.88473200  0.11526800  1
  N  N7  1  0.38473200  0.38473200  0.38473200  1
  H  H8  1  0.11554800  0.88445200  0.38445200  1
  N  N9  1  0.88445200  0.38445300  0.11554800  1
  N  N10  1  0.38445200  0.11554800  0.88445200  1
  Os  Os11  1  0.61554800  0.61554800  0.61554800  1
