# generated using pymatgen
data_NaLiHfZnP2F6
_symmetry_space_group_name_H-M   'P 1'
_cell_length_a   6.14887428
_cell_length_b   6.30391598
_cell_length_c   6.46780205
_cell_angle_alpha   60.83471680
_cell_angle_beta   77.66423798
_cell_angle_gamma   63.99888229
_symmetry_Int_Tables_number   1
_chemical_formula_structural   NaLiHfZnP2F6
_chemical_formula_sum   'Na1 Li1 Hf1 Zn1 P2 F6'
_cell_volume   196.76200787
_cell_formula_units_Z   1
loop_
 _symmetry_equiv_pos_site_id
 _symmetry_equiv_pos_as_xyz
  1  'x, y, z'
loop_
 _atom_site_type_symbol
 _atom_site_label
 _atom_site_symmetry_multiplicity
 _atom_site_fract_x
 _atom_site_fract_y
 _atom_site_fract_z
 _atom_site_occupancy
  Na  Na0  1  0.24999999  0.39867801  0.20264400  1
  Zn  Zn1  1  0.74999999  0.60132201  0.79735602  1
  Hf  Hf2  1  0.25000000  0.10561700  0.78876600  1
  Li  Li3  1  0.74999999  0.89438302  0.21123402  1
  P  P4  1  0.85241299  0.24691900  0.95740503  1
  P  P5  1  0.64758699  0.79567601  0.95740500  1
  F  F6  1  0.14758699  0.75308101  0.04259500  1
  F  F7  1  0.35241300  0.20432400  0.04259502  1
  F  F8  1  0.98810599  0.64322701  0.61668203  1
  F  F9  1  0.51189399  0.74009101  0.61668200  1
  F  F10  1  0.01189400  0.35677301  0.38331799  1
  F  F11  1  0.48810599  0.25990900  0.38331802  1
