# generated using pymatgen
data_K3AsP2O7
_symmetry_space_group_name_H-M   'P 1'
_cell_length_a   5.46055126
_cell_length_b   5.46055126
_cell_length_c   7.38666296
_cell_angle_alpha   68.30767822
_cell_angle_beta   68.30767822
_cell_angle_gamma   60.00000763
_symmetry_Int_Tables_number   1
_chemical_formula_structural   K3AsP2O7
_chemical_formula_sum   'K3 As1 P2 O7'
_cell_volume   172.49872243
_cell_formula_units_Z   1
loop_
 _symmetry_equiv_pos_site_id
 _symmetry_equiv_pos_as_xyz
  1  'x, y, z'
loop_
 _atom_site_type_symbol
 _atom_site_label
 _atom_site_symmetry_multiplicity
 _atom_site_fract_x
 _atom_site_fract_y
 _atom_site_fract_z
 _atom_site_occupancy
  K  K0  1  0.00000000  0.00000000  0.00000000  1
  K  K1  1  0.20782198  0.20782200  0.37653403  1
  K  K2  1  0.79217792  0.79217800  0.62346610  1
  As  As3  1  0.40632296  0.40632300  0.78103106  1
  P  P4  1  0.59367694  0.59367700  0.21896907  1
  P  P5  1  0.32919897  0.32919900  0.01240304  1
  O  O6  1  0.67080094  0.67080100  0.98759709  1
  O  O7  1  0.74402696  0.27703300  0.70190707  1
  O  O8  1  0.27703297  0.27703300  0.70190704  1
  O  O9  1  0.27703294  0.74402700  0.70190707  1
  O  O10  1  0.25597294  0.72296700  0.29809306  1
  O  O11  1  0.72296693  0.72296700  0.29809308  1
  O  O12  1  0.72296696  0.25597300  0.29809306  1
