# generated using pymatgen
data_KRbBaLiAl2I9
_symmetry_space_group_name_H-M   'P 1'
_cell_length_a   4.46598196
_cell_length_b   7.66401672
_cell_length_c   16.91151619
_cell_angle_alpha   85.25389862
_cell_angle_beta   82.41252899
_cell_angle_gamma   73.06058502
_symmetry_Int_Tables_number   1
_chemical_formula_structural   KRbBaLiAl2I9
_chemical_formula_sum   'Rb1 K1 Ba1 Li1 Al2 I9'
_cell_volume   548.27616079
_cell_formula_units_Z   1
loop_
 _symmetry_equiv_pos_site_id
 _symmetry_equiv_pos_as_xyz
  1  'x, y, z'
loop_
 _atom_site_type_symbol
 _atom_site_label
 _atom_site_symmetry_multiplicity
 _atom_site_fract_x
 _atom_site_fract_y
 _atom_site_fract_z
 _atom_site_occupancy
  Ba  Ba0  1  0.60074908  0.74612801  0.05237401  1
  Rb  Rb1  1  0.39925103  0.25387200  0.94762597  1
  K  K2  1  0.62506802  0.22308000  0.52678399  1
  Al  Al3  1  0.37493208  0.77692001  0.47321599  1
  I  I4  1  0.00000000  0.00000000  0.00000000  1
  Li  Li5  1  0.78056802  0.16022100  0.27864300  1
  Al  Al6  1  0.21943208  0.83977901  0.72135698  1
  I  I7  1  0.80488010  0.97075401  0.41948600  1
  I  I8  1  0.19512000  0.02924600  0.58051398  1
  I  I9  1  0.24900004  0.38278300  0.11921700  1
  I  I10  1  0.75100006  0.61721701  0.88078298  1
  I  I11  1  0.44682609  0.86574601  0.24060200  1
  I  I12  1  0.55317401  0.13425400  0.75939797  1
  I  I13  1  0.88604206  0.60259901  0.62531699  1
  I  I14  1  0.11395804  0.39740100  0.37468299  1
