# generated using pymatgen
data_BaAl2GaCuAs4
_symmetry_space_group_name_H-M   'P 1'
_cell_length_a   6.05974579
_cell_length_b   6.05974579
_cell_length_c   6.05974579
_cell_angle_alpha   90.00000000
_cell_angle_beta   90.00000000
_cell_angle_gamma   90.00000000
_symmetry_Int_Tables_number   1
_chemical_formula_structural   BaAl2GaCuAs4
_chemical_formula_sum   'Ba1 Al2 Ga1 Cu1 As4'
_cell_volume   222.51701050
_cell_formula_units_Z   1
loop_
 _symmetry_equiv_pos_site_id
 _symmetry_equiv_pos_as_xyz
  1  'x, y, z'
loop_
 _atom_site_type_symbol
 _atom_site_label
 _atom_site_symmetry_multiplicity
 _atom_site_fract_x
 _atom_site_fract_y
 _atom_site_fract_z
 _atom_site_occupancy
  Cu  Cu0  1  0.50000002  0.50000002  0.50000002  1
  Ba  Ba1  1  0.00000000  0.00000000  0.00000000  1
  Al  Al2  1  0.00000000  0.50000002  -0.00000000  1
  Al  Al3  1  0.00000000  0.00000000  0.50000002  1
  Ga  Ga4  1  0.50000002  0.00000000  -0.00000000  1
  As  As5  1  0.22073201  0.22073201  0.22073201  1
  As  As6  1  0.77926803  0.77926803  0.22073201  1
  As  As7  1  0.22073201  0.77926803  0.77926803  1
  As  As8  1  0.77926803  0.22073201  0.77926803  1
