# generated using pymatgen
data_BaAg(IO)3
_symmetry_space_group_name_H-M   'P 1'
_cell_length_a   3.99057603
_cell_length_b   3.99057603
_cell_length_c   9.45269299
_cell_angle_alpha   90.00000000
_cell_angle_beta   90.00000000
_cell_angle_gamma   90.00000000
_symmetry_Int_Tables_number   1
_chemical_formula_structural   BaAg(IO)3
_chemical_formula_sum   'Ba1 Ag1 I3 O3'
_cell_volume   150.53127202
_cell_formula_units_Z   1
loop_
 _symmetry_equiv_pos_site_id
 _symmetry_equiv_pos_as_xyz
  1  'x, y, z'
loop_
 _atom_site_type_symbol
 _atom_site_label
 _atom_site_symmetry_multiplicity
 _atom_site_fract_x
 _atom_site_fract_y
 _atom_site_fract_z
 _atom_site_occupancy
  Ba  Ba0  1  0.00000000  0.00000000  0.72650300  1
  Ag  Ag1  1  0.00000000  0.00000000  0.27349700  1
  I  I2  1  0.50000000  0.50000000  -0.00000000  1
  I  I3  1  0.50000000  0.50000000  0.50000000  1
  I  I4  1  0.00000000  0.50000000  0.84207800  1
  O  O5  1  0.50000000  0.00000000  0.15792200  1
  O  O6  1  0.00000000  0.50000000  0.15792200  1
  O  O7  1  0.50000000  0.00000000  0.84207800  1
