# generated using pymatgen
data_BaSr3(CdS3)2
_symmetry_space_group_name_H-M   'P 1'
_cell_length_a   3.85306406
_cell_length_b   7.69899750
_cell_length_c   10.14654446
_cell_angle_alpha   90.00000000
_cell_angle_beta   90.00000000
_cell_angle_gamma   104.49121094
_symmetry_Int_Tables_number   1
_chemical_formula_structural   BaSr3(CdS3)2
_chemical_formula_sum   'Ba1 Sr3 Cd2 S6'
_cell_volume   291.41867921
_cell_formula_units_Z   1
loop_
 _symmetry_equiv_pos_site_id
 _symmetry_equiv_pos_as_xyz
  1  'x, y, z'
loop_
 _atom_site_type_symbol
 _atom_site_label
 _atom_site_symmetry_multiplicity
 _atom_site_fract_x
 _atom_site_fract_y
 _atom_site_fract_z
 _atom_site_occupancy
  Ba  Ba0  1  0.00000000  0.00000000  0.49999998  1
  Sr  Sr1  1  0.00000000  0.00000000  0.00000000  1
  Sr  Sr2  1  0.24813195  0.49626401  0.74999997  1
  Sr  Sr3  1  0.75186794  0.50373601  0.24999999  1
  Cd  Cd4  1  0.46450391  0.92900802  0.24999999  1
  Cd  Cd5  1  0.53549599  0.07099200  0.74999997  1
  S  S6  1  0.62351797  0.24703600  0.95123396  1
  S  S7  1  0.37648192  0.75296401  0.04876600  1
  S  S8  1  0.37648192  0.75296401  0.45123398  1
  S  S9  1  0.62351797  0.24703600  0.54876598  1
  S  S10  1  0.06656699  0.13313400  0.24999999  1
  S  S11  1  0.93343291  0.86686601  0.74999997  1
