# generated using pymatgen
data_Ca3Cd3AgHgTe9
_symmetry_space_group_name_H-M   'P 1'
_cell_length_a   6.99065256
_cell_length_b   10.15055084
_cell_length_c   10.15055084
_cell_angle_alpha   101.12554932
_cell_angle_beta   107.77684784
_cell_angle_gamma   107.77684784
_symmetry_Int_Tables_number   1
_chemical_formula_structural   Ca3Cd3AgHgTe9
_chemical_formula_sum   'Ca3 Cd3 Ag1 Hg1 Te9'
_cell_volume   619.75448153
_cell_formula_units_Z   1
loop_
 _symmetry_equiv_pos_site_id
 _symmetry_equiv_pos_as_xyz
  1  'x, y, z'
loop_
 _atom_site_type_symbol
 _atom_site_label
 _atom_site_symmetry_multiplicity
 _atom_site_fract_x
 _atom_site_fract_y
 _atom_site_fract_z
 _atom_site_occupancy
  Hg  Hg0  1  0.00000000  0.00000000  0.00000000  1
  Ca  Ca1  1  0.68378702  0.01546500  0.34655701  1
  Ca  Ca2  1  0.31621301  0.98453500  0.65344298  1
  Ca  Ca3  1  0.31621301  0.65344300  0.98453499  1
  Cd  Cd4  1  0.68378702  0.34655700  0.01546499  1
  Cd  Cd5  1  1.00000004  0.50000000  0.50000000  1
  Cd  Cd6  1  0.39023401  0.64780500  0.64780499  1
  Ag  Ag7  1  0.60976602  0.35219500  0.35219500  1
  Te  Te8  1  0.69860602  0.13983200  0.70391201  1
  Te  Te9  1  0.30139401  0.86016800  0.29608798  1
  Te  Te10  1  0.30139401  0.29608800  0.86016800  1
  Te  Te11  1  0.69860602  0.70391200  0.13983198  1
  Te  Te12  1  0.50000002  0.00000000  0.00000000  1
  Te  Te13  1  0.92703703  0.83091000  0.58167298  1
  Te  Te14  1  0.07296300  0.16909000  0.41832700  1
  Te  Te15  1  0.07296300  0.41832700  0.16908999  1
  Te  Te16  1  0.92703703  0.58167300  0.83091000  1
