# generated using pymatgen
data_TaIn6CuSe12
_symmetry_space_group_name_H-M   'P 1'
_cell_length_a   3.94832206
_cell_length_b   9.74261093
_cell_length_c   12.71390915
_cell_angle_alpha   90.00000000
_cell_angle_beta   90.00000000
_cell_angle_gamma   90.00000000
_symmetry_Int_Tables_number   1
_chemical_formula_structural   TaIn6CuSe12
_chemical_formula_sum   'Ta1 In6 Cu1 Se12'
_cell_volume   489.06550639
_cell_formula_units_Z   1
loop_
 _symmetry_equiv_pos_site_id
 _symmetry_equiv_pos_as_xyz
  1  'x, y, z'
loop_
 _atom_site_type_symbol
 _atom_site_label
 _atom_site_symmetry_multiplicity
 _atom_site_fract_x
 _atom_site_fract_y
 _atom_site_fract_z
 _atom_site_occupancy
  Cu  Cu0  1  0.74999999  0.50042400  0.76933899  1
  Ta  Ta1  1  0.25000000  0.99957601  0.26933900  1
  In  In2  1  0.25000000  0.49957600  0.23066100  1
  In  In3  1  0.74999999  0.00042400  0.73066099  1
  In  In4  1  0.74999999  0.31679300  0.46728999  1
  In  In5  1  0.74999999  0.81679301  0.03271000  1
  In  In6  1  0.25000000  0.68320700  0.53270999  1
  In  In7  1  0.25000000  0.18320700  0.96728999  1
  Se  Se8  1  0.74999999  0.74035501  0.66597699  1
  Se  Se9  1  0.74999999  0.55173600  0.38948500  1
  Se  Se10  1  0.25000000  0.94826401  0.88948499  1
  Se  Se11  1  0.74999999  0.05173600  0.11051500  1
  Se  Se12  1  0.25000000  0.25964500  0.33402300  1
  Se  Se13  1  0.25000000  0.44826400  0.61051499  1
  Se  Se14  1  0.25000000  0.75964501  0.16597700  1
  Se  Se15  1  0.74999999  0.24035500  0.83402299  1
  Se  Se16  1  0.25000000  0.57281000  0.89378699  1
  Se  Se17  1  0.25000000  0.07281000  0.60621299  1
  Se  Se18  1  0.74999999  0.92719001  0.39378700  1
  Se  Se19  1  0.74999999  0.42719000  0.10621300  1
