# generated using pymatgen
data_Al2SiO6
_symmetry_space_group_name_H-M   'P 1'
_cell_length_a   5.05495787
_cell_length_b   5.05495882
_cell_length_c   11.16436577
_cell_angle_alpha   90.00000000
_cell_angle_beta   90.00000000
_cell_angle_gamma   119.99999237
_symmetry_Int_Tables_number   1
_chemical_formula_structural   Al2SiO6
_chemical_formula_sum   'Al4 Si2 O12'
_cell_volume   247.05854741
_cell_formula_units_Z   2
loop_
 _symmetry_equiv_pos_site_id
 _symmetry_equiv_pos_as_xyz
  1  'x, y, z'
loop_
 _atom_site_type_symbol
 _atom_site_label
 _atom_site_symmetry_multiplicity
 _atom_site_fract_x
 _atom_site_fract_y
 _atom_site_fract_z
 _atom_site_occupancy
  Al  Al0  1  0.52701399  0.52701399  0.33333334  1
  Al  Al1  1  -0.00000002  0.47298599  0.66666668  1
  Al  Al2  1  0.47298597  0.99999998  1.00000002  1
  Al  Al3  1  0.52649699  0.52649699  0.83333302  1
  Si  Si4  1  -0.00000002  0.47350299  0.16666700  1
  Si  Si5  1  0.47350301  0.00000000  0.50000001  1
  O  O6  1  0.82904500  0.58255999  0.77813302  1
  O  O7  1  0.75351501  0.17095500  0.11146700  1
  O  O8  1  0.41744000  0.24648499  0.44480001  1
  O  O9  1  0.58255998  0.82904498  0.88853302  1
  O  O10  1  0.17095497  0.75351498  0.55520001  1
  O  O11  1  0.24648499  0.41743999  0.22186700  1
  O  O12  1  0.28011899  0.41765099  0.73513502  1
  O  O13  1  0.13753197  0.71988199  0.06846800  1
  O  O14  1  0.58234998  0.86246898  0.40180101  1
  O  O15  1  0.41765000  0.28011799  0.93153202  1
  O  O16  1  0.71988101  0.13753100  0.59819901  1
  O  O17  1  0.86246800  0.58234899  0.26486501  1
