# generated using pymatgen
data_LiAl4Ni2PRuPt3O8
_symmetry_space_group_name_H-M   'P 1'
_cell_length_a   4.92413092
_cell_length_b   6.67056322
_cell_length_c   6.75608206
_cell_angle_alpha   90.00000000
_cell_angle_beta   90.00000000
_cell_angle_gamma   90.00000000
_symmetry_Int_Tables_number   1
_chemical_formula_structural   LiAl4Ni2PRuPt3O8
_chemical_formula_sum   'Li1 Al4 Ni2 P1 Ru1 Pt3 O8'
_cell_volume   221.91518016
_cell_formula_units_Z   1
loop_
 _symmetry_equiv_pos_site_id
 _symmetry_equiv_pos_as_xyz
  1  'x, y, z'
loop_
 _atom_site_type_symbol
 _atom_site_label
 _atom_site_symmetry_multiplicity
 _atom_site_fract_x
 _atom_site_fract_y
 _atom_site_fract_z
 _atom_site_occupancy
  Al  Al0  1  0.30350101  0.00000000  0.00000000  1
  Li  Li1  1  0.69649901  0.49999998  0.50000000  1
  Al  Al2  1  0.24467500  0.76233997  0.30130400  1
  Al  Al3  1  0.24467500  0.23765999  0.69869599  1
  Al  Al4  1  0.75532501  0.26233999  0.19869600  1
  Ni  Ni5  1  0.75532501  0.73765998  0.80130399  1
  Ni  Ni6  1  0.75532501  0.73765998  0.19869600  1
  Pt  Pt7  1  0.75532501  0.26233999  0.80130399  1
  Ru  Ru8  1  0.24467500  0.76233997  0.69869599  1
  Pt  Pt9  1  0.24467500  0.23765999  0.30130400  1
  Pt  Pt10  1  0.27823500  0.49999998  -0.00000000  1
  P  P11  1  0.72176501  0.00000000  0.50000000  1
  O  O12  1  0.07318000  0.72980698  -0.00000000  1
  O  O13  1  0.51825701  0.00000000  0.72873099  1
  O  O14  1  0.48174301  0.49999998  0.22873100  1
  O  O15  1  0.48174301  0.49999998  0.77126899  1
  O  O16  1  0.07318000  0.27019299  -0.00000000  1
  O  O17  1  0.92682002  0.22980699  0.50000000  1
  O  O18  1  0.92682002  0.77019297  0.50000000  1
  O  O19  1  0.51825701  0.00000000  0.27126900  1
