# generated using pymatgen
data_RbLiPO5
_symmetry_space_group_name_H-M   'P 1'
_cell_length_a   4.93334913
_cell_length_b   4.93334913
_cell_length_c   9.14937115
_cell_angle_alpha   105.34658051
_cell_angle_beta   105.34658051
_cell_angle_gamma   90.11592865
_symmetry_Int_Tables_number   1
_chemical_formula_structural   RbLiPO5
_chemical_formula_sum   'Rb2 Li2 P2 O10'
_cell_volume   206.45701120
_cell_formula_units_Z   2
loop_
 _symmetry_equiv_pos_site_id
 _symmetry_equiv_pos_as_xyz
  1  'x, y, z'
loop_
 _atom_site_type_symbol
 _atom_site_label
 _atom_site_symmetry_multiplicity
 _atom_site_fract_x
 _atom_site_fract_y
 _atom_site_fract_z
 _atom_site_occupancy
  Rb  Rb0  1  0.99950505  0.24953901  0.99939596  1
  Rb  Rb1  1  0.24953906  0.99950504  0.49939598  1
  Li  Li2  1  0.83261006  0.59902503  0.66353797  1
  Li  Li3  1  0.59902507  0.83261004  0.16353798  1
  P  P4  1  0.41719105  0.68776103  0.83449297  1
  P  P5  1  0.68776105  0.41719102  0.33449298  1
  O  O6  1  0.15985903  0.51400502  0.70301797  1
  O  O7  1  0.39767605  0.64593203  0.99498396  1
  O  O8  1  0.00083102  0.41698202  0.34102199  1
  O  O9  1  0.69309006  0.56388202  0.80132096  1
  O  O10  1  0.64593205  0.39767602  0.49498397  1
  O  O11  1  0.41698202  0.00083100  0.84102197  1
  O  O12  1  0.56388206  0.69309003  0.30132098  1
  O  O13  1  0.51400503  0.15985901  0.20301799  1
  O  O14  1  0.82635808  0.91304704  0.65179796  1
  O  O15  1  0.91304708  0.82635804  0.15179798  1
