# generated using pymatgen
data_Rb6HBrCl3O5
_symmetry_space_group_name_H-M   'P 1'
_cell_length_a   7.25152349
_cell_length_b   7.32585812
_cell_length_c   7.32585812
_cell_angle_alpha   64.13739014
_cell_angle_beta   64.48176575
_cell_angle_gamma   64.48176575
_symmetry_Int_Tables_number   1
_chemical_formula_structural   Rb6HBrCl3O5
_chemical_formula_sum   'Rb6 H1 Br1 Cl3 O5'
_cell_volume   301.56863435
_cell_formula_units_Z   1
loop_
 _symmetry_equiv_pos_site_id
 _symmetry_equiv_pos_as_xyz
  1  'x, y, z'
loop_
 _atom_site_type_symbol
 _atom_site_label
 _atom_site_symmetry_multiplicity
 _atom_site_fract_x
 _atom_site_fract_y
 _atom_site_fract_z
 _atom_site_occupancy
  Rb  Rb0  1  0.42956799  0.82049196  0.74996903  1
  Rb  Rb1  1  0.57043201  0.25003099  0.17950801  1
  Rb  Rb2  1  -0.00000001  0.68312197  0.31687803  1
  Rb  Rb3  1  0.93288801  0.75038396  0.81669802  1
  Rb  Rb4  1  0.50000001  0.31682498  0.68317500  1
  Rb  Rb5  1  0.06711200  0.18330199  0.24961600  1
  H  H6  1  -0.00000000  0.24867699  0.75132299  1
  Br  Br7  1  0.50000000  0.74979996  0.25020004  1
  Cl  Cl8  1  0.83186301  0.41681898  0.75203800  1
  Cl  Cl9  1  0.16813700  0.24796199  0.58318100  1
  Cl  Cl10  1  -0.00000000  0.08048400  0.91951598  1
  O  O11  1  0.33333333  0.75150296  0.41966803  1
  O  O12  1  0.49999999  0.91781895  0.08218106  1
  O  O13  1  0.66666667  0.58033297  0.24849703  1
  O  O14  1  0.73924502  0.00064800  0.49820099  1
  O  O15  1  0.26075500  0.50179898  0.99935200  1
