# generated using pymatgen
data_LiCu3S2
_symmetry_space_group_name_H-M   'P 1'
_cell_length_a   5.98912621
_cell_length_b   5.98912621
_cell_length_c   6.92137766
_cell_angle_alpha   115.63611603
_cell_angle_beta   115.63611603
_cell_angle_gamma   90.00000000
_symmetry_Int_Tables_number   1
_chemical_formula_structural   LiCu3S2
_chemical_formula_sum   'Li2 Cu6 S4'
_cell_volume   196.36996844
_cell_formula_units_Z   2
loop_
 _symmetry_equiv_pos_site_id
 _symmetry_equiv_pos_as_xyz
  1  'x, y, z'
loop_
 _atom_site_type_symbol
 _atom_site_label
 _atom_site_symmetry_multiplicity
 _atom_site_fract_x
 _atom_site_fract_y
 _atom_site_fract_z
 _atom_site_occupancy
  Li  Li0  1  0.99999990  0.49999996  -0.00000010  1
  Li  Li1  1  0.49999997  0.00000000  -0.00000003  1
  Cu  Cu2  1  0.74999990  0.74999994  0.49999989  1
  Cu  Cu3  1  0.24999997  0.24999998  0.49999996  1
  Cu  Cu4  1  0.46153195  0.29889798  0.26042995  1
  Cu  Cu5  1  0.20110298  0.03846900  0.73957199  1
  Cu  Cu6  1  0.53846791  0.70110194  0.73956991  1
  S  S7  1  0.03846796  0.53846796  0.73957095  1
  Cu  Cu8  1  0.79889688  0.96153092  0.26042786  1
  S  S9  1  0.29889692  0.79889694  0.26042891  1
  S  S10  1  0.96153190  0.46153196  0.26042890  1
  S  S11  1  0.70110294  0.20110298  0.73957094  1
