# generated using pymatgen
data_SrIn4(CuS4)3
_symmetry_space_group_name_H-M   'P 1'
_cell_length_a   6.01108313
_cell_length_b   6.20390606
_cell_length_c   8.60090637
_cell_angle_alpha   90.00000000
_cell_angle_beta   89.96253204
_cell_angle_gamma   90.00000000
_symmetry_Int_Tables_number   1
_chemical_formula_structural   SrIn4(CuS4)3
_chemical_formula_sum   'Sr1 In4 Cu3 S12'
_cell_volume   320.74660927
_cell_formula_units_Z   1
loop_
 _symmetry_equiv_pos_site_id
 _symmetry_equiv_pos_as_xyz
  1  'x, y, z'
loop_
 _atom_site_type_symbol
 _atom_site_label
 _atom_site_symmetry_multiplicity
 _atom_site_fract_x
 _atom_site_fract_y
 _atom_site_fract_z
 _atom_site_occupancy
  Sr  Sr0  1  0.01401700  0.55097699  0.24900601  1
  In  In1  1  0.48598299  0.05097700  0.25099400  1
  In  In2  1  0.98598298  0.44902300  0.75099400  1
  In  In3  1  0.51401699  0.94902299  0.74900602  1
  In  In4  1  0.00000000  0.00000000  0.00000000  1
  Cu  Cu5  1  0.49999999  0.50000000  0.50000001  1
  Cu  Cu6  1  0.00000000  0.00000000  0.50000003  1
  Cu  Cu7  1  0.49999999  0.50000000  -0.00000002  1
  S  S8  1  0.31114999  0.78768499  0.05982099  1
  S  S9  1  0.18885000  0.28768500  0.44017902  1
  S  S10  1  0.68884999  0.21231500  0.94017902  1
  S  S11  1  0.81114998  0.71231499  0.55982100  1
  S  S12  1  0.20944500  0.30666700  0.05365699  1
  S  S13  1  0.29055499  0.80666699  0.44634301  1
  S  S14  1  0.79055498  0.69333299  0.94634302  1
  S  S15  1  0.70944499  0.19333300  0.55365700  1
  S  S16  1  0.60678099  0.45535200  0.23940899  1
  S  S17  1  0.89321898  0.95535199  0.26059098  1
  S  S18  1  0.39321899  0.54464799  0.76059103  1
  S  S19  1  0.10678100  0.04464800  0.73940904  1
