# generated using pymatgen
data_K3TlGeP5S6
_symmetry_space_group_name_H-M   'P 1'
_cell_length_a   6.74274683
_cell_length_b   6.88299799
_cell_length_c   9.58434296
_cell_angle_alpha   90.00000000
_cell_angle_beta   86.81690216
_cell_angle_gamma   90.00000000
_symmetry_Int_Tables_number   1
_chemical_formula_structural   K3TlGeP5S6
_chemical_formula_sum   'K3 Tl1 Ge1 P5 S6'
_cell_volume   444.12609348
_cell_formula_units_Z   1
loop_
 _symmetry_equiv_pos_site_id
 _symmetry_equiv_pos_as_xyz
  1  'x, y, z'
loop_
 _atom_site_type_symbol
 _atom_site_label
 _atom_site_symmetry_multiplicity
 _atom_site_fract_x
 _atom_site_fract_y
 _atom_site_fract_z
 _atom_site_occupancy
  Tl  Tl0  1  0.51951101  0.75000000  0.83704601  1
  K  K1  1  0.48048901  0.25000000  0.16295402  1
  K  K2  1  0.20341100  0.75000000  0.46067200  1
  K  K3  1  0.79658902  0.25000000  0.53932803  1
  P  P4  1  0.26751901  0.25000000  0.72009200  1
  Ge  Ge5  1  0.73248102  0.75000000  0.27990803  1
  P  P6  1  0.00000000  0.00000000  0.00000000  1
  P  P7  1  0.00000000  0.50000000  -0.00000000  1
  S  S8  1  0.69578202  0.75000000  0.49105202  1
  P  P9  1  0.30421801  0.25000000  0.50894801  1
  S  S10  1  0.47877201  0.75000000  0.17639102  1
  S  S11  1  0.52122801  0.25000000  0.82360901  1
  P  P12  1  0.90164902  0.49908200  0.23638403  1
  S  S13  1  0.09835100  0.99908200  0.76361600  1
  S  S14  1  0.90164902  0.00091800  0.23638403  1
  S  S15  1  0.09835100  0.50091800  0.76361600  1
