# generated using pymatgen
data_Li4CoCu2PS12
_symmetry_space_group_name_H-M   'P 1'
_cell_length_a   5.42761898
_cell_length_b   5.64940310
_cell_length_c   8.09941864
_cell_angle_alpha   90.00000000
_cell_angle_beta   90.02449036
_cell_angle_gamma   90.00000000
_symmetry_Int_Tables_number   1
_chemical_formula_structural   Li4CoCu2PS12
_chemical_formula_sum   'Li4 Co1 Cu2 P1 S12'
_cell_volume   248.35089168
_cell_formula_units_Z   1
loop_
 _symmetry_equiv_pos_site_id
 _symmetry_equiv_pos_as_xyz
  1  'x, y, z'
loop_
 _atom_site_type_symbol
 _atom_site_label
 _atom_site_symmetry_multiplicity
 _atom_site_fract_x
 _atom_site_fract_y
 _atom_site_fract_z
 _atom_site_occupancy
  Li  Li0  1  0.98502500  0.20524700  0.74914801  1
  Li  Li1  1  0.48502500  0.79475299  0.24914800  1
  Li  Li2  1  0.53008200  0.69263399  0.74401901  1
  Li  Li3  1  0.03008200  0.30736599  0.24401900  1
  Cu  Cu4  1  0.00037800  0.75116199  0.00163800  1
  Co  Co5  1  0.50037800  0.24883800  0.50163801  1
  Cu  Cu6  1  0.00170700  0.74605699  0.50172301  1
  P  P7  1  0.50170700  0.25394300  0.00172300  1
  S  S8  1  0.64907500  0.20950100  0.23075500  1
  S  S9  1  0.19479000  0.06170500  0.06149800  1
  S  S10  1  0.17440400  0.04577100  0.42684801  1
  S  S11  1  0.67440400  0.95422898  0.92684801  1
  S  S12  1  0.69479000  0.93829498  0.56149801  1
  S  S13  1  0.14907500  0.79049899  0.73075501  1
  S  S14  1  0.89836900  0.68014299  0.26670100  1
  S  S15  1  0.28023500  0.53115499  0.44051401  1
  S  S16  1  0.28593500  0.51749199  0.07715600  1
  S  S17  1  0.78593500  0.48250799  0.57715601  1
  S  S18  1  0.78023500  0.46884499  0.94051401  1
  S  S19  1  0.39836900  0.31985699  0.76670101  1
