# generated using pymatgen
data_Cs3KRb2Br6
_symmetry_space_group_name_H-M   'P 1'
_cell_length_a   4.35374308
_cell_length_b   8.04588509
_cell_length_c   10.05593586
_cell_angle_alpha   90.00000000
_cell_angle_beta   90.00000000
_cell_angle_gamma   90.00000000
_symmetry_Int_Tables_number   1
_chemical_formula_structural   Cs3KRb2Br6
_chemical_formula_sum   'Cs3 K1 Rb2 Br6'
_cell_volume   352.25658217
_cell_formula_units_Z   1
loop_
 _symmetry_equiv_pos_site_id
 _symmetry_equiv_pos_as_xyz
  1  'x, y, z'
loop_
 _atom_site_type_symbol
 _atom_site_label
 _atom_site_symmetry_multiplicity
 _atom_site_fract_x
 _atom_site_fract_y
 _atom_site_fract_z
 _atom_site_occupancy
  K  K0  1  0.74999999  0.27148700  0.05123400  1
  Rb  Rb1  1  0.25000000  0.72851299  0.94876601  1
  Rb  Rb2  1  0.25000000  0.22851300  0.55123401  1
  Cs  Cs3  1  0.74999999  0.77148699  0.44876601  1
  Cs  Cs4  1  0.25000000  0.00922700  0.35733800  1
  Cs  Cs5  1  0.25000000  0.64712899  0.58856901  1
  Br  Br6  1  0.25000000  0.50922699  0.14266200  1
  Br  Br7  1  0.74999999  0.99077299  0.64266201  1
  Br  Br8  1  0.74999999  0.35287100  0.41143101  1
  Br  Br9  1  0.74999999  0.85287099  0.08856900  1
  Br  Br10  1  0.25000000  0.14712900  0.91143101  1
  Br  Br11  1  0.74999999  0.49077299  0.85733801  1
