# generated using pymatgen
data_Sr2Ca2CuMo(WO6)2
_symmetry_space_group_name_H-M   'P 1'
_cell_length_a   5.33241320
_cell_length_b   5.44491005
_cell_length_c   7.58263016
_cell_angle_alpha   90.00000000
_cell_angle_beta   89.88890839
_cell_angle_gamma   90.00000000
_symmetry_Int_Tables_number   1
_chemical_formula_structural   Sr2Ca2CuMo(WO6)2
_chemical_formula_sum   'Sr2 Ca2 Cu1 Mo1 W2 O12'
_cell_volume   220.15753883
_cell_formula_units_Z   1
loop_
 _symmetry_equiv_pos_site_id
 _symmetry_equiv_pos_as_xyz
  1  'x, y, z'
loop_
 _atom_site_type_symbol
 _atom_site_label
 _atom_site_symmetry_multiplicity
 _atom_site_fract_x
 _atom_site_fract_y
 _atom_site_fract_z
 _atom_site_occupancy
  Sr  Sr0  1  0.00974000  0.95611999  0.75031001  1
  Ca  Ca1  1  0.99025996  0.04388000  0.24969000  1
  Ca  Ca2  1  0.50973998  0.54388000  0.25031000  1
  Sr  Sr3  1  0.49025998  0.45612000  0.74969001  1
  Cu  Cu4  1  0.49999998  0.00000000  0.50000000  1
  Mo  Mo5  1  0.00000000  0.50000000  -0.00000000  1
  W  W6  1  0.49999998  0.00000000  -0.00000000  1
  W  W7  1  0.00000000  0.50000000  0.50000001  1
  O  O8  1  0.57967098  0.02311300  0.76553401  1
  O  O9  1  0.07967100  0.47688700  0.26553400  1
  O  O10  1  0.42032898  0.97688699  0.23446600  1
  O  O11  1  0.92032897  0.52311300  0.73446600  1
  O  O12  1  0.22362599  0.19300900  0.96099801  1
  O  O13  1  0.18883999  0.22489200  0.54371001  1
  O  O14  1  0.77637397  0.80699099  0.03900200  1
  O  O15  1  0.72362597  0.30699100  0.46099800  1
  O  O16  1  0.27637399  0.69300899  0.53900201  1
  O  O17  1  0.81115997  0.77510799  0.45629000  1
  O  O18  1  0.68883997  0.27510800  0.04371000  1
  O  O19  1  0.31115999  0.72489199  0.95629001  1
