# generated using pymatgen
data_Na5AgS6
_symmetry_space_group_name_H-M   'P 1'
_cell_length_a   4.11642218
_cell_length_b   4.11642218
_cell_length_c   14.05130768
_cell_angle_alpha   90.00000000
_cell_angle_beta   90.00000000
_cell_angle_gamma   90.00000000
_symmetry_Int_Tables_number   1
_chemical_formula_structural   Na5AgS6
_chemical_formula_sum   'Na5 Ag1 S6'
_cell_volume   238.09844657
_cell_formula_units_Z   1
loop_
 _symmetry_equiv_pos_site_id
 _symmetry_equiv_pos_as_xyz
  1  'x, y, z'
loop_
 _atom_site_type_symbol
 _atom_site_label
 _atom_site_symmetry_multiplicity
 _atom_site_fract_x
 _atom_site_fract_y
 _atom_site_fract_z
 _atom_site_occupancy
  Na  Na0  1  0.49999998  0.49999998  0.89990002  1
  Na  Na1  1  0.00000000  0.00000000  0.10648900  1
  Na  Na2  1  0.00000000  0.00000000  0.59554501  1
  Na  Na3  1  0.49999998  0.49999998  0.40345701  1
  Na  Na4  1  0.49999998  0.49999998  0.18653900  1
  S  S5  1  0.49999998  0.49999998  0.67315502  1
  Ag  Ag6  1  0.00000000  0.00000000  0.32671601  1
  S  S7  1  0.00000000  0.00000000  0.81817002  1
  S  S8  1  0.49999998  0.00000000  0.00189500  1
  S  S9  1  0.49999998  0.00000000  0.49312001  1
  S  S10  1  0.00000000  0.49999998  0.00189500  1
  S  S11  1  0.00000000  0.49999998  0.49312001  1
