# generated using pymatgen
data_LuTlCl2
_symmetry_space_group_name_H-M   'P 1'
_cell_length_a   4.03084564
_cell_length_b   4.03084564
_cell_length_c   8.16267967
_cell_angle_alpha   75.70543671
_cell_angle_beta   75.70543671
_cell_angle_gamma   60.00000381
_symmetry_Int_Tables_number   1
_chemical_formula_structural   LuTlCl2
_chemical_formula_sum   'Lu1 Tl1 Cl2'
_cell_volume   110.08961316
_cell_formula_units_Z   1
loop_
 _symmetry_equiv_pos_site_id
 _symmetry_equiv_pos_as_xyz
  1  'x, y, z'
loop_
 _atom_site_type_symbol
 _atom_site_label
 _atom_site_symmetry_multiplicity
 _atom_site_fract_x
 _atom_site_fract_y
 _atom_site_fract_z
 _atom_site_occupancy
  Tl  Tl0  1  0.22307000  0.22307001  0.33078998  1
  Lu  Lu1  1  0.77693001  0.77693002  0.66920994  1
  Cl  Cl2  1  0.00000000  0.00000000  0.00000000  1
  Cl  Cl3  1  0.50000001  0.50000001  0.49999996  1
