# generated using pymatgen
data_LiV6CrO8
_symmetry_space_group_name_H-M   'P 1'
_cell_length_a   5.62142658
_cell_length_b   5.62142658
_cell_length_c   7.56819725
_cell_angle_alpha   109.61843872
_cell_angle_beta   109.61843872
_cell_angle_gamma   94.02331543
_symmetry_Int_Tables_number   1
_chemical_formula_structural   LiV6CrO8
_chemical_formula_sum   'Li1 V6 Cr1 O8'
_cell_volume   207.64064996
_cell_formula_units_Z   1
loop_
 _symmetry_equiv_pos_site_id
 _symmetry_equiv_pos_as_xyz
  1  'x, y, z'
loop_
 _atom_site_type_symbol
 _atom_site_label
 _atom_site_symmetry_multiplicity
 _atom_site_fract_x
 _atom_site_fract_y
 _atom_site_fract_z
 _atom_site_occupancy
  V  V0  1  0.69059196  0.30728199  0.71820699  1
  Li  Li1  1  0.30728196  0.69059197  0.21820697  1
  V  V2  1  0.00493596  0.99564595  0.49739898  1
  V  V3  1  0.99564596  0.00493600  0.99739900  1
  V  V4  1  0.64073696  0.35982498  0.25335998  1
  V  V5  1  0.35982496  0.64073697  0.75335998  1
  V  V6  1  0.76109596  0.23532399  0.44400598  1
  Cr  Cr7  1  0.76548396  0.23658699  0.06304298  1
  O  O8  1  0.23658696  0.76548396  0.56304298  1
  O  O9  1  0.23532396  0.76109596  0.94400599  1
  O  O10  1  0.30265898  0.30020699  0.64736199  1
  O  O11  1  0.70031595  0.69665897  0.84740598  1
  O  O12  1  0.69665895  0.70031597  0.34740597  1
  O  O13  1  0.30020698  0.30265899  0.14736199  1
  O  O14  1  0.93321696  0.06743200  0.74821599  1
  O  O15  1  0.06743196  0.93321696  0.24821597  1
