# generated using pymatgen
data_Li5Zn(PO4)2
_symmetry_space_group_name_H-M   'P 1'
_cell_length_a   5.06660986
_cell_length_b   5.38333702
_cell_length_c   6.24296188
_cell_angle_alpha   89.74713135
_cell_angle_beta   90.00471497
_cell_angle_gamma   89.68933868
_symmetry_Int_Tables_number   1
_chemical_formula_structural   Li5Zn(PO4)2
_chemical_formula_sum   'Li5 Zn1 P2 O8'
_cell_volume   170.27429889
_cell_formula_units_Z   1
loop_
 _symmetry_equiv_pos_site_id
 _symmetry_equiv_pos_as_xyz
  1  'x, y, z'
loop_
 _atom_site_type_symbol
 _atom_site_label
 _atom_site_symmetry_multiplicity
 _atom_site_fract_x
 _atom_site_fract_y
 _atom_site_fract_z
 _atom_site_occupancy
  Li  Li0  1  0.00483605  0.67293501  0.75422602  1
  Li  Li1  1  0.50609004  0.32750601  0.74979299  1
  Li  Li2  1  0.00614701  0.15479100  0.49946000  1
  Li  Li3  1  0.50653704  0.32468201  0.25033999  1
  Li  Li4  1  0.51103607  0.81971302  0.00163901  1
  Zn  Zn5  1  0.00694805  0.66458501  0.23861702  1
  P  P6  1  0.00209001  0.18349400  0.99506600  1
  P  P7  1  0.50008407  0.83124202  0.50576901  1
  O  O8  1  0.09208007  0.90555702  0.98522402  1
  O  O9  1  0.69515803  0.19965300  0.99956998  1
  O  O10  1  0.10961003  0.31987201  0.79315900  1
  O  O11  1  0.61186906  0.68464001  0.70395400  1
  O  O12  1  0.19231506  0.83023102  0.51270402  1
  O  O13  1  0.60532802  0.10029500  0.50134398  1
  O  O14  1  0.59235106  0.68313801  0.30196600  1
  O  O15  1  0.11492802  0.29766701  0.20716901  1
