# generated using pymatgen
data_CsRb4TlBr3Cl9O2
_symmetry_space_group_name_H-M   'P 1'
_cell_length_a   5.64033604
_cell_length_b   7.36508179
_cell_length_c   11.26355839
_cell_angle_alpha   90.00000000
_cell_angle_beta   90.00000000
_cell_angle_gamma   112.51409149
_symmetry_Int_Tables_number   1
_chemical_formula_structural   CsRb4TlBr3Cl9O2
_chemical_formula_sum   'Cs1 Rb4 Tl1 Br3 Cl9 O2'
_cell_volume   432.24428034
_cell_formula_units_Z   1
loop_
 _symmetry_equiv_pos_site_id
 _symmetry_equiv_pos_as_xyz
  1  'x, y, z'
loop_
 _atom_site_type_symbol
 _atom_site_label
 _atom_site_symmetry_multiplicity
 _atom_site_fract_x
 _atom_site_fract_y
 _atom_site_fract_z
 _atom_site_occupancy
  Rb  Rb0  1  0.79051702  0.58103401  0.24999999  1
  Rb  Rb1  1  0.20948302  0.41896600  0.74999997  1
  Rb  Rb2  1  0.16182001  0.32364000  0.24999999  1
  Rb  Rb3  1  0.66713201  0.33426400  0.99737397  1
  Cs  Cs4  1  0.33286802  0.66573601  0.00262600  1
  Tl  Tl5  1  0.83818002  0.67636001  0.74999997  1
  Br  Br6  1  0.66713201  0.33426400  0.50262598  1
  Br  Br7  1  0.33286802  0.66573601  0.49737398  1
  Cl  Cl8  1  0.50771600  0.01543200  0.24999999  1
  Cl  Cl9  1  0.00000000  0.00000000  0.00000000  1
  Br  Br10  1  0.49228404  0.98456801  0.74999997  1
  Cl  Cl11  1  0.00000000  0.00000000  0.49999998  1
  Cl  Cl12  1  0.99944201  0.49215001  0.12348200  1
  Cl  Cl13  1  0.49270802  0.49215001  0.12348200  1
  Cl  Cl14  1  0.00055802  0.50785001  0.87651797  1
  Cl  Cl15  1  0.50729202  0.50785001  0.87651797  1
  Cl  Cl16  1  0.00055802  0.50785001  0.62348198  1
  O  O17  1  0.99944201  0.49215001  0.37651799  1
  Cl  Cl18  1  0.50729202  0.50785001  0.62348198  1
  O  O19  1  0.49270802  0.49215001  0.37651799  1
