# generated using pymatgen
data_Na4LaNdBiSe2Br
_symmetry_space_group_name_H-M   'P 1'
_cell_length_a   9.28862858
_cell_length_b   9.28862858
_cell_length_c   9.28862858
_cell_angle_alpha   60.00000000
_cell_angle_beta   60.00000000
_cell_angle_gamma   60.00000000
_symmetry_Int_Tables_number   1
_chemical_formula_structural   Na4LaNdBiSe2Br
_chemical_formula_sum   'Na4 La1 Nd1 Bi1 Se2 Br1'
_cell_volume   566.68249037
_cell_formula_units_Z   1
loop_
 _symmetry_equiv_pos_site_id
 _symmetry_equiv_pos_as_xyz
  1  'x, y, z'
loop_
 _atom_site_type_symbol
 _atom_site_label
 _atom_site_symmetry_multiplicity
 _atom_site_fract_x
 _atom_site_fract_y
 _atom_site_fract_z
 _atom_site_occupancy
  Na  Na0  1  0.24999999  0.24999999  0.24999999  1
  Na  Na1  1  0.74999997  0.74999997  0.74999997  1
  Na  Na2  1  0.49999998  0.49999998  0.49999998  1
  Na  Na3  1  0.00000000  0.00000000  0.00000000  1
  La  La4  1  0.22421299  0.77578697  0.22421299  1
  Nd  Nd5  1  0.22421299  0.22421299  0.77578697  1
  Bi  Bi6  1  0.77578697  0.22421299  0.77578697  1
  Br  Br7  1  0.22421299  0.77578697  0.77578697  1
  Se  Se8  1  0.77578697  0.22421299  0.22421299  1
  Se  Se9  1  0.77578697  0.77578697  0.22421299  1
