# generated using pymatgen
data_InAgSe
_symmetry_space_group_name_H-M   'P 1'
_cell_length_a   4.37263393
_cell_length_b   4.37263393
_cell_length_c   10.70496178
_cell_angle_alpha   90.00000000
_cell_angle_beta   90.00000000
_cell_angle_gamma   120.00000000
_symmetry_Int_Tables_number   1
_chemical_formula_structural   InAgSe
_chemical_formula_sum   'In2 Ag2 Se2'
_cell_volume   177.25642838
_cell_formula_units_Z   2
loop_
 _symmetry_equiv_pos_site_id
 _symmetry_equiv_pos_as_xyz
  1  'x, y, z'
loop_
 _atom_site_type_symbol
 _atom_site_label
 _atom_site_symmetry_multiplicity
 _atom_site_fract_x
 _atom_site_fract_y
 _atom_site_fract_z
 _atom_site_occupancy
  In  In0  1  0.33941199  0.97877498  0.30683501  1
  In  In1  1  0.02122499  0.36063699  0.64016801  1
  Ag  Ag2  1  0.63936300  0.66058799  0.97350102  1
  Ag  Ag3  1  0.35295700  0.02369000  0.55649801  1
  Se  Se4  1  0.67073300  0.64704199  0.22316500  1
  Se  Se5  1  0.97630901  0.32926599  0.88983202  1
