# generated using pymatgen
data_CsNa2BiCl5O
_symmetry_space_group_name_H-M   'P 1'
_cell_length_a   4.05881405
_cell_length_b   6.90901232
_cell_length_c   9.71252728
_cell_angle_alpha   91.67546844
_cell_angle_beta   90.00000000
_cell_angle_gamma   107.08159637
_symmetry_Int_Tables_number   1
_chemical_formula_structural   CsNa2BiCl5O
_chemical_formula_sum   'Cs1 Na2 Bi1 Cl5 O1'
_cell_volume   260.22610298
_cell_formula_units_Z   1
loop_
 _symmetry_equiv_pos_site_id
 _symmetry_equiv_pos_as_xyz
  1  'x, y, z'
loop_
 _atom_site_type_symbol
 _atom_site_label
 _atom_site_symmetry_multiplicity
 _atom_site_fract_x
 _atom_site_fract_y
 _atom_site_fract_z
 _atom_site_occupancy
  Na  Na0  1  0.00000000  0.00000000  0.50000001  1
  Na  Na1  1  0.00000000  0.00000000  0.00000000  1
  Bi  Bi2  1  0.28237600  0.56475201  0.69397804  1
  Cs  Cs3  1  0.71762400  0.43524801  0.30602203  1
  Cl  Cl4  1  0.35561801  0.71123601  0.44609004  1
  Cl  Cl5  1  0.91811600  0.83623201  0.74380906  1
  Cl  Cl6  1  0.64438200  0.28876400  0.55391003  1
  O  O7  1  0.08188400  0.16376800  0.25619101  1
  Cl  Cl8  1  0.36171701  0.72343401  0.07191103  1
  Cl  Cl9  1  0.63828300  0.27656600  0.92808904  1
