# generated using pymatgen
data_Li3CoS6
_symmetry_space_group_name_H-M   'P 1'
_cell_length_a   5.72756720
_cell_length_b   5.72756720
_cell_length_c   5.74090958
_cell_angle_alpha   60.07685852
_cell_angle_beta   60.07685852
_cell_angle_gamma   60.00000763
_symmetry_Int_Tables_number   1
_chemical_formula_structural   Li3CoS6
_chemical_formula_sum   'Li3 Co1 S6'
_cell_volume   133.32441018
_cell_formula_units_Z   1
loop_
 _symmetry_equiv_pos_site_id
 _symmetry_equiv_pos_as_xyz
  1  'x, y, z'
loop_
 _atom_site_type_symbol
 _atom_site_label
 _atom_site_symmetry_multiplicity
 _atom_site_fract_x
 _atom_site_fract_y
 _atom_site_fract_z
 _atom_site_occupancy
  Li  Li0  1  0.73969004  0.73969002  0.78092996  1
  Li  Li1  1  0.23969001  0.23969001  0.28092999  1
  Li  Li2  1  0.48841002  0.48841001  0.53476998  1
  Co  Co3  1  0.98841005  0.98841003  0.03476994  1
  S  S4  1  0.70542004  0.82212002  0.20979996  1
  S  S5  1  0.82212003  0.26266001  0.20979997  1
  S  S6  1  0.26266002  0.70542002  0.20979997  1
  S  S7  1  0.32212001  0.20542001  0.70979999  1
  S  S8  1  0.20542002  0.76266002  0.70979998  1
  S  S9  1  0.76266003  0.32212001  0.70979998  1
