# generated using pymatgen
data_K2SrCaZr4(OF4)2
_symmetry_space_group_name_H-M   'P 1'
_cell_length_a   6.69609594
_cell_length_b   6.76125526
_cell_length_c   7.01592398
_cell_angle_alpha   90.00000000
_cell_angle_beta   90.00000000
_cell_angle_gamma   119.68171692
_symmetry_Int_Tables_number   1
_chemical_formula_structural   K2SrCaZr4(OF4)2
_chemical_formula_sum   'K2 Sr1 Ca1 Zr4 O2 F8'
_cell_volume   275.96148530
_cell_formula_units_Z   1
loop_
 _symmetry_equiv_pos_site_id
 _symmetry_equiv_pos_as_xyz
  1  'x, y, z'
loop_
 _atom_site_type_symbol
 _atom_site_label
 _atom_site_symmetry_multiplicity
 _atom_site_fract_x
 _atom_site_fract_y
 _atom_site_fract_z
 _atom_site_occupancy
  K  K0  1  0.34293603  0.68587199  0.49909900  1
  K  K1  1  0.65706402  0.31412800  0.50090100  1
  Ca  Ca2  1  0.65706402  0.31412800  0.99909900  1
  Sr  Sr3  1  0.34293603  0.68587199  0.00090100  1
  Zr  Zr4  1  0.94916004  0.89831999  0.75000000  1
  Zr  Zr5  1  0.05084000  0.10168000  0.25000000  1
  Zr  Zr6  1  0.09914501  0.19829000  0.95403300  1
  Zr  Zr7  1  0.90085504  0.80170999  0.04596700  1
  O  O8  1  0.90085504  0.80170999  0.45403300  1
  F  F9  1  0.09914501  0.19829000  0.54596700  1
  F  F10  1  0.00713101  0.39378500  0.25000000  1
  F  F11  1  0.61334603  0.60621499  0.75000000  1
  F  F12  1  0.28168404  0.98138599  0.25000000  1
  F  F13  1  0.30029800  0.01861400  0.75000000  1
  F  F14  1  0.71831601  0.01861400  0.75000000  1
  F  F15  1  0.69970204  0.98138599  0.25000000  1
  F  F16  1  0.38665402  0.39378500  0.25000000  1
  O  O17  1  0.99286903  0.60621499  0.75000000  1
