# generated using pymatgen
data_Na3LiMg4O4
_symmetry_space_group_name_H-M   'P 1'
_cell_length_a   5.12244892
_cell_length_b   5.12244892
_cell_length_c   6.28818178
_cell_angle_alpha   90.00000000
_cell_angle_beta   90.00000000
_cell_angle_gamma   90.00000000
_symmetry_Int_Tables_number   1
_chemical_formula_structural   Na3LiMg4O4
_chemical_formula_sum   'Na3 Li1 Mg4 O4'
_cell_volume   164.99863865
_cell_formula_units_Z   1
loop_
 _symmetry_equiv_pos_site_id
 _symmetry_equiv_pos_as_xyz
  1  'x, y, z'
loop_
 _atom_site_type_symbol
 _atom_site_label
 _atom_site_symmetry_multiplicity
 _atom_site_fract_x
 _atom_site_fract_y
 _atom_site_fract_z
 _atom_site_occupancy
  Na  Na0  1  0.50000001  0.00000000  0.50000002  1
  Na  Na1  1  0.00000000  0.50000001  0.50000002  1
  Na  Na2  1  0.50000001  0.50000001  -0.00000000  1
  Li  Li3  1  0.00000000  0.00000000  0.00000000  1
  Mg  Mg4  1  0.70004401  0.20004400  -0.00000000  1
  Mg  Mg5  1  0.79995601  0.70004401  -0.00000000  1
  Mg  Mg6  1  0.20004400  0.29995600  -0.00000000  1
  Mg  Mg7  1  0.29995600  0.79995601  -0.00000000  1
  O  O8  1  0.00000000  0.00000000  0.28466701  1
  O  O9  1  0.50000001  0.50000001  0.71533302  1
  O  O10  1  0.00000000  0.00000000  0.71533302  1
  O  O11  1  0.50000001  0.50000001  0.28466701  1
