# generated using pymatgen
data_Ba4SnGeP5S9
_symmetry_space_group_name_H-M   'P 1'
_cell_length_a   6.46041203
_cell_length_b   7.03890419
_cell_length_c   12.24942589
_cell_angle_alpha   90.00000000
_cell_angle_beta   84.11234283
_cell_angle_gamma   90.00000000
_symmetry_Int_Tables_number   1
_chemical_formula_structural   Ba4SnGeP5S9
_chemical_formula_sum   'Ba4 Sn1 Ge1 P5 S9'
_cell_volume   554.09471913
_cell_formula_units_Z   1
loop_
 _symmetry_equiv_pos_site_id
 _symmetry_equiv_pos_as_xyz
  1  'x, y, z'
loop_
 _atom_site_type_symbol
 _atom_site_label
 _atom_site_symmetry_multiplicity
 _atom_site_fract_x
 _atom_site_fract_y
 _atom_site_fract_z
 _atom_site_occupancy
  Ba  Ba0  1  0.69719900  0.24999999  0.95032798  1
  Ba  Ba1  1  0.30280100  0.74999998  0.04967200  1
  Ba  Ba2  1  0.92475799  0.24999999  0.36114800  1
  Ba  Ba3  1  0.07524200  0.74999998  0.63885198  1
  Ge  Ge4  1  0.49909400  0.24999999  0.55341199  1
  Sn  Sn5  1  0.50090600  0.74999998  0.44658799  1
  P  P6  1  0.16520800  0.24999999  0.77503498  1
  P  P7  1  0.83479199  0.74999998  0.22496501  1
  P  P8  1  0.16524400  0.24999999  0.59553298  1
  P  P9  1  0.83475599  0.74999998  0.40446700  1
  P  P10  1  0.36778200  0.49270399  0.79961798  1
  S  S11  1  0.63221800  0.99270397  0.20038200  1
  S  S12  1  0.63221800  0.50729599  0.20038200  1
  S  S13  1  0.36778200  0.00729600  0.79961798  1
  S  S14  1  0.63320900  0.41718899  0.68568999  1
  S  S15  1  0.36679100  0.91718898  0.31431000  1
  S  S16  1  0.36679100  0.58281098  0.31431000  1
  S  S17  1  0.63320900  0.08281100  0.68568999  1
  S  S18  1  0.15657900  0.24999999  0.08692300  1
  S  S19  1  0.84342099  0.74999998  0.91307698  1
