# generated using pymatgen
data_BHWCN(ClO2)4
_symmetry_space_group_name_H-M   'P 1'
_cell_length_a   5.24302101
_cell_length_b   5.98448277
_cell_length_c   7.58842707
_cell_angle_alpha   100.21999359
_cell_angle_beta   109.38159180
_cell_angle_gamma   106.88703918
_symmetry_Int_Tables_number   1
_chemical_formula_structural   BHWCN(ClO2)4
_chemical_formula_sum   'B1 H1 W1 C1 N1 Cl4 O8'
_cell_volume   204.79386870
_cell_formula_units_Z   1
loop_
 _symmetry_equiv_pos_site_id
 _symmetry_equiv_pos_as_xyz
  1  'x, y, z'
loop_
 _atom_site_type_symbol
 _atom_site_label
 _atom_site_symmetry_multiplicity
 _atom_site_fract_x
 _atom_site_fract_y
 _atom_site_fract_z
 _atom_site_occupancy
  H  H0  1  0.32916000  0.00090600  0.66864399  1
  W  W1  1  0.67083996  0.99909402  0.33135596  1
  B  B2  1  0.49999998  0.50000001  0.49999997  1
  C  C3  1  0.27438399  0.24217701  0.10751499  1
  Cl  Cl4  1  0.72561597  0.75782302  0.89248496  1
  N  N5  1  0.15846000  0.05312200  0.21139299  1
  Cl  Cl6  1  0.84153996  0.94687802  0.78860695  1
  Cl  Cl7  1  0.92999497  0.60952201  0.26250996  1
  O  O8  1  0.07000499  0.39047801  0.73748999  1
  Cl  Cl9  1  0.26853498  0.70291402  0.36316997  1
  O  O10  1  0.73146498  0.29708601  0.63682997  1
  O  O11  1  0.87117597  0.78900202  0.14415796  1
  O  O12  1  0.12882399  0.21099800  0.85584199  1
  O  O13  1  0.84520497  0.68905302  0.43628296  1
  O  O14  1  0.15479499  0.31094701  0.56371699  1
  O  O15  1  0.32935999  0.20398300  0.23472899  1
  O  O16  1  0.67063997  0.79601702  0.76527096  1
