# generated using pymatgen
data_Li4AgF7
_symmetry_space_group_name_H-M   'P 1'
_cell_length_a   4.89576244
_cell_length_b   4.89576244
_cell_length_c   5.00384521
_cell_angle_alpha   99.44449615
_cell_angle_beta   99.44449615
_cell_angle_gamma   119.95294189
_symmetry_Int_Tables_number   1
_chemical_formula_structural   Li4AgF7
_chemical_formula_sum   'Li4 Ag1 F7'
_cell_volume   98.16855949
_cell_formula_units_Z   1
loop_
 _symmetry_equiv_pos_site_id
 _symmetry_equiv_pos_as_xyz
  1  'x, y, z'
loop_
 _atom_site_type_symbol
 _atom_site_label
 _atom_site_symmetry_multiplicity
 _atom_site_fract_x
 _atom_site_fract_y
 _atom_site_fract_z
 _atom_site_occupancy
  Li  Li0  1  0.66226296  0.33773698  0.49999994  1
  Li  Li1  1  0.00000000  0.00000000  0.49999998  1
  Li  Li2  1  0.33773694  0.66226295  0.49999994  1
  Li  Li3  1  0.49999995  0.49999997  -0.00000004  1
  Ag  Ag4  1  0.83314496  0.16685499  -0.00000003  1
  F  F5  1  0.16685493  0.83314494  -0.00000004  1
  F  F6  1  0.93204693  0.57329096  0.22099894  1
  F  F7  1  0.06795297  0.42670897  0.77900094  1
  F  F8  1  0.78349392  0.78349395  0.77561091  1
  F  F9  1  0.57329091  0.93204694  0.22099893  1
  F  F10  1  0.42670898  0.06795300  0.77900095  1
  F  F11  1  0.21650598  0.21650599  0.22438897  1
