# generated using pymatgen
data_KNa3(PO2)4
_symmetry_space_group_name_H-M   'P 1'
_cell_length_a   5.28575993
_cell_length_b   5.46467781
_cell_length_c   7.06330776
_cell_angle_alpha   90.00000000
_cell_angle_beta   90.00000000
_cell_angle_gamma   90.00000000
_symmetry_Int_Tables_number   1
_chemical_formula_structural   KNa3(PO2)4
_chemical_formula_sum   'K1 Na3 P4 O8'
_cell_volume   204.02346798
_cell_formula_units_Z   1
loop_
 _symmetry_equiv_pos_site_id
 _symmetry_equiv_pos_as_xyz
  1  'x, y, z'
loop_
 _atom_site_type_symbol
 _atom_site_label
 _atom_site_symmetry_multiplicity
 _atom_site_fract_x
 _atom_site_fract_y
 _atom_site_fract_z
 _atom_site_occupancy
  Na  Na0  1  0.48513601  0.43015901  0.12271100  1
  K  K1  1  0.98513601  0.06984100  0.62271102  1
  Na  Na2  1  0.98513601  0.56984102  0.87728903  1
  Na  Na3  1  0.48513601  0.93015903  0.37728901  1
  P  P4  1  0.00044700  0.56100702  0.37410601  1
  P  P5  1  0.50044701  0.43899302  0.62589402  1
  P  P6  1  0.50044701  0.93899303  0.87410603  1
  P  P7  1  0.00044700  0.06100700  0.12589400  1
  O  O8  1  0.92930701  0.87451903  0.32638901  1
  O  O9  1  0.42930701  0.12548100  0.67361102  1
  O  O10  1  0.42930701  0.62548102  0.82638903  1
  O  O11  1  0.92930701  0.37451901  0.17361101  1
  O  O12  1  0.32951000  0.53279502  0.42244801  1
  O  O13  1  0.32951000  0.03279500  0.07755200  1
  O  O14  1  0.82951001  0.96720503  0.92244803  1
  O  O15  1  0.82951001  0.46720502  0.57755202  1
