# generated using pymatgen
data_BaZrTa2TiO4
_symmetry_space_group_name_H-M   'P 1'
_cell_length_a   5.06066513
_cell_length_b   6.15195179
_cell_length_c   6.15195131
_cell_angle_alpha   120.00000000
_cell_angle_beta   90.00000000
_cell_angle_gamma   90.00000000
_symmetry_Int_Tables_number   1
_chemical_formula_structural   BaZrTa2TiO4
_chemical_formula_sum   'Ba1 Zr1 Ta2 Ti1 O4'
_cell_volume   165.86854897
_cell_formula_units_Z   1
loop_
 _symmetry_equiv_pos_site_id
 _symmetry_equiv_pos_as_xyz
  1  'x, y, z'
loop_
 _atom_site_type_symbol
 _atom_site_label
 _atom_site_symmetry_multiplicity
 _atom_site_fract_x
 _atom_site_fract_y
 _atom_site_fract_z
 _atom_site_occupancy
  Ba  Ba0  1  0.68277298  0.33333333  0.66666665  1
  Zr  Zr1  1  0.31722699  0.66666667  0.33333329  1
  Ti  Ti2  1  0.00000000  0.00000000  0.00000000  1
  Ta  Ta3  1  0.77890698  0.31386800  0.15693398  1
  O  O4  1  0.22109299  0.68613200  0.84306596  1
  Ta  Ta5  1  0.77890698  0.84306600  0.68613195  1
  O  O6  1  0.22109299  0.15693400  0.31386799  1
  O  O7  1  0.77890698  0.84306600  0.15693395  1
  O  O8  1  0.22109299  0.15693400  0.84306600  1
