# generated using pymatgen
data_NaLaBiSbO6
_symmetry_space_group_name_H-M   'P 1'
_cell_length_a   5.66246319
_cell_length_b   5.75818110
_cell_length_c   8.27038383
_cell_angle_alpha   90.00000000
_cell_angle_beta   90.53523254
_cell_angle_gamma   90.00000000
_symmetry_Int_Tables_number   1
_chemical_formula_structural   NaLaBiSbO6
_chemical_formula_sum   'Na2 La2 Bi2 Sb2 O12'
_cell_volume   269.64813903
_cell_formula_units_Z   2
loop_
 _symmetry_equiv_pos_site_id
 _symmetry_equiv_pos_as_xyz
  1  'x, y, z'
loop_
 _atom_site_type_symbol
 _atom_site_label
 _atom_site_symmetry_multiplicity
 _atom_site_fract_x
 _atom_site_fract_y
 _atom_site_fract_z
 _atom_site_occupancy
  Na  Na0  1  0.24532500  0.75341999  0.00198901  1
  Na  Na1  1  0.75467501  0.25342000  0.99801103  1
  La  La2  1  0.25512900  0.82263299  0.50096501  1
  La  La3  1  0.74487101  0.32263299  0.49903503  1
  Bi  Bi4  1  0.74757201  0.77795199  0.24646903  1
  Bi  Bi5  1  0.25242800  0.27795200  0.75353101  1
  Sb  Sb6  1  0.76066101  0.76901799  0.74885103  1
  Sb  Sb7  1  0.23933900  0.26901800  0.25114901  1
  O  O8  1  0.55193001  0.03324300  0.68784902  1
  O  O9  1  0.44807001  0.53324299  0.31215102  1
  O  O10  1  0.51643301  0.06597700  0.31337402  1
  O  O11  1  0.48356701  0.56597699  0.68662602  1
  O  O12  1  0.96371702  0.45996399  0.24573904  1
  O  O13  1  0.03628300  0.95996398  0.75426100  1
  O  O14  1  0.94005402  0.48367499  0.75777004  1
  O  O15  1  0.05994600  0.98367498  0.24223000  1
  O  O16  1  0.83624301  0.74046499  0.50469003  1
  O  O17  1  0.16375700  0.24046500  0.49531001  1
  O  O18  1  0.70849601  0.77705299  0.97205603  1
  O  O19  1  0.29150400  0.27705300  0.02794401  1
