# generated using pymatgen
data_BaSrAlInGaGePS13
_symmetry_space_group_name_H-M   'P 1'
_cell_length_a   6.14417362
_cell_length_b   6.27917290
_cell_length_c   8.77637196
_cell_angle_alpha   90.28997803
_cell_angle_beta   90.21506500
_cell_angle_gamma   89.84601593
_symmetry_Int_Tables_number   1
_chemical_formula_structural   BaSrAlInGaGePS13
_chemical_formula_sum   'Ba1 Sr1 Al1 In1 Ga1 Ge1 P1 S13'
_cell_volume   338.58738562
_cell_formula_units_Z   1
loop_
 _symmetry_equiv_pos_site_id
 _symmetry_equiv_pos_as_xyz
  1  'x, y, z'
loop_
 _atom_site_type_symbol
 _atom_site_label
 _atom_site_symmetry_multiplicity
 _atom_site_fract_x
 _atom_site_fract_y
 _atom_site_fract_z
 _atom_site_occupancy
  Ba  Ba0  1  0.00729960  0.03591563  0.74724952  1
  Sr  Sr1  1  0.99270034  0.96408434  0.25275048  1
  Al  Al2  1  0.48489437  0.54214783  0.74682472  1
  In  In3  1  0.51510557  0.45785214  0.25317529  1
  Ge  Ge4  1  0.49999999  0.00000000  0.00000001  1
  Ga  Ga5  1  -0.00000002  0.49999999  0.49999999  1
  S  S6  1  -0.00000002  0.49999999  0.00000001  1
  P  P7  1  0.49999999  0.00000000  0.49999999  1
  S  S8  1  0.79267926  0.22394815  0.04025473  1
  S  S9  1  0.70787348  0.69238779  0.44573565  1
  S  S10  1  0.20732068  0.77605182  0.95974528  1
  S  S11  1  0.29212646  0.30761218  0.55426435  1
  S  S12  1  0.71961043  0.70105164  0.05503797  1
  S  S13  1  0.80144984  0.21647405  0.45769048  1
  S  S14  1  0.28038951  0.29894833  0.94496203  1
  S  S15  1  0.19855010  0.78352592  0.54230952  1
  S  S16  1  0.57277632  0.95181309  0.76305560  1
  S  S17  1  0.90010279  0.48790057  0.76366271  1
  S  S18  1  0.42722362  0.04818688  0.23694440  1
  S  S19  1  0.09989715  0.51209941  0.23633729  1
