# generated using pymatgen
data_KNa
_symmetry_space_group_name_H-M   'P 1'
_cell_length_a   4.49930525
_cell_length_b   4.49930525
_cell_length_c   4.72361755
_cell_angle_alpha   61.55882645
_cell_angle_beta   61.55882645
_cell_angle_gamma   60.00000763
_symmetry_Int_Tables_number   1
_chemical_formula_structural   KNa
_chemical_formula_sum   'K1 Na1'
_cell_volume   69.16577457
_cell_formula_units_Z   1
loop_
 _symmetry_equiv_pos_site_id
 _symmetry_equiv_pos_as_xyz
  1  'x, y, z'
loop_
 _atom_site_type_symbol
 _atom_site_label
 _atom_site_symmetry_multiplicity
 _atom_site_fract_x
 _atom_site_fract_y
 _atom_site_fract_z
 _atom_site_occupancy
  Na  Na0  1  0.76769598  0.76769603  0.69691206  1
  K  K1  1  0.23230399  0.23230401  0.30308802  1
