# generated using pymatgen
data_K3Tl3CuSe5
_symmetry_space_group_name_H-M   'P 1'
_cell_length_a   4.24610186
_cell_length_b   9.27419758
_cell_length_c   11.07239723
_cell_angle_alpha   112.64551544
_cell_angle_beta   90.00000000
_cell_angle_gamma   90.00000000
_symmetry_Int_Tables_number   1
_chemical_formula_structural   K3Tl3CuSe5
_chemical_formula_sum   'K3 Tl3 Cu1 Se5'
_cell_volume   402.40673531
_cell_formula_units_Z   1
loop_
 _symmetry_equiv_pos_site_id
 _symmetry_equiv_pos_as_xyz
  1  'x, y, z'
loop_
 _atom_site_type_symbol
 _atom_site_label
 _atom_site_symmetry_multiplicity
 _atom_site_fract_x
 _atom_site_fract_y
 _atom_site_fract_z
 _atom_site_occupancy
  Tl  Tl0  1  0.25000001  0.25213102  0.28232701  1
  K  K1  1  0.75000003  0.74786905  0.71767303  1
  K  K2  1  0.75000003  0.30646702  0.83225801  1
  K  K3  1  0.25000001  0.69353305  0.16774203  1
  Tl  Tl4  1  0.75000003  0.92457906  0.39862704  1
  Tl  Tl5  1  0.25000001  0.07542101  0.60137300  1
  Se  Se6  1  0.75000003  0.26120002  0.56417001  1
  Cu  Cu7  1  0.25000001  0.10561301  0.86224100  1
  Se  Se8  1  0.25000001  0.54360304  0.87508002  1
  Se  Se9  1  0.25000001  0.73880005  0.43583003  1
  Se  Se10  1  0.75000003  0.45639703  0.12492002  1
  Se  Se11  1  0.75000003  0.89438706  0.13775904  1
