# generated using pymatgen
data_Al3SiH12
_symmetry_space_group_name_H-M   'P 1'
_cell_length_a   3.93837500
_cell_length_b   6.41867924
_cell_length_c   7.04331779
_cell_angle_alpha   90.00000000
_cell_angle_beta   90.00000000
_cell_angle_gamma   90.00000000
_symmetry_Int_Tables_number   1
_chemical_formula_structural   Al3SiH12
_chemical_formula_sum   'Al3 Si1 H12'
_cell_volume   178.04919844
_cell_formula_units_Z   1
loop_
 _symmetry_equiv_pos_site_id
 _symmetry_equiv_pos_as_xyz
  1  'x, y, z'
loop_
 _atom_site_type_symbol
 _atom_site_label
 _atom_site_symmetry_multiplicity
 _atom_site_fract_x
 _atom_site_fract_y
 _atom_site_fract_z
 _atom_site_occupancy
  H  H0  1  0.00000000  0.64274898  0.74745002  1
  Al  Al1  1  0.00000000  0.35725099  0.24745001  1
  Al  Al2  1  0.50000000  0.30517699  0.60199002  1
  Al  Al3  1  0.50000000  0.69482297  0.10199000  1
  H  H4  1  0.50000000  0.98379996  0.59256202  1
  Si  Si5  1  0.50000000  0.01620000  0.09256200  1
  H  H6  1  0.20107100  0.12364400  0.81254902  1
  H  H7  1  0.79892900  0.87635597  0.31254901  1
  H  H8  1  0.20107100  0.87635597  0.31254901  1
  H  H9  1  0.79892900  0.12364400  0.81254902  1
  H  H10  1  0.00000000  0.20596999  0.86304103  1
  H  H11  1  0.50000000  0.56387498  0.03131600  1
  H  H12  1  0.50000000  0.96702796  0.73044302  1
  H  H13  1  0.50000000  0.03297200  0.23044301  1
  H  H14  1  0.00000000  0.79402997  0.36304101  1
  H  H15  1  0.50000000  0.43612498  0.53131602  1
