# generated using pymatgen
data_CsAlGa2AsI9
_symmetry_space_group_name_H-M   'P 1'
_cell_length_a   7.98814583
_cell_length_b   7.98814583
_cell_length_c   9.72669029
_cell_angle_alpha   90.00000000
_cell_angle_beta   90.00000000
_cell_angle_gamma   120.00000000
_symmetry_Int_Tables_number   1
_chemical_formula_structural   CsAlGa2AsI9
_chemical_formula_sum   'Cs1 Al1 Ga2 As1 I9'
_cell_volume   537.51141112
_cell_formula_units_Z   1
loop_
 _symmetry_equiv_pos_site_id
 _symmetry_equiv_pos_as_xyz
  1  'x, y, z'
loop_
 _atom_site_type_symbol
 _atom_site_label
 _atom_site_symmetry_multiplicity
 _atom_site_fract_x
 _atom_site_fract_y
 _atom_site_fract_z
 _atom_site_occupancy
  Cs  Cs0  1  0.00000000  0.00000000  0.00000000  1
  Al  Al1  1  0.33333332  0.66666665  0.32762899  1
  Ga  Ga2  1  0.66666667  0.33333332  0.67237098  1
  Ga  Ga3  1  0.33333332  0.66666665  0.82455598  1
  As  As4  1  0.66666667  0.33333332  0.17544399  1
  I  I5  1  0.53204600  0.53204598  0.99999997  1
  I  I6  1  0.46795398  0.99999997  -0.00000000  1
  I  I7  1  -0.00000001  0.46795399  -0.00000000  1
  I  I8  1  0.84974400  0.64574398  0.32312299  1
  I  I9  1  0.35425600  0.20399999  0.32312299  1
  I  I10  1  0.79600001  0.15025600  0.32312299  1
  I  I11  1  0.15025598  0.79599997  0.67687698  1
  I  I12  1  0.20399999  0.35425599  0.67687698  1
  I  I13  1  0.64574399  0.84974397  0.67687698  1
