# generated using pymatgen
data_Ba2Sr2CdInSe6
_symmetry_space_group_name_H-M   'P 1'
_cell_length_a   4.19098377
_cell_length_b   8.36413479
_cell_length_c   11.04530621
_cell_angle_alpha   90.00000000
_cell_angle_beta   90.00000000
_cell_angle_gamma   104.50905609
_symmetry_Int_Tables_number   1
_chemical_formula_structural   Ba2Sr2CdInSe6
_chemical_formula_sum   'Ba2 Sr2 Cd1 In1 Se6'
_cell_volume   374.83367013
_cell_formula_units_Z   1
loop_
 _symmetry_equiv_pos_site_id
 _symmetry_equiv_pos_as_xyz
  1  'x, y, z'
loop_
 _atom_site_type_symbol
 _atom_site_label
 _atom_site_symmetry_multiplicity
 _atom_site_fract_x
 _atom_site_fract_y
 _atom_site_fract_z
 _atom_site_occupancy
  Ba  Ba0  1  0.25778400  0.51556798  0.74999999  1
  Ba  Ba1  1  0.74221603  0.48443199  0.25000000  1
  Sr  Sr2  1  0.00000000  0.00000000  0.49999999  1
  Sr  Sr3  1  0.00000000  0.00000000  0.00000000  1
  Cd  Cd4  1  0.53900303  0.07800600  0.74999999  1
  In  In5  1  0.46099701  0.92199397  0.25000000  1
  Se  Se6  1  0.38308601  0.76617198  0.05943800  1
  Se  Se7  1  0.94528904  0.89057797  0.74999999  1
  Se  Se8  1  0.61691403  0.23382799  0.94056198  1
  Se  Se9  1  0.05471100  0.10942200  0.25000000  1
  Se  Se10  1  0.38308601  0.76617198  0.44056199  1
  Se  Se11  1  0.61691403  0.23382799  0.55943799  1
