# generated using pymatgen
data_RbU(TlSe3)2
_symmetry_space_group_name_H-M   'P 1'
_cell_length_a   5.83023024
_cell_length_b   5.86879301
_cell_length_c   7.04173946
_cell_angle_alpha   90.00000000
_cell_angle_beta   114.45487976
_cell_angle_gamma   90.00000000
_symmetry_Int_Tables_number   1
_chemical_formula_structural   RbU(TlSe3)2
_chemical_formula_sum   'Rb1 U1 Tl2 Se6'
_cell_volume   219.32748434
_cell_formula_units_Z   1
loop_
 _symmetry_equiv_pos_site_id
 _symmetry_equiv_pos_as_xyz
  1  'x, y, z'
loop_
 _atom_site_type_symbol
 _atom_site_label
 _atom_site_symmetry_multiplicity
 _atom_site_fract_x
 _atom_site_fract_y
 _atom_site_fract_z
 _atom_site_occupancy
  U  U0  1  0.60232397  0.78125000  0.20464800  1
  Rb  Rb1  1  0.39767598  0.21875000  0.79535202  1
  Tl  Tl2  1  0.89767596  0.78125000  0.79535202  1
  Tl  Tl3  1  0.10232400  0.21875000  0.20464801  1
  Se  Se4  1  0.74999996  0.21349600  0.50000001  1
  Se  Se5  1  0.24999999  0.78650400  0.50000001  1
  Se  Se6  1  0.24999999  1.00000000  -0.00000000  1
  Se  Se7  1  0.74999996  0.00000000  -0.00000001  1
  Se  Se8  1  0.74999996  0.50000000  -0.00000001  1
  Se  Se9  1  0.24999999  0.50000000  -0.00000000  1
