# generated using pymatgen
data_KNa3O4
_symmetry_space_group_name_H-M   'P 1'
_cell_length_a   6.02772522
_cell_length_b   6.02772522
_cell_length_c   9.05077648
_cell_angle_alpha   70.54933929
_cell_angle_beta   70.54933929
_cell_angle_gamma   60.00001144
_symmetry_Int_Tables_number   1
_chemical_formula_structural   KNa3O4
_chemical_formula_sum   'K2 Na6 O8'
_cell_volume   262.89483673
_cell_formula_units_Z   2
loop_
 _symmetry_equiv_pos_site_id
 _symmetry_equiv_pos_as_xyz
  1  'x, y, z'
loop_
 _atom_site_type_symbol
 _atom_site_label
 _atom_site_symmetry_multiplicity
 _atom_site_fract_x
 _atom_site_fract_y
 _atom_site_fract_z
 _atom_site_occupancy
  K  K0  1  0.99732206  0.99732197  0.00803392  1
  K  K1  1  0.16133701  0.16133700  0.51598900  1
  Na  Na2  1  0.58148104  0.58148098  0.25555696  1
  Na  Na3  1  0.42215703  0.42215699  0.73352898  1
  Na  Na4  1  0.86069505  0.86069498  0.41791494  1
  Na  Na5  1  0.73651904  0.73651898  0.79044295  1
  Na  Na6  1  0.29784502  0.29784499  0.10646498  1
  Na  Na7  1  0.07434801  0.08433100  0.26242000  1
  O  O8  1  0.57890100  0.07434800  0.26241998  1
  O  O9  1  0.08433104  0.57890098  0.26241998  1
  O  O10  1  0.12279304  0.61859398  0.59440998  1
  O  O11  1  0.66420301  0.12279300  0.59440998  1
  O  O12  1  0.61859404  0.66420298  0.59440996  1
  O  O13  1  0.03401903  0.48261899  0.93182499  1
  O  O14  1  0.55153700  0.03401900  0.93182500  1
  O  O15  1  0.48261903  0.55153699  0.93182497  1
