# generated using pymatgen
data_Rb2AlTlO6
_symmetry_space_group_name_H-M   'P 1'
_cell_length_a   5.77049971
_cell_length_b   5.77052498
_cell_length_c   5.77044964
_cell_angle_alpha   119.99606323
_cell_angle_beta   119.99385071
_cell_angle_gamma   60.00533295
_symmetry_Int_Tables_number   1
_chemical_formula_structural   Rb2AlTlO6
_chemical_formula_sum   'Rb2 Al1 Tl1 O6'
_cell_volume   135.88577912
_cell_formula_units_Z   1
loop_
 _symmetry_equiv_pos_site_id
 _symmetry_equiv_pos_as_xyz
  1  'x, y, z'
loop_
 _atom_site_type_symbol
 _atom_site_label
 _atom_site_symmetry_multiplicity
 _atom_site_fract_x
 _atom_site_fract_y
 _atom_site_fract_z
 _atom_site_occupancy
  Al  Al0  1  0.49999998  0.50000002  0.49999998  1
  Rb  Rb1  1  0.00000000  0.00000000  0.00000000  1
  Rb  Rb2  1  0.25001399  0.25001201  0.74999098  1
  Tl  Tl3  1  0.74998598  0.74998803  0.25000897  1
  O  O4  1  0.76356300  0.23641801  0.76358298  1
  O  O5  1  0.23642499  0.23642401  0.23644099  1
  O  O6  1  0.23642097  0.76356303  0.76358396  1
  O  O7  1  0.23643697  0.76358203  0.23641697  1
  O  O8  1  0.76357498  0.76357603  0.76355896  1
  O  O9  1  0.76357900  0.23643701  0.23641599  1
