# generated using pymatgen
data_K4Si2GeS13
_symmetry_space_group_name_H-M   'P 1'
_cell_length_a   5.91075706
_cell_length_b   6.08291292
_cell_length_c   10.70501041
_cell_angle_alpha   90.00000000
_cell_angle_beta   90.00000000
_cell_angle_gamma   90.00000000
_symmetry_Int_Tables_number   1
_chemical_formula_structural   K4Si2GeS13
_chemical_formula_sum   'K4 Si2 Ge1 S13'
_cell_volume   384.89458719
_cell_formula_units_Z   1
loop_
 _symmetry_equiv_pos_site_id
 _symmetry_equiv_pos_as_xyz
  1  'x, y, z'
loop_
 _atom_site_type_symbol
 _atom_site_label
 _atom_site_symmetry_multiplicity
 _atom_site_fract_x
 _atom_site_fract_y
 _atom_site_fract_z
 _atom_site_occupancy
  K  K0  1  0.00000000  0.50000001  0.36353499  1
  K  K1  1  0.49999999  0.00000000  0.63646498  1
  K  K2  1  0.49999999  0.50000001  0.00001600  1
  K  K3  1  0.00000000  0.00000000  0.99998396  1
  Si  Si4  1  0.00000000  0.50000001  0.75612297  1
  Si  Si5  1  0.49999999  0.00000000  0.24387699  1
  Ge  Ge6  1  0.21605800  0.26299200  0.79603097  1
  S  S7  1  0.28394200  0.23700800  0.20396899  1
  S  S8  1  0.71605799  0.76299201  0.20396899  1
  S  S9  1  0.78394199  0.73700801  0.79603097  1
  S  S10  1  0.21605800  0.73700801  0.79603097  1
  S  S11  1  0.71605799  0.23700800  0.20396899  1
  S  S12  1  0.28394200  0.76299201  0.20396899  1
  S  S13  1  0.78394199  0.26299200  0.79603097  1
  S  S14  1  0.00000000  0.50000001  0.94587796  1
  S  S15  1  0.49999999  0.00000000  0.05412200  1
  S  S16  1  0.20403800  0.50000001  0.61007398  1
  S  S17  1  0.79596199  0.50000001  0.61007398  1
  S  S18  1  0.29596200  0.00000000  0.38992598  1
  S  S19  1  0.70403799  0.00000000  0.38992598  1
