# generated using pymatgen
data_InSBr3Cl11
_symmetry_space_group_name_H-M   'P 1'
_cell_length_a   7.00032043
_cell_length_b   7.00032043
_cell_length_c   7.00032043
_cell_angle_alpha   109.47122192
_cell_angle_beta   109.47122192
_cell_angle_gamma   109.47122192
_symmetry_Int_Tables_number   1
_chemical_formula_structural   InSBr3Cl11
_chemical_formula_sum   'In1 S1 Br3 Cl11'
_cell_volume   264.07777275
_cell_formula_units_Z   1
loop_
 _symmetry_equiv_pos_site_id
 _symmetry_equiv_pos_as_xyz
  1  'x, y, z'
loop_
 _atom_site_type_symbol
 _atom_site_label
 _atom_site_symmetry_multiplicity
 _atom_site_fract_x
 _atom_site_fract_y
 _atom_site_fract_z
 _atom_site_occupancy
  In  In0  1  0.49420003  0.13943701  0.35476303  1
  Br  Br1  1  0.78467404  0.13943701  0.64523704  1
  Cl  Cl2  1  0.21532606  0.86056306  0.35476306  1
  Cl  Cl3  1  0.86056305  0.35476302  0.21532605  1
  S  S4  1  0.50580007  0.86056306  0.64523708  1
  Cl  Cl5  1  0.86056307  0.64523704  0.50580007  1
  Cl  Cl6  1  0.64523706  0.50580003  0.86056307  1
  Cl  Cl7  1  0.13943705  0.64523704  0.78467406  1
  Cl  Cl8  1  0.35476304  0.49420003  0.13943704  1
  Cl  Cl9  1  0.13943703  0.35476302  0.49420004  1
  Cl  Cl10  1  0.35476303  0.21532601  0.86056304  1
  Cl  Cl11  1  0.64523707  0.78467405  0.13943706  1
  Br  Br12  1  0.50000005  0.50000003  0.50000005  1
  Cl  Cl13  1  1.00000007  0.50000003  0.00000005  1
  Cl  Cl14  1  0.00000000  0.00000000  0.50000001  1
  Br  Br15  1  0.50000002  0.00000000  0.00000001  1
