# generated using pymatgen
data_NaLi3Fe3S2O3
_symmetry_space_group_name_H-M   'P 1'
_cell_length_a   5.10296392
_cell_length_b   5.48378706
_cell_length_c   5.28599453
_cell_angle_alpha   90.00000000
_cell_angle_beta   83.81983948
_cell_angle_gamma   90.00000000
_symmetry_Int_Tables_number   1
_chemical_formula_structural   NaLi3Fe3S2O3
_chemical_formula_sum   'Na1 Li3 Fe3 S2 O3'
_cell_volume   147.06131263
_cell_formula_units_Z   1
loop_
 _symmetry_equiv_pos_site_id
 _symmetry_equiv_pos_as_xyz
  1  'x, y, z'
loop_
 _atom_site_type_symbol
 _atom_site_label
 _atom_site_symmetry_multiplicity
 _atom_site_fract_x
 _atom_site_fract_y
 _atom_site_fract_z
 _atom_site_occupancy
  Na  Na0  1  0.00000000  0.23066400  0.25000000  1
  Li  Li1  1  0.00000000  0.76933599  0.75000001  1
  Li  Li2  1  0.50000001  0.30464200  0.74999998  1
  Li  Li3  1  0.50000001  0.69535799  0.24999997  1
  O  O4  1  0.73295002  0.43288700  0.99939196  1
  Fe  Fe5  1  0.26705001  0.43288700  0.50060799  1
  Fe  Fe6  1  0.26705001  0.56711299  0.00060798  1
  Fe  Fe7  1  0.73295002  0.56711299  0.49939196  1
  O  O8  1  0.24700301  0.91578199  0.40387599  1
  S  S9  1  0.75299702  0.91578199  0.09612396  1
  O  O10  1  0.75299702  0.08421800  0.59612396  1
  S  S11  1  0.24700301  0.08421800  0.90387599  1
