# generated using pymatgen
data_CaPr2Ga4CuAs8
_symmetry_space_group_name_H-M   'P 1'
_cell_length_a   6.44115114
_cell_length_b   7.06738997
_cell_length_c   6.77023315
_cell_angle_alpha   90.00000000
_cell_angle_beta   82.25370789
_cell_angle_gamma   90.00000000
_symmetry_Int_Tables_number   1
_chemical_formula_structural   CaPr2Ga4CuAs8
_chemical_formula_sum   'Ca1 Pr2 Ga4 Cu1 As8'
_cell_volume   305.38301351
_cell_formula_units_Z   1
loop_
 _symmetry_equiv_pos_site_id
 _symmetry_equiv_pos_as_xyz
  1  'x, y, z'
loop_
 _atom_site_type_symbol
 _atom_site_label
 _atom_site_symmetry_multiplicity
 _atom_site_fract_x
 _atom_site_fract_y
 _atom_site_fract_z
 _atom_site_occupancy
  Cu  Cu0  1  0.19372800  0.05016400  0.19753599  1
  Pr  Pr1  1  0.80627198  0.55016400  0.30246398  1
  Pr  Pr2  1  0.80627198  0.94983600  0.80246396  1
  Ca  Ca3  1  0.19372800  0.44983600  0.69753597  1
  Ga  Ga4  1  0.58705799  0.15573700  0.44138298  1
  Ga  Ga5  1  0.41294199  0.65573700  0.05861699  1
  Ga  Ga6  1  0.41294199  0.84426300  0.55861698  1
  Ga  Ga7  1  0.58705799  0.34426300  0.94138296  1
  As  As8  1  0.58807299  0.61610600  0.71969497  1
  As  As9  1  0.41192699  0.11610600  0.78030497  1
  As  As10  1  0.41192699  0.38389400  0.28030499  1
  As  As11  1  0.58807299  0.88389400  0.21969499  1
  As  As12  1  0.92300298  0.22710200  0.49806397  1
  As  As13  1  0.07699700  0.72710200  0.00193600  1
  As  As14  1  0.07699700  0.77289800  0.50193598  1
  As  As15  1  0.92300298  0.27289800  0.99806396  1
