# generated using pymatgen
data_Ba3Sr(BN)8
_symmetry_space_group_name_H-M   'P 1'
_cell_length_a   4.72613811
_cell_length_b   7.50851202
_cell_length_c   9.38712025
_cell_angle_alpha   90.00000000
_cell_angle_beta   90.00000000
_cell_angle_gamma   90.00000000
_symmetry_Int_Tables_number   1
_chemical_formula_structural   Ba3Sr(BN)8
_chemical_formula_sum   'Ba3 Sr1 B8 N8'
_cell_volume   333.11383521
_cell_formula_units_Z   1
loop_
 _symmetry_equiv_pos_site_id
 _symmetry_equiv_pos_as_xyz
  1  'x, y, z'
loop_
 _atom_site_type_symbol
 _atom_site_label
 _atom_site_symmetry_multiplicity
 _atom_site_fract_x
 _atom_site_fract_y
 _atom_site_fract_z
 _atom_site_occupancy
  Sr  Sr0  1  0.93867998  0.50000000  0.24999999  1
  Ba  Ba1  1  0.06132000  0.00000000  0.74999998  1
  Ba  Ba2  1  0.06132000  0.50000000  0.74999998  1
  Ba  Ba3  1  0.93867998  0.00000000  0.24999999  1
  B  B4  1  0.43798399  0.75000000  0.02796700  1
  B  B5  1  0.43798399  0.25000000  0.47203299  1
  B  B6  1  0.56201599  0.75000000  0.52796699  1
  B  B7  1  0.56201599  0.25000000  0.97203297  1
  B  B8  1  0.38333699  0.25000000  0.05010500  1
  B  B9  1  0.38333699  0.75000000  0.44989499  1
  B  B10  1  0.61666299  0.75000000  0.94989498  1
  B  B11  1  0.61666299  0.25000000  0.55010499  1
  N  N12  1  0.13380800  0.25000000  0.99940097  1
  N  N13  1  0.13380800  0.75000000  0.50059899  1
  N  N14  1  0.86619198  0.25000000  0.49940099  1
  N  N15  1  0.86619198  0.75000000  0.00059900  1
  N  N16  1  0.44854699  0.25000000  0.18155400  1
  N  N17  1  0.44854699  0.75000000  0.31844599  1
  N  N18  1  0.55145299  0.75000000  0.81844598  1
  N  N19  1  0.55145299  0.25000000  0.68155398  1
