# generated using pymatgen
data_BaBi2Te5Pb4O7
_symmetry_space_group_name_H-M   'P 1'
_cell_length_a   6.23639011
_cell_length_b   7.52251863
_cell_length_c   7.52251863
_cell_angle_alpha   112.67179108
_cell_angle_beta   106.04206848
_cell_angle_gamma   106.04206848
_symmetry_Int_Tables_number   1
_chemical_formula_structural   BaBi2Te5Pb4O7
_chemical_formula_sum   'Ba1 Bi2 Te5 Pb4 O7'
_cell_volume   282.28681218
_cell_formula_units_Z   1
loop_
 _symmetry_equiv_pos_site_id
 _symmetry_equiv_pos_as_xyz
  1  'x, y, z'
loop_
 _atom_site_type_symbol
 _atom_site_label
 _atom_site_symmetry_multiplicity
 _atom_site_fract_x
 _atom_site_fract_y
 _atom_site_fract_z
 _atom_site_occupancy
  Ba  Ba0  1  0.50608799  0.00000000  -0.00000001  1
  Bi  Bi1  1  0.14482198  0.43117400  0.00000000  1
  Te  Te2  1  0.14482200  0.00000000  0.43117400  1
  Pb  Pb3  1  0.71364796  0.56882600  0.56882599  1
  Pb  Pb4  1  0.85743394  0.78623600  0.45610599  1
  Pb  Pb5  1  0.40132797  0.54389400  0.33013000  1
  Bi  Bi6  1  0.07119797  0.66987000  0.21376401  1
  Pb  Pb7  1  0.85743396  0.45610600  0.78623599  1
  Te  Te8  1  0.74370997  0.33995600  0.33995599  1
  Te  Te9  1  0.40375399  0.00000000  0.66004399  1
  Te  Te10  1  0.40375396  0.66004400  0.00000000  1
  O  O11  1  0.64042195  0.77759400  0.77759400  1
  O  O12  1  0.86282798  0.00000000  0.22240598  1
  O  O13  1  0.86282797  0.22240600  0.99999999  1
  O  O14  1  0.08384096  0.76264300  0.76264302  1
  O  O15  1  0.32119799  0.00000000  0.23735699  1
  O  O16  1  0.32119798  0.23735700  -0.00000000  1
  Te  Te17  1  0.40132798  0.33013000  0.54389400  1
  O  O18  1  0.07119799  0.21376400  0.66987001  1
