# generated using pymatgen
data_Ba5Sr2Cd2Sn
_symmetry_space_group_name_H-M   'P 1'
_cell_length_a   8.70694160
_cell_length_b   9.22145844
_cell_length_c   9.09906960
_cell_angle_alpha   119.56192780
_cell_angle_beta   90.00000000
_cell_angle_gamma   118.17084503
_symmetry_Int_Tables_number   1
_chemical_formula_structural   Ba5Sr2Cd2Sn
_chemical_formula_sum   'Ba5 Sr2 Cd2 Sn1'
_cell_volume   533.72246834
_cell_formula_units_Z   1
loop_
 _symmetry_equiv_pos_site_id
 _symmetry_equiv_pos_as_xyz
  1  'x, y, z'
loop_
 _atom_site_type_symbol
 _atom_site_label
 _atom_site_symmetry_multiplicity
 _atom_site_fract_x
 _atom_site_fract_y
 _atom_site_fract_z
 _atom_site_occupancy
  Sr  Sr0  1  0.50000005  0.50000002  0.50000006  1
  Ba  Ba1  1  0.00000002  0.50000002  0.50000006  1
  Ba  Ba2  1  0.83630204  0.04541400  0.27270702  1
  Ba  Ba3  1  0.20911201  0.04541500  0.27270802  1
  Ba  Ba4  1  0.28021404  0.56042802  0.77256208  1
  Ba  Ba5  1  0.28021504  0.56042902  0.28786605  1
  Sr  Sr6  1  0.71978505  0.43957101  0.71213406  1
  Cd  Cd7  1  0.79088808  0.95458503  0.72729210  1
  Cd  Cd8  1  0.71978605  0.43957201  0.22743804  1
  Sn  Sn9  1  0.16369805  0.95458603  0.72729310  1
