# generated using pymatgen
data_LiMgFe3PN4
_symmetry_space_group_name_H-M   'P 1'
_cell_length_a   3.38959193
_cell_length_b   3.38959312
_cell_length_c   11.46932697
_cell_angle_alpha   90.00000000
_cell_angle_beta   90.00000000
_cell_angle_gamma   119.99999237
_symmetry_Int_Tables_number   1
_chemical_formula_structural   LiMgFe3PN4
_chemical_formula_sum   'Li1 Mg1 Fe3 P1 N4'
_cell_volume   114.12047915
_cell_formula_units_Z   1
loop_
 _symmetry_equiv_pos_site_id
 _symmetry_equiv_pos_as_xyz
  1  'x, y, z'
loop_
 _atom_site_type_symbol
 _atom_site_label
 _atom_site_symmetry_multiplicity
 _atom_site_fract_x
 _atom_site_fract_y
 _atom_site_fract_z
 _atom_site_occupancy
  Li  Li0  1  0.00000000  0.00000000  0.00000000  1
  Mg  Mg1  1  0.00000000  0.00000000  0.50000000  1
  Fe  Fe2  1  0.66666670  0.33333334  0.75000000  1
  Fe  Fe3  1  0.33333338  0.66666667  0.25000000  1
  N  N4  1  0.66666670  0.33333334  0.91013700  1
  Fe  Fe5  1  0.66666670  0.33333334  0.58986300  1
  P  P6  1  0.00000000  0.00000000  0.75000000  1
  N  N7  1  0.00000000  0.00000000  0.25000000  1
  N  N8  1  0.33333338  0.66666667  0.08986300  1
  N  N9  1  0.33333338  0.66666667  0.41013700  1
