# generated using pymatgen
data_Si6CO11
_symmetry_space_group_name_H-M   'P 1'
_cell_length_a   7.17098522
_cell_length_b   7.65326118
_cell_length_c   7.65326118
_cell_angle_alpha   69.28763580
_cell_angle_beta   71.80040741
_cell_angle_gamma   108.19959259
_symmetry_Int_Tables_number   1
_chemical_formula_structural   Si6CO11
_chemical_formula_sum   'Si6 C1 O11'
_cell_volume   328.26623103
_cell_formula_units_Z   1
loop_
 _symmetry_equiv_pos_site_id
 _symmetry_equiv_pos_as_xyz
  1  'x, y, z'
loop_
 _atom_site_type_symbol
 _atom_site_label
 _atom_site_symmetry_multiplicity
 _atom_site_fract_x
 _atom_site_fract_y
 _atom_site_fract_z
 _atom_site_occupancy
  Si  Si0  1  0.78551509  0.72861602  0.48474591  1
  Si  Si1  1  0.27026105  0.48474602  0.78663794  1
  Si  Si2  1  0.21448503  0.27138401  0.51525396  1
  Si  Si3  1  0.72973907  0.51525402  0.21336193  1
  Si  Si4  1  0.05689908  0.78663802  0.72861592  1
  Si  Si5  1  0.94310104  0.21336201  0.27138395  1
  C  C6  1  0.46301405  0.43360301  0.31344095  1
  O  O7  1  0.16487304  0.36164001  0.67797995  1
  O  O8  1  0.97058909  0.74704402  0.56639690  1
  O  O9  1  0.53698607  0.56639702  0.68655892  1
  O  O10  1  0.19676701  0.03962000  0.63835998  1
  O  O11  1  0.15714703  0.32202001  0.03961997  1
  O  O12  1  0.84285308  0.67798002  0.96037990  1
  O  O13  1  0.83512708  0.63836002  0.32201992  1
  O  O14  1  0.80323311  0.96038003  0.36163989  1
  O  O15  1  0.22354607  0.68656002  0.74704292  1
  O  O16  1  0.77645405  0.31344001  0.25295695  1
  O  O17  1  0.02941102  0.25295701  0.43360297  1
