# generated using pymatgen
data_PrTm2In(S2O)2
_symmetry_space_group_name_H-M   'P 1'
_cell_length_a   3.79922795
_cell_length_b   3.79922795
_cell_length_c   13.37774563
_cell_angle_alpha   90.00000000
_cell_angle_beta   90.00000000
_cell_angle_gamma   120.00000000
_symmetry_Int_Tables_number   1
_chemical_formula_structural   PrTm2In(S2O)2
_chemical_formula_sum   'Pr1 Tm2 In1 S4 O2'
_cell_volume   167.22618007
_cell_formula_units_Z   1
loop_
 _symmetry_equiv_pos_site_id
 _symmetry_equiv_pos_as_xyz
  1  'x, y, z'
loop_
 _atom_site_type_symbol
 _atom_site_label
 _atom_site_symmetry_multiplicity
 _atom_site_fract_x
 _atom_site_fract_y
 _atom_site_fract_z
 _atom_site_occupancy
  Tm  Tm0  1  0.66666668  0.33333334  0.10795900  1
  Pr  Pr1  1  0.66666668  0.33333334  0.39204101  1
  In  In2  1  0.33333334  0.66666668  0.60795902  1
  Tm  Tm3  1  0.33333334  0.66666668  0.89204102  1
  S  S4  1  0.00000000  0.00000000  0.75000002  1
  S  S5  1  0.00000000  0.00000000  0.25000001  1
  O  O6  1  0.66666668  0.33333334  0.93511703  1
  S  S7  1  0.66666668  0.33333334  0.56488302  1
  O  O8  1  0.33333334  0.66666668  0.06488300  1
  S  S9  1  0.33333334  0.66666668  0.43511701  1
