# generated using pymatgen
data_MgFeBP4SN10
_symmetry_space_group_name_H-M   'P 1'
_cell_length_a   6.59725380
_cell_length_b   6.59725380
_cell_length_c   6.59725380
_cell_angle_alpha   60.00000000
_cell_angle_beta   60.00000000
_cell_angle_gamma   60.00000000
_symmetry_Int_Tables_number   1
_chemical_formula_structural   MgFeBP4SN10
_chemical_formula_sum   'Mg1 Fe1 B1 P4 S1 N10'
_cell_volume   203.03671486
_cell_formula_units_Z   1
loop_
 _symmetry_equiv_pos_site_id
 _symmetry_equiv_pos_as_xyz
  1  'x, y, z'
loop_
 _atom_site_type_symbol
 _atom_site_label
 _atom_site_symmetry_multiplicity
 _atom_site_fract_x
 _atom_site_fract_y
 _atom_site_fract_z
 _atom_site_occupancy
  P  P0  1  0.50000001  0.50000001  0.50000001  1
  Fe  Fe1  1  0.00000000  0.00000000  0.00000000  1
  Mg  Mg2  1  0.44189201  0.18603600  0.18603600  1
  B  B3  1  0.55810801  0.81396402  0.81396402  1
  P  P4  1  0.18603500  0.18603600  0.44189301  1
  P  P5  1  0.18603500  0.18603600  0.18603600  1
  P  P6  1  0.81396502  0.81396402  0.55810701  1
  N  N7  1  0.81396502  0.81396402  0.81396402  1
  N  N8  1  0.18603500  0.44189301  0.18603600  1
  N  N9  1  0.81396502  0.55810701  0.81396402  1
  N  N10  1  0.25000001  0.25000001  0.25000001  1
  N  N11  1  0.75000002  0.75000002  0.75000002  1
  N  N12  1  0.77594202  0.77594202  0.22405800  1
  N  N13  1  0.22405800  0.22405800  0.77594202  1
  N  N14  1  0.77594202  0.22405800  0.22405800  1
  S  S15  1  0.22405800  0.77594202  0.77594202  1
  N  N16  1  0.77594202  0.22405800  0.77594202  1
  N  N17  1  0.22405800  0.77594202  0.22405800  1
