# generated using pymatgen
data_Rb2Ba2Ta2WO13
_symmetry_space_group_name_H-M   'P 1'
_cell_length_a   5.59172010
_cell_length_b   5.59171963
_cell_length_c   9.33598614
_cell_angle_alpha   90.00000000
_cell_angle_beta   90.00000000
_cell_angle_gamma   120.00000000
_symmetry_Int_Tables_number   1
_chemical_formula_structural   Rb2Ba2Ta2WO13
_chemical_formula_sum   'Rb2 Ba2 Ta2 W1 O13'
_cell_volume   252.80266147
_cell_formula_units_Z   1
loop_
 _symmetry_equiv_pos_site_id
 _symmetry_equiv_pos_as_xyz
  1  'x, y, z'
loop_
 _atom_site_type_symbol
 _atom_site_label
 _atom_site_symmetry_multiplicity
 _atom_site_fract_x
 _atom_site_fract_y
 _atom_site_fract_z
 _atom_site_occupancy
  Rb  Rb0  1  0.33333329  0.66666663  0.49999999  1
  Rb  Rb1  1  0.66666664  0.33333332  -0.00000000  1
  Ba  Ba2  1  0.00000000  0.00000000  0.24769200  1
  Ba  Ba3  1  0.00000000  0.00000000  0.75230799  1
  Ta  Ta4  1  0.33333329  0.66666663  0.86324599  1
  Ta  Ta5  1  0.66666664  0.33333332  0.63820899  1
  W  W6  1  0.66666664  0.33333332  0.36179099  1
  O  O7  1  0.33333329  0.66666663  0.13675400  1
  O  O8  1  0.36589898  0.18294899  0.49999999  1
  O  O9  1  0.81704995  0.63409997  0.49999999  1
  O  O10  1  0.81704997  0.18294899  0.49999999  1
  O  O11  1  0.63565994  0.81782996  -0.00000000  1
  O  O12  1  0.18216998  0.36433998  -0.00000000  1
  O  O13  1  0.18216995  0.81782996  -0.00000000  1
  O  O14  1  0.99609895  0.49804897  0.24610900  1
  O  O15  1  0.50194999  0.00390000  0.24610900  1
  O  O16  1  0.50194996  0.49804897  0.24610900  1
  O  O17  1  0.99609895  0.49804897  0.75389099  1
  O  O18  1  0.50194999  0.00390000  0.75389099  1
  O  O19  1  0.50194996  0.49804897  0.75389099  1
