# generated using pymatgen
data_CsTl2AgBr6
_symmetry_space_group_name_H-M   'P 1'
_cell_length_a   7.40088606
_cell_length_b   7.47167015
_cell_length_c   8.08886337
_cell_angle_alpha   116.29596710
_cell_angle_beta   90.00000000
_cell_angle_gamma   119.68710327
_symmetry_Int_Tables_number   1
_chemical_formula_structural   CsTl2AgBr6
_chemical_formula_sum   'Cs1 Tl2 Ag1 Br6'
_cell_volume   334.25989200
_cell_formula_units_Z   1
loop_
 _symmetry_equiv_pos_site_id
 _symmetry_equiv_pos_as_xyz
  1  'x, y, z'
loop_
 _atom_site_type_symbol
 _atom_site_label
 _atom_site_symmetry_multiplicity
 _atom_site_fract_x
 _atom_site_fract_y
 _atom_site_fract_z
 _atom_site_occupancy
  Ag  Ag0  1  0.82043095  0.83684296  0.49741200  1
  Cs  Cs1  1  0.18882597  0.51260998  0.50593801  1
  Tl  Tl2  1  0.01641196  0.83684296  0.99741201  1
  Tl  Tl3  1  0.32378397  0.51260998  0.00593800  1
  Br  Br4  1  0.70337796  0.56670997  0.11232300  1
  Br  Br5  1  0.02091199  0.23892199  0.12026000  1
  Br  Br6  1  0.38326095  0.92831896  0.13901800  1
  Br  Br7  1  0.86333196  0.56670997  0.61232301  1
  Br  Br8  1  0.21800999  0.23892199  0.62026001  1
  Br  Br9  1  0.54505795  0.92831896  0.63901801  1
