# generated using pymatgen
data_Na4LiS5
_symmetry_space_group_name_H-M   'P 1'
_cell_length_a   6.11840630
_cell_length_b   6.11840630
_cell_length_c   6.11840582
_cell_angle_alpha   60.76419449
_cell_angle_beta   60.76419449
_cell_angle_gamma   60.76419449
_symmetry_Int_Tables_number   1
_chemical_formula_structural   Na4LiS5
_chemical_formula_sum   'Na4 Li1 S5'
_cell_volume   164.74931407
_cell_formula_units_Z   1
loop_
 _symmetry_equiv_pos_site_id
 _symmetry_equiv_pos_as_xyz
  1  'x, y, z'
loop_
 _atom_site_type_symbol
 _atom_site_label
 _atom_site_symmetry_multiplicity
 _atom_site_fract_x
 _atom_site_fract_y
 _atom_site_fract_z
 _atom_site_occupancy
  Na  Na0  1  0.74793999  0.74793998  0.74793998  1
  Na  Na1  1  0.25206000  0.25205999  0.25205999  1
  Na  Na2  1  0.00000000  0.00000000  0.00000000  1
  Li  Li3  1  0.49999999  0.49999999  0.49999998  1
  Na  Na4  1  0.28249400  0.67155898  0.77365999  1
  S  S5  1  0.77365998  0.28249399  0.67155899  1
  S  S6  1  0.67155899  0.77365998  0.28249396  1
  S  S7  1  0.71750599  0.32844099  0.22633997  1
  S  S8  1  0.32844099  0.22633999  0.71750601  1
  S  S9  1  0.22634000  0.71750598  0.32844098  1
