# generated using pymatgen
data_Na7BiSbO11
_symmetry_space_group_name_H-M   'P 1'
_cell_length_a   5.52890921
_cell_length_b   7.05462646
_cell_length_c   7.52912617
_cell_angle_alpha   90.00000000
_cell_angle_beta   90.00000000
_cell_angle_gamma   101.08991241
_symmetry_Int_Tables_number   1
_chemical_formula_structural   Na7BiSbO11
_chemical_formula_sum   'Na7 Bi1 Sb1 O11'
_cell_volume   288.18515304
_cell_formula_units_Z   1
loop_
 _symmetry_equiv_pos_site_id
 _symmetry_equiv_pos_as_xyz
  1  'x, y, z'
loop_
 _atom_site_type_symbol
 _atom_site_label
 _atom_site_symmetry_multiplicity
 _atom_site_fract_x
 _atom_site_fract_y
 _atom_site_fract_z
 _atom_site_occupancy
  Na  Na0  1  0.00000000  0.00000000  0.49999999  1
  Na  Na1  1  0.00000000  0.00000000  0.00000000  1
  Na  Na2  1  0.55700593  0.81380698  0.24999999  1
  Na  Na3  1  0.44299397  0.18619299  0.74999998  1
  Na  Na4  1  0.51926894  0.68299798  0.74999998  1
  Na  Na5  1  0.48073096  0.31700199  0.24999999  1
  Sb  Sb6  1  -0.00000003  0.49999998  -0.00000000  1
  Na  Na7  1  -0.00000003  0.49999998  0.49999999  1
  O  O8  1  0.23145397  0.32623399  0.51186299  1
  Bi  Bi9  1  0.73933996  0.27673999  0.06441700  1
  O  O10  1  0.66360492  0.94526897  0.74999998  1
  O  O11  1  0.89524394  0.43672099  0.74999998  1
  O  O12  1  0.23145397  0.32623399  0.98813698  1
  O  O13  1  0.10475596  0.56327898  0.24999999  1
  O  O14  1  0.73933996  0.27673999  0.43558299  1
  O  O15  1  0.26065995  0.72325998  0.93558298  1
  O  O16  1  0.76854593  0.67376598  0.01186300  1
  O  O17  1  0.76854593  0.67376598  0.48813699  1
  O  O18  1  0.26065995  0.72325998  0.56441699  1
  O  O19  1  0.33639498  0.05473100  0.24999999  1
