# generated using pymatgen
data_Li5Mn(OF2)2
_symmetry_space_group_name_H-M   'P 1'
_cell_length_a   4.84802103
_cell_length_b   5.15524578
_cell_length_c   5.74907684
_cell_angle_alpha   90.00000000
_cell_angle_beta   90.00000000
_cell_angle_gamma   91.48556519
_symmetry_Int_Tables_number   1
_chemical_formula_structural   Li5Mn(OF2)2
_chemical_formula_sum   'Li5 Mn1 O2 F4'
_cell_volume   143.63688828
_cell_formula_units_Z   1
loop_
 _symmetry_equiv_pos_site_id
 _symmetry_equiv_pos_as_xyz
  1  'x, y, z'
loop_
 _atom_site_type_symbol
 _atom_site_label
 _atom_site_symmetry_multiplicity
 _atom_site_fract_x
 _atom_site_fract_y
 _atom_site_fract_z
 _atom_site_occupancy
  Li  Li0  1  0.50000001  0.25000000  0.67709502  1
  Li  Li1  1  0.50000004  0.74999999  0.32290501  1
  Li  Li2  1  0.00000001  0.25000000  0.17724700  1
  Li  Li3  1  0.00000004  0.74999999  0.82275302  1
  O  O4  1  0.21745302  0.43524000  0.89266402  1
  Li  Li5  1  0.26486502  0.40503700  0.38351101  1
  F  F6  1  0.78254700  0.06476000  0.89266402  1
  Mn  Mn7  1  0.73513503  0.59496299  0.61648902  1
  O  O8  1  0.73513500  0.09496300  0.38351101  1
  F  F9  1  0.21745305  0.93523999  0.10733600  1
  F  F10  1  0.26486505  0.90503699  0.61648902  1
  F  F11  1  0.78254702  0.56476000  0.10733600  1
