# generated using pymatgen
data_Cu3Te5AsS7
_symmetry_space_group_name_H-M   'P 1'
_cell_length_a   6.70078802
_cell_length_b   7.01090717
_cell_length_c   8.25105953
_cell_angle_alpha   90.00000000
_cell_angle_beta   90.00000000
_cell_angle_gamma   90.00000000
_symmetry_Int_Tables_number   1
_chemical_formula_structural   Cu3Te5AsS7
_chemical_formula_sum   'Cu3 Te5 As1 S7'
_cell_volume   387.62324846
_cell_formula_units_Z   1
loop_
 _symmetry_equiv_pos_site_id
 _symmetry_equiv_pos_as_xyz
  1  'x, y, z'
loop_
 _atom_site_type_symbol
 _atom_site_label
 _atom_site_symmetry_multiplicity
 _atom_site_fract_x
 _atom_site_fract_y
 _atom_site_fract_z
 _atom_site_occupancy
  Te  Te0  1  0.48747500  0.17514000  0.25261301  1
  Cu  Cu1  1  0.98747500  0.82485998  0.75261304  1
  Te  Te2  1  0.48747500  0.17514000  0.74738704  1
  Cu  Cu3  1  0.98747500  0.82485998  0.24738701  1
  Te  Te4  1  0.49105000  0.67703998  0.50000003  1
  As  As5  1  0.99105000  0.32295999  -0.00000000  1
  Te  Te6  1  0.99038700  0.34123299  0.50000003  1
  Te  Te7  1  0.49038700  0.65876698  -0.00000000  1
  Cu  Cu8  1  0.10604600  0.63416298  -0.00000000  1
  S  S9  1  0.60604600  0.36583699  0.50000003  1
  S  S10  1  0.14620000  0.67843898  0.50000003  1
  S  S11  1  0.64620000  0.32156099  -0.00000000  1
  S  S12  1  0.60356400  0.82464898  0.26665302  1
  S  S13  1  0.10356400  0.17535100  0.76665304  1
  S  S14  1  0.10356400  0.17535100  0.23334701  1
  S  S15  1  0.60356400  0.82464898  0.73334704  1
