# generated using pymatgen
data_K3NaSrBi(SbO6)2
_symmetry_space_group_name_H-M   'P 1'
_cell_length_a   5.59171486
_cell_length_b   5.61077595
_cell_length_c   7.88313580
_cell_angle_alpha   89.96256256
_cell_angle_beta   89.95586395
_cell_angle_gamma   89.94152069
_symmetry_Int_Tables_number   1
_chemical_formula_structural   K3NaSrBi(SbO6)2
_chemical_formula_sum   'K3 Na1 Sr1 Bi1 Sb2 O12'
_cell_volume   247.32413792
_cell_formula_units_Z   1
loop_
 _symmetry_equiv_pos_site_id
 _symmetry_equiv_pos_as_xyz
  1  'x, y, z'
loop_
 _atom_site_type_symbol
 _atom_site_label
 _atom_site_symmetry_multiplicity
 _atom_site_fract_x
 _atom_site_fract_y
 _atom_site_fract_z
 _atom_site_occupancy
  K  K0  1  0.49203504  0.50069000  0.24501704  1
  K  K1  1  0.00744700  0.00395200  0.75490202  1
  Sr  Sr2  1  0.98145308  0.98656100  0.23651508  1
  K  K3  1  0.51123904  0.49625200  0.76255406  1
  Bi  Bi4  1  0.49789007  0.99983200  0.99906108  1
  Na  Na5  1  0.99826105  0.49903900  0.50110607  1
  Sb  Sb6  1  0.49539401  0.00020100  0.49790904  1
  Sb  Sb7  1  0.00139503  0.49858500  0.00020301  1
  O  O8  1  0.22572805  0.75970300  0.03594603  1
  O  O9  1  0.74926006  0.74468100  0.46440607  1
  O  O10  1  0.75667003  0.25059100  0.53714705  1
  O  O11  1  0.26093302  0.27643400  0.96490805  1
  O  O12  1  0.76274503  0.25421300  0.96796707  1
  O  O13  1  0.26717602  0.26906300  0.53725903  1
  O  O14  1  0.23129505  0.76638500  0.46225704  1
  O  O15  1  0.75108306  0.73769400  0.03237105  1
  O  O16  1  0.00189902  0.42447100  0.25460502  1
  O  O17  1  0.51116802  0.05400200  0.26116303  1
  O  O18  1  0.99675406  0.55701800  0.74596508  1
  O  O19  1  0.50017307  0.92063400  0.73873907  1
