# generated using pymatgen
data_CsRb2TlO6
_symmetry_space_group_name_H-M   'P 1'
_cell_length_a   6.53661013
_cell_length_b   6.56373644
_cell_length_c   6.53661013
_cell_angle_alpha   60.13661575
_cell_angle_beta   90.00000000
_cell_angle_gamma   119.86338043
_symmetry_Int_Tables_number   1
_chemical_formula_structural   CsRb2TlO6
_chemical_formula_sum   'Cs1 Rb2 Tl1 O6'
_cell_volume   199.12468096
_cell_formula_units_Z   1
loop_
 _symmetry_equiv_pos_site_id
 _symmetry_equiv_pos_as_xyz
  1  'x, y, z'
loop_
 _atom_site_type_symbol
 _atom_site_label
 _atom_site_symmetry_multiplicity
 _atom_site_fract_x
 _atom_site_fract_y
 _atom_site_fract_z
 _atom_site_occupancy
  Rb  Rb0  1  0.49999999  0.00000000  0.49999999  1
  Rb  Rb1  1  0.74999997  0.50000000  0.74999997  1
  Cs  Cs2  1  0.24999998  0.50000000  0.24999998  1
  Tl  Tl3  1  0.00000000  0.00000000  0.00000000  1
  O  O4  1  0.26315096  0.99999901  0.18592097  1
  O  O5  1  0.73684899  0.00000100  0.81407898  1
  O  O6  1  0.18591996  1.00000001  0.73684896  1
  O  O7  1  0.81407998  0.00000000  0.26315100  1
  O  O8  1  0.22571198  0.45142400  0.77428797  1
  O  O9  1  0.77428797  0.54857601  0.22571198  1
