# generated using pymatgen
data_RbTaAlTlO6
_symmetry_space_group_name_H-M   'P 1'
_cell_length_a   4.02813101
_cell_length_b   4.02813101
_cell_length_c   15.99857616
_cell_angle_alpha   90.00000000
_cell_angle_beta   90.00000000
_cell_angle_gamma   90.00000000
_symmetry_Int_Tables_number   1
_chemical_formula_structural   RbTaAlTlO6
_chemical_formula_sum   'Rb2 Ta2 Al2 Tl2 O12'
_cell_volume   259.59032777
_cell_formula_units_Z   2
loop_
 _symmetry_equiv_pos_site_id
 _symmetry_equiv_pos_as_xyz
  1  'x, y, z'
loop_
 _atom_site_type_symbol
 _atom_site_label
 _atom_site_symmetry_multiplicity
 _atom_site_fract_x
 _atom_site_fract_y
 _atom_site_fract_z
 _atom_site_occupancy
  Tl  Tl0  1  0.50000000  0.50000000  0.86355599  1
  Rb  Rb1  1  0.50000000  0.50000000  0.62198299  1
  Rb  Rb2  1  0.50000000  0.50000000  0.37801700  1
  Tl  Tl3  1  0.50000000  0.50000000  0.13644400  1
  Al  Al4  1  0.00000000  0.00000000  0.00000000  1
  Al  Al5  1  0.00000000  0.00000000  0.74535899  1
  Ta  Ta6  1  0.00000000  0.00000000  0.49999999  1
  Ta  Ta7  1  0.00000000  0.00000000  0.25464100  1
  O  O8  1  0.50000000  0.00000000  -0.00000000  1
  O  O9  1  0.50000000  0.00000000  0.74522499  1
  O  O10  1  0.50000000  0.00000000  0.49999999  1
  O  O11  1  0.50000000  0.00000000  0.25477500  1
  O  O12  1  0.00000000  0.50000000  0.74522499  1
  O  O13  1  0.00000000  0.50000000  0.49999999  1
  O  O14  1  0.00000000  0.50000000  0.25477500  1
  O  O15  1  0.00000000  0.50000000  -0.00000000  1
  O  O16  1  0.00000000  0.00000000  0.86566799  1
  O  O17  1  0.00000000  0.00000000  0.62227399  1
  O  O18  1  0.00000000  0.00000000  0.37772600  1
  O  O19  1  0.00000000  0.00000000  0.13433200  1
