# generated using pymatgen
data_Ba2CO6
_symmetry_space_group_name_H-M   'P 1'
_cell_length_a   7.19231844
_cell_length_b   7.19231844
_cell_length_c   7.83362007
_cell_angle_alpha   106.12755585
_cell_angle_beta   106.12755585
_cell_angle_gamma   113.26040649
_symmetry_Int_Tables_number   1
_chemical_formula_structural   Ba2CO6
_chemical_formula_sum   'Ba4 C2 O12'
_cell_volume   321.32963479
_cell_formula_units_Z   2
loop_
 _symmetry_equiv_pos_site_id
 _symmetry_equiv_pos_as_xyz
  1  'x, y, z'
loop_
 _atom_site_type_symbol
 _atom_site_label
 _atom_site_symmetry_multiplicity
 _atom_site_fract_x
 _atom_site_fract_y
 _atom_site_fract_z
 _atom_site_occupancy
  Ba  Ba0  1  0.75231596  0.75231598  0.99999994  1
  Ba  Ba1  1  0.00231598  0.50231599  0.49999997  1
  Ba  Ba2  1  0.40766000  0.01003400  0.04077299  1
  Ba  Ba3  1  0.96926198  0.36688699  0.95922795  1
  C  C4  1  0.26003399  0.15766000  0.54077198  1
  C  C5  1  0.61688697  0.71926198  0.45922694  1
  O  O6  1  0.21412896  0.95272498  0.09136395  1
  O  O7  1  0.86136099  0.12276500  0.90863597  1
  O  O8  1  0.20272496  0.96412898  0.59136395  1
  O  O9  1  0.37276497  0.61136098  0.40863596  1
  O  O10  1  0.32296798  0.36064899  0.71960397  1
  O  O11  1  0.64104597  0.60336399  0.28039695  1
  O  O12  1  0.72308297  0.65500398  0.61302894  1
  O  O13  1  0.04197599  0.11005400  0.38697199  1
  O  O14  1  0.90500398  0.47308299  0.11302795  1
  O  O15  1  0.36005396  0.79197598  0.88697095  1
  O  O16  1  0.85336398  0.39104599  0.78039595  1
  O  O17  1  0.61064900  0.07296700  0.21960298  1
