# generated using pymatgen
data_Sr6ThZrO12
_symmetry_space_group_name_H-M   'P 1'
_cell_length_a   5.81232691
_cell_length_b   6.03223705
_cell_length_c   8.45777130
_cell_angle_alpha   90.00000000
_cell_angle_beta   90.00000000
_cell_angle_gamma   90.00000000
_symmetry_Int_Tables_number   1
_chemical_formula_structural   Sr6ThZrO12
_chemical_formula_sum   'Sr6 Th1 Zr1 O12'
_cell_volume   296.54074228
_cell_formula_units_Z   1
loop_
 _symmetry_equiv_pos_site_id
 _symmetry_equiv_pos_as_xyz
  1  'x, y, z'
loop_
 _atom_site_type_symbol
 _atom_site_label
 _atom_site_symmetry_multiplicity
 _atom_site_fract_x
 _atom_site_fract_y
 _atom_site_fract_z
 _atom_site_occupancy
  Sr  Sr0  1  0.97503702  0.46228600  0.24997399  1
  Sr  Sr1  1  0.97503702  0.53771400  0.75002597  1
  Sr  Sr2  1  0.47503701  0.96228599  0.25002599  1
  Sr  Sr3  1  0.47503701  0.03771400  0.74997397  1
  Sr  Sr4  1  0.00370000  0.00000000  -0.00000000  1
  Sr  Sr5  1  0.50370001  0.50000000  0.49999998  1
  Th  Th6  1  0.98434702  0.00000000  0.49999998  1
  Zr  Zr7  1  0.48434701  0.50000000  -0.00000000  1
  O  O8  1  0.45966101  0.52976200  0.23502899  1
  O  O9  1  0.45966101  0.47023800  0.76497097  1
  O  O10  1  0.95966102  0.02976200  0.26497099  1
  O  O11  1  0.95966102  0.97023799  0.73502897  1
  O  O12  1  0.28385300  0.18367200  0.49293298  1
  O  O13  1  0.28385300  0.81632799  0.50706698  1
  O  O14  1  0.78385301  0.68367199  0.00706700  1
  O  O15  1  0.78385301  0.31632800  0.99293296  1
  O  O16  1  0.30352600  0.23082000  0.01916000  1
  O  O17  1  0.30352600  0.76917999  0.98083997  1
  O  O18  1  0.80352601  0.73081999  0.48083998  1
  O  O19  1  0.80352601  0.26918000  0.51915998  1
