# generated using pymatgen
data_NaTlZn2F6
_symmetry_space_group_name_H-M   'P 1'
_cell_length_a   5.68516207
_cell_length_b   5.68516207
_cell_length_c   5.68516207
_cell_angle_alpha   60.00000000
_cell_angle_beta   60.00000000
_cell_angle_gamma   60.00000000
_symmetry_Int_Tables_number   1
_chemical_formula_structural   NaTlZn2F6
_chemical_formula_sum   'Na1 Tl1 Zn2 F6'
_cell_volume   129.93123043
_cell_formula_units_Z   1
loop_
 _symmetry_equiv_pos_site_id
 _symmetry_equiv_pos_as_xyz
  1  'x, y, z'
loop_
 _atom_site_type_symbol
 _atom_site_label
 _atom_site_symmetry_multiplicity
 _atom_site_fract_x
 _atom_site_fract_y
 _atom_site_fract_z
 _atom_site_occupancy
  Tl  Tl0  1  0.74999999  0.74999999  0.74999999  1
  Na  Na1  1  0.25000000  0.25000000  0.25000000  1
  Zn  Zn2  1  0.00000000  0.00000000  0.00000000  1
  Zn  Zn3  1  0.50000000  0.50000000  0.50000000  1
  F  F4  1  0.25666138  0.74333861  0.25666138  1
  F  F5  1  0.74333861  0.25666138  0.74333861  1
  F  F6  1  0.74333861  0.25666138  0.25666138  1
  F  F7  1  0.25666138  0.74333861  0.74333861  1
  F  F8  1  0.74333861  0.74333861  0.25666138  1
  F  F9  1  0.25666138  0.25666138  0.74333861  1
