# generated using pymatgen
data_BaSr3PrS5
_symmetry_space_group_name_H-M   'P 1'
_cell_length_a   4.20847988
_cell_length_b   4.20847988
_cell_length_c   15.33525085
_cell_angle_alpha   97.88677216
_cell_angle_beta   97.88677216
_cell_angle_gamma   90.00000000
_symmetry_Int_Tables_number   1
_chemical_formula_structural   BaSr3PrS5
_chemical_formula_sum   'Ba1 Sr3 Pr1 S5'
_cell_volume   266.44432800
_cell_formula_units_Z   1
loop_
 _symmetry_equiv_pos_site_id
 _symmetry_equiv_pos_as_xyz
  1  'x, y, z'
loop_
 _atom_site_type_symbol
 _atom_site_label
 _atom_site_symmetry_multiplicity
 _atom_site_fract_x
 _atom_site_fract_y
 _atom_site_fract_z
 _atom_site_occupancy
  Ba  Ba0  1  0.00000000  0.00000000  0.00000000  1
  Sr  Sr1  1  0.40047001  0.40047001  0.80093999  1
  Sr  Sr2  1  0.80019302  0.80019302  0.60038599  1
  Sr  Sr3  1  0.19980700  0.19980700  0.39961399  1
  Pr  Pr4  1  0.59953001  0.59953001  0.19905999  1
  S  S5  1  0.50000001  0.50000001  -0.00000001  1
  S  S6  1  0.70008701  0.70008702  0.40017399  1
  S  S7  1  0.09868000  0.09868000  0.19736000  1
  S  S8  1  0.90132002  0.90132002  0.80263998  1
  S  S9  1  0.29991301  0.29991301  0.59982599  1
