# generated using pymatgen
data_Li3V5O8
_symmetry_space_group_name_H-M   'P 1'
_cell_length_a   4.98847914
_cell_length_b   5.87971449
_cell_length_c   5.87974119
_cell_angle_alpha   60.19248581
_cell_angle_beta   73.56912994
_cell_angle_gamma   73.56935883
_symmetry_Int_Tables_number   1
_chemical_formula_structural   Li3V5O8
_chemical_formula_sum   'Li3 V5 O8'
_cell_volume   141.41847804
_cell_formula_units_Z   1
loop_
 _symmetry_equiv_pos_site_id
 _symmetry_equiv_pos_as_xyz
  1  'x, y, z'
loop_
 _atom_site_type_symbol
 _atom_site_label
 _atom_site_symmetry_multiplicity
 _atom_site_fract_x
 _atom_site_fract_y
 _atom_site_fract_z
 _atom_site_occupancy
  V  V0  1  0.00000103  0.49924201  0.50075797  1
  Li  Li1  1  0.99796205  0.49640801  0.00309995  1
  Li  Li2  1  0.00204107  0.99690302  0.50359195  1
  Li  Li3  1  0.49560903  0.25255600  0.24983997  1
  V  V4  1  0.50439006  0.75016501  0.74744394  1
  V  V5  1  0.99999108  0.99752402  0.00245293  1
  V  V6  1  0.50000506  0.74528101  0.25472695  1
  V  V7  1  0.50000303  0.26419201  0.73581096  1
  O  O8  1  0.25211605  0.65397201  0.12301397  1
  O  O9  1  0.74788807  0.87699102  0.34602494  1
  O  O10  1  0.24724601  0.11979400  0.66143698  1
  O  O11  1  0.75275204  0.33855801  0.88020295  1
  O  O12  1  0.72133904  0.39984401  0.36864296  1
  O  O13  1  0.27865905  0.63135901  0.60015996  1
  O  O14  1  0.75421507  0.87487502  0.89766593  1
  O  O15  1  0.24578201  0.10233800  0.12512499  1
