# generated using pymatgen
data_Li
_symmetry_space_group_name_H-M   'P 1'
_cell_length_a   3.62839198
_cell_length_b   4.05428362
_cell_length_c   4.05428362
_cell_angle_alpha   73.47112274
_cell_angle_beta   63.41811752
_cell_angle_gamma   63.41811752
_symmetry_Int_Tables_number   1
_chemical_formula_structural   Li
_chemical_formula_sum   Li4
_cell_volume   47.43302540
_cell_formula_units_Z   4
loop_
 _symmetry_equiv_pos_site_id
 _symmetry_equiv_pos_as_xyz
  1  'x, y, z'
loop_
 _atom_site_type_symbol
 _atom_site_label
 _atom_site_symmetry_multiplicity
 _atom_site_fract_x
 _atom_site_fract_y
 _atom_site_fract_z
 _atom_site_occupancy
  Li  Li0  1  0.23828701  0.26171300  0.26171300  1
  Li  Li1  1  0.76171302  0.73828701  0.73828700  1
  Li  Li2  1  0.00000002  0.87011902  0.12988098  1
  Li  Li3  1  0.00000000  0.12988100  0.87011901  1
