# generated using pymatgen
data_Mg2ZnPS
_symmetry_space_group_name_H-M   'P 1'
_cell_length_a   3.74187589
_cell_length_b   3.74187636
_cell_length_c   6.52920008
_cell_angle_alpha   90.00000000
_cell_angle_beta   90.00000000
_cell_angle_gamma   120.00000000
_symmetry_Int_Tables_number   1
_chemical_formula_structural   Mg2ZnPS
_chemical_formula_sum   'Mg2 Zn1 P1 S1'
_cell_volume   79.17159985
_cell_formula_units_Z   1
loop_
 _symmetry_equiv_pos_site_id
 _symmetry_equiv_pos_as_xyz
  1  'x, y, z'
loop_
 _atom_site_type_symbol
 _atom_site_label
 _atom_site_symmetry_multiplicity
 _atom_site_fract_x
 _atom_site_fract_y
 _atom_site_fract_z
 _atom_site_occupancy
  Mg  Mg0  1  0.66666670  0.33333333  0.71670099  1
  Mg  Mg1  1  0.33333338  0.66666667  0.28329900  1
  Zn  Zn2  1  0.00000000  0.00000000  0.00000000  1
  P  P3  1  0.66666670  0.33333333  0.37049000  1
  S  S4  1  0.33333338  0.66666667  0.62950999  1
