# generated using pymatgen
data_BaS
_symmetry_space_group_name_H-M   'P 1'
_cell_length_a   6.56170607
_cell_length_b   6.56170607
_cell_length_c   8.04921150
_cell_angle_alpha   114.05411530
_cell_angle_beta   114.05411530
_cell_angle_gamma   90.00000000
_symmetry_Int_Tables_number   1
_chemical_formula_structural   BaS
_chemical_formula_sum   'Ba4 S4'
_cell_volume   283.19521160
_cell_formula_units_Z   4
loop_
 _symmetry_equiv_pos_site_id
 _symmetry_equiv_pos_as_xyz
  1  'x, y, z'
loop_
 _atom_site_type_symbol
 _atom_site_label
 _atom_site_symmetry_multiplicity
 _atom_site_fract_x
 _atom_site_fract_y
 _atom_site_fract_z
 _atom_site_occupancy
  Ba  Ba0  1  0.74999998  0.24999999  0.49999996  1
  Ba  Ba1  1  0.00000000  0.00000000  0.00000000  1
  Ba  Ba2  1  0.24999998  0.74999998  0.49999996  1
  Ba  Ba3  1  0.49999998  0.49999999  0.99999995  1
  S  S4  1  0.63175598  0.12500000  0.74999996  1
  S  S5  1  0.11824398  0.62499999  0.74999996  1
  S  S6  1  0.87499996  0.88175598  0.24999995  1
  S  S7  1  0.37499998  0.36824399  0.24999998  1
