# generated using pymatgen
data_Sr2BiSbO6
_symmetry_space_group_name_H-M   'P 1'
_cell_length_a   5.64275408
_cell_length_b   5.69529295
_cell_length_c   7.95834970
_cell_angle_alpha   90.00000000
_cell_angle_beta   89.83283234
_cell_angle_gamma   90.00000000
_symmetry_Int_Tables_number   1
_chemical_formula_structural   Sr2BiSbO6
_chemical_formula_sum   'Sr4 Bi2 Sb2 O12'
_cell_volume   255.75749029
_cell_formula_units_Z   2
loop_
 _symmetry_equiv_pos_site_id
 _symmetry_equiv_pos_as_xyz
  1  'x, y, z'
loop_
 _atom_site_type_symbol
 _atom_site_label
 _atom_site_symmetry_multiplicity
 _atom_site_fract_x
 _atom_site_fract_y
 _atom_site_fract_z
 _atom_site_occupancy
  Sr  Sr0  1  0.49462699  0.21715800  0.74935500  1
  Sr  Sr1  1  0.99462699  0.78284201  0.24935496  1
  Sr  Sr2  1  0.50982799  0.29163500  0.24837198  1
  Sr  Sr3  1  0.00982800  0.70836501  0.74837201  1
  Bi  Bi4  1  0.50097999  0.75584401  0.99867800  1
  Bi  Bi5  1  0.00098000  0.24415600  0.49867801  1
  Sb  Sb6  1  0.50009699  0.75102101  0.50016099  1
  Sb  Sb7  1  0.00009700  0.24897900  0.00016100  1
  O  O8  1  0.58758599  0.76360101  0.74181199  1
  O  O9  1  0.08758600  0.23639900  0.24181200  1
  O  O10  1  0.43142799  0.72714801  0.25815599  1
  O  O11  1  0.93142799  0.27285200  0.75815598  1
  O  O12  1  0.21800700  0.95149801  0.54402600  1
  O  O13  1  0.71800699  0.04850200  0.04402597  1
  O  O14  1  0.77179999  0.53768500  0.46186898  1
  O  O15  1  0.27180000  0.46231500  0.96186901  1
  O  O16  1  0.69735599  0.03507900  0.45615898  1
  O  O17  1  0.19735600  0.96492101  0.95615901  1
  O  O18  1  0.28829000  0.47832000  0.54141200  1
  O  O19  1  0.78828999  0.52168000  0.04141197  1
