# generated using pymatgen
data_Sr2Ca2ZrSn(PS6)2
_symmetry_space_group_name_H-M   'P 1'
_cell_length_a   6.44655418
_cell_length_b   6.51416588
_cell_length_c   9.14468956
_cell_angle_alpha   90.00000000
_cell_angle_beta   89.86026764
_cell_angle_gamma   90.00000000
_symmetry_Int_Tables_number   1
_chemical_formula_structural   Sr2Ca2ZrSn(PS6)2
_chemical_formula_sum   'Sr2 Ca2 Zr1 Sn1 P2 S12'
_cell_volume   384.02024994
_cell_formula_units_Z   1
loop_
 _symmetry_equiv_pos_site_id
 _symmetry_equiv_pos_as_xyz
  1  'x, y, z'
loop_
 _atom_site_type_symbol
 _atom_site_label
 _atom_site_symmetry_multiplicity
 _atom_site_fract_x
 _atom_site_fract_y
 _atom_site_fract_z
 _atom_site_occupancy
  Sr  Sr0  1  0.00000000  0.00000000  0.49999998  1
  Ca  Ca1  1  0.49999999  0.50000001  0.00000000  1
  Sr  Sr2  1  0.99368397  0.46701501  0.25004099  1
  Ca  Ca3  1  0.50631599  0.96701502  0.24995899  1
  Zr  Zr4  1  0.00631600  0.53298501  0.74995897  1
  Sn  Sn5  1  0.49368399  0.03298500  0.75004097  1
  P  P6  1  0.00000000  0.00000000  0.00000000  1
  P  P7  1  0.49999999  0.50000001  0.49999998  1
  S  S8  1  0.32180499  0.75444801  0.53953898  1
  S  S9  1  0.17819499  0.25444800  0.96046096  1
  S  S10  1  0.67819498  0.24555200  0.46046098  1
  S  S11  1  0.82180498  0.74555201  0.03953900  1
  S  S12  1  0.75420998  0.68235101  0.46754898  1
  S  S13  1  0.74578998  0.18235100  0.03245100  1
  S  S14  1  0.24578999  0.31764901  0.53245098  1
  S  S15  1  0.25420999  0.81764902  0.96754896  1
  S  S16  1  0.93187497  0.97737202  0.78232997  1
  S  S17  1  0.56812498  0.47737201  0.71766997  1
  S  S18  1  0.06812500  0.02262800  0.21766999  1
  S  S19  1  0.43187499  0.52262801  0.28232999  1
