# generated using pymatgen
data_Na4Bi(SbO4)3
_symmetry_space_group_name_H-M   'P 1'
_cell_length_a   5.78078508
_cell_length_b   5.91547775
_cell_length_c   7.53133678
_cell_angle_alpha   90.00000000
_cell_angle_beta   90.00000000
_cell_angle_gamma   102.81531525
_symmetry_Int_Tables_number   1
_chemical_formula_structural   Na4Bi(SbO4)3
_chemical_formula_sum   'Na4 Bi1 Sb3 O12'
_cell_volume   251.12703234
_cell_formula_units_Z   1
loop_
 _symmetry_equiv_pos_site_id
 _symmetry_equiv_pos_as_xyz
  1  'x, y, z'
loop_
 _atom_site_type_symbol
 _atom_site_label
 _atom_site_symmetry_multiplicity
 _atom_site_fract_x
 _atom_site_fract_y
 _atom_site_fract_z
 _atom_site_occupancy
  Na  Na0  1  0.52884301  0.57394602  0.25000001  1
  Na  Na1  1  0.47115700  0.42605402  0.75000002  1
  Na  Na2  1  0.05201600  0.03909800  0.25000001  1
  Na  Na3  1  0.94798401  0.96090204  0.75000002  1
  Sb  Sb4  1  0.49999999  0.00000000  0.50000001  1
  Sb  Sb5  1  0.49999999  0.00000000  0.00000000  1
  Bi  Bi6  1  0.00000001  0.50000002  0.50000001  1
  Sb  Sb7  1  0.00000001  0.50000002  -0.00000000  1
  O  O8  1  0.33893901  0.69005203  0.53904002  1
  O  O9  1  0.14009800  0.23448601  0.94671303  1
  O  O10  1  0.66106100  0.30994801  0.03904000  1
  O  O11  1  0.85990201  0.76551403  0.44671301  1
  O  O12  1  0.14009800  0.23448601  0.55328702  1
  O  O13  1  0.85990201  0.76551403  0.05328700  1
  O  O14  1  0.90241100  0.55566502  0.75000002  1
  O  O15  1  0.33893901  0.69005203  0.96096003  1
  O  O16  1  0.42410402  0.94409803  0.25000001  1
  O  O17  1  0.66106100  0.30994801  0.46096001  1
  O  O18  1  0.09758901  0.44433502  0.25000001  1
  O  O19  1  0.57589599  0.05590200  0.75000002  1
