# generated using pymatgen
data_V2O5
_symmetry_space_group_name_H-M   'P 1'
_cell_length_a   5.24595594
_cell_length_b   5.24689722
_cell_length_c   7.45094013
_cell_angle_alpha   107.03639221
_cell_angle_beta   109.39801788
_cell_angle_gamma   95.76528168
_symmetry_Int_Tables_number   1
_chemical_formula_structural   V2O5
_chemical_formula_sum   'V4 O10'
_cell_volume   180.45487860
_cell_formula_units_Z   2
loop_
 _symmetry_equiv_pos_site_id
 _symmetry_equiv_pos_as_xyz
  1  'x, y, z'
loop_
 _atom_site_type_symbol
 _atom_site_label
 _atom_site_symmetry_multiplicity
 _atom_site_fract_x
 _atom_site_fract_y
 _atom_site_fract_z
 _atom_site_occupancy
  V  V0  1  0.00000000  0.00000000  0.00000000  1
  V  V1  1  0.49999995  0.49999997  0.49999996  1
  V  V2  1  0.88248994  0.57033696  0.23786394  1
  V  V3  1  0.11750996  0.42966297  0.76213599  1
  O  O4  1  0.18969793  0.73848495  0.88751597  1
  O  O5  1  0.14147898  0.25853098  0.90118600  1
  O  O6  1  0.81552696  0.35326598  0.60504996  1
  O  O7  1  0.32125997  0.36797098  0.65465298  1
  O  O8  1  0.85852093  0.74146895  0.09881392  1
  O  O9  1  0.18447294  0.64673396  0.39494996  1
  O  O10  1  0.67873994  0.63202896  0.34534694  1
  O  O11  1  0.81030197  0.26151498  0.11248396  1
  O  O12  1  0.68106592  0.84103995  0.73656194  1
  O  O13  1  0.31893398  0.15895999  0.26343799  1
