# generated using pymatgen
data_Al2GaSi2(GeP2)3
_symmetry_space_group_name_H-M   'P 1'
_cell_length_a   6.93295431
_cell_length_b   6.93295431
_cell_length_c   6.93295431
_cell_angle_alpha   60.00000000
_cell_angle_beta   60.00000000
_cell_angle_gamma   60.00000000
_symmetry_Int_Tables_number   1
_chemical_formula_structural   Al2GaSi2(GeP2)3
_chemical_formula_sum   'Al2 Ga1 Si2 Ge3 P6'
_cell_volume   235.63511825
_cell_formula_units_Z   1
loop_
 _symmetry_equiv_pos_site_id
 _symmetry_equiv_pos_as_xyz
  1  'x, y, z'
loop_
 _atom_site_type_symbol
 _atom_site_label
 _atom_site_symmetry_multiplicity
 _atom_site_fract_x
 _atom_site_fract_y
 _atom_site_fract_z
 _atom_site_occupancy
  Al  Al0  1  0.00000000  0.00000000  0.00000000  1
  Al  Al1  1  0.75000000  0.75000000  0.75000000  1
  Ga  Ga2  1  0.87500000  0.37500000  0.37500000  1
  Si  Si3  1  0.37500000  0.37500000  0.87500000  1
  Si  Si4  1  0.37500000  0.37500000  0.37500000  1
  Ge  Ge5  1  0.37500000  0.87500000  0.37500000  1
  P  P6  1  0.56969800  0.14343400  0.14343400  1
  Ge  Ge7  1  0.60656500  0.60656600  0.18030300  1
  Ge  Ge8  1  0.60656500  0.18030300  0.60656600  1
  P  P9  1  0.60656500  0.60656600  0.60656600  1
  P  P10  1  0.14343500  0.56969700  0.14343400  1
  P  P11  1  0.14343500  0.14343400  0.14343400  1
  P  P12  1  0.18030200  0.60656600  0.60656600  1
  P  P13  1  0.14343500  0.14343400  0.56969700  1
