# generated using pymatgen
data_Li4ZnFe3PF
_symmetry_space_group_name_H-M   'P 1'
_cell_length_a   5.79472017
_cell_length_b   5.81018829
_cell_length_c   5.81018829
_cell_angle_alpha   60.81121826
_cell_angle_beta   60.08802795
_cell_angle_gamma   60.08802795
_symmetry_Int_Tables_number   1
_chemical_formula_structural   Li4ZnFe3PF
_chemical_formula_sum   'Li4 Zn1 Fe3 P1 F1'
_cell_volume   139.33930185
_cell_formula_units_Z   1
loop_
 _symmetry_equiv_pos_site_id
 _symmetry_equiv_pos_as_xyz
  1  'x, y, z'
loop_
 _atom_site_type_symbol
 _atom_site_label
 _atom_site_symmetry_multiplicity
 _atom_site_fract_x
 _atom_site_fract_y
 _atom_site_fract_z
 _atom_site_occupancy
  Li  Li0  1  0.49132898  0.00000000  0.99999999  1
  Li  Li1  1  0.02322200  0.49999999  0.49999999  1
  Li  Li2  1  0.75587198  0.24725300  0.24725300  1
  Li  Li3  1  0.25037800  0.75274599  0.75274699  1
  Fe  Fe4  1  0.43270999  0.54666599  0.06745600  1
  Fe  Fe5  1  0.04683200  0.45333299  0.93254398  1
  P  P6  1  0.43270999  0.06745600  0.54666599  1
  Zn  Zn7  1  0.04683200  0.93254298  0.45333399  1
  F  F8  1  0.90574597  0.00000000  0.00000001  1
  Fe  Fe9  1  0.61437098  0.49999999  0.49999999  1
