# generated using pymatgen
data_BaTl3Br5
_symmetry_space_group_name_H-M   'P 1'
_cell_length_a   4.51170588
_cell_length_b   7.75139570
_cell_length_c   11.16645145
_cell_angle_alpha   91.72509766
_cell_angle_beta   90.00000000
_cell_angle_gamma   106.91935730
_symmetry_Int_Tables_number   1
_chemical_formula_structural   BaTl3Br5
_chemical_formula_sum   'Ba1 Tl3 Br5'
_cell_volume   373.42508555
_cell_formula_units_Z   1
loop_
 _symmetry_equiv_pos_site_id
 _symmetry_equiv_pos_as_xyz
  1  'x, y, z'
loop_
 _atom_site_type_symbol
 _atom_site_label
 _atom_site_symmetry_multiplicity
 _atom_site_fract_x
 _atom_site_fract_y
 _atom_site_fract_z
 _atom_site_occupancy
  Ba  Ba0  1  0.00000000  0.00000000  0.00000000  1
  Tl  Tl1  1  0.26763504  0.53527000  0.31097698  1
  Tl  Tl2  1  0.73236505  0.46473000  0.68902298  1
  Tl  Tl3  1  0.08547201  0.17094400  0.73490799  1
  Br  Br4  1  0.91452808  0.82905600  0.26509197  1
  Br  Br5  1  0.35667806  0.71335600  0.56028398  1
  Br  Br6  1  0.64332204  0.28664400  0.43971599  1
  Br  Br7  1  0.35844906  0.71689800  0.91899098  1
  Br  Br8  1  0.64155104  0.28310200  0.08100899  1
