# generated using pymatgen
data_SrLa2BiI8
_symmetry_space_group_name_H-M   'P 1'
_cell_length_a   7.56849241
_cell_length_b   8.65109921
_cell_length_c   9.14081573
_cell_angle_alpha   113.26387024
_cell_angle_beta   108.93864441
_cell_angle_gamma   100.89463806
_symmetry_Int_Tables_number   1
_chemical_formula_structural   SrLa2BiI8
_chemical_formula_sum   'Sr1 La2 Bi1 I8'
_cell_volume   484.19033044
_cell_formula_units_Z   1
loop_
 _symmetry_equiv_pos_site_id
 _symmetry_equiv_pos_as_xyz
  1  'x, y, z'
loop_
 _atom_site_type_symbol
 _atom_site_label
 _atom_site_symmetry_multiplicity
 _atom_site_fract_x
 _atom_site_fract_y
 _atom_site_fract_z
 _atom_site_occupancy
  Sr  Sr0  1  0.61515897  0.36515900  0.73031795  1
  La  La1  1  0.38484097  0.63484099  0.26968198  1
  Bi  Bi2  1  0.75035397  0.00035400  0.00070797  1
  La  La3  1  0.24964596  0.99964599  0.99929196  1
  I  I4  1  0.64146397  0.05373500  0.35348296  1
  I  I5  1  0.21201898  0.29974800  0.35348298  1
  I  I6  1  0.35853596  0.94626499  0.64651697  1
  I  I7  1  0.78798095  0.70025199  0.64651695  1
  I  I8  1  0.37170297  0.63426199  0.87701996  1
  I  I9  1  0.00531699  0.24275800  0.87701997  1
  I  I10  1  0.62829696  0.36573800  0.12297997  1
  I  I11  1  0.99468294  0.75724199  0.12298096  1
