# generated using pymatgen
data_LiAlCu4(PSe6)2
_symmetry_space_group_name_H-M   'P 1'
_cell_length_a   6.07328415
_cell_length_b   6.13875580
_cell_length_c   8.61221886
_cell_angle_alpha   90.00000000
_cell_angle_beta   90.00000000
_cell_angle_gamma   90.00000000
_symmetry_Int_Tables_number   1
_chemical_formula_structural   LiAlCu4(PSe6)2
_chemical_formula_sum   'Li1 Al1 Cu4 P2 Se12'
_cell_volume   321.08425967
_cell_formula_units_Z   1
loop_
 _symmetry_equiv_pos_site_id
 _symmetry_equiv_pos_as_xyz
  1  'x, y, z'
loop_
 _atom_site_type_symbol
 _atom_site_label
 _atom_site_symmetry_multiplicity
 _atom_site_fract_x
 _atom_site_fract_y
 _atom_site_fract_z
 _atom_site_occupancy
  Al  Al0  1  0.26001199  0.96538903  -0.00000000  1
  Li  Li1  1  0.73998798  0.46538902  -0.00000000  1
  Cu  Cu2  1  0.24252099  0.04292900  0.50000001  1
  Cu  Cu3  1  0.75747898  0.54292902  0.50000001  1
  Cu  Cu4  1  0.25039499  0.49979202  0.74402801  1
  Cu  Cu5  1  0.74960498  0.99979203  0.25597200  1
  P  P6  1  0.25039499  0.49979202  0.25597200  1
  P  P7  1  0.74960498  0.99979203  0.74402801  1
  Se  Se8  1  0.04125000  0.78725503  0.69494901  1
  Se  Se9  1  0.95874998  0.28725501  0.30505101  1
  Se  Se10  1  0.45756499  0.20688701  0.21569700  1
  Se  Se11  1  0.54243499  0.70688702  0.78430301  1
  Se  Se12  1  0.45756499  0.20688701  0.78430301  1
  Se  Se13  1  0.54243499  0.70688702  0.21569700  1
  Se  Se14  1  0.04125000  0.78725503  0.30505101  1
  Se  Se15  1  0.95874998  0.28725501  0.69494901  1
  Se  Se16  1  0.17948600  0.51127302  0.00000000  1
  Se  Se17  1  0.82051398  0.01127300  0.00000000  1
  Se  Se18  1  0.34612499  0.45614001  0.50000001  1
  Se  Se19  1  0.65387498  0.95614003  0.50000001  1
