# generated using pymatgen
data_V3WO8
_symmetry_space_group_name_H-M   'P 1'
_cell_length_a   3.05785060
_cell_length_b   7.19610357
_cell_length_c   7.21021414
_cell_angle_alpha   87.43974304
_cell_angle_beta   77.76005554
_cell_angle_gamma   77.73205566
_symmetry_Int_Tables_number   1
_chemical_formula_structural   V3WO8
_chemical_formula_sum   'V3 W1 O8'
_cell_volume   151.51071595
_cell_formula_units_Z   1
loop_
 _symmetry_equiv_pos_site_id
 _symmetry_equiv_pos_as_xyz
  1  'x, y, z'
loop_
 _atom_site_type_symbol
 _atom_site_label
 _atom_site_symmetry_multiplicity
 _atom_site_fract_x
 _atom_site_fract_y
 _atom_site_fract_z
 _atom_site_occupancy
  W  W0  1  0.33746610  0.81981699  0.50527505  1
  V  V1  1  0.66253201  0.18018500  0.49472602  1
  V  V2  1  0.15762106  0.50527299  0.17967903  1
  V  V3  1  0.84238005  0.49472600  0.82032604  1
  O  O4  1  0.46720304  0.36717600  0.69825203  1
  O  O5  1  0.16523604  0.30209300  0.36731502  1
  O  O6  1  0.83476408  0.69790599  0.63268505  1
  O  O7  1  0.53279507  0.63282699  0.30175104  1
  O  O8  1  0.79348704  0.36522600  0.04786402  1
  O  O9  1  0.84124211  0.95185399  0.36566005  1
  O  O10  1  0.20651708  0.63477499  0.95213106  1
  O  O11  1  0.15876200  0.04813900  0.63433902  1
