# generated using pymatgen
data_Al3Te5O8
_symmetry_space_group_name_H-M   'P 1'
_cell_length_a   5.24809790
_cell_length_b   5.70014000
_cell_length_c   6.58189821
_cell_angle_alpha   90.00000000
_cell_angle_beta   90.00000000
_cell_angle_gamma   90.00000000
_symmetry_Int_Tables_number   1
_chemical_formula_structural   Al3Te5O8
_chemical_formula_sum   'Al3 Te5 O8'
_cell_volume   196.89677906
_cell_formula_units_Z   1
loop_
 _symmetry_equiv_pos_site_id
 _symmetry_equiv_pos_as_xyz
  1  'x, y, z'
loop_
 _atom_site_type_symbol
 _atom_site_label
 _atom_site_symmetry_multiplicity
 _atom_site_fract_x
 _atom_site_fract_y
 _atom_site_fract_z
 _atom_site_occupancy
  Al  Al0  1  0.99620002  0.08302500  0.37426399  1
  Al  Al1  1  0.49620001  0.91697500  0.62573598  1
  Te  Te2  1  0.49620001  0.41697500  0.87426397  1
  Al  Al3  1  0.99620002  0.58302500  0.12573600  1
  Te  Te4  1  0.99709402  0.08726000  0.87612097  1
  Te  Te5  1  0.49709401  0.91274000  0.12387900  1
  Te  Te6  1  0.49709401  0.41274000  0.37612099  1
  Te  Te7  1  0.99709402  0.58726000  0.62387898  1
  O  O8  1  0.36515701  0.06988100  0.38598799  1
  O  O9  1  0.86515702  0.93011900  0.61401198  1
  O  O10  1  0.86515702  0.43011900  0.88598797  1
  O  O11  1  0.36515701  0.56988100  0.11401200  1
  O  O12  1  0.39155001  0.09033800  0.86431797  1
  O  O13  1  0.89155002  0.90966200  0.13568200  1
  O  O14  1  0.89155002  0.40966200  0.36431799  1
  O  O15  1  0.39155001  0.59033800  0.63568198  1
