# generated using pymatgen
data_Al6Ga2Si7P2RuC2
_symmetry_space_group_name_H-M   'P 1'
_cell_length_a   6.04901600
_cell_length_b   6.20567513
_cell_length_c   8.66781044
_cell_angle_alpha   90.00000000
_cell_angle_beta   90.00000000
_cell_angle_gamma   90.00000000
_symmetry_Int_Tables_number   1
_chemical_formula_structural   Al6Ga2Si7P2RuC2
_chemical_formula_sum   'Al6 Ga2 Si7 P2 Ru1 C2'
_cell_volume   325.37424556
_cell_formula_units_Z   1
loop_
 _symmetry_equiv_pos_site_id
 _symmetry_equiv_pos_as_xyz
  1  'x, y, z'
loop_
 _atom_site_type_symbol
 _atom_site_label
 _atom_site_symmetry_multiplicity
 _atom_site_fract_x
 _atom_site_fract_y
 _atom_site_fract_z
 _atom_site_occupancy
  Al  Al0  1  0.98848900  0.45411299  0.24999999  1
  Al  Al1  1  0.48848900  0.04588700  0.74999996  1
  Al  Al2  1  0.51151100  0.95411298  0.24999999  1
  Al  Al3  1  0.01151100  0.54588699  0.74999996  1
  Al  Al4  1  0.50000000  0.49999999  0.49999997  1
  Al  Al5  1  0.50000000  0.49999999  -0.00000000  1
  Ga  Ga6  1  0.00000000  0.00000000  0.00000000  1
  Ga  Ga7  1  0.00000000  0.00000000  0.49999997  1
  P  P8  1  0.39434000  0.54428499  0.24999999  1
  Si  Si9  1  0.30011300  0.80002898  0.55650397  1
  Si  Si10  1  0.80011300  0.69997099  0.44349598  1
  Si  Si11  1  0.69988700  0.19997100  0.44349598  1
  Si  Si12  1  0.19988700  0.30002899  0.94349595  1
  Si  Si13  1  0.19988700  0.30002899  0.55650397  1
  P  P14  1  0.80011300  0.69997099  0.05650400  1
  C  C15  1  0.89434000  0.95571498  0.74999996  1
  Si  Si16  1  0.10566000  0.04428500  0.24999999  1
  Si  Si17  1  0.69988700  0.19997100  0.05650400  1
  C  C18  1  0.60566000  0.45571499  0.74999996  1
  Ru  Ru19  1  0.30011300  0.80002898  0.94349595  1
