# generated using pymatgen
data_Li2LaYBi2(SbO6)2
_symmetry_space_group_name_H-M   'P 1'
_cell_length_a   5.38659000
_cell_length_b   5.77609587
_cell_length_c   7.68719101
_cell_angle_alpha   90.00000000
_cell_angle_beta   90.52939606
_cell_angle_gamma   90.00000000
_symmetry_Int_Tables_number   1
_chemical_formula_structural   Li2LaYBi2(SbO6)2
_chemical_formula_sum   'Li2 La1 Y1 Bi2 Sb2 O12'
_cell_volume   239.16490261
_cell_formula_units_Z   1
loop_
 _symmetry_equiv_pos_site_id
 _symmetry_equiv_pos_as_xyz
  1  'x, y, z'
loop_
 _atom_site_type_symbol
 _atom_site_label
 _atom_site_symmetry_multiplicity
 _atom_site_fract_x
 _atom_site_fract_y
 _atom_site_fract_z
 _atom_site_occupancy
  Li  Li0  1  0.50000000  0.50000001  0.00000002  1
  Li  Li1  1  0.00000000  0.00000000  0.50000001  1
  Y  Y2  1  0.51737400  0.92304202  0.24821602  1
  La  La3  1  0.48262600  0.07695800  0.75178403  1
  Bi  Bi4  1  0.98262600  0.42304201  0.25178404  1
  Bi  Bi5  1  0.01737400  0.57695801  0.74821601  1
  Sb  Sb6  1  0.50000000  0.50000001  0.50000002  1
  Sb  Sb7  1  0.00000000  0.00000000  0.00000000  1
  O  O8  1  0.38873400  0.53811901  0.25527602  1
  O  O9  1  0.61126600  0.46188101  0.74472403  1
  O  O10  1  0.11126600  0.03811900  0.24472401  1
  O  O11  1  0.88873400  0.96188102  0.75527604  1
  O  O12  1  0.80377000  0.68021602  0.44656903  1
  O  O13  1  0.19623000  0.31978401  0.55343102  1
  O  O14  1  0.69623000  0.18021600  0.05343102  1
  O  O15  1  0.30377000  0.81978402  0.94656903  1
  O  O16  1  0.67345400  0.20556100  0.44051703  1
  O  O17  1  0.32654600  0.79443902  0.55948302  1
  O  O18  1  0.82654600  0.70556102  0.05948303  1
  O  O19  1  0.17345400  0.29443901  0.94051702  1
