# generated using pymatgen
data_Si5PO12
_symmetry_space_group_name_H-M   'P 1'
_cell_length_a   7.41392231
_cell_length_b   7.41392231
_cell_length_c   7.41392231
_cell_angle_alpha   109.47122192
_cell_angle_beta   109.47122192
_cell_angle_gamma   109.47122192
_symmetry_Int_Tables_number   1
_chemical_formula_structural   Si5PO12
_chemical_formula_sum   'Si5 P1 O12'
_cell_volume   313.70553456
_cell_formula_units_Z   1
loop_
 _symmetry_equiv_pos_site_id
 _symmetry_equiv_pos_as_xyz
  1  'x, y, z'
loop_
 _atom_site_type_symbol
 _atom_site_label
 _atom_site_symmetry_multiplicity
 _atom_site_fract_x
 _atom_site_fract_y
 _atom_site_fract_z
 _atom_site_occupancy
  Si  Si0  1  0.25000005  0.75000002  0.50000004  1
  Si  Si1  1  0.50000005  0.75000002  0.25000005  1
  Si  Si2  1  0.25000003  0.50000002  0.75000003  1
  Si  Si3  1  0.50000002  0.25000001  0.75000002  1
  Si  Si4  1  0.75000001  0.25000001  0.50000003  1
  P  P5  1  0.75000003  0.50000002  0.25000004  1
  O  O6  1  0.32113900  0.00000000  0.61231300  1
  O  O7  1  0.67886102  0.29117401  0.67886103  1
  O  O8  1  0.61231306  1.00000003  0.32113907  1
  O  O9  1  0.00000002  0.32113901  0.61231301  1
  O  O10  1  0.70882602  0.38768701  0.38768703  1
  O  O11  1  0.00000004  0.61231302  0.32113903  1
  O  O12  1  0.38768702  0.38768701  0.70882602  1
  O  O13  1  0.67886104  0.67886102  0.29117405  1
  O  O14  1  0.32113904  0.61231302  0.00000004  1
  O  O15  1  0.29117404  0.67886102  0.67886104  1
  O  O16  1  0.61231302  0.32113901  1.00000002  1
  O  O17  1  0.38768704  0.70882602  0.38768705  1
