# generated using pymatgen
data_K7TlO4
_symmetry_space_group_name_H-M   'P 1'
_cell_length_a   5.94540024
_cell_length_b   5.95045614
_cell_length_c   7.29578876
_cell_angle_alpha   65.93324280
_cell_angle_beta   90.00000000
_cell_angle_gamma   90.00000000
_symmetry_Int_Tables_number   1
_chemical_formula_structural   K7TlO4
_chemical_formula_sum   'K7 Tl1 O4'
_cell_volume   235.67207456
_cell_formula_units_Z   1
loop_
 _symmetry_equiv_pos_site_id
 _symmetry_equiv_pos_as_xyz
  1  'x, y, z'
loop_
 _atom_site_type_symbol
 _atom_site_label
 _atom_site_symmetry_multiplicity
 _atom_site_fract_x
 _atom_site_fract_y
 _atom_site_fract_z
 _atom_site_occupancy
  K  K0  1  0.49999998  0.16108100  0.67783801  1
  K  K1  1  0.00000000  0.33891900  0.32216199  1
  K  K2  1  0.49999998  0.83891900  0.32216197  1
  K  K3  1  -0.00000000  0.66108100  0.67783799  1
  K  K4  1  0.37443999  0.37474800  -0.00000002  1
  K  K5  1  0.87443996  0.12525200  -0.00000001  1
  K  K6  1  0.12555999  0.87474800  0.99999999  1
  Tl  Tl7  1  0.62555997  0.62525200  1.00000000  1
  O  O8  1  0.24999999  0.49456300  0.49999999  1
  O  O9  1  0.74999997  0.00543700  0.50000001  1
  O  O10  1  0.74999997  0.50543700  0.49999999  1
  O  O11  1  0.24999999  0.99456300  0.49999997  1
