# generated using pymatgen
data_SrCaGaRuPt(RhSe2)3
_symmetry_space_group_name_H-M   'P 1'
_cell_length_a   4.45531416
_cell_length_b   9.00104618
_cell_length_c   9.00104523
_cell_angle_alpha   120.00000000
_cell_angle_beta   90.00000000
_cell_angle_gamma   90.00000000
_symmetry_Int_Tables_number   1
_chemical_formula_structural   SrCaGaRuPt(RhSe2)3
_chemical_formula_sum   'Sr1 Ca1 Ga1 Ru1 Pt1 Rh3 Se6'
_cell_volume   312.60426465
_cell_formula_units_Z   1
loop_
 _symmetry_equiv_pos_site_id
 _symmetry_equiv_pos_as_xyz
  1  'x, y, z'
loop_
 _atom_site_type_symbol
 _atom_site_label
 _atom_site_symmetry_multiplicity
 _atom_site_fract_x
 _atom_site_fract_y
 _atom_site_fract_z
 _atom_site_occupancy
  Sr  Sr0  1  0.24999999  0.66666664  0.33333332  1
  Ca  Ca1  1  0.74999997  0.33333332  0.66666668  1
  Ga  Ga2  1  0.74999997  0.03362200  0.84792403  1
  Pt  Pt3  1  0.74999997  0.15207599  0.18569800  1
  Rh  Rh4  1  0.24999999  0.84792397  0.81430200  1
  Rh  Rh5  1  0.24999999  0.96637797  0.15207598  1
  Rh  Rh6  1  0.74999997  0.81430197  0.96637801  1
  Ru  Ru7  1  0.24999999  0.18569799  0.03362200  1
  Se  Se8  1  0.24999999  0.06453100  0.71660003  1
  Se  Se9  1  0.74999997  0.93546897  0.28339998  1
  Se  Se10  1  0.74999997  0.71659997  0.65206900  1
  Se  Se11  1  0.74999997  0.34793099  0.06453099  1
  Se  Se12  1  0.24999999  0.65206898  0.93546901  1
  Se  Se13  1  0.24999999  0.28339999  0.34793100  1
