# generated using pymatgen
data_TiSi2WO7
_symmetry_space_group_name_H-M   'P 1'
_cell_length_a   4.76489782
_cell_length_b   5.62650013
_cell_length_c   5.62650013
_cell_angle_alpha   74.73563385
_cell_angle_beta   82.69690704
_cell_angle_gamma   97.30309296
_symmetry_Int_Tables_number   1
_chemical_formula_structural   TiSi2WO7
_chemical_formula_sum   'Ti1 Si2 W1 O7'
_cell_volume   142.29553830
_cell_formula_units_Z   1
loop_
 _symmetry_equiv_pos_site_id
 _symmetry_equiv_pos_as_xyz
  1  'x, y, z'
loop_
 _atom_site_type_symbol
 _atom_site_label
 _atom_site_symmetry_multiplicity
 _atom_site_fract_x
 _atom_site_fract_y
 _atom_site_fract_z
 _atom_site_occupancy
  W  W0  1  0.50000005  0.30809501  0.30809499  1
  Ti  Ti1  1  0.50000008  0.69190502  0.69190501  1
  Si  Si2  1  0.09039108  0.78109402  0.21890603  1
  Si  Si3  1  0.90960905  0.21890601  0.78109398  1
  O  O4  1  0.78358408  0.61721501  0.38278499  1
  O  O5  1  0.21641604  0.38278501  0.61721502  1
  O  O6  1  0.00000000  0.00000000  0.00000000  1
  O  O7  1  0.28128207  0.61363001  0.08414101  1
  O  O8  1  0.28128210  0.91585902  0.38637003  1
  O  O9  1  0.71871806  0.38637001  0.91585899  1
  O  O10  1  0.71871803  0.08414100  0.61362998  1
