# generated using pymatgen
data_CsKAgI6
_symmetry_space_group_name_H-M   'P 1'
_cell_length_a   7.46227503
_cell_length_b   7.46227503
_cell_length_c   7.46227503
_cell_angle_alpha   105.38013458
_cell_angle_beta   111.55468750
_cell_angle_gamma   111.55468750
_symmetry_Int_Tables_number   1
_chemical_formula_structural   CsKAgI6
_chemical_formula_sum   'Cs1 K1 Ag1 I6'
_cell_volume   318.67172329
_cell_formula_units_Z   1
loop_
 _symmetry_equiv_pos_site_id
 _symmetry_equiv_pos_as_xyz
  1  'x, y, z'
loop_
 _atom_site_type_symbol
 _atom_site_label
 _atom_site_symmetry_multiplicity
 _atom_site_fract_x
 _atom_site_fract_y
 _atom_site_fract_z
 _atom_site_occupancy
  K  K0  1  0.50000006  0.75000002  0.25000005  1
  Cs  Cs1  1  0.50000002  0.25000001  0.75000002  1
  Ag  Ag2  1  0.00000000  0.00000000  0.00000000  1
  I  I3  1  0.00000006  0.65776002  0.65776001  1
  I  I4  1  0.00000003  0.34224001  0.34224001  1
  I  I5  1  0.00000007  0.80331202  0.19668803  1
  I  I6  1  0.60662407  0.80331202  0.80331204  1
  I  I7  1  0.00000002  0.19668800  0.80331199  1
  I  I8  1  0.39337602  0.19668800  0.19668802  1
