# generated using pymatgen
data_BaSrLi2CaZr2Cu3
_symmetry_space_group_name_H-M   'P 1'
_cell_length_a   6.25804615
_cell_length_b   7.03931189
_cell_length_c   7.03931093
_cell_angle_alpha   120.00000763
_cell_angle_beta   90.00000000
_cell_angle_gamma   90.00000000
_symmetry_Int_Tables_number   1
_chemical_formula_structural   BaSrLi2CaZr2Cu3
_chemical_formula_sum   'Ba1 Sr1 Li2 Ca1 Zr2 Cu3'
_cell_volume   268.55281944
_cell_formula_units_Z   1
loop_
 _symmetry_equiv_pos_site_id
 _symmetry_equiv_pos_as_xyz
  1  'x, y, z'
loop_
 _atom_site_type_symbol
 _atom_site_label
 _atom_site_symmetry_multiplicity
 _atom_site_fract_x
 _atom_site_fract_y
 _atom_site_fract_z
 _atom_site_occupancy
  Ba  Ba0  1  0.24999999  0.66666670  0.33333339  1
  Sr  Sr1  1  0.74999998  0.33333335  0.66666671  1
  Ca  Ca2  1  0.00000000  0.00000000  0.00000000  1
  Zr  Zr3  1  0.49999999  0.00000000  -0.00000000  1
  Li  Li4  1  0.74999998  0.84146504  0.15853606  1
  Zr  Zr5  1  0.24999999  0.15853501  0.84146403  1
  Li  Li6  1  0.74999998  0.31707102  0.15853603  1
  Cu  Cu7  1  0.24999999  0.68292904  0.84146407  1
  Cu  Cu8  1  0.74999998  0.84146504  0.68293008  1
  Cu  Cu9  1  0.24999999  0.15853501  0.31707002  1
