# generated using pymatgen
data_Li5MnF6
_symmetry_space_group_name_H-M   'P 1'
_cell_length_a   4.67496109
_cell_length_b   5.22628117
_cell_length_c   5.71342134
_cell_angle_alpha   87.62428284
_cell_angle_beta   89.99997711
_cell_angle_gamma   89.99995422
_symmetry_Int_Tables_number   1
_chemical_formula_structural   Li5MnF6
_chemical_formula_sum   'Li5 Mn1 F6'
_cell_volume   139.47410462
_cell_formula_units_Z   1
loop_
 _symmetry_equiv_pos_site_id
 _symmetry_equiv_pos_as_xyz
  1  'x, y, z'
loop_
 _atom_site_type_symbol
 _atom_site_label
 _atom_site_symmetry_multiplicity
 _atom_site_fract_x
 _atom_site_fract_y
 _atom_site_fract_z
 _atom_site_occupancy
  Li  Li0  1  0.51845702  0.77691703  0.34394403  1
  Li  Li1  1  0.98154301  0.77691803  0.84394503  1
  Li  Li2  1  0.01845801  0.22308201  0.15605501  1
  Li  Li3  1  0.48154300  0.22308301  0.65605502  1
  F  F4  1  0.78003402  0.91863303  0.12062002  1
  Mn  Mn5  1  0.71996702  0.91863303  0.62062104  1
  F  F6  1  0.28003300  0.08136700  0.37937901  1
  Li  Li7  1  0.21996600  0.08136700  0.87938003  1
  F  F8  1  0.23117902  0.58237302  0.11243902  1
  F  F9  1  0.26882102  0.58237302  0.61243904  1
  F  F10  1  0.73117900  0.41762701  0.38756101  1
  F  F11  1  0.76882100  0.41762701  0.88756102  1
