# generated using pymatgen
data_Si2PO6
_symmetry_space_group_name_H-M   'P 1'
_cell_length_a   4.91690588
_cell_length_b   4.91690636
_cell_length_c   5.39057302
_cell_angle_alpha   90.00000000
_cell_angle_beta   90.00000000
_cell_angle_gamma   120.00000000
_symmetry_Int_Tables_number   1
_chemical_formula_structural   Si2PO6
_chemical_formula_sum   'Si2 P1 O6'
_cell_volume   112.86243024
_cell_formula_units_Z   1
loop_
 _symmetry_equiv_pos_site_id
 _symmetry_equiv_pos_as_xyz
  1  'x, y, z'
loop_
 _atom_site_type_symbol
 _atom_site_label
 _atom_site_symmetry_multiplicity
 _atom_site_fract_x
 _atom_site_fract_y
 _atom_site_fract_z
 _atom_site_occupancy
  P  P0  1  0.00000003  0.50000002  0.33333333  1
  Si  Si1  1  0.50000004  0.50000002  -0.00000000  1
  Si  Si2  1  0.50000007  1.00000004  0.66666666  1
  O  O3  1  0.20989005  0.79011103  0.50000000  1
  O  O4  1  0.79011005  0.58022003  0.16666700  1
  O  O5  1  0.20989003  0.41978002  0.16666700  1
  O  O6  1  0.58022106  0.79011103  0.83333300  1
  O  O7  1  0.41977902  0.20988901  0.83333300  1
  O  O8  1  0.79011003  0.20988901  0.50000000  1
