# generated using pymatgen
data_Li8O5F3
_symmetry_space_group_name_H-M   'P 1'
_cell_length_a   6.17436790
_cell_length_b   6.26870680
_cell_length_c   6.34299421
_cell_angle_alpha   119.41067505
_cell_angle_beta   90.00000000
_cell_angle_gamma   90.00000000
_symmetry_Int_Tables_number   1
_chemical_formula_structural   Li8O5F3
_chemical_formula_sum   'Li8 O5 F3'
_cell_volume   213.86707235
_cell_formula_units_Z   1
loop_
 _symmetry_equiv_pos_site_id
 _symmetry_equiv_pos_as_xyz
  1  'x, y, z'
loop_
 _atom_site_type_symbol
 _atom_site_label
 _atom_site_symmetry_multiplicity
 _atom_site_fract_x
 _atom_site_fract_y
 _atom_site_fract_z
 _atom_site_occupancy
  Li  Li0  1  0.34223601  0.77564404  0.07096203  1
  Li  Li1  1  0.84223601  0.72435604  0.42903803  1
  Li  Li2  1  0.65776401  0.22435601  0.92903800  1
  Li  Li3  1  0.15776400  0.27564401  0.57096201  1
  Li  Li4  1  0.86862601  0.74440304  0.97568702  1
  Li  Li5  1  0.63137401  0.24440301  0.47568701  1
  Li  Li6  1  0.13137400  0.25559701  0.02431301  1
  Li  Li7  1  0.36862601  0.75559704  0.52431303  1
  F  F8  1  0.60750601  0.81224704  0.26347903  1
  O  O9  1  0.82498801  0.16240201  0.14902201  1
  F  F10  1  0.10750600  0.68775304  0.23652103  1
  O  O11  1  0.39249401  0.18775301  0.73652100  1
  F  F12  1  0.17501200  0.83759804  0.85097803  1
  O  O13  1  0.32498801  0.33759802  0.35097801  1
  O  O14  1  0.67501201  0.66240203  0.64902202  1
  O  O15  1  0.89249401  0.31224702  0.76347901  1
