# generated using pymatgen
data_CsInAgHg5Se11Br
_symmetry_space_group_name_H-M   'P 1'
_cell_length_a   4.02993679
_cell_length_b   11.54142666
_cell_length_c   12.84294605
_cell_angle_alpha   90.00000000
_cell_angle_beta   90.00000000
_cell_angle_gamma   90.00000000
_symmetry_Int_Tables_number   1
_chemical_formula_structural   CsInAgHg5Se11Br
_chemical_formula_sum   'Cs1 In1 Ag1 Hg5 Se11 Br1'
_cell_volume   597.34108809
_cell_formula_units_Z   1
loop_
 _symmetry_equiv_pos_site_id
 _symmetry_equiv_pos_as_xyz
  1  'x, y, z'
loop_
 _atom_site_type_symbol
 _atom_site_label
 _atom_site_symmetry_multiplicity
 _atom_site_fract_x
 _atom_site_fract_y
 _atom_site_fract_z
 _atom_site_occupancy
  Ag  Ag0  1  0.75000004  0.03644200  0.13758900  1
  In  In1  1  0.25000001  0.96355803  0.86241100  1
  Cs  Cs2  1  0.25000001  0.53644202  0.36241100  1
  Hg  Hg3  1  0.75000004  0.46355801  0.63758900  1
  Hg  Hg4  1  0.25000001  0.33179901  0.03578300  1
  Hg  Hg5  1  0.75000004  0.66820102  0.96421700  1
  Hg  Hg6  1  0.75000004  0.83179902  0.46421700  1
  Hg  Hg7  1  0.25000001  0.16820100  0.53578300  1
  Se  Se8  1  0.75000004  0.13286000  0.95268900  1
  Se  Se9  1  0.25000001  0.86714003  0.04731100  1
  Br  Br10  1  0.25000001  0.63286002  0.54731100  1
  Se  Se11  1  0.75000004  0.36714001  0.45268900  1
  Se  Se12  1  0.25000001  0.19062501  0.20417100  1
  Se  Se13  1  0.75000004  0.80937502  0.79582900  1
  Se  Se14  1  0.75000004  0.69062502  0.29582900  1
  Se  Se15  1  0.25000001  0.30937501  0.70417100  1
  Se  Se16  1  0.75000004  0.04747000  0.62748800  1
  Se  Se17  1  0.25000001  0.95253003  0.37251200  1
  Se  Se18  1  0.25000001  0.54747002  0.87251200  1
  Se  Se19  1  0.75000004  0.45253001  0.12748800  1
