# generated using pymatgen
data_SrCaPrLuIn2O12
_symmetry_space_group_name_H-M   'P 1'
_cell_length_a   4.96990108
_cell_length_b   4.96990108
_cell_length_c   10.01958084
_cell_angle_alpha   90.00000000
_cell_angle_beta   90.00000000
_cell_angle_gamma   90.00000000
_symmetry_Int_Tables_number   1
_chemical_formula_structural   SrCaPrLuIn2O12
_chemical_formula_sum   'Sr1 Ca1 Pr1 Lu1 In2 O12'
_cell_volume   247.48281308
_cell_formula_units_Z   1
loop_
 _symmetry_equiv_pos_site_id
 _symmetry_equiv_pos_as_xyz
  1  'x, y, z'
loop_
 _atom_site_type_symbol
 _atom_site_label
 _atom_site_symmetry_multiplicity
 _atom_site_fract_x
 _atom_site_fract_y
 _atom_site_fract_z
 _atom_site_occupancy
  Sr  Sr0  1  0.49999999  0.49999999  0.33457801  1
  Pr  Pr1  1  0.49999999  0.49999999  0.66542201  1
  Lu  Lu2  1  0.00000000  0.00000000  0.16542200  1
  Ca  Ca3  1  0.00000000  0.00000000  0.83457801  1
  In  In4  1  0.49999999  0.49999999  -0.00000000  1
  In  In5  1  0.00000000  0.00000000  0.50000001  1
  O  O6  1  0.68394999  0.68394999  0.14724900  1
  O  O7  1  0.68394999  0.68394999  0.85275101  1
  O  O8  1  0.72046399  0.72046399  0.50000001  1
  O  O9  1  0.77953599  0.22046400  -0.00000000  1
  O  O10  1  0.81604999  0.18395000  0.35275101  1
  O  O11  1  0.81604999  0.18395000  0.64724901  1
  O  O12  1  0.18395000  0.81604999  0.35275101  1
  O  O13  1  0.18395000  0.81604999  0.64724901  1
  O  O14  1  0.22046400  0.77953599  -0.00000000  1
  O  O15  1  0.27953600  0.27953600  0.50000001  1
  O  O16  1  0.31604999  0.31604999  0.14724900  1
  O  O17  1  0.31604999  0.31604999  0.85275101  1
