# generated using pymatgen
data_LiU(AsS3)2
_symmetry_space_group_name_H-M   'P 1'
_cell_length_a   5.66469097
_cell_length_b   5.67479372
_cell_length_c   5.71644640
_cell_angle_alpha   119.08702087
_cell_angle_beta   119.02134705
_cell_angle_gamma   91.16057587
_symmetry_Int_Tables_number   1
_chemical_formula_structural   LiU(AsS3)2
_chemical_formula_sum   'Li1 U1 As2 S6'
_cell_volume   132.30126405
_cell_formula_units_Z   1
loop_
 _symmetry_equiv_pos_site_id
 _symmetry_equiv_pos_as_xyz
  1  'x, y, z'
loop_
 _atom_site_type_symbol
 _atom_site_label
 _atom_site_symmetry_multiplicity
 _atom_site_fract_x
 _atom_site_fract_y
 _atom_site_fract_z
 _atom_site_occupancy
  U  U0  1  0.75010496  0.25000600  0.50026398  1
  Li  Li1  1  0.24993499  0.74998701  0.49975302  1
  As  As2  1  0.49997597  0.50005301  0.99990900  1
  As  As3  1  0.99995495  0.99998001  0.99991000  1
  S  S4  1  0.23708499  0.23617200  0.47436400  1
  S  S5  1  0.76292096  0.76378401  0.52569400  1
  S  S6  1  0.71059596  0.80438301  0.99939400  1
  S  S7  1  0.28944098  0.19566300  0.00065999  1
  S  S8  1  0.81101796  0.28312100  0.00090397  1
  S  S9  1  0.18896799  0.71685001  0.99914803  1
