# generated using pymatgen
data_V2O5
_symmetry_space_group_name_H-M   'P 1'
_cell_length_a   5.19809103
_cell_length_b   5.19809103
_cell_length_c   7.06525373
_cell_angle_alpha   108.08921814
_cell_angle_beta   108.08921814
_cell_angle_gamma   94.59275818
_symmetry_Int_Tables_number   1
_chemical_formula_structural   V2O5
_chemical_formula_sum   'V4 O10'
_cell_volume   169.17726717
_cell_formula_units_Z   2
loop_
 _symmetry_equiv_pos_site_id
 _symmetry_equiv_pos_as_xyz
  1  'x, y, z'
loop_
 _atom_site_type_symbol
 _atom_site_label
 _atom_site_symmetry_multiplicity
 _atom_site_fract_x
 _atom_site_fract_y
 _atom_site_fract_z
 _atom_site_occupancy
  V  V0  1  0.00000000  0.00000000  0.50000001  1
  V  V1  1  0.00000000  0.00000000  0.00000000  1
  V  V2  1  0.35705995  0.64293996  0.24999995  1
  V  V3  1  0.64293995  0.35705998  0.74999996  1
  O  O4  1  0.26993996  0.78913995  0.08504294  1
  O  O5  1  0.78913994  0.26993998  0.58504295  1
  O  O6  1  0.32921897  0.28209798  0.63372698  1
  O  O7  1  0.28209797  0.32921898  0.13372697  1
  O  O8  1  0.73005995  0.21085999  0.91495696  1
  O  O9  1  0.21085996  0.73005995  0.41495695  1
  O  O10  1  0.67078093  0.71790195  0.36627293  1
  O  O11  1  0.71790193  0.67078095  0.86627294  1
  O  O12  1  0.05807996  0.94191994  0.74999995  1
  O  O13  1  0.94191994  0.05808000  0.24999995  1
