# generated using pymatgen
data_K2CuAg2HgI7O
_symmetry_space_group_name_H-M   'P 1'
_cell_length_a   6.29021120
_cell_length_b   6.32360649
_cell_length_c   11.04458904
_cell_angle_alpha   90.00000000
_cell_angle_beta   90.00000000
_cell_angle_gamma   119.57710266
_symmetry_Int_Tables_number   1
_chemical_formula_structural   K2CuAg2HgI7O
_chemical_formula_sum   'K2 Cu1 Ag2 Hg1 I7 O1'
_cell_volume   382.07201435
_cell_formula_units_Z   1
loop_
 _symmetry_equiv_pos_site_id
 _symmetry_equiv_pos_as_xyz
  1  'x, y, z'
loop_
 _atom_site_type_symbol
 _atom_site_label
 _atom_site_symmetry_multiplicity
 _atom_site_fract_x
 _atom_site_fract_y
 _atom_site_fract_z
 _atom_site_occupancy
  K  K0  1  0.22164900  0.95086300  0.50000000  1
  K  K1  1  0.77402201  0.23354200  0.50000000  1
  Hg  Hg2  1  0.76366601  0.24293600  0.00000000  1
  Cu  Cu3  1  0.23766600  0.76052100  0.00000000  1
  Ag  Ag4  1  0.50057301  0.49559600  0.24975800  1
  Ag  Ag5  1  0.50057301  0.49559600  0.75024200  1
  O  O6  1  0.80834701  0.63479500  0.50000000  1
  I  I7  1  0.18588100  0.31796300  0.50000000  1
  I  I8  1  0.35018101  0.18684600  0.00000000  1
  I  I9  1  0.65087101  0.81815200  0.00000000  1
  I  I10  1  0.00035200  0.50188100  0.16682600  1
  I  I11  1  0.49843401  0.01521400  0.33378000  1
  I  I12  1  0.00035200  0.50188100  0.83317400  1
  I  I13  1  0.49843401  0.01521400  0.66622000  1
