# generated using pymatgen
data_Li4CoNi2O9
_symmetry_space_group_name_H-M   'P 1'
_cell_length_a   5.60179377
_cell_length_b   5.60258532
_cell_length_c   7.15315437
_cell_angle_alpha   67.92066193
_cell_angle_beta   67.95538330
_cell_angle_gamma   86.29897308
_symmetry_Int_Tables_number   1
_chemical_formula_structural   Li4CoNi2O9
_chemical_formula_sum   'Li4 Co1 Ni2 O9'
_cell_volume   192.05861111
_cell_formula_units_Z   1
loop_
 _symmetry_equiv_pos_site_id
 _symmetry_equiv_pos_as_xyz
  1  'x, y, z'
loop_
 _atom_site_type_symbol
 _atom_site_label
 _atom_site_symmetry_multiplicity
 _atom_site_fract_x
 _atom_site_fract_y
 _atom_site_fract_z
 _atom_site_occupancy
  Li  Li0  1  0.50063098  0.49997998  0.99961204  1
  Li  Li1  1  0.00000298  0.50031198  0.99994303  1
  Li  Li2  1  0.00033198  0.50013598  0.50001103  1
  Li  Li3  1  0.99974400  0.00027900  0.49971601  1
  Ni  Ni4  1  0.36824699  0.13116400  0.75039901  1
  Ni  Ni5  1  0.63154697  0.86867697  0.24966206  1
  Co  Co6  1  0.10016199  0.39978499  0.25018602  1
  O  O7  1  0.90031998  0.60053498  0.74979805  1
  O  O8  1  0.71596097  0.70732498  0.10044705  1
  O  O9  1  0.66188199  0.19552399  0.62411402  1
  O  O10  1  0.20737599  0.21608399  0.60073401  1
  O  O11  1  0.30277397  0.83760197  0.87735205  1
  O  O12  1  0.69714599  0.16220099  0.12284702  1
  O  O13  1  0.33784197  0.80447197  0.37592305  1
  O  O14  1  0.79215697  0.78352697  0.39955506  1
  O  O15  1  0.28387799  0.29239699  0.89970002  1
