# generated using pymatgen
data_ZrMnTlCrO4
_symmetry_space_group_name_H-M   'P 1'
_cell_length_a   5.55234909
_cell_length_b   5.55234909
_cell_length_c   5.55235004
_cell_angle_alpha   95.94963074
_cell_angle_beta   95.94963074
_cell_angle_gamma   95.94963074
_symmetry_Int_Tables_number   1
_chemical_formula_structural   ZrMnTlCrO4
_chemical_formula_sum   'Zr1 Mn1 Tl1 Cr1 O4'
_cell_volume   168.19594624
_cell_formula_units_Z   1
loop_
 _symmetry_equiv_pos_site_id
 _symmetry_equiv_pos_as_xyz
  1  'x, y, z'
loop_
 _atom_site_type_symbol
 _atom_site_label
 _atom_site_symmetry_multiplicity
 _atom_site_fract_x
 _atom_site_fract_y
 _atom_site_fract_z
 _atom_site_occupancy
  Tl  Tl0  1  0.49999998  0.49999999  0.49999992  1
  Zr  Zr1  1  0.00000000  0.00000000  0.00000000  1
  Mn  Mn2  1  0.91505198  0.21676800  0.29384592  1
  O  O3  1  0.29384598  0.91505098  0.21676792  1
  Cr  Cr4  1  0.78323198  0.70615399  0.08494791  1
  O  O5  1  0.70615399  0.08494800  0.78323193  1
  O  O6  1  0.08494799  0.78323199  0.70615392  1
  O  O7  1  0.21676799  0.29384599  0.91505194  1
