# generated using pymatgen
data_KNaSbPb5
_symmetry_space_group_name_H-M   'P 1'
_cell_length_a   4.02886295
_cell_length_b   7.51026583
_cell_length_c   7.51026583
_cell_angle_alpha   120.00000000
_cell_angle_beta   90.00000000
_cell_angle_gamma   90.00000000
_symmetry_Int_Tables_number   1
_chemical_formula_structural   KNaSbPb5
_chemical_formula_sum   'K1 Na1 Sb1 Pb5'
_cell_volume   196.79938851
_cell_formula_units_Z   1
loop_
 _symmetry_equiv_pos_site_id
 _symmetry_equiv_pos_as_xyz
  1  'x, y, z'
loop_
 _atom_site_type_symbol
 _atom_site_label
 _atom_site_symmetry_multiplicity
 _atom_site_fract_x
 _atom_site_fract_y
 _atom_site_fract_z
 _atom_site_occupancy
  Na  Na0  1  0.25000000  0.33333334  0.66666667  1
  K  K1  1  0.75000001  0.66666668  0.33333333  1
  Pb  Pb2  1  0.75000001  0.30334801  0.39447600  1
  Pb  Pb3  1  0.25000000  0.39447501  0.09112700  1
  Pb  Pb4  1  0.75000001  0.60552501  0.90887300  1
  Sb  Sb5  1  0.75000001  0.09112800  0.69665300  1
  Pb  Pb6  1  0.25000000  0.69665201  0.60552400  1
  Pb  Pb7  1  0.25000000  0.90887202  0.30334699  1
