# generated using pymatgen
data_KThPAuO
_symmetry_space_group_name_H-M   'P 1'
_cell_length_a   3.85511208
_cell_length_b   3.85511208
_cell_length_c   7.14287806
_cell_angle_alpha   90.00000000
_cell_angle_beta   90.00000000
_cell_angle_gamma   120.00000000
_symmetry_Int_Tables_number   1
_chemical_formula_structural   KThPAuO
_chemical_formula_sum   'K1 Th1 P1 Au1 O1'
_cell_volume   91.93436576
_cell_formula_units_Z   1
loop_
 _symmetry_equiv_pos_site_id
 _symmetry_equiv_pos_as_xyz
  1  'x, y, z'
loop_
 _atom_site_type_symbol
 _atom_site_label
 _atom_site_symmetry_multiplicity
 _atom_site_fract_x
 _atom_site_fract_y
 _atom_site_fract_z
 _atom_site_occupancy
  Th  Th0  1  0.66666666  0.33333333  0.69373899  1
  K  K1  1  0.33333333  0.66666667  0.30626100  1
  Au  Au2  1  0.00000000  0.00000000  0.00000000  1
  P  P3  1  0.66666666  0.33333333  0.38039400  1
  O  O4  1  0.33333333  0.66666667  0.61960600  1
