# generated using pymatgen
data_LiAl4Si2O11
_symmetry_space_group_name_H-M   'P 1'
_cell_length_a   7.05100918
_cell_length_b   7.36282587
_cell_length_c   7.36282587
_cell_angle_alpha   120.00000000
_cell_angle_beta   90.00000000
_cell_angle_gamma   90.00000000
_symmetry_Int_Tables_number   1
_chemical_formula_structural   LiAl4Si2O11
_chemical_formula_sum   'Li1 Al4 Si2 O11'
_cell_volume   331.03275689
_cell_formula_units_Z   1
loop_
 _symmetry_equiv_pos_site_id
 _symmetry_equiv_pos_as_xyz
  1  'x, y, z'
loop_
 _atom_site_type_symbol
 _atom_site_label
 _atom_site_symmetry_multiplicity
 _atom_site_fract_x
 _atom_site_fract_y
 _atom_site_fract_z
 _atom_site_occupancy
  Al  Al0  1  0.58333299  0.46563100  0.23281598  1
  Li  Li1  1  0.08333300  0.53436900  0.76718397  1
  Al  Al2  1  0.24999999  0.76718500  0.23281597  1
  Al  Al3  1  0.41666699  0.23281500  0.46562998  1
  Si  Si4  1  0.74999998  0.23281500  0.76718397  1
  Al  Al5  1  0.91666698  0.76718500  0.53436997  1
  Si  Si6  1  0.91666698  0.38819300  0.77638597  1
  O  O7  1  0.83333298  0.00000000  0.68450098  1
  O  O8  1  0.58333299  0.22361500  0.61180798  1
  O  O9  1  0.66666665  0.31549900  -0.00000001  1
  O  O10  1  0.16666700  0.68450100  -0.00000002  1
  O  O11  1  0.24999999  0.38819300  0.61180797  1
  O  O12  1  0.08333300  0.77638500  0.38819197  1
  O  O13  1  0.00000000  0.68450100  0.68450096  1
  O  O14  1  0.33333332  1.00000000  0.31549896  1
  O  O15  1  0.74999998  0.61180700  0.38819197  1
  O  O16  1  0.41666699  0.61180700  0.22361398  1
  O  O17  1  0.49999999  0.31549900  0.31549898  1
