# generated using pymatgen
data_KTiTl2SnHgCl13O
_symmetry_space_group_name_H-M   'P 1'
_cell_length_a   6.66332245
_cell_length_b   6.66332245
_cell_length_c   8.65100098
_cell_angle_alpha   90.00000000
_cell_angle_beta   90.00000000
_cell_angle_gamma   116.55188751
_symmetry_Int_Tables_number   1
_chemical_formula_structural   KTiTl2SnHgCl13O
_chemical_formula_sum   'K1 Ti1 Tl2 Sn1 Hg1 Cl13 O1'
_cell_volume   343.59187830
_cell_formula_units_Z   1
loop_
 _symmetry_equiv_pos_site_id
 _symmetry_equiv_pos_as_xyz
  1  'x, y, z'
loop_
 _atom_site_type_symbol
 _atom_site_label
 _atom_site_symmetry_multiplicity
 _atom_site_fract_x
 _atom_site_fract_y
 _atom_site_fract_z
 _atom_site_occupancy
  K  K0  1  0.69123899  0.30876100  0.25000000  1
  Ti  Ti1  1  0.30876101  0.69123899  0.75000000  1
  Sn  Sn2  1  0.30737101  0.69262899  0.25000000  1
  Tl  Tl3  1  0.69262899  0.30737100  0.75000000  1
  Tl  Tl4  1  0.00000000  0.00000000  0.00000000  1
  Hg  Hg5  1  0.00000000  0.00000000  0.50000000  1
  Cl  Cl6  1  0.06463301  0.34854400  0.25000000  1
  Cl  Cl7  1  0.93536699  0.65145599  0.75000000  1
  Cl  Cl8  1  0.65145601  0.93536699  0.25000000  1
  Cl  Cl9  1  0.34854399  0.06463300  0.75000000  1
  Cl  Cl10  1  0.29894101  0.70105899  0.01323100  1
  O  O11  1  0.70105899  0.29894100  0.98676900  1
  Cl  Cl12  1  0.70105899  0.29894100  0.51323100  1
  Cl  Cl13  1  0.29894101  0.70105899  0.48676900  1
  Cl  Cl14  1  0.48977100  0.51022899  0.25000000  1
  Cl  Cl15  1  0.51022900  0.48977099  0.75000000  1
  Cl  Cl16  1  0.97747399  0.67168099  0.25000000  1
  Cl  Cl17  1  0.02252601  0.32831900  0.75000000  1
  Cl  Cl18  1  0.32831899  0.02252600  0.25000000  1
  Cl  Cl19  1  0.67168101  0.97747399  0.75000000  1
