# generated using pymatgen
data_KP
_symmetry_space_group_name_H-M   'P 1'
_cell_length_a   4.48741817
_cell_length_b   4.48741722
_cell_length_c   5.16552401
_cell_angle_alpha   90.00000000
_cell_angle_beta   90.00000000
_cell_angle_gamma   120.00000763
_symmetry_Int_Tables_number   1
_chemical_formula_structural   KP
_chemical_formula_sum   'K2 P2'
_cell_volume   90.08199078
_cell_formula_units_Z   2
loop_
 _symmetry_equiv_pos_site_id
 _symmetry_equiv_pos_as_xyz
  1  'x, y, z'
loop_
 _atom_site_type_symbol
 _atom_site_label
 _atom_site_symmetry_multiplicity
 _atom_site_fract_x
 _atom_site_fract_y
 _atom_site_fract_z
 _atom_site_occupancy
  K  K0  1  0.33333334  0.66666667  0.00154200  1
  K  K1  1  0.66666665  0.33333333  0.39911500  1
  P  P2  1  0.00000000  0.00000000  0.54943700  1
  P  P3  1  0.66666665  0.33333333  0.06060400  1
