# generated using pymatgen
data_Cs2RbBaCuSbI12
_symmetry_space_group_name_H-M   'P 1'
_cell_length_a   7.42677784
_cell_length_b   7.42677784
_cell_length_c   10.30570793
_cell_angle_alpha   90.00000000
_cell_angle_beta   90.00000000
_cell_angle_gamma   90.00000000
_symmetry_Int_Tables_number   1
_chemical_formula_structural   Cs2RbBaCuSbI12
_chemical_formula_sum   'Cs2 Rb1 Ba1 Cu1 Sb1 I12'
_cell_volume   568.43223207
_cell_formula_units_Z   1
loop_
 _symmetry_equiv_pos_site_id
 _symmetry_equiv_pos_as_xyz
  1  'x, y, z'
loop_
 _atom_site_type_symbol
 _atom_site_label
 _atom_site_symmetry_multiplicity
 _atom_site_fract_x
 _atom_site_fract_y
 _atom_site_fract_z
 _atom_site_occupancy
  Ba  Ba0  1  0.50000001  0.00000000  0.78070201  1
  Rb  Rb1  1  0.00000000  0.50000001  0.21929800  1
  Cs  Cs2  1  0.50000001  0.00000000  0.21929800  1
  Cs  Cs3  1  0.00000000  0.50000001  0.78070201  1
  Cu  Cu4  1  0.00000000  0.00000000  0.00000000  1
  Sb  Sb5  1  0.50000001  0.50000001  0.50000000  1
  I  I6  1  0.00000000  0.00000000  0.75137300  1
  I  I7  1  0.50000001  0.50000001  0.26602400  1
  I  I8  1  0.72966502  0.72966502  0.50000000  1
  I  I9  1  0.24309601  0.24309601  -0.00000000  1
  I  I10  1  0.72966502  0.27033501  0.50000000  1
  I  I11  1  0.24309601  0.75690402  -0.00000000  1
  I  I12  1  0.00000000  0.00000000  0.24862700  1
  I  I13  1  0.50000001  0.50000001  0.73397600  1
  I  I14  1  0.27033501  0.27033501  0.50000000  1
  I  I15  1  0.75690402  0.75690402  -0.00000000  1
  I  I16  1  0.27033501  0.72966502  0.50000000  1
  I  I17  1  0.75690402  0.24309601  -0.00000000  1
