# generated using pymatgen
data_Mn2Zn5AgSe6
_symmetry_space_group_name_H-M   'P 1'
_cell_length_a   4.06947994
_cell_length_b   9.91307354
_cell_length_c   10.37977314
_cell_angle_alpha   100.73529816
_cell_angle_beta   101.30486298
_cell_angle_gamma   90.00000000
_symmetry_Int_Tables_number   1
_chemical_formula_structural   Mn2Zn5AgSe6
_chemical_formula_sum   'Mn2 Zn5 Ag1 Se6'
_cell_volume   403.13058126
_cell_formula_units_Z   1
loop_
 _symmetry_equiv_pos_site_id
 _symmetry_equiv_pos_as_xyz
  1  'x, y, z'
loop_
 _atom_site_type_symbol
 _atom_site_label
 _atom_site_symmetry_multiplicity
 _atom_site_fract_x
 _atom_site_fract_y
 _atom_site_fract_z
 _atom_site_occupancy
  Ag  Ag0  1  0.50000001  0.49999998  -0.00000002  1
  Mn  Mn1  1  0.63681201  0.88718196  0.27362396  1
  Zn  Zn2  1  0.36318801  0.11281799  0.72637599  1
  Mn  Mn3  1  0.27843400  0.66086897  0.55686796  1
  Zn  Zn4  1  0.72156601  0.33913098  0.44313199  1
  Zn  Zn5  1  0.00000000  0.00000000  0.00000000  1
  Zn  Zn6  1  0.75787101  0.84434296  0.51574196  1
  Zn  Zn7  1  0.24212900  0.15565699  0.48425799  1
  Se  Se8  1  0.06204200  0.76662197  0.12408396  1
  Se  Se9  1  0.93795802  0.23337799  0.87591599  1
  Se  Se10  1  0.83649801  0.53302098  0.67299598  1
  Se  Se11  1  0.16350200  0.46697898  0.32700397  1
  Se  Se12  1  0.41263800  0.88499196  0.82527595  1
  Se  Se13  1  0.58736201  0.11500799  0.17472400  1
