# generated using pymatgen
data_Cs4LiCu3S8
_symmetry_space_group_name_H-M   'P 1'
_cell_length_a   5.45237207
_cell_length_b   7.33926773
_cell_length_c   12.26238728
_cell_angle_alpha   85.26303101
_cell_angle_beta   77.15460968
_cell_angle_gamma   68.19480133
_symmetry_Int_Tables_number   1
_chemical_formula_structural   Cs4LiCu3S8
_chemical_formula_sum   'Cs4 Li1 Cu3 S8'
_cell_volume   444.18673680
_cell_formula_units_Z   1
loop_
 _symmetry_equiv_pos_site_id
 _symmetry_equiv_pos_as_xyz
  1  'x, y, z'
loop_
 _atom_site_type_symbol
 _atom_site_label
 _atom_site_symmetry_multiplicity
 _atom_site_fract_x
 _atom_site_fract_y
 _atom_site_fract_z
 _atom_site_occupancy
  Cs  Cs0  1  0.07241696  0.50000002  0.85516601  1
  Cs  Cs1  1  0.42758295  0.50000002  0.14483402  1
  Cs  Cs2  1  0.32241691  1.00000004  0.35516603  1
  Cs  Cs3  1  0.67758291  1.00000004  0.64483404  1
  Li  Li4  1  0.24999996  0.50000002  0.50000002  1
  Cu  Cu5  1  0.49999999  0.00000000  0.00000001  1
  Cu  Cu6  1  0.00000000  0.00000000  0.00000000  1
  Cu  Cu7  1  0.74999994  0.50000002  0.50000002  1
  S  S8  1  0.69051997  0.18582101  0.89526502  1
  S  S9  1  0.77160592  0.81417903  0.10473503  1
  S  S10  1  0.12365898  0.18582101  0.10473501  1
  S  S11  1  0.41421493  0.81417903  0.89526503  1
  S  S12  1  0.33578494  0.68582103  0.60473502  1
  S  S13  1  0.97839393  0.68582103  0.39526503  1
  S  S14  1  0.62634096  0.31417901  0.39526502  1
  S  S15  1  0.05947997  0.31417901  0.60473501  1
