# generated using pymatgen
data_Mg3TiO
_symmetry_space_group_name_H-M   'P 1'
_cell_length_a   3.34025049
_cell_length_b   3.34034133
_cell_length_c   8.00700569
_cell_angle_alpha   102.00886536
_cell_angle_beta   90.00000000
_cell_angle_gamma   119.99910736
_symmetry_Int_Tables_number   1
_chemical_formula_structural   Mg3TiO
_chemical_formula_sum   'Mg3 Ti1 O1'
_cell_volume   75.10428484
_cell_formula_units_Z   1
loop_
 _symmetry_equiv_pos_site_id
 _symmetry_equiv_pos_as_xyz
  1  'x, y, z'
loop_
 _atom_site_type_symbol
 _atom_site_label
 _atom_site_symmetry_multiplicity
 _atom_site_fract_x
 _atom_site_fract_y
 _atom_site_fract_z
 _atom_site_occupancy
  Mg  Mg0  1  0.00000000  0.00000000  0.00000000  1
  Mg  Mg1  1  0.43877206  0.87754505  0.31702002  1
  Mg  Mg2  1  0.56122802  0.12245501  0.68298001  1
  Ti  Ti3  1  0.27732704  0.55465303  0.83183001  1
  O  O4  1  0.72267304  0.44534703  0.16817002  1
