# generated using pymatgen
data_KSr2Ca(PN2)2
_symmetry_space_group_name_H-M   'P 1'
_cell_length_a   6.02925110
_cell_length_b   6.20514011
_cell_length_c   8.65555763
_cell_angle_alpha   89.99359894
_cell_angle_beta   89.57525635
_cell_angle_gamma   89.99311066
_symmetry_Int_Tables_number   1
_chemical_formula_structural   KSr2Ca(PN2)2
_chemical_formula_sum   'K2 Sr4 Ca2 P4 N8'
_cell_volume   323.81583076
_cell_formula_units_Z   2
loop_
 _symmetry_equiv_pos_site_id
 _symmetry_equiv_pos_as_xyz
  1  'x, y, z'
loop_
 _atom_site_type_symbol
 _atom_site_label
 _atom_site_symmetry_multiplicity
 _atom_site_fract_x
 _atom_site_fract_y
 _atom_site_fract_z
 _atom_site_occupancy
  K  K0  1  0.48712987  0.54848408  0.74893651  1
  K  K1  1  0.01288566  0.04847250  0.75106601  1
  Ca  Ca2  1  0.51287014  0.45151589  0.25106349  1
  Ca  Ca3  1  0.98711435  0.95152747  0.24893399  1
  Sr  Sr4  1  0.50000002  0.00000000  0.00000001  1
  Sr  Sr5  1  1.00000002  0.49999999  0.50000001  1
  Sr  Sr6  1  1.00000002  0.49999999  0.00000000  1
  Sr  Sr7  1  0.50000002  0.00000000  0.50000002  1
  P  P8  1  0.81670920  0.21267909  0.05708286  1
  P  P9  1  0.68329912  0.71267643  0.44293247  1
  P  P10  1  0.18329081  0.78732088  0.94291713  1
  N  N11  1  0.31670089  0.28732354  0.55706752  1
  P  P12  1  0.71319563  0.68953486  0.05458674  1
  N  N13  1  0.78675573  0.18949024  0.44538899  1
  N  N14  1  0.28680438  0.31046511  0.94541325  1
  N  N15  1  0.21324428  0.81050973  0.55461101  1
  N  N16  1  0.60450604  0.95737531  0.73599010  1
  N  N17  1  0.89551878  0.45735099  0.76403542  1
  N  N18  1  0.39549397  0.04262466  0.26400989  1
  N  N19  1  0.10448123  0.54264898  0.23596457  1
