# generated using pymatgen
data_UAl4Zn2Ga2Ge3BP4H3
_symmetry_space_group_name_H-M   'P 1'
_cell_length_a   7.30872917
_cell_length_b   7.57775116
_cell_length_c   9.99831104
_cell_angle_alpha   85.75389862
_cell_angle_beta   70.41143799
_cell_angle_gamma   61.35979843
_symmetry_Int_Tables_number   1
_chemical_formula_structural   UAl4Zn2Ga2Ge3BP4H3
_chemical_formula_sum   'U1 Al4 Zn2 Ga2 Ge3 B1 P4 H3'
_cell_volume   455.34315309
_cell_formula_units_Z   1
loop_
 _symmetry_equiv_pos_site_id
 _symmetry_equiv_pos_as_xyz
  1  'x, y, z'
loop_
 _atom_site_type_symbol
 _atom_site_label
 _atom_site_symmetry_multiplicity
 _atom_site_fract_x
 _atom_site_fract_y
 _atom_site_fract_z
 _atom_site_occupancy
  U  U0  1  0.39449696  0.57233503  0.85924902  1
  Zn  Zn1  1  0.93708894  0.54659403  0.82736303  1
  Zn  Zn2  1  0.92738196  0.06739100  0.81657001  1
  Al  Al3  1  0.24154298  0.26042601  0.49229101  1
  Ge  Ge4  1  0.75845694  0.73957404  0.50770904  1
  Ge  Ge5  1  0.07261796  0.93260904  0.18343003  1
  Ge  Ge6  1  0.06291098  0.45340602  0.17263701  1
  Ga  Ga7  1  0.60550296  0.42766502  0.14075103  1
  Al  Al8  1  0.39829798  0.05606500  0.87482700  1
  Al  Al9  1  0.69499096  0.29548901  0.52557002  1
  Al  Al10  1  0.30500896  0.70451103  0.47443002  1
  Ga  Ga11  1  0.60170194  0.94393504  0.12517305  1
  B  B12  1  0.06758899  0.21459401  0.97954399  1
  P  P13  1  0.50386197  0.19029401  0.99271600  1
  H  H14  1  0.34228697  0.48520102  0.62523702  1
  P  P15  1  0.80456595  0.39866502  0.64780902  1
  H  H16  1  0.19543397  0.60133503  0.35219102  1
  H  H17  1  0.65771295  0.51479902  0.37476303  1
  P  P18  1  0.49613795  0.80970604  0.00728404  1
  P  P19  1  0.93241093  0.78540604  0.02045605  1
