# generated using pymatgen
data_Na2Li3VO6
_symmetry_space_group_name_H-M   'P 1'
_cell_length_a   5.17587090
_cell_length_b   6.59228659
_cell_length_c   7.08464670
_cell_angle_alpha   116.84247589
_cell_angle_beta   110.35420227
_cell_angle_gamma   92.15132904
_symmetry_Int_Tables_number   1
_chemical_formula_structural   Na2Li3VO6
_chemical_formula_sum   'Na2 Li3 V1 O6'
_cell_volume   196.67272229
_cell_formula_units_Z   1
loop_
 _symmetry_equiv_pos_site_id
 _symmetry_equiv_pos_as_xyz
  1  'x, y, z'
loop_
 _atom_site_type_symbol
 _atom_site_label
 _atom_site_symmetry_multiplicity
 _atom_site_fract_x
 _atom_site_fract_y
 _atom_site_fract_z
 _atom_site_occupancy
  V  V0  1  0.08831900  0.33831901  0.67663800  1
  Na  Na1  1  0.91168096  0.66168101  0.32336198  1
  Na  Na2  1  0.32625298  0.07625300  0.15250599  1
  Li  Li3  1  0.67374697  0.92374702  0.84749400  1
  Li  Li4  1  0.99029495  0.21260500  0.10020296  1
  Li  Li5  1  0.60990797  0.88759802  0.10020300  1
  O  O6  1  0.00970501  0.78739501  0.89979702  1
  O  O7  1  0.39009198  0.11240200  0.89979698  1
  O  O8  1  0.58843697  0.37256701  0.37321498  1
  O  O9  1  0.28477798  0.00064800  0.37321498  1
  O  O10  1  0.41156298  0.62743301  0.62678500  1
  O  O11  1  0.71522197  0.99935202  0.62678500  1
