# generated using pymatgen
data_NaMgB4PO5
_symmetry_space_group_name_H-M   'P 1'
_cell_length_a   4.97787380
_cell_length_b   4.97787380
_cell_length_c   7.98541641
_cell_angle_alpha   86.27425385
_cell_angle_beta   86.27425385
_cell_angle_gamma   65.14874268
_symmetry_Int_Tables_number   1
_chemical_formula_structural   NaMgB4PO5
_chemical_formula_sum   'Na1 Mg1 B4 P1 O5'
_cell_volume   179.01522798
_cell_formula_units_Z   1
loop_
 _symmetry_equiv_pos_site_id
 _symmetry_equiv_pos_as_xyz
  1  'x, y, z'
loop_
 _atom_site_type_symbol
 _atom_site_label
 _atom_site_symmetry_multiplicity
 _atom_site_fract_x
 _atom_site_fract_y
 _atom_site_fract_z
 _atom_site_occupancy
  Na  Na0  1  0.00000000  0.00000000  0.00000000  1
  Mg  Mg1  1  0.00000000  0.00000000  0.50000000  1
  B  B2  1  0.63229299  0.63229302  0.71165904  1
  B  B3  1  0.36770699  0.36770701  0.28834102  1
  P  P4  1  0.23332698  0.70952102  0.31067503  1
  O  O5  1  0.31117600  0.31117601  0.11152502  1
  B  B6  1  0.76667301  0.29047901  0.68932503  1
  B  B7  1  0.76597199  0.76597203  0.56536504  1
  O  O8  1  0.23402800  0.23402801  0.43463501  1
  O  O9  1  0.29047898  0.76667303  0.68932503  1
  O  O10  1  0.68882399  0.68882402  0.88847504  1
  O  O11  1  0.70952101  0.23332701  0.31067503  1
