# generated using pymatgen
data_Rb2CuF5
_symmetry_space_group_name_H-M   'P 1'
_cell_length_a   5.37616491
_cell_length_b   5.37616491
_cell_length_c   5.37616587
_cell_angle_alpha   96.66181946
_cell_angle_beta   96.66181946
_cell_angle_gamma   96.66182709
_symmetry_Int_Tables_number   1
_chemical_formula_structural   Rb2CuF5
_chemical_formula_sum   'Rb2 Cu1 F5'
_cell_volume   151.97111625
_cell_formula_units_Z   1
loop_
 _symmetry_equiv_pos_site_id
 _symmetry_equiv_pos_as_xyz
  1  'x, y, z'
loop_
 _atom_site_type_symbol
 _atom_site_label
 _atom_site_symmetry_multiplicity
 _atom_site_fract_x
 _atom_site_fract_y
 _atom_site_fract_z
 _atom_site_occupancy
  Rb  Rb0  1  0.50000003  0.50000001  0.49999993  1
  Rb  Rb1  1  0.00000000  0.00000000  0.00000000  1
  Cu  Cu2  1  0.22554802  0.30669601  0.91921393  1
  F  F3  1  0.91921402  0.22554800  0.30669593  1
  F  F4  1  0.69330401  0.08078600  0.77445193  1
  F  F5  1  0.08078604  0.77445201  0.69330393  1
  F  F6  1  0.77445204  0.69330401  0.08078592  1
  F  F7  1  0.30669605  0.91921402  0.22554793  1
