# generated using pymatgen
data_Al3PtO2
_symmetry_space_group_name_H-M   'P 1'
_cell_length_a   2.96920300
_cell_length_b   4.65327215
_cell_length_c   4.65327215
_cell_angle_alpha   90.00000000
_cell_angle_beta   90.00000000
_cell_angle_gamma   90.00000000
_symmetry_Int_Tables_number   1
_chemical_formula_structural   Al3PtO2
_chemical_formula_sum   'Al3 Pt1 O2'
_cell_volume   64.29197941
_cell_formula_units_Z   1
loop_
 _symmetry_equiv_pos_site_id
 _symmetry_equiv_pos_as_xyz
  1  'x, y, z'
loop_
 _atom_site_type_symbol
 _atom_site_label
 _atom_site_symmetry_multiplicity
 _atom_site_fract_x
 _atom_site_fract_y
 _atom_site_fract_z
 _atom_site_occupancy
  Al  Al0  1  0.50000000  0.49999998  0.49999998  1
  Al  Al1  1  0.00000000  0.00000000  0.00000000  1
  Al  Al2  1  0.50000000  0.80457997  0.19541999  1
  Pt  Pt3  1  0.50000000  0.19541999  0.80457997  1
  O  O4  1  0.00000000  0.30457999  0.30457999  1
  O  O5  1  0.00000000  0.69541998  0.69541998  1
