# generated using pymatgen
data_NbBi2Sb3Se10
_symmetry_space_group_name_H-M   'P 1'
_cell_length_a   6.81623888
_cell_length_b   10.92477703
_cell_length_c   13.82735252
_cell_angle_alpha   90.00000000
_cell_angle_beta   90.00000000
_cell_angle_gamma   90.00000000
_symmetry_Int_Tables_number   1
_chemical_formula_structural   NbBi2Sb3Se10
_chemical_formula_sum   'Nb1 Bi2 Sb3 Se10'
_cell_volume   1029.66611141
_cell_formula_units_Z   1
loop_
 _symmetry_equiv_pos_site_id
 _symmetry_equiv_pos_as_xyz
  1  'x, y, z'
loop_
 _atom_site_type_symbol
 _atom_site_label
 _atom_site_symmetry_multiplicity
 _atom_site_fract_x
 _atom_site_fract_y
 _atom_site_fract_z
 _atom_site_occupancy
  Nb  Nb0  1  0.66791201  0.25000000  0.74842403  1
  Sb  Sb1  1  0.83208801  0.25000000  0.24842401  1
  Sb  Sb2  1  0.33208801  0.75000000  0.25157601  1
  Sb  Sb3  1  0.16791200  0.75000000  0.75157603  1
  Se  Se4  1  0.83051501  0.25000000  0.58322702  1
  Bi  Bi5  1  0.66948501  0.25000000  0.08322700  1
  Bi  Bi6  1  0.16948500  0.75000000  0.41677301  1
  Se  Se7  1  0.33051501  0.75000000  0.91677303  1
  Se  Se8  1  0.57630201  0.44541700  0.83766503  1
  Se  Se9  1  0.92369802  0.05458300  0.33766501  1
  Se  Se10  1  0.42369801  0.94541700  0.16233501  1
  Se  Se11  1  0.07630200  0.55458300  0.66233502  1
  Se  Se12  1  0.42369801  0.55458300  0.16233501  1
  Se  Se13  1  0.07630200  0.94541700  0.66233502  1
  Se  Se14  1  0.57630201  0.05458300  0.83766503  1
  Se  Se15  1  0.92369802  0.44541700  0.33766501  1
