# generated using pymatgen
data_Na6ZnSiPO7
_symmetry_space_group_name_H-M   'P 1'
_cell_length_a   5.83127880
_cell_length_b   7.32071495
_cell_length_c   7.33337736
_cell_angle_alpha   106.19895172
_cell_angle_beta   97.96347046
_cell_angle_gamma   112.39291382
_symmetry_Int_Tables_number   1
_chemical_formula_structural   Na6ZnSiPO7
_chemical_formula_sum   'Na6 Zn1 Si1 P1 O7'
_cell_volume   267.18236204
_cell_formula_units_Z   1
loop_
 _symmetry_equiv_pos_site_id
 _symmetry_equiv_pos_as_xyz
  1  'x, y, z'
loop_
 _atom_site_type_symbol
 _atom_site_label
 _atom_site_symmetry_multiplicity
 _atom_site_fract_x
 _atom_site_fract_y
 _atom_site_fract_z
 _atom_site_occupancy
  Na  Na0  1  0.34303704  0.64833399  0.34824796  1
  Na  Na1  1  0.65696304  0.35166600  0.65175195  1
  Na  Na2  1  0.90940608  0.96787299  0.74645991  1
  Na  Na3  1  0.09059400  0.03212700  0.25353999  1
  Na  Na4  1  0.68292004  0.31302500  0.11137096  1
  Na  Na5  1  0.31708005  0.68697499  0.88862894  1
  P  P6  1  0.24173701  0.02296700  0.99736896  1
  Zn  Zn7  1  0.86592404  0.28331100  0.78595294  1
  Si  Si8  1  0.84341606  0.62157399  0.69843593  1
  O  O9  1  0.54497603  0.20356900  0.39490296  1
  O  O10  1  0.75826307  0.97703299  0.00263094  1
  O  O11  1  0.45502406  0.79643099  0.60509694  1
  O  O12  1  0.60577505  0.67846199  0.26030195  1
  O  O13  1  0.39422503  0.32153800  0.73969795  1
  O  O14  1  0.13407604  0.71668899  0.21404697  1
  O  O15  1  0.15658403  0.37842600  0.30156397  1
