# generated using pymatgen
data_CsK2NaP3NOF11
_symmetry_space_group_name_H-M   'P 1'
_cell_length_a   6.53335905
_cell_length_b   6.85965776
_cell_length_c   6.79547596
_cell_angle_alpha   90.00000000
_cell_angle_beta   103.23819733
_cell_angle_gamma   90.00000000
_symmetry_Int_Tables_number   1
_chemical_formula_structural   CsK2NaP3NOF11
_chemical_formula_sum   'Cs1 K2 Na1 P3 N1 O1 F11'
_cell_volume   296.45719771
_cell_formula_units_Z   1
loop_
 _symmetry_equiv_pos_site_id
 _symmetry_equiv_pos_as_xyz
  1  'x, y, z'
loop_
 _atom_site_type_symbol
 _atom_site_label
 _atom_site_symmetry_multiplicity
 _atom_site_fract_x
 _atom_site_fract_y
 _atom_site_fract_z
 _atom_site_occupancy
  Na  Na0  1  0.72700700  0.87413803  0.87648700  1
  K  K1  1  0.22700700  0.62586202  0.37648700  1
  K  K2  1  0.77299300  0.37413801  0.62351301  1
  Cs  Cs3  1  0.27299300  0.12586200  0.12351300  1
  P  P4  1  0.74306700  0.33852601  0.09529801  1
  P  P5  1  0.24306700  0.16147401  0.59529800  1
  P  P6  1  0.75693300  0.83852603  0.40470201  1
  N  N7  1  0.25693300  0.66147402  0.90470199  1
  O  O8  1  0.91365600  0.41885601  0.31357401  1
  F  F9  1  0.58634400  0.91885603  0.18642601  1
  F  F10  1  0.60394000  0.68593302  0.51916901  1
  F  F11  1  0.41365600  0.08114400  0.81357400  1
  F  F12  1  0.78183400  0.02946100  0.57313901  1
  F  F13  1  0.08634400  0.58114402  0.68642599  1
  F  F14  1  0.21816600  0.97053903  0.42686100  1
  F  F15  1  0.10394000  0.81406703  0.01916900  1
  F  F16  1  0.28183400  0.47053902  0.07313900  1
  F  F17  1  0.39606000  0.31406701  0.48083100  1
  F  F18  1  0.89606000  0.18593301  0.98083100  1
  F  F19  1  0.71816600  0.52946102  0.92686100  1
