# generated using pymatgen
data_K6BiSb3S2
_symmetry_space_group_name_H-M   'P 1'
_cell_length_a   4.35510397
_cell_length_b   8.39538002
_cell_length_c   11.56417942
_cell_angle_alpha   90.00000000
_cell_angle_beta   90.00000000
_cell_angle_gamma   105.03298187
_symmetry_Int_Tables_number   1
_chemical_formula_structural   K6BiSb3S2
_chemical_formula_sum   'K6 Bi1 Sb3 S2'
_cell_volume   408.34798997
_cell_formula_units_Z   1
loop_
 _symmetry_equiv_pos_site_id
 _symmetry_equiv_pos_as_xyz
  1  'x, y, z'
loop_
 _atom_site_type_symbol
 _atom_site_label
 _atom_site_symmetry_multiplicity
 _atom_site_fract_x
 _atom_site_fract_y
 _atom_site_fract_z
 _atom_site_occupancy
  K  K0  1  0.74407099  0.48814199  0.75206997  1
  K  K1  1  0.25592899  0.51185799  0.25206999  1
  K  K2  1  0.45068398  0.90136797  0.74278497  1
  K  K3  1  0.54931600  0.09863200  0.24278499  1
  K  K4  1  0.00873400  0.01746800  0.98925496  1
  K  K5  1  0.99126598  0.98253197  0.48925498  1
  Sb  Sb6  1  0.37505498  0.75010998  0.54181398  1
  Bi  Bi7  1  0.61301500  0.22602999  0.45479298  1
  Sb  Sb8  1  0.38698498  0.77396998  0.95479297  1
  S  S9  1  0.62494500  0.24988999  0.04181400  1
  S  S10  1  0.05918500  0.11837000  0.76898297  1
  Sb  Sb11  1  0.94081498  0.88162997  0.26898299  1
