# generated using pymatgen
data_K6Ag2O7
_symmetry_space_group_name_H-M   'P 1'
_cell_length_a   4.21468878
_cell_length_b   4.21468878
_cell_length_c   12.38816071
_cell_angle_alpha   89.28910065
_cell_angle_beta   89.28910065
_cell_angle_gamma   88.94670868
_symmetry_Int_Tables_number   1
_chemical_formula_structural   K6Ag2O7
_chemical_formula_sum   'K6 Ag2 O7'
_cell_volume   219.98790579
_cell_formula_units_Z   1
loop_
 _symmetry_equiv_pos_site_id
 _symmetry_equiv_pos_as_xyz
  1  'x, y, z'
loop_
 _atom_site_type_symbol
 _atom_site_label
 _atom_site_symmetry_multiplicity
 _atom_site_fract_x
 _atom_site_fract_y
 _atom_site_fract_z
 _atom_site_occupancy
  K  K0  1  0.02738700  0.02738700  0.00539900  1
  K  K1  1  0.02628700  0.02628700  0.34754100  1
  K  K2  1  0.05056600  0.05056600  0.67542600  1
  K  K3  1  0.57809996  0.57809998  0.19176299  1
  K  K4  1  0.57686896  0.57686898  0.53434299  1
  K  K5  1  0.58114696  0.58114698  0.84801799  1
  Ag  Ag6  1  0.98697395  0.51058498  0.33151298  1
  Ag  Ag7  1  0.99117995  0.48600598  0.66655499  1
  O  O8  1  0.98684895  0.51183598  0.99077499  1
  O  O9  1  0.98857593  0.98857596  0.17042598  1
  O  O10  1  0.98157693  0.98157696  0.51433098  1
  O  O11  1  0.98540093  0.98540096  0.82484498  1
  O  O12  1  0.51058495  0.98697396  0.33151298  1
  O  O13  1  0.48600595  0.99117996  0.66655499  1
  O  O14  1  0.51183595  0.98684896  0.99077499  1
