# generated using pymatgen
data_BaSr3Zr2Sn3
_symmetry_space_group_name_H-M   'P 1'
_cell_length_a   6.21154213
_cell_length_b   7.66142178
_cell_length_c   7.66142178
_cell_angle_alpha   120.00000000
_cell_angle_beta   90.00000000
_cell_angle_gamma   90.00000000
_symmetry_Int_Tables_number   1
_chemical_formula_structural   BaSr3Zr2Sn3
_chemical_formula_sum   'Ba1 Sr3 Zr2 Sn3'
_cell_volume   315.75396319
_cell_formula_units_Z   1
loop_
 _symmetry_equiv_pos_site_id
 _symmetry_equiv_pos_as_xyz
  1  'x, y, z'
loop_
 _atom_site_type_symbol
 _atom_site_label
 _atom_site_symmetry_multiplicity
 _atom_site_fract_x
 _atom_site_fract_y
 _atom_site_fract_z
 _atom_site_occupancy
  Ba  Ba0  1  0.74622798  0.33333334  0.66666668  1
  Sr  Sr1  1  0.25377199  0.66666668  0.33333334  1
  Sr  Sr2  1  0.00000000  0.00000000  0.00000000  1
  Sr  Sr3  1  0.23321000  0.16273600  0.32547201  1
  Zr  Zr4  1  0.76678998  0.32547301  0.16273700  1
  Sn  Sn5  1  0.23321000  0.67452702  0.83726301  1
  Sn  Sn6  1  0.76678998  0.83726402  0.16273700  1
  Zr  Zr7  1  0.76678998  0.83726402  0.67452801  1
  Sn  Sn8  1  0.23321000  0.16273600  0.83726302  1
