# generated using pymatgen
data_H2O2
_symmetry_space_group_name_H-M   'P 1'
_cell_length_a   4.83632088
_cell_length_b   4.84435081
_cell_length_c   5.79268503
_cell_angle_alpha   90.00000000
_cell_angle_beta   90.00000000
_cell_angle_gamma   90.00000000
_symmetry_Int_Tables_number   1
_chemical_formula_structural   H2O2
_chemical_formula_sum   'H10 O10'
_cell_volume   135.71586171
_cell_formula_units_Z   5
loop_
 _symmetry_equiv_pos_site_id
 _symmetry_equiv_pos_as_xyz
  1  'x, y, z'
loop_
 _atom_site_type_symbol
 _atom_site_label
 _atom_site_symmetry_multiplicity
 _atom_site_fract_x
 _atom_site_fract_y
 _atom_site_fract_z
 _atom_site_occupancy
  H  H0  1  0.57525101  0.17175301  0.87481600  1
  H  H1  1  0.07525100  0.32824701  0.12518400  1
  H  H2  1  0.92474902  0.82824703  0.37481600  1
  H  H3  1  0.42474901  0.67175303  0.62518400  1
  H  H4  1  0.49745501  0.41325702  0.20259400  1
  H  H5  1  0.99745503  0.08674300  0.79740600  1
  H  H6  1  0.00254500  0.58674302  0.70259400  1
  H  H7  1  0.50254501  0.91325703  0.29740600  1
  H  H8  1  0.69282702  0.75430803  0.94075499  1
  H  H9  1  0.19282700  0.74569203  0.05924500  1
  O  O10  1  0.80717302  0.24569201  0.44075500  1
  O  O11  1  0.30717301  0.25430801  0.55924500  1
  O  O12  1  0.41047301  0.26612501  0.11003400  1
  O  O13  1  0.91047302  0.23387501  0.88996600  1
  O  O14  1  0.08952700  0.73387503  0.61003400  1
  O  O15  1  0.58952701  0.76612503  0.38996600  1
  O  O16  1  0.53446001  0.83342503  0.85676100  1
  O  O17  1  0.03446000  0.66657503  0.14323900  1
  O  O18  1  0.96554002  0.16657501  0.35676100  1
  O  O19  1  0.46554001  0.33342501  0.64323900  1
