# generated using pymatgen
data_Ba5Nb2WO8
_symmetry_space_group_name_H-M   'P 1'
_cell_length_a   5.82209682
_cell_length_b   6.73641682
_cell_length_c   7.42844868
_cell_angle_alpha   91.16842651
_cell_angle_beta   90.00000000
_cell_angle_gamma   90.00000000
_symmetry_Int_Tables_number   1
_chemical_formula_structural   Ba5Nb2WO8
_chemical_formula_sum   'Ba5 Nb2 W1 O8'
_cell_volume   291.28370566
_cell_formula_units_Z   1
loop_
 _symmetry_equiv_pos_site_id
 _symmetry_equiv_pos_as_xyz
  1  'x, y, z'
loop_
 _atom_site_type_symbol
 _atom_site_label
 _atom_site_symmetry_multiplicity
 _atom_site_fract_x
 _atom_site_fract_y
 _atom_site_fract_z
 _atom_site_occupancy
  W  W0  1  0.25000001  0.87844702  0.12399400  1
  Ba  Ba1  1  0.25000001  0.88604002  0.62203900  1
  Ba  Ba2  1  0.75000002  0.11396000  0.37796100  1
  Ba  Ba3  1  0.25000001  0.38601801  0.61727599  1
  Ba  Ba4  1  0.75000002  0.61398202  0.38272400  1
  Ba  Ba5  1  0.75000002  0.62125102  0.88239199  1
  Nb  Nb6  1  0.25000001  0.37874901  0.11760800  1
  Nb  Nb7  1  0.75000002  0.12155300  0.87600599  1
  O  O8  1  0.75000002  0.86552502  0.71865299  1
  O  O9  1  0.25000001  0.14127400  0.78027199  1
  O  O10  1  0.25000001  0.63495702  0.45846500  1
  O  O11  1  0.25000001  0.13447500  0.28134700  1
  O  O12  1  0.25000001  0.62827302  0.95955299  1
  O  O13  1  0.75000002  0.37172701  0.04044700  1
  O  O14  1  0.75000002  0.85872602  0.21972800  1
  O  O15  1  0.75000002  0.36504301  0.54153499  1
