# generated using pymatgen
data_Na2Li3OF4
_symmetry_space_group_name_H-M   'P 1'
_cell_length_a   3.76283693
_cell_length_b   3.76283693
_cell_length_c   9.76354122
_cell_angle_alpha   90.00000000
_cell_angle_beta   90.00000000
_cell_angle_gamma   90.00000000
_symmetry_Int_Tables_number   1
_chemical_formula_structural   Na2Li3OF4
_chemical_formula_sum   'Na2 Li3 O1 F4'
_cell_volume   138.24141178
_cell_formula_units_Z   1
loop_
 _symmetry_equiv_pos_site_id
 _symmetry_equiv_pos_as_xyz
  1  'x, y, z'
loop_
 _atom_site_type_symbol
 _atom_site_label
 _atom_site_symmetry_multiplicity
 _atom_site_fract_x
 _atom_site_fract_y
 _atom_site_fract_z
 _atom_site_occupancy
  Li  Li0  1  0.50000001  0.50000001  0.78773898  1
  Na  Na1  1  0.50000001  0.50000001  0.28600199  1
  Li  Li2  1  0.00000000  0.00000000  0.00413800  1
  Na  Na3  1  0.00000000  0.00000000  0.49775599  1
  Li  Li4  1  0.50000001  0.50000001  0.10530900  1
  F  F5  1  0.50000001  0.50000001  0.60094999  1
  O  O6  1  0.00000000  0.50000001  0.36279199  1
  F  F7  1  0.00000000  0.50000001  0.86816098  1
  F  F8  1  0.50000001  0.00000000  0.36279199  1
  F  F9  1  0.50000001  0.00000000  0.86816098  1
