# generated using pymatgen
data_Li5CoAgOF10
_symmetry_space_group_name_H-M   'P 1'
_cell_length_a   4.66012287
_cell_length_b   5.53168678
_cell_length_c   7.66061878
_cell_angle_alpha   85.24314117
_cell_angle_beta   86.91342163
_cell_angle_gamma   86.25868225
_symmetry_Int_Tables_number   1
_chemical_formula_structural   Li5CoAgOF10
_chemical_formula_sum   'Li5 Co1 Ag1 O1 F10'
_cell_volume   196.14536859
_cell_formula_units_Z   1
loop_
 _symmetry_equiv_pos_site_id
 _symmetry_equiv_pos_as_xyz
  1  'x, y, z'
loop_
 _atom_site_type_symbol
 _atom_site_label
 _atom_site_symmetry_multiplicity
 _atom_site_fract_x
 _atom_site_fract_y
 _atom_site_fract_z
 _atom_site_occupancy
  Li  Li0  1  0.47424001  0.15075901  0.82403797  1
  Li  Li1  1  0.50000000  0.50000002  0.49999998  1
  Li  Li2  1  0.52575998  0.84924103  0.17596200  1
  Li  Li3  1  0.00000000  0.00000000  0.49999999  1
  Li  Li4  1  0.98328602  0.31985601  0.16344998  1
  Co  Co5  1  0.01671397  0.68014403  0.83654999  1
  Ag  Ag6  1  0.80675702  0.03641100  0.27297698  1
  F  F7  1  0.69236999  0.86986403  0.93483698  1
  F  F8  1  0.69159401  0.20028301  0.60301997  1
  O  O9  1  0.69880300  0.53828402  0.26889699  1
  F  F10  1  0.30840598  0.79971703  0.39698000  1
  F  F11  1  0.30763000  0.13013600  0.06516299  1
  F  F12  1  0.30119699  0.46171602  0.73110298  1
  F  F13  1  0.19324297  0.96358904  0.72702299  1
  F  F14  1  0.80151900  0.70102703  0.59724398  1
  F  F15  1  0.80009401  0.37793001  0.92163897  1
  F  F16  1  0.19848099  0.29897301  0.40275599  1
  F  F17  1  0.19990598  0.62207002  0.07836100  1
