# generated using pymatgen
data_Li2O2
_symmetry_space_group_name_H-M   'P 1'
_cell_length_a   5.30230093
_cell_length_b   5.30230045
_cell_length_c   6.42921114
_cell_angle_alpha   90.00000000
_cell_angle_beta   90.00000000
_cell_angle_gamma   112.92650604
_symmetry_Int_Tables_number   1
_chemical_formula_structural   Li2O2
_chemical_formula_sum   'Li7 O7'
_cell_volume   166.47480674
_cell_formula_units_Z   3
loop_
 _symmetry_equiv_pos_site_id
 _symmetry_equiv_pos_as_xyz
  1  'x, y, z'
loop_
 _atom_site_type_symbol
 _atom_site_label
 _atom_site_symmetry_multiplicity
 _atom_site_fract_x
 _atom_site_fract_y
 _atom_site_fract_z
 _atom_site_occupancy
  Li  Li0  1  0.66205799  0.33794198  0.24999999  1
  Li  Li1  1  0.33794298  0.66205697  0.74999898  1
  Li  Li2  1  0.00000000  0.00000000  0.49999999  1
  Li  Li3  1  0.00000000  0.00000000  0.00000000  1
  Li  Li4  1  0.35527998  0.64471997  0.24999999  1
  Li  Li5  1  0.64471899  0.35528098  0.74999898  1
  Li  Li6  1  0.75905598  0.71864497  0.74999898  1
  O  O7  1  0.24094499  0.28135699  0.24999999  1
  O  O8  1  0.71864498  0.75905697  0.24999999  1
  O  O9  1  0.28135599  0.24094499  0.74999898  1
  O  O10  1  0.24377398  0.75622597  0.46994899  1
  O  O11  1  0.75622699  0.24377299  0.96994798  1
  O  O12  1  0.75622699  0.24377299  0.53005199  1
  O  O13  1  0.24377398  0.75622597  0.03005100  1
