# generated using pymatgen
data_Sr4Bi(SbO4)3
_symmetry_space_group_name_H-M   'P 1'
_cell_length_a   5.53351116
_cell_length_b   5.55030918
_cell_length_c   7.79260159
_cell_angle_alpha   90.04596710
_cell_angle_beta   90.00086212
_cell_angle_gamma   89.99987793
_symmetry_Int_Tables_number   1
_chemical_formula_structural   Sr4Bi(SbO4)3
_chemical_formula_sum   'Sr4 Bi1 Sb3 O12'
_cell_volume   239.33174056
_cell_formula_units_Z   1
loop_
 _symmetry_equiv_pos_site_id
 _symmetry_equiv_pos_as_xyz
  1  'x, y, z'
loop_
 _atom_site_type_symbol
 _atom_site_label
 _atom_site_symmetry_multiplicity
 _atom_site_fract_x
 _atom_site_fract_y
 _atom_site_fract_z
 _atom_site_occupancy
  Sr  Sr0  1  0.48364000  0.49830502  0.24976304  1
  Sr  Sr1  1  0.01637604  0.99825103  0.74976405  1
  Sr  Sr2  1  0.97560297  0.00507200  0.24979705  1
  Sr  Sr3  1  0.52441700  0.50511402  0.74978706  1
  Sb  Sb4  1  0.00080002  0.49997302  0.99988604  1
  Bi  Bi5  1  0.49924102  0.99993903  0.49996607  1
  Sb  Sb6  1  0.49730799  0.00028000  0.00010802  1
  Sb  Sb7  1  0.00273202  0.50014402  0.49998003  1
  O  O8  1  0.00489302  0.56538802  0.24377502  1
  O  O9  1  0.49508099  0.06539700  0.74376304  1
  O  O10  1  0.51151802  0.95033503  0.25633806  1
  O  O11  1  0.98844499  0.45032802  0.75635208  1
  O  O12  1  0.73501199  0.27348401  0.02790604  1
  O  O13  1  0.76494601  0.77342803  0.52785207  1
  O  O14  1  0.22568000  0.21645201  0.46822803  1
  O  O15  1  0.27432602  0.71648502  0.96828306  1
  O  O16  1  0.28275902  0.72684402  0.53169705  1
  O  O17  1  0.21721400  0.22682501  0.03175302  1
  O  O18  1  0.77307601  0.76399903  0.97253508  1
  O  O19  1  0.72693399  0.26395601  0.47247105  1
