# generated using pymatgen
data_Na2SrLiPH3CO11
_symmetry_space_group_name_H-M   'P 1'
_cell_length_a   4.80716324
_cell_length_b   5.75962114
_cell_length_c   8.40097141
_cell_angle_alpha   103.21941376
_cell_angle_beta   89.99504089
_cell_angle_gamma   89.96416473
_symmetry_Int_Tables_number   1
_chemical_formula_structural   Na2SrLiPH3CO11
_chemical_formula_sum   'Na2 Sr1 Li1 P1 H3 C1 O11'
_cell_volume   226.43773935
_cell_formula_units_Z   1
loop_
 _symmetry_equiv_pos_site_id
 _symmetry_equiv_pos_as_xyz
  1  'x, y, z'
loop_
 _atom_site_type_symbol
 _atom_site_label
 _atom_site_symmetry_multiplicity
 _atom_site_fract_x
 _atom_site_fract_y
 _atom_site_fract_z
 _atom_site_occupancy
  Li  Li0  1  0.08428104  0.87968499  0.57713193  1
  Sr  Sr1  1  0.58466001  0.61817099  0.42276094  1
  Na  Na2  1  0.50838801  0.49414899  0.97347392  1
  Na  Na3  1  0.00761500  0.00627200  0.02660000  1
  P  P4  1  0.58825103  0.93683298  0.78230890  1
  H  H5  1  0.08875102  0.56319199  0.21740496  1
  H  H6  1  0.63301502  0.90724299  0.22877693  1
  C  C7  1  0.13157802  0.59376199  0.77258493  1
  O  O8  1  0.03722501  0.34180199  0.79371195  1
  H  H9  1  0.53575299  0.15789600  0.20606797  1
  O  O10  1  0.26665403  0.93413498  0.79298991  1
  O  O11  1  0.76710801  0.56637499  0.20682794  1
  O  O12  1  0.68744402  0.86510099  0.60421791  1
  O  O13  1  0.18781602  0.63374399  0.39551795  1
  O  O14  1  0.70005899  0.06860100  0.22940596  1
  O  O15  1  0.20040101  0.43245599  0.77066794  1
  O  O16  1  0.71673002  0.76585499  0.88528990  1
  O  O17  1  0.21710303  0.73475699  0.11496996  1
  O  O18  1  0.21439001  0.31222599  0.13180397  1
  O  O19  1  0.71397499  0.18774700  0.86748693  1
