# generated using pymatgen
data_Li3Mn2O5
_symmetry_space_group_name_H-M   'P 1'
_cell_length_a   5.02691412
_cell_length_b   5.11198664
_cell_length_c   7.72308826
_cell_angle_alpha   83.89138031
_cell_angle_beta   71.00733185
_cell_angle_gamma   70.91461945
_symmetry_Int_Tables_number   1
_chemical_formula_structural   Li3Mn2O5
_chemical_formula_sum   'Li6 Mn4 O10'
_cell_volume   177.34463603
_cell_formula_units_Z   2
loop_
 _symmetry_equiv_pos_site_id
 _symmetry_equiv_pos_as_xyz
  1  'x, y, z'
loop_
 _atom_site_type_symbol
 _atom_site_label
 _atom_site_symmetry_multiplicity
 _atom_site_fract_x
 _atom_site_fract_y
 _atom_site_fract_z
 _atom_site_occupancy
  Li  Li0  1  0.10310000  0.50000001  0.79379998  1
  Li  Li1  1  0.70276499  0.50000001  0.59446998  1
  Li  Li2  1  0.29760000  0.50000001  0.40479999  1
  Li  Li3  1  0.89433699  0.50000001  0.21132599  1
  Li  Li4  1  0.50135999  0.50000001  0.99727998  1
  Li  Li5  1  0.79872598  0.00000000  0.40254799  1
  Mn  Mn6  1  0.99795199  1.00000003  0.00409599  1
  Mn  Mn7  1  0.39777999  0.00000000  0.20443999  1
  Mn  Mn8  1  0.60755000  1.00000003  0.78489998  1
  Mn  Mn9  1  0.20324000  0.00000000  0.59351999  1
  O  O10  1  0.85892798  0.22864901  0.80916198  1
  O  O11  1  0.44113899  0.23293501  0.61189598  1
  O  O12  1  0.08186700  0.23374301  0.38940399  1
  O  O13  1  0.65625799  0.22090701  0.18563699  1
  O  O14  1  0.24681200  0.21951801  0.00831100  1
  O  O15  1  0.33191000  0.77135102  0.80916198  1
  O  O16  1  0.94696499  0.76706502  0.61189598  1
  O  O17  1  0.52872900  0.76625702  0.38940399  1
  O  O18  1  0.15810500  0.77909302  0.18563699  1
  O  O19  1  0.74487699  0.78048202  0.00831099  1
