# generated using pymatgen
data_NaLi4CaGaAs3PSe6N
_symmetry_space_group_name_H-M   'P 1'
_cell_length_a   6.47230625
_cell_length_b   6.53397417
_cell_length_c   9.63897514
_cell_angle_alpha   71.38092804
_cell_angle_beta   79.42108154
_cell_angle_gamma   67.89974976
_symmetry_Int_Tables_number   1
_chemical_formula_structural   NaLi4CaGaAs3PSe6N
_chemical_formula_sum   'Na1 Li4 Ca1 Ga1 As3 P1 Se6 N1'
_cell_volume   356.97790469
_cell_formula_units_Z   1
loop_
 _symmetry_equiv_pos_site_id
 _symmetry_equiv_pos_as_xyz
  1  'x, y, z'
loop_
 _atom_site_type_symbol
 _atom_site_label
 _atom_site_symmetry_multiplicity
 _atom_site_fract_x
 _atom_site_fract_y
 _atom_site_fract_z
 _atom_site_occupancy
  Na  Na0  1  0.77060603  0.57718500  0.17611896  1
  Ga  Ga1  1  0.22939401  0.42281500  0.82388095  1
  Li  Li2  1  0.74155303  0.23016200  0.98125193  1
  Li  Li3  1  0.25844700  0.76983800  0.01874799  1
  Li  Li4  1  0.72903003  0.48842200  0.56948494  1
  Li  Li5  1  0.27097001  0.51157800  0.43051497  1
  Ca  Ca6  1  0.23215300  0.95668400  0.60616196  1
  As  As7  1  0.76784703  0.04331600  0.39383795  1
  As  As8  1  0.71506402  0.84826200  0.75674694  1
  P  P9  1  0.28493601  0.15173800  0.24325298  1
  As  As10  1  0.97968903  0.70015000  0.60844993  1
  Se  Se11  1  0.02031100  0.29985000  0.39154998  1
  N  N12  1  0.89229403  0.83266400  0.92619592  1
  Se  Se13  1  0.10770600  0.16733600  0.07380399  1
  Se  Se14  1  0.51366502  0.62988500  0.80569594  1
  Se  Se15  1  0.48633502  0.37011500  0.19430397  1
  Se  Se16  1  0.49353101  0.82075600  0.36711796  1
  Se  Se17  1  0.50646902  0.17924400  0.63288195  1
