# generated using pymatgen
data_Al2Si4O
_symmetry_space_group_name_H-M   'P 1'
_cell_length_a   5.76457644
_cell_length_b   5.76457644
_cell_length_c   5.76457644
_cell_angle_alpha   60.00000000
_cell_angle_beta   60.00000000
_cell_angle_gamma   60.00000000
_symmetry_Int_Tables_number   1
_chemical_formula_structural   Al2Si4O
_chemical_formula_sum   'Al4 Si8 O2'
_cell_volume   135.45255717
_cell_formula_units_Z   2
loop_
 _symmetry_equiv_pos_site_id
 _symmetry_equiv_pos_as_xyz
  1  'x, y, z'
loop_
 _atom_site_type_symbol
 _atom_site_label
 _atom_site_symmetry_multiplicity
 _atom_site_fract_x
 _atom_site_fract_y
 _atom_site_fract_z
 _atom_site_occupancy
  Al  Al0  1  0.24999999  0.24999999  0.24999999  1
  Al  Al1  1  0.49999999  0.49999999  0.49999999  1
  Si  Si2  1  0.87499998  0.37499999  0.87499998  1
  Al  Al3  1  0.87499998  0.87499998  0.87499998  1
  Si  Si4  1  0.87499998  0.87499998  0.37499999  1
  Si  Si5  1  0.37499999  0.87499998  0.87499998  1
  Si  Si6  1  0.64438899  0.06683300  0.64438899  1
  Si  Si7  1  0.64438899  0.64438899  0.64438899  1
  Si  Si8  1  0.64438899  0.64438899  0.06683300  1
  Si  Si9  1  0.06683300  0.64438899  0.64438899  1
  O  O10  1  0.10561100  0.68316699  0.10561100  1
  Al  Al11  1  0.10561100  0.10561100  0.10561100  1
  Si  Si12  1  0.10561100  0.10561100  0.68316699  1
  O  O13  1  0.68316699  0.10561100  0.10561100  1
