# generated using pymatgen
data_LiMn2AlNi(SnO4)3
_symmetry_space_group_name_H-M   'P 1'
_cell_length_a   5.52008200
_cell_length_b   7.47334671
_cell_length_c   7.47334671
_cell_angle_alpha   115.14706421
_cell_angle_beta   90.00000000
_cell_angle_gamma   90.00000000
_symmetry_Int_Tables_number   1
_chemical_formula_structural   LiMn2AlNi(SnO4)3
_chemical_formula_sum   'Li1 Mn2 Al1 Ni1 Sn3 O12'
_cell_volume   279.08079612
_cell_formula_units_Z   1
loop_
 _symmetry_equiv_pos_site_id
 _symmetry_equiv_pos_as_xyz
  1  'x, y, z'
loop_
 _atom_site_type_symbol
 _atom_site_label
 _atom_site_symmetry_multiplicity
 _atom_site_fract_x
 _atom_site_fract_y
 _atom_site_fract_z
 _atom_site_occupancy
  Al  Al0  1  0.75000000  0.21751001  0.39835701  1
  Li  Li1  1  0.25000000  0.78249002  0.60164302  1
  Mn  Mn2  1  0.75000000  0.60164302  0.78249002  1
  Mn  Mn3  1  0.25000000  0.39835701  0.21751001  1
  Ni  Ni4  1  0.75000000  0.69869802  0.30130201  1
  Sn  Sn5  1  0.25000000  0.30130201  0.69869802  1
  Sn  Sn6  1  0.25000000  0.91049603  0.08950400  1
  Sn  Sn7  1  0.75000000  0.08950400  0.91049603  1
  O  O8  1  0.75000000  0.95188403  0.39781801  1
  O  O9  1  0.25000000  0.04811600  0.60218202  1
  O  O10  1  0.25000000  0.39781801  0.95188403  1
  O  O11  1  0.75000000  0.60218202  0.04811600  1
  O  O12  1  0.51062500  0.38221901  0.61778102  1
  O  O13  1  0.01062500  0.61778102  0.38221901  1
  O  O14  1  0.48937500  0.61778102  0.38221901  1
  O  O15  1  0.98937500  0.38221901  0.61778102  1
  O  O16  1  1.00000000  0.17145001  0.17145000  1
  O  O17  1  0.50000000  0.82855002  0.82855002  1
  O  O18  1  0.50000000  0.17145001  0.17145000  1
  O  O19  1  1.00000000  0.82855002  0.82855002  1
