# generated using pymatgen
data_CaDyCd3SnBiO7
_symmetry_space_group_name_H-M   'P 1'
_cell_length_a   6.56178188
_cell_length_b   6.65816736
_cell_length_c   6.58507013
_cell_angle_alpha   119.63748932
_cell_angle_beta   90.00000000
_cell_angle_gamma   119.52227783
_symmetry_Int_Tables_number   1
_chemical_formula_structural   CaDyCd3SnBiO7
_chemical_formula_sum   'Ca1 Dy1 Cd3 Sn1 Bi1 O7'
_cell_volume   205.98955817
_cell_formula_units_Z   1
loop_
 _symmetry_equiv_pos_site_id
 _symmetry_equiv_pos_as_xyz
  1  'x, y, z'
loop_
 _atom_site_type_symbol
 _atom_site_label
 _atom_site_symmetry_multiplicity
 _atom_site_fract_x
 _atom_site_fract_y
 _atom_site_fract_z
 _atom_site_occupancy
  Ca  Ca0  1  0.85964406  0.71928799  0.60964397  1
  Dy  Dy1  1  0.50000004  0.50000000  -0.00000001  1
  Cd  Cd2  1  0.00000003  0.50000000  -0.00000001  1
  Cd  Cd3  1  0.14035602  0.28071200  0.39035599  1
  Cd  Cd4  1  0.50000001  0.00000000  0.49999999  1
  Sn  Sn5  1  0.50000001  0.00000000  0.99999998  1
  Bi  Bi6  1  0.28320807  0.99708599  0.74854296  1
  O  O7  1  0.71387808  0.99708599  0.74854296  1
  O  O8  1  0.71645004  0.43290000  0.20344499  1
  O  O9  1  0.71645104  0.43290100  0.72945498  1
  O  O10  1  0.28354904  0.56709900  0.27054498  1
  O  O11  1  0.28355004  0.56710000  0.79655497  1
  O  O12  1  0.28612201  0.00291400  0.25145699  1
  O  O13  1  0.71679201  0.00291400  0.25145699  1
