# generated using pymatgen
data_LaSb3
_symmetry_space_group_name_H-M   'P 1'
_cell_length_a   3.52862144
_cell_length_b   3.52862144
_cell_length_c   9.91439056
_cell_angle_alpha   93.38492584
_cell_angle_beta   96.94792175
_cell_angle_gamma   119.61848450
_symmetry_Int_Tables_number   1
_chemical_formula_structural   LaSb3
_chemical_formula_sum   'La1 Sb3'
_cell_volume   105.51292445
_cell_formula_units_Z   1
loop_
 _symmetry_equiv_pos_site_id
 _symmetry_equiv_pos_as_xyz
  1  'x, y, z'
loop_
 _atom_site_type_symbol
 _atom_site_label
 _atom_site_symmetry_multiplicity
 _atom_site_fract_x
 _atom_site_fract_y
 _atom_site_fract_z
 _atom_site_occupancy
  La  La0  1  0.90006800  0.72044501  0.62051298  1
  Sb  Sb1  1  0.09993199  0.27955500  0.37948699  1
  Sb  Sb2  1  0.67486802  0.14154800  0.81641597  1
  Sb  Sb3  1  0.32513198  0.85845201  0.18358400  1
