# generated using pymatgen
data_UTlBiW(ClO7)2
_symmetry_space_group_name_H-M   'P 1'
_cell_length_a   5.10403109
_cell_length_b   5.92242384
_cell_length_c   9.69577312
_cell_angle_alpha   92.19812012
_cell_angle_beta   90.00000000
_cell_angle_gamma   90.00000000
_symmetry_Int_Tables_number   1
_chemical_formula_structural   UTlBiW(ClO7)2
_chemical_formula_sum   'U1 Tl1 Bi1 W1 Cl2 O14'
_cell_volume   292.87045224
_cell_formula_units_Z   1
loop_
 _symmetry_equiv_pos_site_id
 _symmetry_equiv_pos_as_xyz
  1  'x, y, z'
loop_
 _atom_site_type_symbol
 _atom_site_label
 _atom_site_symmetry_multiplicity
 _atom_site_fract_x
 _atom_site_fract_y
 _atom_site_fract_z
 _atom_site_occupancy
  W  W0  1  0.97878698  0.35845701  0.63443503  1
  Tl  Tl1  1  0.52121299  0.35845701  0.13443502  1
  U  U2  1  0.47878699  0.64154302  0.86556505  1
  Bi  Bi3  1  0.02121300  0.64154302  0.36556503  1
  O  O4  1  0.14506300  0.12075100  0.68942402  1
  Cl  Cl5  1  0.35493699  0.12075100  0.18942401  1
  O  O6  1  0.68171799  0.23796701  0.57103402  1
  Cl  Cl7  1  0.81828199  0.23796701  0.07103401  1
  O  O8  1  0.38340299  0.34506901  0.94444404  1
  O  O9  1  0.11659700  0.34506901  0.44444402  1
  O  O10  1  0.79978999  0.46039601  0.79927004  1
  O  O11  1  0.70020999  0.46039601  0.29927003  1
  O  O12  1  0.29978999  0.53960402  0.70073004  1
  O  O13  1  0.20021000  0.53960402  0.20073003  1
  O  O14  1  0.88340299  0.65493102  0.55555604  1
  O  O15  1  0.61659699  0.65493102  0.05555603  1
  O  O16  1  0.18171800  0.76203302  0.92896605  1
  O  O17  1  0.31828199  0.76203302  0.42896604  1
  O  O18  1  0.64506299  0.87924903  0.81057605  1
  O  O19  1  0.85493699  0.87924903  0.31057604  1
