# generated using pymatgen
data_Cs5LiLuCuO10
_symmetry_space_group_name_H-M   'P 1'
_cell_length_a   6.01295996
_cell_length_b   6.21006012
_cell_length_c   8.99878502
_cell_angle_alpha   110.18484497
_cell_angle_beta   109.51772308
_cell_angle_gamma   90.00000000
_symmetry_Int_Tables_number   1
_chemical_formula_structural   Cs5LiLuCuO10
_chemical_formula_sum   'Cs5 Li1 Lu1 Cu1 O10'
_cell_volume   294.72783778
_cell_formula_units_Z   1
loop_
 _symmetry_equiv_pos_site_id
 _symmetry_equiv_pos_as_xyz
  1  'x, y, z'
loop_
 _atom_site_type_symbol
 _atom_site_label
 _atom_site_symmetry_multiplicity
 _atom_site_fract_x
 _atom_site_fract_y
 _atom_site_fract_z
 _atom_site_occupancy
  Cs  Cs0  1  0.13735601  0.61247000  0.23761801  1
  Cs  Cs1  1  0.89973901  0.38753000  0.76238299  1
  Cs  Cs2  1  0.39973801  0.87485200  0.76238201  1
  Cs  Cs3  1  0.63735700  0.12514800  0.23761899  1
  Cs  Cs4  1  0.51644301  0.50000000  0.00000001  1
  Li  Li5  1  0.01644300  0.00000000  -0.00000000  1
  Cu  Cu6  1  0.76185001  0.81523100  0.50000001  1
  Lu  Lu7  1  0.26185000  0.18476900  0.50000000  1
  O  O8  1  0.25514900  0.23947100  0.97868999  1
  O  O9  1  0.27645901  0.76052900  0.02131102  1
  O  O10  1  0.77646001  0.76078200  0.02131201  1
  O  O11  1  0.75514800  0.23921800  0.97868899  1
  O  O12  1  0.65744201  0.57615400  0.29248601  1
  O  O13  1  0.36495500  0.42384600  0.70751400  1
  O  O14  1  0.86495601  0.78366800  0.70751501  1
  O  O15  1  0.15744100  0.21633200  0.29248500  1
  O  O16  1  0.00320700  0.00980500  0.49999999  1
  O  O17  1  0.50320701  0.99019499  0.50000002  1
