# generated using pymatgen
data_LiF
_symmetry_space_group_name_H-M   'P 1'
_cell_length_a   4.96220779
_cell_length_b   5.61982775
_cell_length_c   4.96220970
_cell_angle_alpha   116.19907379
_cell_angle_beta   89.99997711
_cell_angle_gamma   116.19906616
_symmetry_Int_Tables_number   1
_chemical_formula_structural   LiF
_chemical_formula_sum   'Li4 F4'
_cell_volume   108.09332098
_cell_formula_units_Z   4
loop_
 _symmetry_equiv_pos_site_id
 _symmetry_equiv_pos_as_xyz
  1  'x, y, z'
loop_
 _atom_site_type_symbol
 _atom_site_label
 _atom_site_symmetry_multiplicity
 _atom_site_fract_x
 _atom_site_fract_y
 _atom_site_fract_z
 _atom_site_occupancy
  Li  Li0  1  0.24999998  0.49999996  0.74999996  1
  Li  Li1  1  0.50000002  0.00000000  0.49999999  1
  Li  Li2  1  0.75000000  0.49999996  0.24999997  1
  Li  Li3  1  0.00000000  0.00000000  0.00000000  1
  F  F4  1  0.87500002  0.24999998  0.30647398  1
  F  F5  1  0.37500000  0.24999998  0.94352597  1
  F  F6  1  0.69352599  0.74999994  0.62499995  1
  F  F7  1  0.05647396  0.74999994  0.12499996  1
