# generated using pymatgen
data_K3BaNa2SrBiO12
_symmetry_space_group_name_H-M   'P 1'
_cell_length_a   5.73254061
_cell_length_b   5.73254061
_cell_length_c   8.19214249
_cell_angle_alpha   89.84763336
_cell_angle_beta   89.84763336
_cell_angle_gamma   88.93541718
_symmetry_Int_Tables_number   1
_chemical_formula_structural   K3BaNa2SrBiO12
_chemical_formula_sum   'K3 Ba1 Na2 Sr1 Bi1 O12'
_cell_volume   269.16202738
_cell_formula_units_Z   1
loop_
 _symmetry_equiv_pos_site_id
 _symmetry_equiv_pos_as_xyz
  1  'x, y, z'
loop_
 _atom_site_type_symbol
 _atom_site_label
 _atom_site_symmetry_multiplicity
 _atom_site_fract_x
 _atom_site_fract_y
 _atom_site_fract_z
 _atom_site_occupancy
  K  K0  1  0.00554000  0.00436000  0.24990201  1
  K  K1  1  0.50832198  0.50282901  0.24991802  1
  Ba  Ba2  1  0.49717098  0.49167801  0.75008205  1
  K  K3  1  0.99563997  0.99446002  0.75009806  1
  Na  Na4  1  0.49175096  0.99074002  0.49205504  1
  Sr  Sr5  1  0.51032501  0.00618600  0.00924301  1
  Bi  Bi6  1  0.99381400  0.48967501  0.99075706  1
  Na  Na7  1  0.00925997  0.50824901  0.50794503  1
  O  O8  1  0.77188700  0.22811301  1.00000006  1
  O  O9  1  0.02374097  0.47884101  0.74991904  1
  O  O10  1  0.52115896  0.97625902  0.25008103  1
  O  O11  1  0.22749696  0.77250302  0.50000003  1
  O  O12  1  0.77574200  0.22425801  0.50000003  1
  O  O13  1  0.97168699  0.52370801  0.25039103  1
  O  O14  1  0.47629201  0.02831300  0.74960904  1
  O  O15  1  0.27379599  0.27684501  0.02417501  1
  O  O16  1  0.72505298  0.72471002  0.52403704  1
  O  O17  1  0.27528999  0.27494701  0.47596303  1
  O  O18  1  0.72315498  0.72620402  0.97582506  1
  O  O19  1  0.22287996  0.77712002  0.00000001  1
