# generated using pymatgen
data_NaW2Br6Cl9O2
_symmetry_space_group_name_H-M   'P 1'
_cell_length_a   6.52622223
_cell_length_b   6.52622223
_cell_length_c   8.33204365
_cell_angle_alpha   86.59608459
_cell_angle_beta   86.59608459
_cell_angle_gamma   82.93079376
_symmetry_Int_Tables_number   1
_chemical_formula_structural   NaW2Br6Cl9O2
_chemical_formula_sum   'Na1 W2 Br6 Cl9 O2'
_cell_volume   351.06996146
_cell_formula_units_Z   1
loop_
 _symmetry_equiv_pos_site_id
 _symmetry_equiv_pos_as_xyz
  1  'x, y, z'
loop_
 _atom_site_type_symbol
 _atom_site_label
 _atom_site_symmetry_multiplicity
 _atom_site_fract_x
 _atom_site_fract_y
 _atom_site_fract_z
 _atom_site_occupancy
  Na  Na0  1  0.33745197  0.33745200  0.23616997  1
  W  W1  1  0.76587697  0.23412300  0.49999995  1
  W  W2  1  0.23412295  0.76587699  0.49999995  1
  Cl  Cl3  1  0.66254795  0.66254799  0.76382994  1
  Br  Br4  1  0.25829698  0.25829700  0.80397798  1
  Br  Br5  1  0.81064897  0.18935100  -0.00000005  1
  Br  Br6  1  0.18935095  0.81064899  -0.00000005  1
  Br  Br7  1  0.74170294  0.74170299  0.19602193  1
  O  O8  1  0.12274699  0.12274700  0.05231299  1
  O  O9  1  0.32854997  0.32855000  0.59252897  1
  Br  Br10  1  0.71286298  0.04828100  0.21122296  1
  Br  Br11  1  0.04828096  0.71286299  0.21122297  1
  Cl  Cl12  1  0.22663496  0.54720799  0.89773996  1
  Cl  Cl13  1  0.54720798  0.22663500  0.89773996  1
  Cl  Cl14  1  0.77336496  0.45279199  0.10225994  1
  Cl  Cl15  1  0.45279194  0.77336499  0.10225994  1
  Cl  Cl16  1  0.28713694  0.95171899  0.78877694  1
  Cl  Cl17  1  0.95171896  0.28713700  0.78877694  1
  Cl  Cl18  1  0.67144995  0.67144999  0.40747094  1
  Cl  Cl19  1  0.87725293  0.87725299  0.94768692  1
