# generated using pymatgen
data_Li4Cu3S7
_symmetry_space_group_name_H-M   'P 1'
_cell_length_a   6.05134106
_cell_length_b   6.56623316
_cell_length_c   6.97525263
_cell_angle_alpha   73.79802704
_cell_angle_beta   77.25119781
_cell_angle_gamma   70.73340607
_symmetry_Int_Tables_number   1
_chemical_formula_structural   Li4Cu3S7
_chemical_formula_sum   'Li4 Cu3 S7'
_cell_volume   248.70311332
_cell_formula_units_Z   1
loop_
 _symmetry_equiv_pos_site_id
 _symmetry_equiv_pos_as_xyz
  1  'x, y, z'
loop_
 _atom_site_type_symbol
 _atom_site_label
 _atom_site_symmetry_multiplicity
 _atom_site_fract_x
 _atom_site_fract_y
 _atom_site_fract_z
 _atom_site_occupancy
  Li  Li0  1  0.23908601  0.20485399  0.86793600  1
  Li  Li1  1  0.76091404  0.79514597  0.13206406  1
  Li  Li2  1  0.37689102  0.35524799  0.26499202  1
  Li  Li3  1  0.62310903  0.64475197  0.73500804  1
  Cu  Cu4  1  0.00615200  0.02362700  0.22430800  1
  Cu  Cu5  1  0.99384805  0.97637296  0.77569206  1
  S  S6  1  0.34438701  0.25833399  0.53487501  1
  Cu  Cu7  1  0.65561304  0.74166597  0.46512505  1
  S  S8  1  0.42695802  0.47133298  0.80687002  1
  S  S9  1  0.57304203  0.52866698  0.19313004  1
  S  S10  1  0.90967803  0.48285498  0.81047003  1
  S  S11  1  0.09032203  0.51714498  0.18953003  1
  S  S12  1  0.47989001  0.12476200  0.13233302  1
  S  S13  1  0.52011004  0.87523797  0.86766704  1
