# generated using pymatgen
data_Cs3KSrAg2SI3O
_symmetry_space_group_name_H-M   'P 1'
_cell_length_a   6.30839872
_cell_length_b   6.30839872
_cell_length_c   7.64209461
_cell_angle_alpha   96.28775024
_cell_angle_beta   96.28775024
_cell_angle_gamma   96.65475464
_symmetry_Int_Tables_number   1
_chemical_formula_structural   Cs3KSrAg2SI3O
_chemical_formula_sum   'Cs3 K1 Sr1 Ag2 S1 I3 O1'
_cell_volume   297.94842323
_cell_formula_units_Z   1
loop_
 _symmetry_equiv_pos_site_id
 _symmetry_equiv_pos_as_xyz
  1  'x, y, z'
loop_
 _atom_site_type_symbol
 _atom_site_label
 _atom_site_symmetry_multiplicity
 _atom_site_fract_x
 _atom_site_fract_y
 _atom_site_fract_z
 _atom_site_occupancy
  Sr  Sr0  1  0.10684698  0.39488199  0.28130999  1
  Cs  Cs1  1  0.60511793  0.89315297  0.21868999  1
  Cs  Cs2  1  0.89315294  0.60511798  0.71868999  1
  K  K3  1  0.39488198  0.10684700  0.78130999  1
  Cs  Cs4  1  0.80609097  0.19390899  0.74999999  1
  Ag  Ag5  1  0.84602492  0.93530697  0.54150398  1
  Ag  Ag6  1  0.93530693  0.84602497  0.04150399  1
  O  O7  1  0.19390895  0.80609097  0.24999999  1
  I  I8  1  0.06469299  0.15397499  0.95849599  1
  S  S9  1  0.15397499  0.06469300  0.45849600  1
  I  I10  1  0.38048795  0.61951198  0.74999999  1
  I  I11  1  0.61951196  0.38048799  0.24999999  1
