# generated using pymatgen
data_CaTaMnCd4AgSnSe11
_symmetry_space_group_name_H-M   'P 1'
_cell_length_a   6.93736935
_cell_length_b   6.93736935
_cell_length_c   13.40124702
_cell_angle_alpha   94.85308838
_cell_angle_beta   94.85308838
_cell_angle_gamma   119.50730896
_symmetry_Int_Tables_number   1
_chemical_formula_structural   CaTaMnCd4AgSnSe11
_chemical_formula_sum   'Ca1 Ta1 Mn1 Cd4 Ag1 Sn1 Se11'
_cell_volume   553.33339549
_cell_formula_units_Z   1
loop_
 _symmetry_equiv_pos_site_id
 _symmetry_equiv_pos_as_xyz
  1  'x, y, z'
loop_
 _atom_site_type_symbol
 _atom_site_label
 _atom_site_symmetry_multiplicity
 _atom_site_fract_x
 _atom_site_fract_y
 _atom_site_fract_z
 _atom_site_occupancy
  Ag  Ag0  1  0.32059301  0.16023200  0.99945698  1
  Mn  Mn1  1  0.90758002  0.09242000  0.74999998  1
  Ta  Ta2  1  0.83976802  0.67940701  0.50054298  1
  Ca  Ca3  1  0.16023200  0.32059301  0.49945699  1
  Cd  Cd4  1  0.09242000  0.90758002  0.24999998  1
  Cd  Cd5  1  0.67940701  0.83976802  0.00054298  1
  Cd  Cd6  1  -0.00000000  0.50000001  -0.00000001  1
  Cd  Cd7  1  0.50000001  0.00000000  0.49999999  1
  Se  Se8  1  0.63416001  0.12207600  0.88086798  1
  Se  Se9  1  0.28476800  0.44448401  0.87900498  1
  Se  Se10  1  0.95989602  0.79942702  0.88123097  1
  Sn  Sn11  1  0.20057300  0.04010400  0.61876899  1
  Se  Se12  1  0.55551601  0.71523201  0.62099498  1
  Se  Se13  1  0.87792402  0.36584001  0.61913198  1
  Se  Se14  1  0.12207600  0.63416001  0.38086799  1
  Se  Se15  1  0.79942701  0.95989602  0.38123097  1
  Se  Se16  1  0.44448401  0.28476801  0.37900499  1
  Se  Se17  1  0.04010400  0.20057300  0.11876900  1
  Se  Se18  1  0.71523201  0.55551601  0.12099498  1
  Se  Se19  1  0.36584000  0.87792402  0.11913198  1
