# generated using pymatgen
data_Ce2Ti3O3
_symmetry_space_group_name_H-M   'P 1'
_cell_length_a   4.08725977
_cell_length_b   4.08725977
_cell_length_c   8.34064865
_cell_angle_alpha   90.00000000
_cell_angle_beta   90.00000000
_cell_angle_gamma   90.00000000
_symmetry_Int_Tables_number   1
_chemical_formula_structural   Ce2Ti3O3
_chemical_formula_sum   'Ce2 Ti3 O3'
_cell_volume   139.33631097
_cell_formula_units_Z   1
loop_
 _symmetry_equiv_pos_site_id
 _symmetry_equiv_pos_as_xyz
  1  'x, y, z'
loop_
 _atom_site_type_symbol
 _atom_site_label
 _atom_site_symmetry_multiplicity
 _atom_site_fract_x
 _atom_site_fract_y
 _atom_site_fract_z
 _atom_site_occupancy
  Ce  Ce0  1  0.00000000  0.50000003  0.14146101  1
  Ce  Ce1  1  0.50000003  0.00000000  0.85853904  1
  Ti  Ti2  1  0.00000000  0.50000003  0.59471102  1
  Ti  Ti3  1  0.50000003  0.00000000  0.40528902  1
  Ti  Ti4  1  0.00000000  0.00000000  0.50000002  1
  O  O5  1  0.50000003  0.50000003  0.50000002  1
  O  O6  1  0.00000000  0.50000003  0.83815804  1
  O  O7  1  0.50000003  0.00000000  0.16184201  1
