# generated using pymatgen
data_Li4Cu4SO11
_symmetry_space_group_name_H-M   'P 1'
_cell_length_a   5.17637777
_cell_length_b   5.37965584
_cell_length_c   7.40977383
_cell_angle_alpha   90.00000000
_cell_angle_beta   90.00000000
_cell_angle_gamma   90.00000000
_symmetry_Int_Tables_number   1
_chemical_formula_structural   Li4Cu4SO11
_chemical_formula_sum   'Li4 Cu4 S1 O11'
_cell_volume   206.34094175
_cell_formula_units_Z   1
loop_
 _symmetry_equiv_pos_site_id
 _symmetry_equiv_pos_as_xyz
  1  'x, y, z'
loop_
 _atom_site_type_symbol
 _atom_site_label
 _atom_site_symmetry_multiplicity
 _atom_site_fract_x
 _atom_site_fract_y
 _atom_site_fract_z
 _atom_site_occupancy
  Li  Li0  1  0.01546700  0.94071603  0.75000002  1
  Li  Li1  1  0.48453302  0.44071601  0.75000002  1
  Li  Li2  1  0.51546702  0.55928402  0.25000001  1
  Li  Li3  1  0.98453304  0.05928400  0.25000001  1
  Cu  Cu4  1  0.00000000  0.50000002  -0.00000000  1
  Cu  Cu5  1  0.00000000  0.50000002  0.50000001  1
  Cu  Cu6  1  0.50000002  0.00000000  0.00000000  1
  Cu  Cu7  1  0.50000002  0.00000000  0.50000001  1
  S  S8  1  0.09397200  0.47267901  0.25000001  1
  O  O9  1  0.20300301  0.20391601  0.54919001  1
  O  O10  1  0.20300301  0.20391601  0.95081002  1
  O  O11  1  0.29699701  0.70391602  0.95081002  1
  O  O12  1  0.29699701  0.70391602  0.54919001  1
  O  O13  1  0.40602802  0.97267903  0.25000001  1
  O  O14  1  0.59397203  0.02732100  0.75000002  1
  O  O15  1  0.70300303  0.29608401  0.04919000  1
  O  O16  1  0.70300303  0.29608401  0.45081001  1
  O  O17  1  0.79699703  0.79608402  0.04919000  1
  O  O18  1  0.79699703  0.79608402  0.45081001  1
  O  O19  1  0.90602804  0.52732102  0.75000002  1
