# generated using pymatgen
data_KNa7F8
_symmetry_space_group_name_H-M   'P 1'
_cell_length_a   5.80147839
_cell_length_b   5.81288624
_cell_length_c   6.12945700
_cell_angle_alpha   90.00000000
_cell_angle_beta   90.00000000
_cell_angle_gamma   102.60418701
_symmetry_Int_Tables_number   1
_chemical_formula_structural   KNa7F8
_chemical_formula_sum   'K1 Na7 F8'
_cell_volume   201.72428588
_cell_formula_units_Z   1
loop_
 _symmetry_equiv_pos_site_id
 _symmetry_equiv_pos_as_xyz
  1  'x, y, z'
loop_
 _atom_site_type_symbol
 _atom_site_label
 _atom_site_symmetry_multiplicity
 _atom_site_fract_x
 _atom_site_fract_y
 _atom_site_fract_z
 _atom_site_occupancy
  Na  Na0  1  0.81690898  0.33425000  0.35954500  1
  Na  Na1  1  0.68309098  0.66575000  0.85954500  1
  K  K2  1  0.18309098  0.66575000  0.64045500  1
  Na  Na3  1  0.31690899  0.33425000  0.14045500  1
  Na  Na4  1  0.80317098  0.20244500  0.92888800  1
  Na  Na5  1  0.69682897  0.79755501  0.42888800  1
  Na  Na6  1  0.19682898  0.79755501  0.07111200  1
  Na  Na7  1  0.30317099  0.20244500  0.57111200  1
  F  F8  1  0.51499299  0.08604900  0.23951200  1
  F  F9  1  0.98500697  0.91395101  0.73951200  1
  F  F10  1  0.48500697  0.91395101  0.76048800  1
  F  F11  1  0.01499300  0.08604900  0.26048800  1
  F  F12  1  0.79586898  0.57086300  0.13278300  1
  F  F13  1  0.70413098  0.42913700  0.63278300  1
  F  F14  1  0.20413099  0.42913700  0.86721700  1
  F  F15  1  0.29586898  0.57086300  0.36721700  1
