# generated using pymatgen
data_CsRb2BaCuAgI12
_symmetry_space_group_name_H-M   'P 1'
_cell_length_a   7.75894594
_cell_length_b   7.75894594
_cell_length_c   12.04298115
_cell_angle_alpha   90.00000000
_cell_angle_beta   90.00000000
_cell_angle_gamma   90.00000000
_symmetry_Int_Tables_number   1
_chemical_formula_structural   CsRb2BaCuAgI12
_chemical_formula_sum   'Cs1 Rb2 Ba1 Cu1 Ag1 I12'
_cell_volume   725.00242404
_cell_formula_units_Z   1
loop_
 _symmetry_equiv_pos_site_id
 _symmetry_equiv_pos_as_xyz
  1  'x, y, z'
loop_
 _atom_site_type_symbol
 _atom_site_label
 _atom_site_symmetry_multiplicity
 _atom_site_fract_x
 _atom_site_fract_y
 _atom_site_fract_z
 _atom_site_occupancy
  Ba  Ba0  1  0.50000000  0.00000000  0.74999999  1
  Rb  Rb1  1  0.00000000  0.50000000  0.74999999  1
  Rb  Rb2  1  0.50000000  0.00000000  0.25000000  1
  Cs  Cs3  1  0.00000000  0.50000000  0.25000000  1
  Cu  Cu4  1  0.50000000  0.50000000  0.49999999  1
  Ag  Ag5  1  0.00000000  0.00000000  0.00000000  1
  I  I6  1  0.70844101  0.19420600  -0.00000000  1
  I  I7  1  0.69420601  0.20844100  0.49999999  1
  I  I8  1  0.30579400  0.79155901  0.49999999  1
  I  I9  1  0.29155900  0.80579401  0.00000000  1
  I  I10  1  0.79155901  0.69420601  0.49999999  1
  I  I11  1  0.20844100  0.30579400  0.49999999  1
  I  I12  1  0.00000000  0.00000000  0.22510700  1
  I  I13  1  0.50000000  0.50000000  0.27489300  1
  I  I14  1  0.00000000  0.00000000  0.77489299  1
  I  I15  1  0.50000000  0.50000000  0.72510699  1
  I  I16  1  0.80579401  0.70844101  0.00000000  1
  I  I17  1  0.19420600  0.29155900  -0.00000000  1
