# generated using pymatgen
data_SrLiCu
_symmetry_space_group_name_H-M   'P 1'
_cell_length_a   4.32497549
_cell_length_b   4.32497549
_cell_length_c   6.44257069
_cell_angle_alpha   70.38755798
_cell_angle_beta   70.38755798
_cell_angle_gamma   60.00000381
_symmetry_Int_Tables_number   1
_chemical_formula_structural   SrLiCu
_chemical_formula_sum   'Sr1 Li1 Cu1'
_cell_volume   96.20782126
_cell_formula_units_Z   1
loop_
 _symmetry_equiv_pos_site_id
 _symmetry_equiv_pos_as_xyz
  1  'x, y, z'
loop_
 _atom_site_type_symbol
 _atom_site_label
 _atom_site_symmetry_multiplicity
 _atom_site_fract_x
 _atom_site_fract_y
 _atom_site_fract_z
 _atom_site_occupancy
  Cu  Cu0  1  0.26180101  0.26180102  0.21459698  1
  Sr  Sr1  1  0.73819904  0.73819904  0.78540294  1
  Li  Li2  1  0.00000000  0.00000000  0.00000000  1
