# generated using pymatgen
data_BeHF2
_symmetry_space_group_name_H-M   'P 1'
_cell_length_a   2.88272786
_cell_length_b   2.88272786
_cell_length_c   4.65430498
_cell_angle_alpha   71.95980835
_cell_angle_beta   71.95980835
_cell_angle_gamma   59.99999237
_symmetry_Int_Tables_number   1
_chemical_formula_structural   BeHF2
_chemical_formula_sum   'Be1 H1 F2'
_cell_volume   31.28115441
_cell_formula_units_Z   1
loop_
 _symmetry_equiv_pos_site_id
 _symmetry_equiv_pos_as_xyz
  1  'x, y, z'
loop_
 _atom_site_type_symbol
 _atom_site_label
 _atom_site_symmetry_multiplicity
 _atom_site_fract_x
 _atom_site_fract_y
 _atom_site_fract_z
 _atom_site_occupancy
  Be  Be0  1  0.00000000  0.00000000  0.00000000  1
  H  H1  1  0.49999998  0.49999997  0.50000004  1
  F  F2  1  0.40732398  0.40732398  0.77802805  1
  F  F3  1  0.59267597  0.59267597  0.22197204  1
