# generated using pymatgen
data_Al2Cu4MoO7
_symmetry_space_group_name_H-M   'P 1'
_cell_length_a   5.99526930
_cell_length_b   5.99526405
_cell_length_c   5.99526548
_cell_angle_alpha   90.01183319
_cell_angle_beta   119.99332428
_cell_angle_gamma   119.99301910
_symmetry_Int_Tables_number   1
_chemical_formula_structural   Al2Cu4MoO7
_chemical_formula_sum   'Al2 Cu4 Mo1 O7'
_cell_volume   152.38956248
_cell_formula_units_Z   1
loop_
 _symmetry_equiv_pos_site_id
 _symmetry_equiv_pos_as_xyz
  1  'x, y, z'
loop_
 _atom_site_type_symbol
 _atom_site_label
 _atom_site_symmetry_multiplicity
 _atom_site_fract_x
 _atom_site_fract_y
 _atom_site_fract_z
 _atom_site_occupancy
  Al  Al0  1  0.74999995  0.87499897  0.12499999  1
  Cu  Cu1  1  0.24999999  0.12500000  0.87500099  1
  Al  Al2  1  0.49999899  0.00000000  0.49999801  1
  Cu  Cu3  1  0.99999896  0.49999698  0.49999801  1
  Cu  Cu4  1  0.00000098  0.50000198  0.00000298  1
  Cu  Cu5  1  0.50000097  0.50000298  0.50000099  1
  O  O6  1  0.47719896  0.73840898  0.26121098  1
  Mo  Mo7  1  0.97719795  0.71598698  0.73878899  1
  O  O8  1  0.52279998  0.26121099  0.28401100  1
  O  O9  1  0.97719997  0.26121099  0.73841201  1
  O  O10  1  0.47719996  0.73878798  0.71598897  1
  O  O11  1  0.02279997  0.73878798  0.26158897  1
  O  O12  1  0.52280098  0.26158999  0.73878899  1
  O  O13  1  0.02280099  0.28401199  0.26121098  1
