# generated using pymatgen
data_Ba3SrI8
_symmetry_space_group_name_H-M   'P 1'
_cell_length_a   7.22051001
_cell_length_b   8.27598858
_cell_length_c   8.27598858
_cell_angle_alpha   108.81451416
_cell_angle_beta   90.00000000
_cell_angle_gamma   90.00000000
_symmetry_Int_Tables_number   1
_chemical_formula_structural   Ba3SrI8
_chemical_formula_sum   'Ba3 Sr1 I8'
_cell_volume   468.12223665
_cell_formula_units_Z   1
loop_
 _symmetry_equiv_pos_site_id
 _symmetry_equiv_pos_as_xyz
  1  'x, y, z'
loop_
 _atom_site_type_symbol
 _atom_site_label
 _atom_site_symmetry_multiplicity
 _atom_site_fract_x
 _atom_site_fract_y
 _atom_site_fract_z
 _atom_site_occupancy
  Sr  Sr0  1  0.75000000  0.81875704  0.50653405  1
  Ba  Ba1  1  0.25000000  0.18124301  0.49346603  1
  Ba  Ba2  1  0.25000000  0.49346603  0.18124302  1
  Ba  Ba3  1  0.75000000  0.50653403  0.81875705  1
  I  I4  1  0.75000000  0.08182800  0.08182801  1
  I  I5  1  0.25000000  0.91817205  0.91817207  1
  I  I6  1  0.25000000  0.65848904  0.65848905  1
  I  I7  1  0.75000000  0.34151102  0.34151102  1
  I  I8  1  0.50000000  0.13532001  0.86468004  1
  I  I9  1  -0.00000000  0.13532001  0.86468004  1
  I  I10  1  0.50000000  0.86468005  0.13532003  1
  I  I11  1  -0.00000000  0.86468005  0.13532003  1
