# generated using pymatgen
data_RbWBr2ClO15
_symmetry_space_group_name_H-M   'P 1'
_cell_length_a   7.38139868
_cell_length_b   7.38139868
_cell_length_c   7.38139868
_cell_angle_alpha   108.40325165
_cell_angle_beta   108.40325165
_cell_angle_gamma   111.62895203
_symmetry_Int_Tables_number   1
_chemical_formula_structural   RbWBr2ClO15
_chemical_formula_sum   'Rb1 W1 Br2 Cl1 O15'
_cell_volume   309.26440159
_cell_formula_units_Z   1
loop_
 _symmetry_equiv_pos_site_id
 _symmetry_equiv_pos_as_xyz
  1  'x, y, z'
loop_
 _atom_site_type_symbol
 _atom_site_label
 _atom_site_symmetry_multiplicity
 _atom_site_fract_x
 _atom_site_fract_y
 _atom_site_fract_z
 _atom_site_occupancy
  Rb  Rb0  1  0.17133610  0.95355706  0.54201309  1
  W  W1  1  0.95355705  0.41154402  0.78222107  1
  Br  Br2  1  0.62932302  0.17133601  0.21777904  1
  Br  Br3  1  0.41154407  0.62932304  0.45798707  1
  Cl  Cl4  1  0.57359206  0.57359203  0.00000007  1
  O  O5  1  0.99325311  0.99325306  1.00000012  1
  O  O6  1  0.76115503  0.26115502  0.50000005  1
  O  O7  1  0.26115508  0.76115504  0.50000007  1
  O  O8  1  0.03184309  0.91261605  0.67591708  1
  O  O9  1  0.91261703  0.23670001  0.88077405  1
  O  O10  1  0.35592600  0.03184300  0.11922602  1
  O  O11  1  0.23670004  0.35592702  0.32408304  1
  O  O12  1  0.52236607  0.70148804  0.31654408  1
  O  O13  1  0.70148804  0.38494502  0.17912206  1
  O  O14  1  0.20582206  0.52236503  0.82087705  1
  O  O15  1  0.38494502  0.20582301  0.68345703  1
  O  O16  1  0.60938908  0.70575704  0.69980708  1
  O  O17  1  0.70575700  0.00595100  0.09636803  1
  O  O18  1  0.90958207  0.60938804  0.90363108  1
  O  O19  1  0.00595109  0.90958305  0.30019408  1
