# generated using pymatgen
data_Li4Mn3O11
_symmetry_space_group_name_H-M   'P 1'
_cell_length_a   4.69481421
_cell_length_b   5.62311220
_cell_length_c   7.75943518
_cell_angle_alpha   93.84614563
_cell_angle_beta   90.00000000
_cell_angle_gamma   90.00000000
_symmetry_Int_Tables_number   1
_chemical_formula_structural   Li4Mn3O11
_chemical_formula_sum   'Li4 Mn3 O11'
_cell_volume   204.38359488
_cell_formula_units_Z   1
loop_
 _symmetry_equiv_pos_site_id
 _symmetry_equiv_pos_as_xyz
  1  'x, y, z'
loop_
 _atom_site_type_symbol
 _atom_site_label
 _atom_site_symmetry_multiplicity
 _atom_site_fract_x
 _atom_site_fract_y
 _atom_site_fract_z
 _atom_site_occupancy
  Li  Li0  1  0.49050298  0.25187099  0.99237399  1
  Li  Li1  1  0.51322198  0.58774898  0.33208302  1
  Li  Li2  1  0.49138698  0.92323697  0.66970603  1
  Li  Li3  1  0.99138696  0.07676300  0.33029400  1
  Mn  Mn4  1  0.01322200  0.41225099  0.66791701  1
  Mn  Mn5  1  0.99050296  0.74812898  0.00762604  1
  Mn  Mn6  1  0.80497596  0.78638898  0.23379003  1
  O  O7  1  0.30497599  0.21361099  0.76620999  1
  O  O8  1  0.80314596  0.12017000  0.56517299  1
  O  O9  1  0.80468896  0.45031999  0.89777800  1
  O  O10  1  0.69410797  0.28487099  0.22634301  1
  O  O11  1  0.70008497  0.95450397  0.89840303  1
  O  O12  1  0.69788497  0.61839498  0.57088702  1
  O  O13  1  0.30314599  0.87982997  0.43482703  1
  O  O14  1  0.30468899  0.54967998  0.10222202  1
  O  O15  1  0.19410799  0.71512898  0.77365702  1
  O  O16  1  0.19788499  0.38160499  0.42911301  1
  O  O17  1  0.20008499  0.04549600  0.10159700  1
