# generated using pymatgen
data_Rb2AlTlAgS5
_symmetry_space_group_name_H-M   'P 1'
_cell_length_a   7.38355255
_cell_length_b   7.38355255
_cell_length_c   7.38355255
_cell_angle_alpha   60.00000000
_cell_angle_beta   60.00000000
_cell_angle_gamma   60.00000000
_symmetry_Int_Tables_number   1
_chemical_formula_structural   Rb2AlTlAgS5
_chemical_formula_sum   'Rb2 Al1 Tl1 Ag1 S5'
_cell_volume   284.63028845
_cell_formula_units_Z   1
loop_
 _symmetry_equiv_pos_site_id
 _symmetry_equiv_pos_as_xyz
  1  'x, y, z'
loop_
 _atom_site_type_symbol
 _atom_site_label
 _atom_site_symmetry_multiplicity
 _atom_site_fract_x
 _atom_site_fract_y
 _atom_site_fract_z
 _atom_site_occupancy
  Rb  Rb0  1  0.25000000  0.25000000  0.25000000  1
  Rb  Rb1  1  0.74999999  0.74999999  0.74999999  1
  Al  Al2  1  0.00000000  0.00000000  0.00000000  1
  Tl  Tl3  1  0.49999999  0.49999999  0.49999999  1
  S  S4  1  0.18433600  0.81566399  0.18433600  1
  Ag  Ag5  1  0.18433600  0.18433600  0.81566399  1
  S  S6  1  0.81566399  0.18433600  0.81566399  1
  S  S7  1  0.18433600  0.81566399  0.81566399  1
  S  S8  1  0.81566399  0.18433600  0.18433600  1
  S  S9  1  0.81566399  0.81566399  0.18433600  1
