# generated using pymatgen
data_Na3As
_symmetry_space_group_name_H-M   'P 1'
_cell_length_a   4.54058981
_cell_length_b   4.54059076
_cell_length_c   7.41021490
_cell_angle_alpha   90.00000000
_cell_angle_beta   90.00000000
_cell_angle_gamma   119.99999237
_symmetry_Int_Tables_number   1
_chemical_formula_structural   Na3As
_chemical_formula_sum   'Na3 As1'
_cell_volume   132.30799845
_cell_formula_units_Z   1
loop_
 _symmetry_equiv_pos_site_id
 _symmetry_equiv_pos_as_xyz
  1  'x, y, z'
loop_
 _atom_site_type_symbol
 _atom_site_label
 _atom_site_symmetry_multiplicity
 _atom_site_fract_x
 _atom_site_fract_y
 _atom_site_fract_z
 _atom_site_occupancy
  Na  Na0  1  0.66666667  0.33333331  0.51527301  1
  Na  Na1  1  0.33333331  0.66666662  0.98560101  1
  Na  Na2  1  0.33333331  0.66666662  0.37405400  1
  As  As3  1  0.66666667  0.33333331  0.87707101  1
