# generated using pymatgen
data_Cs3BaNbCuI12
_symmetry_space_group_name_H-M   'P 1'
_cell_length_a   7.80818510
_cell_length_b   7.80818510
_cell_length_c   11.60767269
_cell_angle_alpha   90.00000000
_cell_angle_beta   90.00000000
_cell_angle_gamma   90.00000000
_symmetry_Int_Tables_number   1
_chemical_formula_structural   Cs3BaNbCuI12
_chemical_formula_sum   'Cs3 Ba1 Nb1 Cu1 I12'
_cell_volume   707.69373971
_cell_formula_units_Z   1
loop_
 _symmetry_equiv_pos_site_id
 _symmetry_equiv_pos_as_xyz
  1  'x, y, z'
loop_
 _atom_site_type_symbol
 _atom_site_label
 _atom_site_symmetry_multiplicity
 _atom_site_fract_x
 _atom_site_fract_y
 _atom_site_fract_z
 _atom_site_occupancy
  Ba  Ba0  1  0.00000000  0.49999999  0.25000001  1
  Cs  Cs1  1  0.00000000  0.49999999  0.75000002  1
  Cs  Cs2  1  0.49999999  0.00000000  0.25000001  1
  Cs  Cs3  1  0.49999999  0.00000000  0.75000002  1
  Cu  Cu4  1  0.00000000  0.00000000  0.00000000  1
  Nb  Nb5  1  0.49999999  0.49999999  0.50000001  1
  I  I6  1  0.20446600  0.27893400  -0.00000000  1
  I  I7  1  0.79553399  0.72106599  -0.00000000  1
  I  I8  1  0.72106599  0.20446600  -0.00000000  1
  I  I9  1  0.29553400  0.77893399  0.50000001  1
  I  I10  1  0.27893400  0.79553399  -0.00000000  1
  I  I11  1  0.70446599  0.22106600  0.50000001  1
  I  I12  1  0.77893399  0.70446599  0.50000001  1
  I  I13  1  0.22106600  0.29553400  0.50000001  1
  I  I14  1  0.00000000  0.00000000  0.23306801  1
  I  I15  1  0.00000000  0.00000000  0.76693202  1
  I  I16  1  0.49999999  0.49999999  0.26693201  1
  I  I17  1  0.49999999  0.49999999  0.73306802  1
