# generated using pymatgen
data_CsRbCaScO6
_symmetry_space_group_name_H-M   'P 1'
_cell_length_a   5.80011797
_cell_length_b   5.89117527
_cell_length_c   5.80011797
_cell_angle_alpha   60.50999451
_cell_angle_beta   90.00000000
_cell_angle_gamma   119.49000549
_symmetry_Int_Tables_number   1
_chemical_formula_structural   CsRbCaScO6
_chemical_formula_sum   'Cs1 Rb1 Ca1 Sc1 O6'
_cell_volume   142.27260928
_cell_formula_units_Z   1
loop_
 _symmetry_equiv_pos_site_id
 _symmetry_equiv_pos_as_xyz
  1  'x, y, z'
loop_
 _atom_site_type_symbol
 _atom_site_label
 _atom_site_symmetry_multiplicity
 _atom_site_fract_x
 _atom_site_fract_y
 _atom_site_fract_z
 _atom_site_occupancy
  Cs  Cs0  1  0.75000001  0.50000000  0.75000000  1
  Rb  Rb1  1  0.25000001  0.50000000  0.25000000  1
  Ca  Ca2  1  0.50000000  0.00000000  0.50000000  1
  Sc  Sc3  1  0.00000000  0.00000000  0.00000000  1
  O  O4  1  0.24356800  0.00000000  0.24356800  1
  O  O5  1  0.75643200  0.00000000  0.75643200  1
  O  O6  1  0.24356800  0.00000000  0.75643200  1
  O  O7  1  0.75643200  0.00000000  0.24356800  1
  O  O8  1  0.26092101  0.52184200  0.73907900  1
  O  O9  1  0.73907901  0.47815800  0.26092100  1
