# generated using pymatgen
data_LiMnO3
_symmetry_space_group_name_H-M   'P 1'
_cell_length_a   5.15041208
_cell_length_b   5.23830748
_cell_length_c   9.77179432
_cell_angle_alpha   76.95131683
_cell_angle_beta   76.68638611
_cell_angle_gamma   61.86371231
_symmetry_Int_Tables_number   1
_chemical_formula_structural   LiMnO3
_chemical_formula_sum   'Li4 Mn4 O12'
_cell_volume   224.11552647
_cell_formula_units_Z   4
loop_
 _symmetry_equiv_pos_site_id
 _symmetry_equiv_pos_as_xyz
  1  'x, y, z'
loop_
 _atom_site_type_symbol
 _atom_site_label
 _atom_site_symmetry_multiplicity
 _atom_site_fract_x
 _atom_site_fract_y
 _atom_site_fract_z
 _atom_site_occupancy
  Li  Li0  1  0.39564100  0.47907101  0.70653199  1
  Li  Li1  1  0.06176900  0.08463400  0.79440801  1
  Li  Li2  1  0.93823300  0.91536202  0.20559395  1
  Li  Li3  1  0.60436000  0.52092901  0.29346897  1
  Mn  Mn4  1  0.30026200  0.33746201  0.01613098  1
  Mn  Mn5  1  0.15928300  0.15922500  0.48582400  1
  Mn  Mn6  1  0.69974500  0.66254701  0.98386498  1
  Mn  Mn7  1  0.84070500  0.84077802  0.51417796  1
  O  O8  1  0.90494899  0.13773800  0.38292398  1
  O  O9  1  0.94653499  0.59892601  0.11494596  1
  O  O10  1  0.05347000  0.40106701  0.88505100  1
  O  O11  1  0.09504901  0.86226202  0.61707698  1
  O  O12  1  0.40749700  0.15247600  0.61685099  1
  O  O13  1  0.65271999  0.09973400  0.88369899  1
  O  O14  1  0.79986199  0.49312001  0.62361497  1
  O  O15  1  0.59366399  0.30016201  0.12774398  1
  O  O16  1  0.40633600  0.69983901  0.87225398  1
  O  O17  1  0.20013400  0.50688501  0.37638699  1
  O  O18  1  0.34728401  0.90025802  0.11630097  1
  O  O19  1  0.59250300  0.84752502  0.38314996  1
