# generated using pymatgen
data_TlBr3
_symmetry_space_group_name_H-M   'P 1'
_cell_length_a   4.34737825
_cell_length_b   4.34737825
_cell_length_c   14.17643642
_cell_angle_alpha   81.17998505
_cell_angle_beta   81.17998505
_cell_angle_gamma   59.99999619
_symmetry_Int_Tables_number   1
_chemical_formula_structural   TlBr3
_chemical_formula_sum   'Tl2 Br6'
_cell_volume   228.36871794
_cell_formula_units_Z   2
loop_
 _symmetry_equiv_pos_site_id
 _symmetry_equiv_pos_as_xyz
  1  'x, y, z'
loop_
 _atom_site_type_symbol
 _atom_site_label
 _atom_site_symmetry_multiplicity
 _atom_site_fract_x
 _atom_site_fract_y
 _atom_site_fract_z
 _atom_site_occupancy
  Tl  Tl0  1  0.00000000  0.00000000  0.00000000  1
  Tl  Tl1  1  0.25386401  0.25386400  0.23840800  1
  Br  Br2  1  0.50000003  0.50000000  0.50000000  1
  Br  Br3  1  0.74613604  0.74613601  0.76159200  1
  Br  Br4  1  0.12355001  0.12355000  0.62934998  1
  Br  Br5  1  0.37008902  0.37008900  0.88973298  1
  Br  Br6  1  0.62991103  0.62991100  0.11026701  1
  Br  Br7  1  0.87645004  0.87645001  0.37065001  1
