# generated using pymatgen
data_KLi2CuO3
_symmetry_space_group_name_H-M   'P 1'
_cell_length_a   3.63717389
_cell_length_b   5.31357098
_cell_length_c   5.31357098
_cell_angle_alpha   73.86331940
_cell_angle_beta   69.98578644
_cell_angle_gamma   69.98578644
_symmetry_Int_Tables_number   1
_chemical_formula_structural   KLi2CuO3
_chemical_formula_sum   'K1 Li2 Cu1 O3'
_cell_volume   89.14670302
_cell_formula_units_Z   1
loop_
 _symmetry_equiv_pos_site_id
 _symmetry_equiv_pos_as_xyz
  1  'x, y, z'
loop_
 _atom_site_type_symbol
 _atom_site_label
 _atom_site_symmetry_multiplicity
 _atom_site_fract_x
 _atom_site_fract_y
 _atom_site_fract_z
 _atom_site_occupancy
  Cu  Cu0  1  0.00000000  0.00000000  0.00000000  1
  Li  Li1  1  0.50000002  0.50000001  0.50000002  1
  K  K2  1  0.50000002  0.79048202  0.20951802  1
  Li  Li3  1  0.50000001  0.20951800  0.79048203  1
  O  O4  1  0.26633501  0.73366502  0.73366503  1
  O  O5  1  0.73366502  0.26633501  0.26633502  1
  O  O6  1  1.00000003  0.50000001  0.50000003  1
