# generated using pymatgen
data_Li4AgF7
_symmetry_space_group_name_H-M   'P 1'
_cell_length_a   3.81314206
_cell_length_b   6.42400217
_cell_length_c   6.51563931
_cell_angle_alpha   106.86511230
_cell_angle_beta   90.00000000
_cell_angle_gamma   107.26482391
_symmetry_Int_Tables_number   1
_chemical_formula_structural   Li4AgF7
_chemical_formula_sum   'Li4 Ag1 F7'
_cell_volume   145.20933843
_cell_formula_units_Z   1
loop_
 _symmetry_equiv_pos_site_id
 _symmetry_equiv_pos_as_xyz
  1  'x, y, z'
loop_
 _atom_site_type_symbol
 _atom_site_label
 _atom_site_symmetry_multiplicity
 _atom_site_fract_x
 _atom_site_fract_y
 _atom_site_fract_z
 _atom_site_occupancy
  Li  Li0  1  0.10557000  0.21114000  0.23308200  1
  Li  Li1  1  0.89442998  0.78886000  0.76691802  1
  Li  Li2  1  0.20069099  0.40138200  0.82038500  1
  Li  Li3  1  0.79930898  0.59861800  0.17961503  1
  F  F4  1  0.64170599  0.28341200  0.20338401  1
  Ag  Ag5  1  0.35829398  0.71658800  0.79661601  1
  F  F6  1  0.05732100  0.11464200  0.86388198  1
  F  F7  1  0.94267897  0.88535800  0.13611804  1
  F  F8  1  0.85885898  0.71771800  0.47416202  1
  F  F9  1  0.14114099  0.28228200  0.52583800  1
  F  F10  1  0.73805798  0.47611600  0.85825200  1
  F  F11  1  0.26194199  0.52388400  0.14174802  1
