# generated using pymatgen
data_CsRb4HgSeI2Br3
_symmetry_space_group_name_H-M   'P 1'
_cell_length_a   8.05377007
_cell_length_b   8.05377007
_cell_length_c   8.05377007
_cell_angle_alpha   68.43770599
_cell_angle_beta   68.43770599
_cell_angle_gamma   68.43770599
_symmetry_Int_Tables_number   1
_chemical_formula_structural   CsRb4HgSeI2Br3
_chemical_formula_sum   'Cs1 Rb4 Hg1 Se1 I2 Br3'
_cell_volume   435.21359569
_cell_formula_units_Z   1
loop_
 _symmetry_equiv_pos_site_id
 _symmetry_equiv_pos_as_xyz
  1  'x, y, z'
loop_
 _atom_site_type_symbol
 _atom_site_label
 _atom_site_symmetry_multiplicity
 _atom_site_fract_x
 _atom_site_fract_y
 _atom_site_fract_z
 _atom_site_occupancy
  Hg  Hg0  1  0.04095499  0.45904501  0.74999999  1
  Rb  Rb1  1  0.75000001  0.04095500  0.45904500  1
  Rb  Rb2  1  0.45904499  0.75000002  0.04095502  1
  Rb  Rb3  1  0.95904501  0.54095501  0.25000002  1
  Cs  Cs4  1  0.24999999  0.95904502  0.54095501  1
  Rb  Rb5  1  0.54095501  0.25000001  0.95904499  1
  I  I6  1  0.50000000  0.50000001  0.50000001  1
  I  I7  1  0.00000000  0.00000000  0.00000000  1
  Br  Br8  1  0.36605500  0.36605501  0.36605501  1
  Br  Br9  1  0.13394500  0.13394500  0.13394500  1
  Se  Se10  1  0.86605500  0.86605502  0.86605501  1
  Br  Br11  1  0.63394500  0.63394502  0.63394501  1
