# generated using pymatgen
data_Na
_symmetry_space_group_name_H-M   'P 1'
_cell_length_a   4.45703793
_cell_length_b   4.45703793
_cell_length_c   7.24037504
_cell_angle_alpha   90.00000000
_cell_angle_beta   90.00000000
_cell_angle_gamma   120.00000000
_symmetry_Int_Tables_number   1
_chemical_formula_structural   Na
_chemical_formula_sum   Na5
_cell_volume   124.56165031
_cell_formula_units_Z   5
loop_
 _symmetry_equiv_pos_site_id
 _symmetry_equiv_pos_as_xyz
  1  'x, y, z'
loop_
 _atom_site_type_symbol
 _atom_site_label
 _atom_site_symmetry_multiplicity
 _atom_site_fract_x
 _atom_site_fract_y
 _atom_site_fract_z
 _atom_site_occupancy
  Na  Na0  1  0.00000000  0.00000000  0.00000000  1
  Na  Na1  1  0.66666667  0.33333333  0.36597500  1
  Na  Na2  1  0.33333333  0.66666665  0.63402500  1
  Na  Na3  1  0.66666667  0.33333333  0.76465900  1
  Na  Na4  1  0.33333333  0.66666665  0.23534100  1
