# generated using pymatgen
data_MnAl3GaCu2AsSe7
_symmetry_space_group_name_H-M   'P 1'
_cell_length_a   5.88228989
_cell_length_b   5.88228989
_cell_length_c   11.08495235
_cell_angle_alpha   90.00000000
_cell_angle_beta   90.00000000
_cell_angle_gamma   90.00000000
_symmetry_Int_Tables_number   1
_chemical_formula_structural   MnAl3GaCu2AsSe7
_chemical_formula_sum   'Mn1 Al3 Ga1 Cu2 As1 Se7'
_cell_volume   383.55414221
_cell_formula_units_Z   1
loop_
 _symmetry_equiv_pos_site_id
 _symmetry_equiv_pos_as_xyz
  1  'x, y, z'
loop_
 _atom_site_type_symbol
 _atom_site_label
 _atom_site_symmetry_multiplicity
 _atom_site_fract_x
 _atom_site_fract_y
 _atom_site_fract_z
 _atom_site_occupancy
  Al  Al0  1  0.50000001  0.00000000  0.26613499  1
  Mn  Mn1  1  0.00000000  0.50000001  0.73386498  1
  Al  Al2  1  0.50000001  0.50000001  -0.00000000  1
  Al  Al3  1  0.00000000  0.50000001  0.26407699  1
  Cu  Cu4  1  0.50000001  0.00000000  0.73592298  1
  Ga  Ga5  1  0.00000000  0.00000000  0.00000000  1
  Cu  Cu6  1  0.00000000  0.00000000  0.49999998  1
  As  As7  1  0.77328501  0.26011601  0.39824899  1
  Se  Se8  1  0.25065300  0.77809902  0.86743997  1
  Se  Se9  1  0.22671500  0.73988401  0.39824899  1
  Se  Se10  1  0.74934701  0.22190100  0.86743997  1
  Se  Se11  1  0.22190100  0.25065300  0.13256000  1
  Se  Se12  1  0.73988401  0.77328501  0.60175098  1
  Se  Se13  1  0.77809902  0.74934701  0.13256000  1
  Se  Se14  1  0.26011601  0.22671500  0.60175098  1
