# generated using pymatgen
data_BaLaBi4(SbP)2
_symmetry_space_group_name_H-M   'P 1'
_cell_length_a   7.23424339
_cell_length_b   7.26192331
_cell_length_c   7.27745867
_cell_angle_alpha   103.52891541
_cell_angle_beta   103.61392975
_cell_angle_gamma   104.85327148
_symmetry_Int_Tables_number   1
_chemical_formula_structural   BaLaBi4(SbP)2
_chemical_formula_sum   'Ba1 La1 Bi4 Sb2 P2'
_cell_volume   341.08403770
_cell_formula_units_Z   1
loop_
 _symmetry_equiv_pos_site_id
 _symmetry_equiv_pos_as_xyz
  1  'x, y, z'
loop_
 _atom_site_type_symbol
 _atom_site_label
 _atom_site_symmetry_multiplicity
 _atom_site_fract_x
 _atom_site_fract_y
 _atom_site_fract_z
 _atom_site_occupancy
  Ba  Ba0  1  0.00000000  0.00000000  0.49999999  1
  La  La1  1  0.50000000  0.00000000  0.99999999  1
  Bi  Bi2  1  0.00000000  0.50000001  -0.00000001  1
  Sb  Sb3  1  0.00000000  0.00000000  0.00000000  1
  Bi  Bi4  1  0.95094300  0.22805900  0.22716002  1
  Bi  Bi5  1  0.04905701  0.77194101  0.77283997  1
  Bi  Bi6  1  0.22139801  0.93069701  0.21824698  1
  Sb  Sb7  1  0.77860200  0.06930300  0.78175300  1
  P  P8  1  0.22749100  0.21878100  0.93250298  1
  P  P9  1  0.77250901  0.78121901  0.06749700  1
