# generated using pymatgen
data_BiSb2S
_symmetry_space_group_name_H-M   'P 1'
_cell_length_a   5.23739100
_cell_length_b   5.81735182
_cell_length_c   6.38638878
_cell_angle_alpha   90.00000000
_cell_angle_beta   90.00000000
_cell_angle_gamma   90.00000000
_symmetry_Int_Tables_number   1
_chemical_formula_structural   BiSb2S
_chemical_formula_sum   'Bi2 Sb4 S2'
_cell_volume   194.57887134
_cell_formula_units_Z   2
loop_
 _symmetry_equiv_pos_site_id
 _symmetry_equiv_pos_as_xyz
  1  'x, y, z'
loop_
 _atom_site_type_symbol
 _atom_site_label
 _atom_site_symmetry_multiplicity
 _atom_site_fract_x
 _atom_site_fract_y
 _atom_site_fract_z
 _atom_site_occupancy
  Bi  Bi0  1  0.25000000  0.50217302  0.24223301  1
  Sb  Sb1  1  0.75000000  0.49782702  0.75776703  1
  Sb  Sb2  1  0.25000000  0.00217300  0.75776703  1
  Sb  Sb3  1  0.75000000  0.99782703  0.24223301  1
  S  S4  1  0.25000000  0.57640902  0.85737703  1
  Bi  Bi5  1  0.75000000  0.42359101  0.14262300  1
  S  S6  1  0.25000000  0.07640900  0.14262300  1
  Sb  Sb7  1  0.75000000  0.92359103  0.85737703  1
