# generated using pymatgen
data_Sr7B5OsS2N3O2
_symmetry_space_group_name_H-M   'P 1'
_cell_length_a   6.31177711
_cell_length_b   6.32258511
_cell_length_c   8.93302059
_cell_angle_alpha   90.00000000
_cell_angle_beta   90.00000000
_cell_angle_gamma   90.00000000
_symmetry_Int_Tables_number   1
_chemical_formula_structural   Sr7B5OsS2N3O2
_chemical_formula_sum   'Sr7 B5 Os1 S2 N3 O2'
_cell_volume   356.48780144
_cell_formula_units_Z   1
loop_
 _symmetry_equiv_pos_site_id
 _symmetry_equiv_pos_as_xyz
  1  'x, y, z'
loop_
 _atom_site_type_symbol
 _atom_site_label
 _atom_site_symmetry_multiplicity
 _atom_site_fract_x
 _atom_site_fract_y
 _atom_site_fract_z
 _atom_site_occupancy
  B  B0  1  0.50340299  0.51642199  0.25000001  1
  Sr  Sr1  1  0.99659698  0.01642200  0.25000001  1
  Sr  Sr2  1  0.49659699  0.48357799  0.75000003  1
  Sr  Sr3  1  0.00340300  0.98357798  0.75000003  1
  Sr  Sr4  1  0.00000000  0.49999999  -0.00000000  1
  Sr  Sr5  1  0.49999999  0.00000000  0.50000002  1
  Sr  Sr6  1  0.00000000  0.49999999  0.50000002  1
  Sr  Sr7  1  0.49999999  0.00000000  0.00000000  1
  O  O8  1  0.05630300  0.48603299  0.25000001  1
  Os  Os9  1  0.44369699  0.98603298  0.25000001  1
  N  N10  1  0.94369698  0.51396699  0.75000003  1
  N  N11  1  0.55630299  0.01396700  0.75000003  1
  B  B12  1  0.27831899  0.72186599  0.97039804  1
  B  B13  1  0.22168100  0.22186600  0.52960202  1
  O  O14  1  0.72168099  0.27813400  0.47039802  1
  S  S15  1  0.77831899  0.77813399  0.02960200  1
  N  N16  1  0.72168099  0.27813400  0.02960200  1
  S  S17  1  0.77831899  0.77813399  0.47039802  1
  B  B18  1  0.27831899  0.72186599  0.52960202  1
  B  B19  1  0.22168100  0.22186600  0.97039804  1
