# generated using pymatgen
data_Na4P(HO2)5
_symmetry_space_group_name_H-M   'P 1'
_cell_length_a   5.43196344
_cell_length_b   5.52898169
_cell_length_c   7.60347557
_cell_angle_alpha   108.45345306
_cell_angle_beta   110.28523254
_cell_angle_gamma   93.82520294
_symmetry_Int_Tables_number   1
_chemical_formula_structural   Na4P(HO2)5
_chemical_formula_sum   'Na4 P1 H5 O10'
_cell_volume   199.14459316
_cell_formula_units_Z   1
loop_
 _symmetry_equiv_pos_site_id
 _symmetry_equiv_pos_as_xyz
  1  'x, y, z'
loop_
 _atom_site_type_symbol
 _atom_site_label
 _atom_site_symmetry_multiplicity
 _atom_site_fract_x
 _atom_site_fract_y
 _atom_site_fract_z
 _atom_site_occupancy
  Na  Na0  1  0.51380899  0.13737400  0.84281301  1
  Na  Na1  1  0.76995097  0.39332501  0.69993502  1
  Na  Na2  1  0.22950398  0.60601801  0.29939701  1
  Na  Na3  1  0.48701596  0.86304002  0.15793602  1
  H  H4  1  0.00034300  0.00033800  0.50028100  1
  P  P5  1  0.00004997  0.99974102  0.99981100  1
  H  H6  1  0.67148397  0.37589701  0.24308102  1
  H  H7  1  0.32834797  0.62427601  0.75693701  1
  H  H8  1  0.31495899  0.09470800  0.36592601  1
  H  H9  1  0.68521196  0.90505102  0.63387503  1
  O  O10  1  0.82619298  0.05760200  0.72744002  1
  O  O11  1  0.73651698  0.24195301  0.40323902  1
  O  O12  1  0.35285898  0.33675801  0.66206301  1
  O  O13  1  0.39464298  0.22706500  0.07456301  1
  O  O14  1  0.88423697  0.35854601  0.14913903  1
  O  O15  1  0.11505798  0.64102701  0.85035301  1
  O  O16  1  0.60479196  0.77379902  0.92582802  1
  O  O17  1  0.64772597  0.66349401  0.33830903  1
  O  O18  1  0.26344997  0.75778102  0.59660701  1
  O  O19  1  0.17385097  0.94220302  0.27247201  1
