# generated using pymatgen
data_V2O5
_symmetry_space_group_name_H-M   'P 1'
_cell_length_a   5.16521835
_cell_length_b   5.16521835
_cell_length_c   7.26165438
_cell_angle_alpha   109.02767181
_cell_angle_beta   109.02767181
_cell_angle_gamma   90.54785919
_symmetry_Int_Tables_number   1
_chemical_formula_structural   V2O5
_chemical_formula_sum   'V4 O10'
_cell_volume   171.68344419
_cell_formula_units_Z   2
loop_
 _symmetry_equiv_pos_site_id
 _symmetry_equiv_pos_as_xyz
  1  'x, y, z'
loop_
 _atom_site_type_symbol
 _atom_site_label
 _atom_site_symmetry_multiplicity
 _atom_site_fract_x
 _atom_site_fract_y
 _atom_site_fract_z
 _atom_site_occupancy
  V  V0  1  0.50000002  0.00000000  0.50000001  1
  V  V1  1  0.00000004  0.50000003  0.00000002  1
  V  V2  1  0.61770706  0.38229302  0.25000003  1
  V  V3  1  0.38229307  0.61770704  0.75000003  1
  O  O4  1  0.67403209  0.66590004  0.42293405  1
  O  O5  1  0.33410004  0.32596802  0.07706602  1
  O  O6  1  0.32596804  0.33410002  0.57706602  1
  O  O7  1  0.66590009  0.67403204  0.92293404  1
  O  O8  1  0.85042807  0.35607102  0.15464304  1
  O  O9  1  0.64392904  0.14957201  0.34535702  1
  O  O10  1  0.14957206  0.64392904  0.84535703  1
  O  O11  1  0.35607109  0.85042805  0.65464304  1
  O  O12  1  0.83170905  0.16829101  0.75000002  1
  O  O13  1  0.16829108  0.83170905  0.25000004  1
