# generated using pymatgen
data_La3NdO8
_symmetry_space_group_name_H-M   'P 1'
_cell_length_a   3.77327991
_cell_length_b   5.96069002
_cell_length_c   7.29936218
_cell_angle_alpha   90.00000000
_cell_angle_beta   90.00000000
_cell_angle_gamma   90.00000000
_symmetry_Int_Tables_number   1
_chemical_formula_structural   La3NdO8
_chemical_formula_sum   'La3 Nd1 O8'
_cell_volume   164.17252335
_cell_formula_units_Z   1
loop_
 _symmetry_equiv_pos_site_id
 _symmetry_equiv_pos_as_xyz
  1  'x, y, z'
loop_
 _atom_site_type_symbol
 _atom_site_label
 _atom_site_symmetry_multiplicity
 _atom_site_fract_x
 _atom_site_fract_y
 _atom_site_fract_z
 _atom_site_occupancy
  Nd  Nd0  1  0.25000001  0.75836200  0.89310998  1
  La  La1  1  0.25000001  0.25836200  0.60688998  1
  La  La2  1  0.75000002  0.24163800  0.10689000  1
  La  La3  1  0.75000002  0.74163800  0.39310999  1
  O  O4  1  0.25000001  0.35944100  0.91970398  1
  O  O5  1  0.25000001  0.85944100  0.58029599  1
  O  O6  1  0.75000002  0.64055900  0.08029600  1
  O  O7  1  0.75000002  0.14055900  0.41970399  1
  O  O8  1  0.25000001  0.98676900  0.16375700  1
  O  O9  1  0.25000001  0.48676900  0.33624299  1
  O  O10  1  0.75000002  0.01323100  0.83624298  1
  O  O11  1  0.75000002  0.51323100  0.66375698  1
