# generated using pymatgen
data_Li3MnSe4
_symmetry_space_group_name_H-M   'P 1'
_cell_length_a   5.85166407
_cell_length_b   5.85166407
_cell_length_c   6.89543152
_cell_angle_alpha   115.10728455
_cell_angle_beta   115.10728455
_cell_angle_gamma   90.00000000
_symmetry_Int_Tables_number   1
_chemical_formula_structural   Li3MnSe4
_chemical_formula_sum   'Li3 Mn1 Se4'
_cell_volume   188.87789611
_cell_formula_units_Z   1
loop_
 _symmetry_equiv_pos_site_id
 _symmetry_equiv_pos_as_xyz
  1  'x, y, z'
loop_
 _atom_site_type_symbol
 _atom_site_label
 _atom_site_symmetry_multiplicity
 _atom_site_fract_x
 _atom_site_fract_y
 _atom_site_fract_z
 _atom_site_occupancy
  Li  Li0  1  0.49999999  0.49999999  -0.00000000  1
  Li  Li1  1  0.74999999  0.25000000  0.50000000  1
  Li  Li2  1  0.24999999  0.74999999  0.50000000  1
  Mn  Mn3  1  0.00000000  0.00000000  0.00000000  1
  Se  Se4  1  0.63308999  0.14104100  0.73660301  1
  Se  Se5  1  0.10351400  0.59556299  0.73660401  1
  Se  Se6  1  0.85895898  0.89648599  0.26339600  1
  Se  Se7  1  0.40443799  0.36691099  0.26339700  1
