# generated using pymatgen
data_Al4Si3O11
_symmetry_space_group_name_H-M   'P 1'
_cell_length_a   5.11197376
_cell_length_b   5.11197376
_cell_length_c   11.64506626
_cell_angle_alpha   90.00000000
_cell_angle_beta   90.00000000
_cell_angle_gamma   120.00000000
_symmetry_Int_Tables_number   1
_chemical_formula_structural   Al4Si3O11
_chemical_formula_sum   'Al4 Si3 O11'
_cell_volume   263.54199425
_cell_formula_units_Z   1
loop_
 _symmetry_equiv_pos_site_id
 _symmetry_equiv_pos_as_xyz
  1  'x, y, z'
loop_
 _atom_site_type_symbol
 _atom_site_label
 _atom_site_symmetry_multiplicity
 _atom_site_fract_x
 _atom_site_fract_y
 _atom_site_fract_z
 _atom_site_occupancy
  Al  Al0  1  0.54515100  0.54515098  0.66666665  1
  Al  Al1  1  -0.00000002  0.45484899  0.33333333  1
  Al  Al2  1  0.45484902  0.00000000  -0.00000000  1
  Al  Al3  1  0.54594400  0.54594398  0.16666700  1
  Si  Si4  1  -0.00000002  0.45405599  0.83333298  1
  Si  Si5  1  0.45405602  0.00000000  0.49999999  1
  Si  Si6  1  0.70752203  0.10692600  0.87290498  1
  O  O7  1  0.39940401  0.29247799  0.53957199  1
  O  O8  1  0.89307402  0.60059598  0.20623800  1
  O  O9  1  0.10692598  0.70752198  0.46042799  1
  O  O10  1  0.29247800  0.39940399  0.79376198  1
  O  O11  1  0.60059599  0.89307397  0.12709500  1
  O  O12  1  0.60297799  0.91443097  0.61679299  1
  O  O13  1  0.31145300  0.39702199  0.28345999  1
  O  O14  1  0.08556898  0.68854698  0.95012598  1
  O  O15  1  0.91443102  0.60297798  0.71653998  1
  O  O16  1  0.39702201  0.31145299  0.04987400  1
  O  O17  1  0.68854703  0.08556900  0.38320699  1
