# generated using pymatgen
data_Sr2CaDyCdS9
_symmetry_space_group_name_H-M   'P 1'
_cell_length_a   4.30626392
_cell_length_b   4.30771303
_cell_length_c   12.82165337
_cell_angle_alpha   90.00000000
_cell_angle_beta   90.00000000
_cell_angle_gamma   90.00000000
_symmetry_Int_Tables_number   1
_chemical_formula_structural   Sr2CaDyCdS9
_chemical_formula_sum   'Sr2 Ca1 Dy1 Cd1 S9'
_cell_volume   237.84358322
_cell_formula_units_Z   1
loop_
 _symmetry_equiv_pos_site_id
 _symmetry_equiv_pos_as_xyz
  1  'x, y, z'
loop_
 _atom_site_type_symbol
 _atom_site_label
 _atom_site_symmetry_multiplicity
 _atom_site_fract_x
 _atom_site_fract_y
 _atom_site_fract_z
 _atom_site_occupancy
  Sr  Sr0  1  0.00000000  0.48653500  0.24999999  1
  Sr  Sr1  1  0.00000000  0.51346500  0.74999998  1
  Dy  Dy2  1  0.00000000  0.99059799  0.10651300  1
  Ca  Ca3  1  0.00000000  0.00940200  0.60651298  1
  Cd  Cd4  1  0.00000000  0.00940200  0.89348697  1
  S  S5  1  0.00000000  0.99059799  0.39348699  1
  S  S6  1  0.50000001  0.50997000  0.89359897  1
  S  S7  1  0.50000001  0.49003000  0.10640100  1
  S  S8  1  0.50000001  0.50997000  0.60640098  1
  S  S9  1  0.50000001  0.49003000  0.39359899  1
  S  S10  1  0.50000001  0.99029799  0.24999999  1
  S  S11  1  0.50000001  0.00970200  0.74999998  1
  S  S12  1  0.00000000  0.50000000  -0.00000000  1
  S  S13  1  0.00000000  0.50000000  0.49999999  1
