# generated using pymatgen
data_Rb3NbTlBiO8
_symmetry_space_group_name_H-M   'P 1'
_cell_length_a   6.07384586
_cell_length_b   6.07384586
_cell_length_c   7.87208509
_cell_angle_alpha   90.00000000
_cell_angle_beta   90.00000000
_cell_angle_gamma   120.00000000
_symmetry_Int_Tables_number   1
_chemical_formula_structural   Rb3NbTlBiO8
_chemical_formula_sum   'Rb3 Nb1 Tl1 Bi1 O8'
_cell_volume   251.50576529
_cell_formula_units_Z   1
loop_
 _symmetry_equiv_pos_site_id
 _symmetry_equiv_pos_as_xyz
  1  'x, y, z'
loop_
 _atom_site_type_symbol
 _atom_site_label
 _atom_site_symmetry_multiplicity
 _atom_site_fract_x
 _atom_site_fract_y
 _atom_site_fract_z
 _atom_site_occupancy
  Rb  Rb0  1  0.66666668  0.33333335  0.31133300  1
  Rb  Rb1  1  0.33333335  0.66666669  0.68866699  1
  Rb  Rb2  1  0.00000000  0.00000000  0.00000000  1
  Tl  Tl3  1  0.00000000  0.00000000  0.49999999  1
  Bi  Bi4  1  0.66666668  0.33333335  0.74815599  1
  Nb  Nb5  1  0.33333335  0.66666669  0.25184400  1
  O  O6  1  0.66666668  0.33333335  0.96148499  1
  O  O7  1  0.33333335  0.66666669  0.03851500  1
  O  O8  1  0.82500802  0.65001602  0.67007199  1
  O  O9  1  0.17499201  0.34998401  0.32992800  1
  O  O10  1  0.82500802  0.17499201  0.67007199  1
  O  O11  1  0.17499201  0.82500803  0.32992800  1
  O  O12  1  0.34998401  0.17499201  0.67007199  1
  O  O13  1  0.65001602  0.82500803  0.32992800  1
