# generated using pymatgen
data_Li4AgS3
_symmetry_space_group_name_H-M   'P 1'
_cell_length_a   3.93736911
_cell_length_b   3.93736911
_cell_length_c   9.68703747
_cell_angle_alpha   90.00000000
_cell_angle_beta   90.00000000
_cell_angle_gamma   90.00000000
_symmetry_Int_Tables_number   1
_chemical_formula_structural   Li4AgS3
_chemical_formula_sum   'Li4 Ag1 S3'
_cell_volume   150.17693577
_cell_formula_units_Z   1
loop_
 _symmetry_equiv_pos_site_id
 _symmetry_equiv_pos_as_xyz
  1  'x, y, z'
loop_
 _atom_site_type_symbol
 _atom_site_label
 _atom_site_symmetry_multiplicity
 _atom_site_fract_x
 _atom_site_fract_y
 _atom_site_fract_z
 _atom_site_occupancy
  Li  Li0  1  0.00000000  0.00000000  0.00000000  1
  Li  Li1  1  0.49999999  0.49999999  0.25646199  1
  Li  Li2  1  0.49999999  0.49999999  0.74353796  1
  Li  Li3  1  0.00000000  0.00000000  0.49999998  1
  S  S4  1  0.00000000  0.49999999  0.14152399  1
  Ag  Ag5  1  0.49999999  0.00000000  0.85847596  1
  S  S6  1  0.00000000  0.49999999  0.85847596  1
  S  S7  1  0.49999999  0.00000000  0.14152399  1
