# generated using pymatgen
data_Rb4TlGe3S4
_symmetry_space_group_name_H-M   'P 1'
_cell_length_a   5.31486320
_cell_length_b   6.29872417
_cell_length_c   10.71625328
_cell_angle_alpha   90.00000000
_cell_angle_beta   90.00000000
_cell_angle_gamma   90.00000000
_symmetry_Int_Tables_number   1
_chemical_formula_structural   Rb4TlGe3S4
_chemical_formula_sum   'Rb4 Tl1 Ge3 S4'
_cell_volume   358.74648244
_cell_formula_units_Z   1
loop_
 _symmetry_equiv_pos_site_id
 _symmetry_equiv_pos_as_xyz
  1  'x, y, z'
loop_
 _atom_site_type_symbol
 _atom_site_label
 _atom_site_symmetry_multiplicity
 _atom_site_fract_x
 _atom_site_fract_y
 _atom_site_fract_z
 _atom_site_occupancy
  Rb  Rb0  1  0.74999997  0.52328299  0.84600498  1
  Rb  Rb1  1  0.24999999  0.02328300  0.65399498  1
  Rb  Rb2  1  0.74999997  0.97671697  0.34600499  1
  Rb  Rb3  1  0.24999999  0.47671699  0.15399500  1
  Tl  Tl4  1  0.49999998  0.00000000  -0.00000000  1
  Ge  Ge5  1  0.49999998  0.49999999  0.49999999  1
  Ge  Ge6  1  0.00000000  0.49999999  0.49999999  1
  Ge  Ge7  1  0.00000000  0.00000000  0.00000000  1
  S  S8  1  0.74999997  0.22375399  0.08893500  1
  S  S9  1  0.74999997  0.27624599  0.58893498  1
  S  S10  1  0.24999999  0.77624598  0.91106498  1
  S  S11  1  0.24999999  0.72375398  0.41106499  1
