# generated using pymatgen
data_BaTaGa2CuS6
_symmetry_space_group_name_H-M   'P 1'
_cell_length_a   4.41487408
_cell_length_b   4.41487408
_cell_length_c   11.34688663
_cell_angle_alpha   101.21792603
_cell_angle_beta   101.21792603
_cell_angle_gamma   90.00000000
_symmetry_Int_Tables_number   1
_chemical_formula_structural   BaTaGa2CuS6
_chemical_formula_sum   'Ba1 Ta1 Ga2 Cu1 S6'
_cell_volume   212.62854801
_cell_formula_units_Z   1
loop_
 _symmetry_equiv_pos_site_id
 _symmetry_equiv_pos_as_xyz
  1  'x, y, z'
loop_
 _atom_site_type_symbol
 _atom_site_label
 _atom_site_symmetry_multiplicity
 _atom_site_fract_x
 _atom_site_fract_y
 _atom_site_fract_z
 _atom_site_occupancy
  Ba  Ba0  1  0.68314901  0.68314900  0.36629803  1
  Ta  Ta1  1  0.50000001  0.50000000  0.00000002  1
  Ga  Ga2  1  0.31685100  0.31685100  0.63370202  1
  Ga  Ga3  1  0.89833101  0.89833099  0.79666204  1
  Cu  Cu4  1  0.10166900  0.10166900  0.20333800  1
  S  S5  1  0.08281401  0.58281400  0.16562801  1
  S  S6  1  0.41718601  0.91718599  0.83437203  1
  S  S7  1  0.80059101  0.80059099  0.60118203  1
  S  S8  1  0.19940900  0.19940900  0.39881801  1
  S  S9  1  0.91718600  0.41718600  0.83437203  1
  S  S10  1  0.58281400  0.08281400  0.16562801  1
