# generated using pymatgen
data_Na2Mg2Zn2As2(SeN)3
_symmetry_space_group_name_H-M   'P 1'
_cell_length_a   6.62601089
_cell_length_b   6.83817482
_cell_length_c   7.10478640
_cell_angle_alpha   90.00000000
_cell_angle_beta   62.82352066
_cell_angle_gamma   90.00000000
_symmetry_Int_Tables_number   1
_chemical_formula_structural   Na2Mg2Zn2As2(SeN)3
_chemical_formula_sum   'Na2 Mg2 Zn2 As2 Se3 N3'
_cell_volume   286.37827563
_cell_formula_units_Z   1
loop_
 _symmetry_equiv_pos_site_id
 _symmetry_equiv_pos_as_xyz
  1  'x, y, z'
loop_
 _atom_site_type_symbol
 _atom_site_label
 _atom_site_symmetry_multiplicity
 _atom_site_fract_x
 _atom_site_fract_y
 _atom_site_fract_z
 _atom_site_occupancy
  Na  Na0  1  0.82747900  0.35269801  0.91662504  1
  Na  Na1  1  0.17252100  0.64730202  0.08337501  1
  Mg  Mg2  1  0.17252100  0.85269802  0.58337501  1
  Mg  Mg3  1  0.82747900  0.14730200  0.41662503  1
  Zn  Zn4  1  0.33651200  0.12077000  0.92252802  1
  Zn  Zn5  1  0.66348800  0.87923002  0.07747202  1
  As  As6  1  0.66348800  0.62077002  0.57747203  1
  As  As7  1  0.33651200  0.37923001  0.42252802  1
  Se  Se8  1  0.38932100  0.38189901  0.71792702  1
  N  N9  1  0.61067900  0.61810102  0.28207302  1
  Se  Se10  1  0.61067900  0.88189902  0.78207303  1
  Se  Se11  1  0.38932100  0.11810100  0.21792701  1
  N  N12  1  0.00000000  0.00000000  0.00000000  1
  N  N13  1  -0.00000000  0.50000001  0.50000001  1
