# generated using pymatgen
data_VAg(PS3)2
_symmetry_space_group_name_H-M   'P 1'
_cell_length_a   5.10977077
_cell_length_b   5.83587313
_cell_length_c   5.86552286
_cell_angle_alpha   69.18991852
_cell_angle_beta   64.21154022
_cell_angle_gamma   86.24580383
_symmetry_Int_Tables_number   1
_chemical_formula_structural   VAg(PS3)2
_chemical_formula_sum   'V1 Ag1 P2 S6'
_cell_volume   146.38878139
_cell_formula_units_Z   1
loop_
 _symmetry_equiv_pos_site_id
 _symmetry_equiv_pos_as_xyz
  1  'x, y, z'
loop_
 _atom_site_type_symbol
 _atom_site_label
 _atom_site_symmetry_multiplicity
 _atom_site_fract_x
 _atom_site_fract_y
 _atom_site_fract_z
 _atom_site_occupancy
  V  V0  1  0.99837109  0.27596100  0.21532494  1
  P  P1  1  0.00162905  0.72403899  0.78467501  1
  P  P2  1  0.55706109  0.80314399  0.04502295  1
  Ag  Ag3  1  0.44293905  0.19685600  0.95497699  1
  S  S4  1  0.55061006  0.30483800  0.51025097  1
  S  S5  1  0.44939008  0.69516199  0.48974897  1
  S  S6  1  0.87368209  0.33125100  0.88023896  1
  S  S7  1  0.12631805  0.66874899  0.11976098  1
  S  S8  1  0.11889202  0.15103800  0.57774500  1
  S  S9  1  0.88110812  0.84896199  0.42225494  1
