# generated using pymatgen
data_Cs2BBrCl5
_symmetry_space_group_name_H-M   'P 1'
_cell_length_a   7.08954191
_cell_length_b   7.08954191
_cell_length_c   7.08954191
_cell_angle_alpha   60.00000000
_cell_angle_beta   60.00000000
_cell_angle_gamma   60.00000000
_symmetry_Int_Tables_number   1
_chemical_formula_structural   Cs2BBrCl5
_chemical_formula_sum   'Cs2 B1 Br1 Cl5'
_cell_volume   251.96459807
_cell_formula_units_Z   1
loop_
 _symmetry_equiv_pos_site_id
 _symmetry_equiv_pos_as_xyz
  1  'x, y, z'
loop_
 _atom_site_type_symbol
 _atom_site_label
 _atom_site_symmetry_multiplicity
 _atom_site_fract_x
 _atom_site_fract_y
 _atom_site_fract_z
 _atom_site_occupancy
  Cs  Cs0  1  0.74999998  0.74999998  0.74999998  1
  Cs  Cs1  1  0.24999999  0.24999999  0.24999999  1
  B  B2  1  0.00000000  0.00000000  0.00000000  1
  Br  Br3  1  0.76471397  0.23528599  0.23528599  1
  Cl  Cl4  1  0.23528599  0.23528599  0.76471397  1
  Cl  Cl5  1  0.76471397  0.76471397  0.23528599  1
  Cl  Cl6  1  0.23528599  0.76471397  0.76471397  1
  Cl  Cl7  1  0.76471397  0.23528599  0.76471397  1
  Cl  Cl8  1  0.23528599  0.76471397  0.23528599  1
