# generated using pymatgen
data_BN
_symmetry_space_group_name_H-M   'P 1'
_cell_length_a   4.58571005
_cell_length_b   4.72681665
_cell_length_c   4.58571005
_cell_angle_alpha   119.01731110
_cell_angle_beta   90.00000000
_cell_angle_gamma   119.01731110
_symmetry_Int_Tables_number   1
_chemical_formula_structural   BN
_chemical_formula_sum   'B3 N3'
_cell_volume   72.32303831
_cell_formula_units_Z   3
loop_
 _symmetry_equiv_pos_site_id
 _symmetry_equiv_pos_as_xyz
  1  'x, y, z'
loop_
 _atom_site_type_symbol
 _atom_site_label
 _atom_site_symmetry_multiplicity
 _atom_site_fract_x
 _atom_site_fract_y
 _atom_site_fract_z
 _atom_site_occupancy
  B  B0  1  0.75000002  0.50000001  0.25000002  1
  B  B1  1  0.00000000  0.00000000  0.00000000  1
  B  B2  1  0.71162003  0.73334202  0.14380204  1
  N  N3  1  0.41046001  0.26665701  0.28837901  1
  N  N4  1  0.02172204  0.73334302  0.58954003  1
  N  N5  1  0.85619700  0.26665801  0.97827800  1
