# generated using pymatgen
data_SrCa(CuO4)2
_symmetry_space_group_name_H-M   'P 1'
_cell_length_a   5.32885599
_cell_length_b   5.32885599
_cell_length_c   6.93707609
_cell_angle_alpha   112.58695984
_cell_angle_beta   112.58695984
_cell_angle_gamma   90.00000000
_symmetry_Int_Tables_number   1
_chemical_formula_structural   SrCa(CuO4)2
_chemical_formula_sum   'Sr1 Ca1 Cu2 O8'
_cell_volume   165.39629548
_cell_formula_units_Z   1
loop_
 _symmetry_equiv_pos_site_id
 _symmetry_equiv_pos_as_xyz
  1  'x, y, z'
loop_
 _atom_site_type_symbol
 _atom_site_label
 _atom_site_symmetry_multiplicity
 _atom_site_fract_x
 _atom_site_fract_y
 _atom_site_fract_z
 _atom_site_occupancy
  Sr  Sr0  1  0.75000002  0.25000001  0.50000004  1
  Ca  Ca1  1  0.50000003  0.50000001  0.00000004  1
  Cu  Cu2  1  0.00000000  0.00000000  0.00000000  1
  Cu  Cu3  1  0.25000003  0.75000002  0.50000004  1
  O  O4  1  0.48094303  0.59437901  0.67254505  1
  O  O5  1  0.19160201  0.07816600  0.67254501  1
  O  O6  1  0.92183404  0.51905601  0.32745405  1
  O  O7  1  0.40562104  0.80839902  0.32745605  1
  O  O8  1  0.32465701  0.23796801  0.16469602  1
  O  O9  1  0.84003905  0.92672802  0.16469607  1
  O  O10  1  0.07327203  0.67534302  0.83530404  1
  O  O11  1  0.76203202  0.15996100  0.83530404  1
