# generated using pymatgen
data_LiCu2S5
_symmetry_space_group_name_H-M   'P 1'
_cell_length_a   5.86418676
_cell_length_b   7.19049311
_cell_length_c   7.95103455
_cell_angle_alpha   108.06172180
_cell_angle_beta   97.09474182
_cell_angle_gamma   105.81044006
_symmetry_Int_Tables_number   1
_chemical_formula_structural   LiCu2S5
_chemical_formula_sum   'Li2 Cu4 S10'
_cell_volume   298.65468555
_cell_formula_units_Z   2
loop_
 _symmetry_equiv_pos_site_id
 _symmetry_equiv_pos_as_xyz
  1  'x, y, z'
loop_
 _atom_site_type_symbol
 _atom_site_label
 _atom_site_symmetry_multiplicity
 _atom_site_fract_x
 _atom_site_fract_y
 _atom_site_fract_z
 _atom_site_occupancy
  Cu  Cu0  1  0.67451904  0.52098401  0.98359405  1
  Cu  Cu1  1  0.00239802  0.99455502  0.00192002  1
  Li  Li2  1  0.59780603  0.20383500  0.20395003  1
  Li  Li3  1  0.19709402  0.39798601  0.39743302  1
  Cu  Cu4  1  0.79486205  0.59753401  0.60564705  1
  Cu  Cu5  1  0.40090404  0.79366301  0.80078004  1
  S  S6  1  0.23212101  0.04651000  0.30491301  1
  S  S7  1  0.05208302  0.64093001  0.90603602  1
  S  S8  1  0.83067005  0.24594300  0.50197805  1
  S  S9  1  0.63187305  0.85555801  0.11600205  1
  S  S10  1  0.41434603  0.42565501  0.69170003  1
  S  S11  1  0.90130706  0.55949501  0.29814406  1
  S  S12  1  0.70249704  0.15425300  0.89547104  1
  S  S13  1  0.50122804  0.75408501  0.50024704  1
  S  S14  1  0.30099702  0.35615701  0.09450202  1
  S  S15  1  0.09809503  0.95045602  0.69928303  1
