# generated using pymatgen
data_NaLi(PO3)2
_symmetry_space_group_name_H-M   'P 1'
_cell_length_a   4.62064934
_cell_length_b   4.62064934
_cell_length_c   5.49785948
_cell_angle_alpha   65.15135193
_cell_angle_beta   65.15135193
_cell_angle_gamma   60.00001144
_symmetry_Int_Tables_number   1
_chemical_formula_structural   NaLi(PO3)2
_chemical_formula_sum   'Na1 Li1 P2 O6'
_cell_volume   88.88601246
_cell_formula_units_Z   1
loop_
 _symmetry_equiv_pos_site_id
 _symmetry_equiv_pos_as_xyz
  1  'x, y, z'
loop_
 _atom_site_type_symbol
 _atom_site_label
 _atom_site_symmetry_multiplicity
 _atom_site_fract_x
 _atom_site_fract_y
 _atom_site_fract_z
 _atom_site_occupancy
  Na  Na0  1  0.50000001  0.49999999  0.49999997  1
  Li  Li1  1  0.00000000  0.00000000  0.00000000  1
  P  P2  1  0.25000001  0.24999999  0.24999998  1
  P  P3  1  0.75000002  0.74999998  0.74999995  1
  O  O4  1  0.54964302  0.95035698  0.24999993  1
  O  O5  1  0.95035700  0.24999999  0.24999995  1
  O  O6  1  0.25000001  0.54964299  0.24999997  1
  O  O7  1  0.04964302  0.74999998  0.74999998  1
  O  O8  1  0.75000001  0.45035699  0.74999997  1
  O  O9  1  0.45035700  0.04964300  0.75000000  1
