# generated using pymatgen
data_La2YBi4Sb(Se2S)4
_symmetry_space_group_name_H-M   'P 1'
_cell_length_a   6.96032715
_cell_length_b   7.26362085
_cell_length_c   10.20192337
_cell_angle_alpha   90.00000000
_cell_angle_beta   90.51860046
_cell_angle_gamma   90.00000000
_symmetry_Int_Tables_number   1
_chemical_formula_structural   La2YBi4Sb(Se2S)4
_chemical_formula_sum   'La2 Y1 Bi4 Sb1 Se8 S4'
_cell_volume   515.75932217
_cell_formula_units_Z   1
loop_
 _symmetry_equiv_pos_site_id
 _symmetry_equiv_pos_as_xyz
  1  'x, y, z'
loop_
 _atom_site_type_symbol
 _atom_site_label
 _atom_site_symmetry_multiplicity
 _atom_site_fract_x
 _atom_site_fract_y
 _atom_site_fract_z
 _atom_site_occupancy
  Bi  Bi0  1  0.00000000  0.00000000  0.49999998  1
  Bi  Bi1  1  0.50000001  0.50000001  -0.00000000  1
  Y  Y2  1  0.98567802  0.55819801  0.25832198  1
  La  La3  1  0.01432200  0.44180201  0.74167797  1
  La  La4  1  0.51432201  0.05819800  0.24167799  1
  Bi  Bi5  1  0.48567801  0.94180202  0.75832197  1
  Sb  Sb6  1  0.00000000  0.00000000  0.00000000  1
  Bi  Bi7  1  0.50000001  0.50000001  0.49999998  1
  Se  Se8  1  0.83080702  0.29873401  0.07625799  1
  Se  Se9  1  0.16919300  0.70126601  0.92374196  1
  Se  Se10  1  0.66919302  0.79873402  0.42374198  1
  Se  Se11  1  0.33080701  0.20126600  0.57625798  1
  Se  Se12  1  0.13010600  0.93584002  0.23593399  1
  Se  Se13  1  0.86989402  0.06416000  0.76406596  1
  S  S14  1  0.36989401  0.43584001  0.26406599  1
  S  S15  1  0.63010602  0.56416001  0.73593397  1
  S  S16  1  0.69360102  0.82111602  0.06056199  1
  S  S17  1  0.30639901  0.17888400  0.93943796  1
  Se  Se18  1  0.80639902  0.32111601  0.43943798  1
  Se  Se19  1  0.19360100  0.67888401  0.56056198  1
