# generated using pymatgen
data_Al5PN4
_symmetry_space_group_name_H-M   'P 1'
_cell_length_a   2.84837794
_cell_length_b   2.84837818
_cell_length_c   9.76500034
_cell_angle_alpha   90.00000000
_cell_angle_beta   90.00000000
_cell_angle_gamma   120.00000000
_symmetry_Int_Tables_number   1
_chemical_formula_structural   Al5PN4
_chemical_formula_sum   'Al5 P1 N4'
_cell_volume   68.61169669
_cell_formula_units_Z   1
loop_
 _symmetry_equiv_pos_site_id
 _symmetry_equiv_pos_as_xyz
  1  'x, y, z'
loop_
 _atom_site_type_symbol
 _atom_site_label
 _atom_site_symmetry_multiplicity
 _atom_site_fract_x
 _atom_site_fract_y
 _atom_site_fract_z
 _atom_site_occupancy
  Al  Al0  1  0.66666670  0.33333335  0.92170297  1
  Al  Al1  1  0.33333338  0.66666670  0.42170299  1
  Al  Al2  1  0.33333338  0.66666670  0.07829700  1
  Al  Al3  1  0.66666670  0.33333335  0.57829698  1
  Al  Al4  1  0.00000000  0.00000000  0.74999997  1
  P  P5  1  0.00000000  0.00000000  0.24999999  1
  N  N6  1  0.00000000  0.00000000  0.00000000  1
  N  N7  1  0.00000000  0.00000000  0.49999998  1
  N  N8  1  0.66666670  0.33333335  0.74999997  1
  N  N9  1  0.33333338  0.66666670  0.24999999  1
