# generated using pymatgen
data_Cs2SrTl2Br8Cl
_symmetry_space_group_name_H-M   'P 1'
_cell_length_a   7.51445913
_cell_length_b   8.04405975
_cell_length_c   9.36347198
_cell_angle_alpha   91.57138062
_cell_angle_beta   102.75868988
_cell_angle_gamma   94.76176453
_symmetry_Int_Tables_number   1
_chemical_formula_structural   Cs2SrTl2Br8Cl
_chemical_formula_sum   'Cs2 Sr1 Tl2 Br8 Cl1'
_cell_volume   549.50133481
_cell_formula_units_Z   1
loop_
 _symmetry_equiv_pos_site_id
 _symmetry_equiv_pos_as_xyz
  1  'x, y, z'
loop_
 _atom_site_type_symbol
 _atom_site_label
 _atom_site_symmetry_multiplicity
 _atom_site_fract_x
 _atom_site_fract_y
 _atom_site_fract_z
 _atom_site_occupancy
  Sr  Sr0  1  0.28746100  0.08481301  0.61283600  1
  Cs  Cs1  1  0.71253901  0.91518705  0.38716398  1
  Cs  Cs2  1  0.88406900  0.54728203  0.80192299  1
  Tl  Tl3  1  0.11593101  0.45271803  0.19807698  1
  Tl  Tl4  1  0.78179700  0.35886902  0.01151901  1
  Cl  Cl5  1  0.21820301  0.64113104  0.98848097  1
  Br  Br6  1  0.54230900  0.58926203  0.31117599  1
  Br  Br7  1  0.45769100  0.41073802  0.68882399  1
  Br  Br8  1  0.79104201  0.92944805  0.11861598  1
  Br  Br9  1  0.20895800  0.07055200  0.88138399  1
  Br  Br10  1  0.61794401  0.93381606  0.69729497  1
  Br  Br11  1  0.38205600  0.06618400  0.30270500  1
  Br  Br12  1  0.05295801  0.75679404  0.54026196  1
  Br  Br13  1  0.94704199  0.24320601  0.45973801  1
