# generated using pymatgen
data_GaCu2Te(SeS2)4
_symmetry_space_group_name_H-M   'P 1'
_cell_length_a   6.46486378
_cell_length_b   6.90565395
_cell_length_c   7.85241508
_cell_angle_alpha   90.00000000
_cell_angle_beta   90.00000000
_cell_angle_gamma   90.00000000
_symmetry_Int_Tables_number   1
_chemical_formula_structural   GaCu2Te(SeS2)4
_chemical_formula_sum   'Ga1 Cu2 Te1 Se4 S8'
_cell_volume   350.56409932
_cell_formula_units_Z   1
loop_
 _symmetry_equiv_pos_site_id
 _symmetry_equiv_pos_as_xyz
  1  'x, y, z'
loop_
 _atom_site_type_symbol
 _atom_site_label
 _atom_site_symmetry_multiplicity
 _atom_site_fract_x
 _atom_site_fract_y
 _atom_site_fract_z
 _atom_site_occupancy
  Te  Te0  1  0.62419702  0.66937200  0.25451600  1
  Cu  Cu1  1  0.62419702  0.66937200  0.74548399  1
  Cu  Cu2  1  0.12419700  0.33062800  0.24548400  1
  Ga  Ga3  1  0.12419700  0.33062800  0.75451599  1
  Se  Se4  1  0.12769200  0.85226001  0.49999999  1
  Se  Se5  1  0.62769202  0.14774000  0.00000000  1
  Se  Se6  1  0.12460800  0.82575601  -0.00000000  1
  Se  Se7  1  0.62460802  0.17424400  0.49999999  1
  S  S8  1  0.72676803  0.86428901  0.49999999  1
  S  S9  1  0.22676801  0.13571100  -0.00000000  1
  S  S10  1  0.24662101  0.66683900  0.22867200  1
  S  S11  1  0.24662101  0.66683900  0.77132799  1
  S  S12  1  0.74662103  0.33316100  0.27132800  1
  S  S13  1  0.74662103  0.33316100  0.72867199  1
  S  S14  1  0.77816703  0.80495801  -0.00000000  1
  S  S15  1  0.27816701  0.19504200  0.49999999  1
