# generated using pymatgen
data_Li2O2
_symmetry_space_group_name_H-M   'P 1'
_cell_length_a   4.91130877
_cell_length_b   5.00120544
_cell_length_c   5.19529867
_cell_angle_alpha   101.19015503
_cell_angle_beta   102.90686035
_cell_angle_gamma   116.27442169
_symmetry_Int_Tables_number   1
_chemical_formula_structural   Li2O2
_chemical_formula_sum   'Li6 O6'
_cell_volume   105.08305427
_cell_formula_units_Z   3
loop_
 _symmetry_equiv_pos_site_id
 _symmetry_equiv_pos_as_xyz
  1  'x, y, z'
loop_
 _atom_site_type_symbol
 _atom_site_label
 _atom_site_symmetry_multiplicity
 _atom_site_fract_x
 _atom_site_fract_y
 _atom_site_fract_z
 _atom_site_occupancy
  Li  Li0  1  0.83333304  0.16659600  0.50000203  1
  Li  Li1  1  0.33333332  0.66670700  0.99998898  1
  Li  Li2  1  0.16184097  0.82335099  0.50719699  1
  Li  Li3  1  0.50492401  0.51003000  0.49285601  1
  Li  Li4  1  0.67012402  0.34619600  0.99076700  1
  Li  Li5  1  0.99648501  0.98709899  0.00920606  1
  O  O6  1  0.03459699  0.38018900  0.22814299  1
  O  O7  1  0.63200899  0.95312999  0.77184301  1
  O  O8  1  0.37947302  0.08213800  0.22699701  1
  O  O9  1  0.75156201  0.72989100  0.22917104  1
  O  O10  1  0.91515803  0.60343100  0.77089003  1
  O  O11  1  0.28711201  0.25124200  0.77293899  1
