# generated using pymatgen
data_LiMn4VCr2O11
_symmetry_space_group_name_H-M   'P 1'
_cell_length_a   4.99065018
_cell_length_b   4.99140930
_cell_length_c   10.01822281
_cell_angle_alpha   90.50587463
_cell_angle_beta   97.97861481
_cell_angle_gamma   117.46732330
_symmetry_Int_Tables_number   1
_chemical_formula_structural   LiMn4VCr2O11
_chemical_formula_sum   'Li1 Mn4 V1 Cr2 O11'
_cell_volume   218.52769411
_cell_formula_units_Z   1
loop_
 _symmetry_equiv_pos_site_id
 _symmetry_equiv_pos_as_xyz
  1  'x, y, z'
loop_
 _atom_site_type_symbol
 _atom_site_label
 _atom_site_symmetry_multiplicity
 _atom_site_fract_x
 _atom_site_fract_y
 _atom_site_fract_z
 _atom_site_occupancy
  V  V0  1  0.45673499  0.49237402  0.98271600  1
  Li  Li1  1  0.77722298  0.89786803  0.52396801  1
  Mn  Mn2  1  0.12693700  0.90242503  0.97523500  1
  Mn  Mn3  1  0.55763998  0.11520500  0.23544501  1
  Mn  Mn4  1  0.75197598  0.49213202  0.72287101  1
  Mn  Mn5  1  0.19278300  0.46748202  0.26376200  1
  Cr  Cr6  1  0.42751799  0.84022903  0.77611701  1
  Cr  Cr7  1  0.94730997  0.20141101  0.35816101  1
  O  O8  1  0.89209897  0.45960702  0.15200701  1
  O  O9  1  0.67596998  0.13458300  0.65096700  1
  O  O10  1  0.27265999  0.21387701  0.14405500  1
  O  O11  1  0.47468098  0.16964001  0.86413300  1
  O  O12  1  0.73365798  0.78091103  0.86732101  1
  O  O13  1  0.51057499  0.83766003  0.12535801  1
  O  O14  1  0.44973999  0.54446802  0.63984501  1
  O  O15  1  0.34683599  0.84925503  0.35263501  1
  O  O16  1  0.13420900  0.56798002  0.86290500  1
  O  O17  1  0.04436000  0.75939903  0.64227800  1
  O  O18  1  0.58285198  0.48108302  0.35969201  1
