# generated using pymatgen
data_Cs2Cu4O7
_symmetry_space_group_name_H-M   'P 1'
_cell_length_a   5.78785419
_cell_length_b   5.78785372
_cell_length_c   9.11824131
_cell_angle_alpha   90.00000000
_cell_angle_beta   90.00000000
_cell_angle_gamma   120.00000000
_symmetry_Int_Tables_number   1
_chemical_formula_structural   Cs2Cu4O7
_chemical_formula_sum   'Cs2 Cu4 O7'
_cell_volume   264.53116304
_cell_formula_units_Z   1
loop_
 _symmetry_equiv_pos_site_id
 _symmetry_equiv_pos_as_xyz
  1  'x, y, z'
loop_
 _atom_site_type_symbol
 _atom_site_label
 _atom_site_symmetry_multiplicity
 _atom_site_fract_x
 _atom_site_fract_y
 _atom_site_fract_z
 _atom_site_occupancy
  Cs  Cs0  1  0.66666662  0.33333331  0.40253599  1
  Cs  Cs1  1  0.33333328  0.66666662  0.59746398  1
  Cu  Cu2  1  0.00000000  0.00000000  0.81051897  1
  Cu  Cu3  1  0.00000000  0.00000000  0.18948099  1
  Cu  Cu4  1  0.66666662  0.33333331  0.85296097  1
  Cu  Cu5  1  0.33333328  0.66666662  0.14703899  1
  O  O6  1  0.66739193  0.83369594  0.26334099  1
  O  O7  1  0.83369593  0.66739195  0.73665897  1
  O  O8  1  0.16630397  0.33260798  0.26334099  1
  O  O9  1  0.33260798  0.16630399  0.73665897  1
  O  O10  1  0.00000000  0.00000000  0.00000000  1
  O  O11  1  0.83369596  0.16630399  0.73665897  1
  O  O12  1  0.16630394  0.83369594  0.26334099  1
