# generated using pymatgen
data_BaMgZnSb3(AsP2)2
_symmetry_space_group_name_H-M   'P 1'
_cell_length_a   5.39098215
_cell_length_b   7.68498993
_cell_length_c   7.68499041
_cell_angle_alpha   120.00000000
_cell_angle_beta   90.00000000
_cell_angle_gamma   90.00000000
_symmetry_Int_Tables_number   1
_chemical_formula_structural   BaMgZnSb3(AsP2)2
_chemical_formula_sum   'Ba1 Mg1 Zn1 Sb3 As2 P4'
_cell_volume   275.73072199
_cell_formula_units_Z   1
loop_
 _symmetry_equiv_pos_site_id
 _symmetry_equiv_pos_as_xyz
  1  'x, y, z'
loop_
 _atom_site_type_symbol
 _atom_site_label
 _atom_site_symmetry_multiplicity
 _atom_site_fract_x
 _atom_site_fract_y
 _atom_site_fract_z
 _atom_site_occupancy
  Ba  Ba0  1  0.00000000  0.68953202  0.68953202  1
  Mg  Mg1  1  0.00000000  0.31046801  0.00000001  1
  Zn  Zn2  1  0.00000000  0.00000000  0.31046800  1
  Sb  Sb3  1  0.49999999  0.35598601  0.35598601  1
  Sb  Sb4  1  0.49999999  0.64401402  0.00000002  1
  Sb  Sb5  1  0.49999999  0.00000000  0.64401400  1
  P  P6  1  0.69822898  0.00000000  -0.00000000  1
  P  P7  1  0.30177099  0.00000000  -0.00000000  1
  As  As8  1  0.80024298  0.66666668  0.33333335  1
  As  As9  1  0.19975699  0.66666668  0.33333335  1
  P  P10  1  0.19975699  0.33333334  0.66666667  1
  P  P11  1  0.80024298  0.33333334  0.66666667  1
