# generated using pymatgen
data_RbCuO2
_symmetry_space_group_name_H-M   'P 1'
_cell_length_a   5.44911718
_cell_length_b   5.44911718
_cell_length_c   5.44911718
_cell_angle_alpha   96.97453308
_cell_angle_beta   96.97453308
_cell_angle_gamma   96.97454071
_symmetry_Int_Tables_number   1
_chemical_formula_structural   RbCuO2
_chemical_formula_sum   'Rb2 Cu2 O4'
_cell_volume   157.88433494
_cell_formula_units_Z   2
loop_
 _symmetry_equiv_pos_site_id
 _symmetry_equiv_pos_as_xyz
  1  'x, y, z'
loop_
 _atom_site_type_symbol
 _atom_site_label
 _atom_site_symmetry_multiplicity
 _atom_site_fract_x
 _atom_site_fract_y
 _atom_site_fract_z
 _atom_site_occupancy
  Rb  Rb0  1  0.50000003  0.50000000  0.50000003  1
  Rb  Rb1  1  0.00000000  0.00000000  0.00000000  1
  O  O2  1  0.75535204  0.75535199  0.08216902  1
  Cu  Cu3  1  0.75535199  0.08216900  0.75535204  1
  Cu  Cu4  1  0.24464806  0.91783099  0.24464802  1
  O  O5  1  0.24464801  0.24464800  0.91783104  1
  O  O6  1  0.91783100  0.24464800  0.24464802  1
  O  O7  1  0.08216905  0.75535199  0.75535204  1
