# generated using pymatgen
data_Li4ZnCo(PO4)2
_symmetry_space_group_name_H-M   'P 1'
_cell_length_a   5.06793022
_cell_length_b   5.35831928
_cell_length_c   6.23811245
_cell_angle_alpha   89.63364410
_cell_angle_beta   90.00034332
_cell_angle_gamma   89.67492676
_symmetry_Int_Tables_number   1
_chemical_formula_structural   Li4ZnCo(PO4)2
_chemical_formula_sum   'Li4 Zn1 Co1 P2 O8'
_cell_volume   169.39342354
_cell_formula_units_Z   1
loop_
 _symmetry_equiv_pos_site_id
 _symmetry_equiv_pos_as_xyz
  1  'x, y, z'
loop_
 _atom_site_type_symbol
 _atom_site_label
 _atom_site_symmetry_multiplicity
 _atom_site_fract_x
 _atom_site_fract_y
 _atom_site_fract_z
 _atom_site_occupancy
  Li  Li0  1  0.50823898  0.15521500  0.99935604  1
  Li  Li1  1  0.00304101  0.32806600  0.24828301  1
  Li  Li2  1  0.50872501  0.67286599  0.25399605  1
  Li  Li3  1  0.50991501  0.67490099  0.74589805  1
  Zn  Zn4  1  0.00113803  0.82072199  0.50132603  1
  Co  Co5  1  0.99551197  0.33192700  0.74997607  1
  P  P6  1  0.00260903  0.82726899  0.00512202  1
  P  P7  1  0.50235399  0.17851900  0.49469204  1
  O  O8  1  0.10728400  0.09965300  0.01360801  1
  O  O9  1  0.69514700  0.82038499  0.00021006  1
  O  O10  1  0.11035702  0.67911099  0.20356403  1
  O  O11  1  0.61309199  0.31304300  0.29218704  1
  O  O12  1  0.19574100  0.18896700  0.48705202  1
  O  O13  1  0.59170001  0.89850999  0.49839006  1
  O  O14  1  0.59199999  0.31206000  0.70575805  1
  O  O15  1  0.12055602  0.69878499  0.80058204  1
