# generated using pymatgen
data_Al8PBr11
_symmetry_space_group_name_H-M   'P 1'
_cell_length_a   4.98798084
_cell_length_b   7.58663797
_cell_length_c   14.47831726
_cell_angle_alpha   90.00000000
_cell_angle_beta   90.00000000
_cell_angle_gamma   90.00000000
_symmetry_Int_Tables_number   1
_chemical_formula_structural   Al8PBr11
_chemical_formula_sum   'Al8 P1 Br11'
_cell_volume   547.88855233
_cell_formula_units_Z   1
loop_
 _symmetry_equiv_pos_site_id
 _symmetry_equiv_pos_as_xyz
  1  'x, y, z'
loop_
 _atom_site_type_symbol
 _atom_site_label
 _atom_site_symmetry_multiplicity
 _atom_site_fract_x
 _atom_site_fract_y
 _atom_site_fract_z
 _atom_site_occupancy
  Al  Al0  1  0.79172802  0.75000000  0.74999999  1
  Al  Al1  1  0.20827201  0.25000000  0.74999999  1
  Al  Al2  1  0.20827201  0.25000000  0.25000000  1
  Al  Al3  1  0.79172802  0.75000000  0.25000000  1
  Al  Al4  1  0.07366700  0.65500100  0.12635100  1
  Al  Al5  1  0.92633303  0.15500100  0.62635099  1
  P  P6  1  0.07366700  0.84499900  0.62635099  1
  Al  Al7  1  0.81730403  0.73455700  0.49999999  1
  Br  Br8  1  0.18269601  0.23455700  -0.00000000  1
  Al  Al9  1  0.81730403  0.76544300  -0.00000000  1
  Br  Br10  1  0.92633303  0.15500100  0.37364899  1
  Br  Br11  1  0.18269601  0.26544300  0.49999999  1
  Br  Br12  1  0.92633303  0.34499900  0.87364898  1
  Br  Br13  1  0.07366700  0.84499900  0.37364899  1
  Br  Br14  1  0.07366700  0.65500100  0.87364898  1
  Br  Br15  1  0.92633303  0.34499900  0.12635100  1
  Br  Br16  1  0.50000002  0.00000000  0.19150800  1
  Br  Br17  1  0.50000002  0.50000000  0.30849199  1
  Br  Br18  1  0.50000002  0.00000000  0.80849199  1
  Br  Br19  1  0.50000002  0.50000000  0.69150799  1
