# generated using pymatgen
data_Gd2TmTlF8
_symmetry_space_group_name_H-M   'P 1'
_cell_length_a   5.48774624
_cell_length_b   5.48774624
_cell_length_c   6.67785549
_cell_angle_alpha   114.26084137
_cell_angle_beta   114.26084137
_cell_angle_gamma   90.00000000
_symmetry_Int_Tables_number   1
_chemical_formula_structural   Gd2TmTlF8
_chemical_formula_sum   'Gd2 Tm1 Tl1 F8'
_cell_volume   163.66824496
_cell_formula_units_Z   1
loop_
 _symmetry_equiv_pos_site_id
 _symmetry_equiv_pos_as_xyz
  1  'x, y, z'
loop_
 _atom_site_type_symbol
 _atom_site_label
 _atom_site_symmetry_multiplicity
 _atom_site_fract_x
 _atom_site_fract_y
 _atom_site_fract_z
 _atom_site_occupancy
  Tm  Tm0  1  0.00000000  0.00000000  0.00000000  1
  Gd  Gd1  1  0.74999998  0.24999999  0.50000000  1
  Gd  Gd2  1  0.49999999  0.49999998  0.00000001  1
  Tl  Tl3  1  0.25000000  0.74999997  0.50000000  1
  F  F4  1  0.37500000  0.85756097  0.25000001  1
  F  F5  1  0.87499997  0.39243899  0.25000001  1
  F  F6  1  0.14243900  0.62499998  0.74999999  1
  F  F7  1  0.60756099  0.62499998  0.74999999  1
  F  F8  1  0.87499998  0.85756097  0.25000002  1
  F  F9  1  0.60756098  0.12500000  0.74999998  1
  F  F10  1  0.14243900  0.12500000  0.74999998  1
  F  F11  1  0.37499999  0.39243899  0.25000000  1
