# generated using pymatgen
data_LiYbCu2P3S13
_symmetry_space_group_name_H-M   'P 1'
_cell_length_a   5.70343924
_cell_length_b   5.81242180
_cell_length_c   7.70900106
_cell_angle_alpha   90.00000000
_cell_angle_beta   89.80953979
_cell_angle_gamma   90.00000000
_symmetry_Int_Tables_number   1
_chemical_formula_structural   LiYbCu2P3S13
_chemical_formula_sum   'Li1 Yb1 Cu2 P3 S13'
_cell_volume   255.55809843
_cell_formula_units_Z   1
loop_
 _symmetry_equiv_pos_site_id
 _symmetry_equiv_pos_as_xyz
  1  'x, y, z'
loop_
 _atom_site_type_symbol
 _atom_site_label
 _atom_site_symmetry_multiplicity
 _atom_site_fract_x
 _atom_site_fract_y
 _atom_site_fract_z
 _atom_site_occupancy
  Yb  Yb0  1  0.49699402  0.53349202  0.24836699  1
  Li  Li1  1  0.99699403  0.96650803  0.74836700  1
  Cu  Cu2  1  0.01164300  0.05428700  0.24692501  1
  Cu  Cu3  1  0.51164302  0.44571302  0.74692501  1
  P  P4  1  0.00395100  0.51470002  0.99723803  1
  P  P5  1  0.50395102  0.98530003  0.49723800  1
  P  P6  1  0.99993603  0.50926302  0.49965599  1
  S  S7  1  0.49993602  0.99073703  0.99965602  1
  S  S8  1  0.59238002  0.98180703  0.24908699  1
  S  S9  1  0.93221303  0.47327402  0.24967698  1
  S  S10  1  0.43221301  0.02672600  0.74967701  1
  S  S11  1  0.09238000  0.51819302  0.74908702  1
  S  S12  1  0.21624101  0.80266703  0.04490700  1
  S  S13  1  0.26873101  0.29549601  0.46343601  1
  S  S14  1  0.79147602  0.23854001  0.54347299  1
  S  S15  1  0.68643602  0.71022302  0.95723301  1
  S  S16  1  0.76873102  0.20450401  0.96343601  1
  S  S17  1  0.71624102  0.69733302  0.54490700  1
  S  S18  1  0.18643601  0.78977703  0.45723301  1
  S  S19  1  0.29147601  0.26146001  0.04347299  1
