# generated using pymatgen
data_K4Li4TiO11
_symmetry_space_group_name_H-M   'P 1'
_cell_length_a   5.77680016
_cell_length_b   5.77680016
_cell_length_c   10.03140259
_cell_angle_alpha   73.26558685
_cell_angle_beta   73.26558685
_cell_angle_gamma   60.00000000
_symmetry_Int_Tables_number   1
_chemical_formula_structural   K4Li4TiO11
_chemical_formula_sum   'K4 Li4 Ti1 O11'
_cell_volume   273.41953420
_cell_formula_units_Z   1
loop_
 _symmetry_equiv_pos_site_id
 _symmetry_equiv_pos_as_xyz
  1  'x, y, z'
loop_
 _atom_site_type_symbol
 _atom_site_label
 _atom_site_symmetry_multiplicity
 _atom_site_fract_x
 _atom_site_fract_y
 _atom_site_fract_z
 _atom_site_occupancy
  K  K0  1  0.37775998  0.37775999  0.86672004  1
  K  K1  1  0.12509799  0.12509800  0.62470602  1
  K  K2  1  0.87121496  0.87121497  0.38635506  1
  K  K3  1  0.62437197  0.62437198  0.12688404  1
  Li  Li4  1  0.24734899  0.24734899  0.25795302  1
  Li  Li5  1  0.00178200  0.00178200  0.99465402  1
  Li  Li6  1  0.75252896  0.75252898  0.74241306  1
  Li  Li7  1  0.49868998  0.49868998  0.50393004  1
  O  O8  1  0.87239096  0.39000999  0.86520806  1
  O  O9  1  0.62763798  0.12247000  0.62225404  1
  Ti  Ti10  1  0.37765098  0.85904497  0.38565305  1
  O  O11  1  0.12239099  0.62643798  0.12878003  1
  O  O12  1  0.62763797  0.62763798  0.62225405  1
  O  O13  1  0.37765098  0.37765099  0.38565303  1
  O  O14  1  0.12239099  0.12239100  0.12878001  1
  O  O15  1  0.87239096  0.87239097  0.86520807  1
  O  O16  1  0.12246999  0.62763798  0.62225404  1
  O  O17  1  0.85904496  0.37765099  0.38565305  1
  O  O18  1  0.62643798  0.12239100  0.12878003  1
  O  O19  1  0.39000997  0.87239097  0.86520806  1
