# generated using pymatgen
data_LiPrLuCu5S12
_symmetry_space_group_name_H-M   'P 1'
_cell_length_a   5.80884886
_cell_length_b   5.95549107
_cell_length_c   8.27723408
_cell_angle_alpha   90.00000000
_cell_angle_beta   89.82565308
_cell_angle_gamma   90.00000000
_symmetry_Int_Tables_number   1
_chemical_formula_structural   LiPrLuCu5S12
_chemical_formula_sum   'Li1 Pr1 Lu1 Cu5 S12'
_cell_volume   286.34584157
_cell_formula_units_Z   1
loop_
 _symmetry_equiv_pos_site_id
 _symmetry_equiv_pos_as_xyz
  1  'x, y, z'
loop_
 _atom_site_type_symbol
 _atom_site_label
 _atom_site_symmetry_multiplicity
 _atom_site_fract_x
 _atom_site_fract_y
 _atom_site_fract_z
 _atom_site_occupancy
  Pr  Pr0  1  0.48952601  0.54565599  0.25181301  1
  Lu  Lu1  1  0.01047400  0.04565600  0.24818701  1
  Li  Li2  1  0.98952602  0.95434399  0.75181302  1
  Cu  Cu3  1  0.51047401  0.45434399  0.74818702  1
  Cu  Cu4  1  0.50000001  0.00000000  0.50000002  1
  Cu  Cu5  1  0.00000000  0.49999999  -0.00000000  1
  Cu  Cu6  1  0.50000001  0.99999999  0.00000000  1
  Cu  Cu7  1  0.00000000  0.49999999  0.50000001  1
  S  S8  1  0.08582800  0.53014099  0.72721202  1
  S  S9  1  0.41417201  0.03014100  0.77278802  1
  S  S10  1  0.91417202  0.46985899  0.27278801  1
  S  S11  1  0.58582801  0.96985899  0.22721201  1
  S  S12  1  0.18245900  0.76906499  0.44977401  1
  S  S13  1  0.31754101  0.26906500  0.05022600  1
  S  S14  1  0.81754102  0.23093500  0.55022602  1
  S  S15  1  0.68245902  0.73093499  0.94977403  1
  S  S16  1  0.77072302  0.18660900  0.95888503  1
  S  S17  1  0.72927702  0.68660899  0.54111502  1
  S  S18  1  0.22927701  0.81339099  0.04111500  1
  S  S19  1  0.27072301  0.31339100  0.45888501  1
