# generated using pymatgen
data_Mn3CrO5
_symmetry_space_group_name_H-M   'P 1'
_cell_length_a   3.10144591
_cell_length_b   4.75446415
_cell_length_c   14.20651054
_cell_angle_alpha   91.74612427
_cell_angle_beta   90.00000000
_cell_angle_gamma   90.00000000
_symmetry_Int_Tables_number   1
_chemical_formula_structural   Mn3CrO5
_chemical_formula_sum   'Mn6 Cr2 O10'
_cell_volume   209.38785946
_cell_formula_units_Z   2
loop_
 _symmetry_equiv_pos_site_id
 _symmetry_equiv_pos_as_xyz
  1  'x, y, z'
loop_
 _atom_site_type_symbol
 _atom_site_label
 _atom_site_symmetry_multiplicity
 _atom_site_fract_x
 _atom_site_fract_y
 _atom_site_fract_z
 _atom_site_occupancy
  Mn  Mn0  1  0.00000000  0.00000000  0.00000000  1
  Mn  Mn1  1  0.00000000  0.02484300  0.33307600  1
  Mn  Mn2  1  0.00000000  0.97515697  0.66692399  1
  Mn  Mn3  1  0.50000001  0.56974298  0.16682399  1
  Mn  Mn4  1  0.50000001  0.49999998  0.50000000  1
  Mn  Mn5  1  0.50000001  0.43025699  0.83317600  1
  Cr  Cr6  1  0.50000001  0.18520899  0.93534001  1
  Cr  Cr7  1  1.00000003  0.26536399  0.76507701  1
  O  O8  1  1.00000003  0.31124099  0.43271400  1
  O  O9  1  0.00000000  0.73463598  0.23492299  1
  O  O10  1  0.00000000  0.68875898  0.56728600  1
  O  O11  1  0.50000001  0.81479097  0.06465999  1
  O  O12  1  0.50000001  0.22627899  0.26566500  1
  O  O13  1  0.50000001  0.17895399  0.60107901  1
  O  O14  1  0.00000000  0.32084099  0.10516700  1
  O  O15  1  1.00000003  0.67915898  0.89483300  1
  O  O16  1  0.50000001  0.82104597  0.39892099  1
  O  O17  1  0.50000001  0.77372097  0.73433500  1
