# generated using pymatgen
data_ThCd2InS4
_symmetry_space_group_name_H-M   'P 1'
_cell_length_a   6.16885185
_cell_length_b   6.16885185
_cell_length_c   7.43453550
_cell_angle_alpha   114.51164246
_cell_angle_beta   114.51164246
_cell_angle_gamma   90.00000000
_symmetry_Int_Tables_number   1
_chemical_formula_structural   ThCd2InS4
_chemical_formula_sum   'Th1 Cd2 In1 S4'
_cell_volume   229.10386702
_cell_formula_units_Z   1
loop_
 _symmetry_equiv_pos_site_id
 _symmetry_equiv_pos_as_xyz
  1  'x, y, z'
loop_
 _atom_site_type_symbol
 _atom_site_label
 _atom_site_symmetry_multiplicity
 _atom_site_fract_x
 _atom_site_fract_y
 _atom_site_fract_z
 _atom_site_occupancy
  Th  Th0  1  0.00000000  0.00000000  0.00000000  1
  Cd  Cd1  1  0.75000004  0.25000001  0.50000004  1
  In  In2  1  0.25000004  0.75000004  0.50000005  1
  Cd  Cd3  1  0.50000004  0.50000003  0.00000004  1
  S  S4  1  0.86478507  0.86478504  0.26875908  1
  S  S5  1  0.40397403  0.40397402  0.26875904  1
  S  S6  1  0.13521503  0.59602603  0.73124104  1
  S  S7  1  0.59602603  0.13521501  0.73124103  1
