# generated using pymatgen
data_Cd5InS8
_symmetry_space_group_name_H-M   'P 1'
_cell_length_a   7.75730515
_cell_length_b   7.75730515
_cell_length_c   7.75730515
_cell_angle_alpha   60.00000000
_cell_angle_beta   60.00000000
_cell_angle_gamma   60.00000000
_symmetry_Int_Tables_number   1
_chemical_formula_structural   Cd5InS8
_chemical_formula_sum   'Cd5 In1 S8'
_cell_volume   330.07879744
_cell_formula_units_Z   1
loop_
 _symmetry_equiv_pos_site_id
 _symmetry_equiv_pos_as_xyz
  1  'x, y, z'
loop_
 _atom_site_type_symbol
 _atom_site_label
 _atom_site_symmetry_multiplicity
 _atom_site_fract_x
 _atom_site_fract_y
 _atom_site_fract_z
 _atom_site_occupancy
  In  In0  1  0.37499999  0.87499999  0.87499999  1
  Cd  Cd1  1  0.87499999  0.87499999  0.37499999  1
  Cd  Cd2  1  0.87499999  0.87499999  0.87499999  1
  Cd  Cd3  1  0.87499999  0.37499999  0.87499999  1
  Cd  Cd4  1  0.25000000  0.25000000  0.25000000  1
  Cd  Cd5  1  0.49999999  0.49999999  0.49999999  1
  S  S6  1  0.63901699  0.08294900  0.63901699  1
  S  S7  1  0.11098300  0.11098300  0.11098300  1
  S  S8  1  0.63901699  0.63901699  0.63901699  1
  S  S9  1  0.11098300  0.66705099  0.11098300  1
  S  S10  1  0.11098300  0.11098300  0.66705099  1
  S  S11  1  0.66705099  0.11098300  0.11098300  1
  S  S12  1  0.63901699  0.63901699  0.08294900  1
  S  S13  1  0.08294900  0.63901699  0.63901699  1
