# generated using pymatgen
data_Na2Mo3AsHOs3CN
_symmetry_space_group_name_H-M   'P 1'
_cell_length_a   5.05461311
_cell_length_b   5.46987820
_cell_length_c   9.59852982
_cell_angle_alpha   90.00000000
_cell_angle_beta   90.00000000
_cell_angle_gamma   102.03899384
_symmetry_Int_Tables_number   1
_chemical_formula_structural   Na2Mo3AsHOs3CN
_chemical_formula_sum   'Na2 Mo3 As1 H1 Os3 C1 N1'
_cell_volume   259.54445655
_cell_formula_units_Z   1
loop_
 _symmetry_equiv_pos_site_id
 _symmetry_equiv_pos_as_xyz
  1  'x, y, z'
loop_
 _atom_site_type_symbol
 _atom_site_label
 _atom_site_symmetry_multiplicity
 _atom_site_fract_x
 _atom_site_fract_y
 _atom_site_fract_z
 _atom_site_occupancy
  Na  Na0  1  0.00790498  0.34804100  0.75000001  1
  Na  Na1  1  0.99209493  0.65195900  0.25000000  1
  As  As2  1  0.28866393  0.89949600  0.75000001  1
  Mo  Mo3  1  0.71133598  0.10050400  0.25000000  1
  H  H4  1  0.61489292  0.95232800  0.59067301  1
  Mo  Mo5  1  0.38510699  0.04767200  0.09067300  1
  Mo  Mo6  1  0.38510699  0.04767200  0.40932701  1
  C  C7  1  0.61489292  0.95232800  0.90932702  1
  Os  Os8  1  0.70719994  0.59707900  0.52975001  1
  N  N9  1  0.29279997  0.40292100  0.02975000  1
  Os  Os10  1  0.29279997  0.40292100  0.47025001  1
  Os  Os11  1  0.70719994  0.59707900  0.97025002  1
