# generated using pymatgen
data_NdMg2Sc(CuS3)2
_symmetry_space_group_name_H-M   'P 1'
_cell_length_a   3.98975396
_cell_length_b   7.01153946
_cell_length_c   7.59068060
_cell_angle_alpha   104.47345734
_cell_angle_beta   90.00000000
_cell_angle_gamma   106.52976227
_symmetry_Int_Tables_number   1
_chemical_formula_structural   NdMg2Sc(CuS3)2
_chemical_formula_sum   'Nd1 Mg2 Sc1 Cu2 S6'
_cell_volume   196.52861914
_cell_formula_units_Z   1
loop_
 _symmetry_equiv_pos_site_id
 _symmetry_equiv_pos_as_xyz
  1  'x, y, z'
loop_
 _atom_site_type_symbol
 _atom_site_label
 _atom_site_symmetry_multiplicity
 _atom_site_fract_x
 _atom_site_fract_y
 _atom_site_fract_z
 _atom_site_occupancy
  Nd  Nd0  1  0.64331898  0.28663800  0.56542903  1
  Sc  Sc1  1  0.35668095  0.71336200  0.43457104  1
  Mg  Mg2  1  0.35044195  0.70088400  0.92042306  1
  Mg  Mg3  1  0.64955798  0.29911600  0.07957702  1
  Cu  Cu4  1  0.99346393  0.98692800  0.22754805  1
  Cu  Cu5  1  0.00653600  0.01307200  0.77245202  1
  S  S6  1  0.16816498  0.33633000  0.86601904  1
  S  S7  1  0.15208798  0.30417600  0.28063602  1
  S  S8  1  0.50674200  0.01348400  0.80965702  1
  S  S9  1  0.84791195  0.69582400  0.71936405  1
  S  S10  1  0.83183496  0.66367000  0.13398103  1
  S  S11  1  0.49325793  0.98651600  0.19034305  1
