# generated using pymatgen
data_Li2PrCu3(PS6)2
_symmetry_space_group_name_H-M   'P 1'
_cell_length_a   5.86343479
_cell_length_b   6.03415775
_cell_length_c   8.44969177
_cell_angle_alpha   89.85147858
_cell_angle_beta   89.37483978
_cell_angle_gamma   89.98835754
_symmetry_Int_Tables_number   1
_chemical_formula_structural   Li2PrCu3(PS6)2
_chemical_formula_sum   'Li2 Pr1 Cu3 P2 S12'
_cell_volume   298.93881489
_cell_formula_units_Z   1
loop_
 _symmetry_equiv_pos_site_id
 _symmetry_equiv_pos_as_xyz
  1  'x, y, z'
loop_
 _atom_site_type_symbol
 _atom_site_label
 _atom_site_symmetry_multiplicity
 _atom_site_fract_x
 _atom_site_fract_y
 _atom_site_fract_z
 _atom_site_occupancy
  Pr  Pr0  1  0.48793075  0.44928171  0.25043190  1
  Li  Li1  1  0.51206934  0.55071829  0.74956812  1
  Cu  Cu2  1  0.01413008  0.95227121  0.25304364  1
  Li  Li3  1  0.98587001  0.04772880  0.74695637  1
  Cu  Cu4  1  0.00000003  0.50000000  -0.00000000  1
  Cu  Cu5  1  0.50000001  0.00000000  0.50000001  1
  P  P6  1  0.50000001  0.00000000  -0.00000002  1
  P  P7  1  0.00000003  0.50000000  0.50000002  1
  S  S8  1  0.77813200  0.82197617  0.93609140  1
  S  S9  1  0.72085788  0.31754973  0.54732394  1
  S  S10  1  0.22186809  0.17802384  0.06390861  1
  S  S11  1  0.27914221  0.68245027  0.45267607  1
  S  S12  1  0.67459752  0.27818584  0.94275777  1
  S  S13  1  0.83072684  0.78280271  0.56380553  1
  S  S14  1  0.32540257  0.72181416  0.05724224  1
  S  S15  1  0.16927325  0.21719729  0.43619448  1
  S  S16  1  0.62105821  0.03224974  0.22533285  1
  S  S17  1  0.90386691  0.55746199  0.27360827  1
  S  S18  1  0.37894188  0.96775027  0.77466716  1
  S  S19  1  0.09613318  0.44253801  0.72639174  1
