# generated using pymatgen
data_Na5LiMg2CrO5
_symmetry_space_group_name_H-M   'P 1'
_cell_length_a   5.58852816
_cell_length_b   5.68208027
_cell_length_c   6.03614616
_cell_angle_alpha   86.44216919
_cell_angle_beta   82.75054932
_cell_angle_gamma   60.54315948
_symmetry_Int_Tables_number   1
_chemical_formula_structural   Na5LiMg2CrO5
_chemical_formula_sum   'Na5 Li1 Mg2 Cr1 O5'
_cell_volume   165.56198558
_cell_formula_units_Z   1
loop_
 _symmetry_equiv_pos_site_id
 _symmetry_equiv_pos_as_xyz
  1  'x, y, z'
loop_
 _atom_site_type_symbol
 _atom_site_label
 _atom_site_symmetry_multiplicity
 _atom_site_fract_x
 _atom_site_fract_y
 _atom_site_fract_z
 _atom_site_occupancy
  Na  Na0  1  0.32507499  0.00000000  0.90674297  1
  Li  Li1  1  0.67492498  0.00000000  0.09325700  1
  Na  Na2  1  0.67962998  0.64073998  0.49999996  1
  Na  Na3  1  0.32036999  0.35925999  0.49999997  1
  Na  Na4  1  0.76633398  0.46733198  -0.00000002  1
  Na  Na5  1  0.23366599  0.53266798  -0.00000003  1
  Mg  Mg6  1  0.86961098  0.00000000  0.67866098  1
  Mg  Mg7  1  0.13038900  0.00000000  0.32133899  1
  O  O8  1  0.19163499  0.00000000  0.60987098  1
  Cr  Cr9  1  0.80836498  0.00000000  0.39012899  1
  O  O10  1  0.39299499  0.70944697  0.19014496  1
  O  O11  1  0.10244200  0.29055299  0.19014498  1
  O  O12  1  0.60700498  0.29055299  0.80985496  1
  O  O13  1  0.89755798  0.70944697  0.80985494  1
