# generated using pymatgen
data_Mg3Ge5POsC4
_symmetry_space_group_name_H-M   'P 1'
_cell_length_a   3.36425996
_cell_length_b   3.36426044
_cell_length_c   16.78558922
_cell_angle_alpha   90.00000000
_cell_angle_beta   90.00000000
_cell_angle_gamma   120.00000000
_symmetry_Int_Tables_number   1
_chemical_formula_structural   Mg3Ge5POsC4
_chemical_formula_sum   'Mg3 Ge5 P1 Os1 C4'
_cell_volume   164.53048472
_cell_formula_units_Z   1
loop_
 _symmetry_equiv_pos_site_id
 _symmetry_equiv_pos_as_xyz
  1  'x, y, z'
loop_
 _atom_site_type_symbol
 _atom_site_label
 _atom_site_symmetry_multiplicity
 _atom_site_fract_x
 _atom_site_fract_y
 _atom_site_fract_z
 _atom_site_occupancy
  Mg  Mg0  1  0.00000000  0.00000000  0.99886099  1
  Mg  Mg1  1  0.00000000  0.00000000  0.49886099  1
  Mg  Mg2  1  0.66666670  0.33333333  0.62821399  1
  Ge  Ge3  1  0.33333338  0.66666667  0.37002100  1
  Ge  Ge4  1  0.33333338  0.66666667  0.12821400  1
  Ge  Ge5  1  0.66666670  0.33333333  0.24331900  1
  Ge  Ge6  1  0.66666670  0.33333333  0.87002099  1
  Ge  Ge7  1  0.33333338  0.66666667  0.74331899  1
  C  C8  1  0.66666670  0.33333333  0.74989099  1
  C  C9  1  0.33333338  0.66666667  0.24989100  1
  C  C10  1  0.33333338  0.66666667  0.58955999  1
  Os  Os11  1  0.66666670  0.33333333  0.08956000  1
  P  P12  1  0.33333338  0.66666667  0.91613399  1
  C  C13  1  0.66666670  0.33333333  0.41613399  1
