# generated using pymatgen
data_Sr2CaSm(InS3)2
_symmetry_space_group_name_H-M   'P 1'
_cell_length_a   3.73226404
_cell_length_b   7.39057350
_cell_length_c   9.76200867
_cell_angle_alpha   90.00000000
_cell_angle_beta   90.00000000
_cell_angle_gamma   104.62559509
_symmetry_Int_Tables_number   1
_chemical_formula_structural   Sr2CaSm(InS3)2
_chemical_formula_sum   'Sr2 Ca1 Sm1 In2 S6'
_cell_volume   260.54573317
_cell_formula_units_Z   1
loop_
 _symmetry_equiv_pos_site_id
 _symmetry_equiv_pos_as_xyz
  1  'x, y, z'
loop_
 _atom_site_type_symbol
 _atom_site_label
 _atom_site_symmetry_multiplicity
 _atom_site_fract_x
 _atom_site_fract_y
 _atom_site_fract_z
 _atom_site_occupancy
  Sr  Sr0  1  0.25468198  0.50936401  0.75000003  1
  Sr  Sr1  1  0.74531798  0.49063601  0.25000001  1
  Sm  Sm2  1  0.00000000  0.00000000  0.00000000  1
  Ca  Ca3  1  0.00000000  0.00000000  0.50000002  1
  In  In4  1  0.53455199  0.06910400  0.75000003  1
  In  In5  1  0.46544796  0.93089602  0.25000001  1
  S  S6  1  0.38062397  0.76124802  0.44881402  1
  S  S7  1  0.61937599  0.23875201  0.55118602  1
  S  S8  1  0.61937599  0.23875201  0.94881403  1
  S  S9  1  0.06310800  0.12621600  0.25000001  1
  S  S10  1  0.93689196  0.87378402  0.75000003  1
  S  S11  1  0.38062397  0.76124802  0.05118600  1
