# generated using pymatgen
data_AlSi2BH11
_symmetry_space_group_name_H-M   'P 1'
_cell_length_a   4.82483721
_cell_length_b   5.50464535
_cell_length_c   5.50467920
_cell_angle_alpha   60.00009155
_cell_angle_beta   89.99976349
_cell_angle_gamma   90.00016022
_symmetry_Int_Tables_number   1
_chemical_formula_structural   AlSi2BH11
_chemical_formula_sum   'Al1 Si2 B1 H11'
_cell_volume   126.61205424
_cell_formula_units_Z   1
loop_
 _symmetry_equiv_pos_site_id
 _symmetry_equiv_pos_as_xyz
  1  'x, y, z'
loop_
 _atom_site_type_symbol
 _atom_site_label
 _atom_site_symmetry_multiplicity
 _atom_site_fract_x
 _atom_site_fract_y
 _atom_site_fract_z
 _atom_site_occupancy
  H  H0  1  0.94402099  0.33333333  0.33333327  1
  Al  Al1  1  0.05597905  0.66666665  0.66666662  1
  Si  Si2  1  0.38521299  0.12191000  0.22425497  1
  Si  Si3  1  0.38521304  0.65383099  0.12191496  1
  B  B4  1  0.38521000  0.22425699  0.65383295  1
  H  H5  1  0.61478705  0.87808998  0.77574492  1
  H  H6  1  0.61478700  0.34616899  0.87808493  1
  H  H7  1  0.61479004  0.77574298  0.34616694  1
  H  H8  1  0.00000000  0.00000000  0.00000000  1
  H  H9  1  0.22575108  0.99924398  0.31282495  1
  H  H10  1  0.22576405  0.68794298  0.99923194  1
  H  H11  1  0.22576402  0.31282999  0.68794596  1
  H  H12  1  0.77424897  0.00075600  0.68717494  1
  H  H13  1  0.77423599  0.31205699  0.00076795  1
  H  H14  1  0.77423602  0.68716998  0.31205393  1
