# generated using pymatgen
data_TlAg3S2
_symmetry_space_group_name_H-M   'P 1'
_cell_length_a   4.55876589
_cell_length_b   4.55876589
_cell_length_c   9.94190884
_cell_angle_alpha   90.00000000
_cell_angle_beta   90.00000000
_cell_angle_gamma   120.00000000
_symmetry_Int_Tables_number   1
_chemical_formula_structural   TlAg3S2
_chemical_formula_sum   'Tl1 Ag3 S2'
_cell_volume   178.93487245
_cell_formula_units_Z   1
loop_
 _symmetry_equiv_pos_site_id
 _symmetry_equiv_pos_as_xyz
  1  'x, y, z'
loop_
 _atom_site_type_symbol
 _atom_site_label
 _atom_site_symmetry_multiplicity
 _atom_site_fract_x
 _atom_site_fract_y
 _atom_site_fract_z
 _atom_site_occupancy
  Tl  Tl0  1  0.27356701  0.00000000  -0.00000000  1
  Ag  Ag1  1  0.72643300  0.72643299  0.33333334  1
  Ag  Ag2  1  1.00000002  0.27356700  0.66666668  1
  Ag  Ag3  1  0.51473199  0.99999998  0.50000001  1
  S  S4  1  0.48526800  0.48526799  0.83333301  1
  S  S5  1  1.00000001  0.51473199  0.16666700  1
