# generated using pymatgen
data_RbNaSrZnBr6
_symmetry_space_group_name_H-M   'P 1'
_cell_length_a   9.04590702
_cell_length_b   9.04590702
_cell_length_c   9.04590702
_cell_angle_alpha   60.00000000
_cell_angle_beta   60.00000000
_cell_angle_gamma   60.00000000
_symmetry_Int_Tables_number   1
_chemical_formula_structural   RbNaSrZnBr6
_chemical_formula_sum   'Rb1 Na1 Sr1 Zn1 Br6'
_cell_volume   523.40921040
_cell_formula_units_Z   1
loop_
 _symmetry_equiv_pos_site_id
 _symmetry_equiv_pos_as_xyz
  1  'x, y, z'
loop_
 _atom_site_type_symbol
 _atom_site_label
 _atom_site_symmetry_multiplicity
 _atom_site_fract_x
 _atom_site_fract_y
 _atom_site_fract_z
 _atom_site_occupancy
  Sr  Sr0  1  0.24999999  0.24999999  0.24999999  1
  Rb  Rb1  1  0.74999998  0.74999998  0.74999998  1
  Na  Na2  1  0.49999998  0.49999998  0.49999998  1
  Zn  Zn3  1  0.00000000  0.00000000  0.00000000  1
  Br  Br4  1  0.21736399  0.78263598  0.21736399  1
  Br  Br5  1  0.21736399  0.21736399  0.78263598  1
  Br  Br6  1  0.78263598  0.21736399  0.78263598  1
  Br  Br7  1  0.21736399  0.78263598  0.78263598  1
  Br  Br8  1  0.78263598  0.21736399  0.21736399  1
  Br  Br9  1  0.78263598  0.78263598  0.21736399  1
