# generated using pymatgen
data_CsRb2Tl3(AgI6)2
_symmetry_space_group_name_H-M   'P 1'
_cell_length_a   4.22387600
_cell_length_b   9.76670456
_cell_length_c   15.61516762
_cell_angle_alpha   90.00000000
_cell_angle_beta   90.00000000
_cell_angle_gamma   90.00000000
_symmetry_Int_Tables_number   1
_chemical_formula_structural   CsRb2Tl3(AgI6)2
_chemical_formula_sum   'Cs1 Rb2 Tl3 Ag2 I12'
_cell_volume   644.17795915
_cell_formula_units_Z   1
loop_
 _symmetry_equiv_pos_site_id
 _symmetry_equiv_pos_as_xyz
  1  'x, y, z'
loop_
 _atom_site_type_symbol
 _atom_site_label
 _atom_site_symmetry_multiplicity
 _atom_site_fract_x
 _atom_site_fract_y
 _atom_site_fract_z
 _atom_site_occupancy
  Tl  Tl0  1  0.75000000  0.56790703  0.17056700  1
  Cs  Cs1  1  0.25000000  0.43209302  0.82943302  1
  Rb  Rb2  1  0.75000000  0.06790700  0.32943301  1
  Rb  Rb3  1  0.25000000  0.93209304  0.67056702  1
  Ag  Ag4  1  0.25000000  0.66596903  0.43916401  1
  Ag  Ag5  1  0.75000000  0.33403102  0.56083601  1
  Tl  Tl6  1  0.25000000  0.16596901  0.06083600  1
  Tl  Tl7  1  0.75000000  0.83403104  0.93916402  1
  I  I8  1  0.75000000  0.83441804  0.50697901  1
  I  I9  1  0.25000000  0.16558201  0.49302101  1
  I  I10  1  0.75000000  0.33441802  0.99302102  1
  I  I11  1  0.25000000  0.66558203  0.00697900  1
  I  I12  1  0.25000000  0.51189902  0.61386302  1
  I  I13  1  0.75000000  0.48810102  0.38613701  1
  I  I14  1  0.25000000  0.01189900  0.88613702  1
  I  I15  1  0.75000000  0.98810104  0.11386300  1
  I  I16  1  0.25000000  0.79440204  0.29072001  1
  I  I17  1  0.75000000  0.20559801  0.70928002  1
  I  I18  1  0.25000000  0.29440201  0.20928001  1
  I  I19  1  0.75000000  0.70559803  0.79072002  1
