# generated using pymatgen
data_KNa3P4F12
_symmetry_space_group_name_H-M   'P 1'
_cell_length_a   5.34582806
_cell_length_b   5.54309511
_cell_length_c   7.70948982
_cell_angle_alpha   90.00000000
_cell_angle_beta   90.02532196
_cell_angle_gamma   90.00000000
_symmetry_Int_Tables_number   1
_chemical_formula_structural   KNa3P4F12
_chemical_formula_sum   'K1 Na3 P4 F12'
_cell_volume   228.45092115
_cell_formula_units_Z   1
loop_
 _symmetry_equiv_pos_site_id
 _symmetry_equiv_pos_as_xyz
  1  'x, y, z'
loop_
 _atom_site_type_symbol
 _atom_site_label
 _atom_site_symmetry_multiplicity
 _atom_site_fract_x
 _atom_site_fract_y
 _atom_site_fract_z
 _atom_site_occupancy
  Na  Na0  1  0.00000000  0.00000000  0.50000000  1
  Na  Na1  1  0.49999999  0.49999999  0.00000001  1
  Na  Na2  1  0.51077999  0.04692400  0.75394600  1
  K  K3  1  0.98921999  0.54692399  0.74605401  1
  P  P4  1  0.48921999  0.95307598  0.24605401  1
  P  P5  1  0.01078000  0.45307599  0.25394600  1
  P  P6  1  0.00000000  0.00000000  0.00000000  1
  P  P7  1  0.49999999  0.49999999  0.50000001  1
  F  F8  1  0.33952300  0.23293100  0.43639200  1
  F  F9  1  0.16047700  0.73293099  0.06360800  1
  F  F10  1  0.66047699  0.76706898  0.56360801  1
  F  F11  1  0.83952299  0.26706899  0.93639201  1
  F  F12  1  0.27176100  0.16921300  0.04361200  1
  F  F13  1  0.22823900  0.66921299  0.45638800  1
  F  F14  1  0.72823899  0.83078698  0.95638801  1
  F  F15  1  0.77176099  0.33078699  0.54361201  1
  F  F16  1  0.89998599  0.04793000  0.21623002  1
  F  F17  1  0.60001399  0.54792999  0.28377001  1
  F  F18  1  0.10001400  0.95206998  0.78377000  1
  F  F19  1  0.39998600  0.45206999  0.71623000  1
