# generated using pymatgen
data_Li2P2O3
_symmetry_space_group_name_H-M   'P 1'
_cell_length_a   4.98165846
_cell_length_b   4.98165846
_cell_length_c   6.25105810
_cell_angle_alpha   89.60363770
_cell_angle_beta   89.60363770
_cell_angle_gamma   66.97717285
_symmetry_Int_Tables_number   1
_chemical_formula_structural   Li2P2O3
_chemical_formula_sum   'Li4 P4 O6'
_cell_volume   142.77070020
_cell_formula_units_Z   2
loop_
 _symmetry_equiv_pos_site_id
 _symmetry_equiv_pos_as_xyz
  1  'x, y, z'
loop_
 _atom_site_type_symbol
 _atom_site_label
 _atom_site_symmetry_multiplicity
 _atom_site_fract_x
 _atom_site_fract_y
 _atom_site_fract_z
 _atom_site_occupancy
  Li  Li0  1  0.32957500  0.32957500  0.22191301  1
  Li  Li1  1  0.00000000  0.00000000  0.00000000  1
  Li  Li2  1  0.67042499  0.67042500  0.77808701  1
  Li  Li3  1  0.00000000  0.00000000  0.50000000  1
  P  P4  1  0.34989100  0.34989100  0.73251500  1
  P  P5  1  0.65010900  0.65010900  0.26748502  1
  P  P6  1  0.75715499  0.75715500  0.06669602  1
  P  P7  1  0.75567799  0.75567800  0.47139302  1
  O  O8  1  0.68916000  0.24363500  0.72828801  1
  O  O9  1  0.24363499  0.68916000  0.72828801  1
  O  O10  1  0.75636500  0.31084000  0.27171201  1
  O  O11  1  0.31083999  0.75636500  0.27171201  1
  O  O12  1  0.24432200  0.24432200  0.52860700  1
  O  O13  1  0.24284500  0.24284500  0.93330400  1
