# generated using pymatgen
data_Li6MnO5
_symmetry_space_group_name_H-M   'P 1'
_cell_length_a   3.29806590
_cell_length_b   3.29806519
_cell_length_c   14.92510509
_cell_angle_alpha   90.00000000
_cell_angle_beta   90.00000000
_cell_angle_gamma   120.00000763
_symmetry_Int_Tables_number   1
_chemical_formula_structural   Li6MnO5
_chemical_formula_sum   'Li6 Mn1 O5'
_cell_volume   140.59392669
_cell_formula_units_Z   1
loop_
 _symmetry_equiv_pos_site_id
 _symmetry_equiv_pos_as_xyz
  1  'x, y, z'
loop_
 _atom_site_type_symbol
 _atom_site_label
 _atom_site_symmetry_multiplicity
 _atom_site_fract_x
 _atom_site_fract_y
 _atom_site_fract_z
 _atom_site_occupancy
  Li  Li0  1  0.33333334  0.66666666  0.66257400  1
  Li  Li1  1  0.33333334  0.66666666  0.34003300  1
  Li  Li2  1  0.00000000  0.00000000  0.82254499  1
  Li  Li3  1  0.00000000  0.00000000  0.50114900  1
  Li  Li4  1  0.00000000  0.00000000  0.17921000  1
  Li  Li5  1  0.33333334  0.66666666  0.00867400  1
  Mn  Mn6  1  0.00000000  0.00000000  0.04609500  1
  O  O7  1  0.33333334  0.66666666  0.53528800  1
  O  O8  1  0.33333334  0.66666666  0.85531799  1
  O  O9  1  0.33333334  0.66666666  0.21349300  1
  O  O10  1  0.00000000  0.00000000  0.69593600  1
  O  O11  1  0.00000000  0.00000000  0.37368400  1
