# generated using pymatgen
data_AlSiB2P3S13
_symmetry_space_group_name_H-M   'P 1'
_cell_length_a   5.46070004
_cell_length_b   6.49213219
_cell_length_c   8.44653702
_cell_angle_alpha   90.00000000
_cell_angle_beta   90.00000000
_cell_angle_gamma   90.00000000
_symmetry_Int_Tables_number   1
_chemical_formula_structural   AlSiB2P3S13
_chemical_formula_sum   'Al1 Si1 B2 P3 S13'
_cell_volume   299.44313738
_cell_formula_units_Z   1
loop_
 _symmetry_equiv_pos_site_id
 _symmetry_equiv_pos_as_xyz
  1  'x, y, z'
loop_
 _atom_site_type_symbol
 _atom_site_label
 _atom_site_symmetry_multiplicity
 _atom_site_fract_x
 _atom_site_fract_y
 _atom_site_fract_z
 _atom_site_occupancy
  B  B0  1  0.00000000  0.49999999  -0.00000000  1
  Al  Al1  1  0.00000000  0.49999999  0.50000000  1
  B  B2  1  0.50000000  0.00000000  0.00000000  1
  Si  Si3  1  0.50000000  0.00000000  0.50000000  1
  P  P4  1  0.01777800  0.02564600  0.75000000  1
  P  P5  1  0.48222200  0.52564598  0.75000000  1
  S  S6  1  0.51777800  0.47435399  0.25000000  1
  P  P7  1  0.98222199  0.97435397  0.25000000  1
  S  S8  1  0.20491800  0.42723599  0.25000000  1
  S  S9  1  0.12890500  0.17048500  0.59186400  1
  S  S10  1  0.12890500  0.17048500  0.90813600  1
  S  S11  1  0.37109500  0.67048498  0.59186400  1
  S  S12  1  0.37109500  0.67048498  0.90813600  1
  S  S13  1  0.29508200  0.92723597  0.25000000  1
  S  S14  1  0.70491800  0.07276400  0.75000000  1
  S  S15  1  0.62890500  0.32951499  0.09186400  1
  S  S16  1  0.62890500  0.32951499  0.40813600  1
  S  S17  1  0.87109499  0.82951498  0.09186400  1
  S  S18  1  0.87109499  0.82951498  0.40813600  1
  S  S19  1  0.79508199  0.57276398  0.75000000  1
