# generated using pymatgen
data_Cs2BeB3(HO3)2
_symmetry_space_group_name_H-M   'P 1'
_cell_length_a   5.52092314
_cell_length_b   6.01496840
_cell_length_c   7.95875978
_cell_angle_alpha   110.14950562
_cell_angle_beta   98.27802277
_cell_angle_gamma   91.29513550
_symmetry_Int_Tables_number   1
_chemical_formula_structural   Cs2BeB3(HO3)2
_chemical_formula_sum   'Cs2 Be1 B3 H2 O6'
_cell_volume   244.79247148
_cell_formula_units_Z   1
loop_
 _symmetry_equiv_pos_site_id
 _symmetry_equiv_pos_as_xyz
  1  'x, y, z'
loop_
 _atom_site_type_symbol
 _atom_site_label
 _atom_site_symmetry_multiplicity
 _atom_site_fract_x
 _atom_site_fract_y
 _atom_site_fract_z
 _atom_site_occupancy
  Cs  Cs0  1  0.59384897  0.86441598  0.72739201  1
  Cs  Cs1  1  0.40615099  0.13558400  0.27260800  1
  Be  Be2  1  0.84121097  0.62884999  0.23566500  1
  B  B3  1  0.15878899  0.37114999  0.76433501  1
  B  B4  1  0.97264798  0.31333199  0.03197399  1
  B  B5  1  0.02735199  0.68666799  0.96802602  1
  H  H6  1  0.86968498  0.35501399  0.13878899  1
  H  H7  1  0.88496397  0.77130298  0.11619200  1
  O  O8  1  0.13031499  0.64498599  0.86121101  1
  O  O9  1  0.11503599  0.22869700  0.88380800  1
  O  O10  1  0.61807398  0.66600099  0.32525501  1
  O  O11  1  0.38192599  0.33399899  0.67474500  1
  O  O12  1  0.07576199  0.70466799  0.39643202  1
  O  O13  1  0.92423798  0.29533199  0.60356799  1
