# generated using pymatgen
data_K2MnVO6
_symmetry_space_group_name_H-M   'P 1'
_cell_length_a   5.63022900
_cell_length_b   5.67620993
_cell_length_c   9.77837658
_cell_angle_alpha   89.46068573
_cell_angle_beta   73.27293396
_cell_angle_gamma   60.27566147
_symmetry_Int_Tables_number   1
_chemical_formula_structural   K2MnVO6
_chemical_formula_sum   'K4 Mn2 V2 O12'
_cell_volume   256.53955313
_cell_formula_units_Z   2
loop_
 _symmetry_equiv_pos_site_id
 _symmetry_equiv_pos_as_xyz
  1  'x, y, z'
loop_
 _atom_site_type_symbol
 _atom_site_label
 _atom_site_symmetry_multiplicity
 _atom_site_fract_x
 _atom_site_fract_y
 _atom_site_fract_z
 _atom_site_occupancy
  K  K0  1  0.24987601  0.37508599  0.12507699  1
  K  K1  1  0.25002302  0.87497898  0.62496699  1
  K  K2  1  0.75010501  0.62493698  0.87488600  1
  K  K3  1  0.74992601  0.12508900  0.37504900  1
  Mn  Mn4  1  0.50010802  0.74996098  0.24984198  1
  V  V5  1  0.50011001  0.24968799  0.75019201  1
  Mn  Mn6  1  0.99997601  0.50001199  0.50005199  1
  V  V7  1  0.00000502  0.99996097  0.99997199  1
  O  O8  1  0.75876201  0.36208999  0.12055399  1
  O  O9  1  0.75878402  0.86204998  0.62057498  1
  O  O10  1  0.24118901  0.63797098  0.87945000  1
  O  O11  1  0.24122200  0.13796300  0.37936901  1
  O  O12  1  0.28325101  0.59976298  0.40013499  1
  O  O13  1  0.28308700  0.09971600  0.90018402  1
  O  O14  1  0.71683801  0.40027399  0.59989600  1
  O  O15  1  0.71671702  0.90033998  0.09980997  1
  O  O16  1  0.80054802  0.64151798  0.35832698  1
  O  O17  1  0.80050301  0.14143300  0.85841402  1
  O  O18  1  0.19953501  0.35859299  0.64162001  1
  O  O19  1  0.19943402  0.85857698  0.14163097  1
