# generated using pymatgen
data_NaZn2FeNiO6
_symmetry_space_group_name_H-M   'P 1'
_cell_length_a   5.95986605
_cell_length_b   5.95986557
_cell_length_c   6.58135986
_cell_angle_alpha   90.00000000
_cell_angle_beta   90.00000000
_cell_angle_gamma   120.00000000
_symmetry_Int_Tables_number   1
_chemical_formula_structural   NaZn2FeNiO6
_chemical_formula_sum   'Na1 Zn2 Fe1 Ni1 O6'
_cell_volume   202.45067666
_cell_formula_units_Z   1
loop_
 _symmetry_equiv_pos_site_id
 _symmetry_equiv_pos_as_xyz
  1  'x, y, z'
loop_
 _atom_site_type_symbol
 _atom_site_label
 _atom_site_symmetry_multiplicity
 _atom_site_fract_x
 _atom_site_fract_y
 _atom_site_fract_z
 _atom_site_occupancy
  Na  Na0  1  0.00000000  0.00000000  0.00000000  1
  Zn  Zn1  1  0.66666665  0.33333333  0.72421702  1
  Zn  Zn2  1  0.33333331  0.66666667  0.27578301  1
  Fe  Fe3  1  0.33333331  0.66666667  0.53811601  1
  Ni  Ni4  1  0.66666665  0.33333333  0.46188401  1
  O  O5  1  0.16727099  0.33454200  0.18284900  1
  O  O6  1  0.83272897  0.66545800  0.81715102  1
  O  O7  1  0.83272899  0.16727100  0.81715102  1
  O  O8  1  0.33454199  0.16727100  0.81715102  1
  O  O9  1  0.66545797  0.83272900  0.18284900  1
  O  O10  1  0.16727097  0.83272900  0.18284900  1
