# generated using pymatgen
data_SrCa2PmLuZrWO4
_symmetry_space_group_name_H-M   'P 1'
_cell_length_a   3.95210505
_cell_length_b   3.95210505
_cell_length_c   11.50383282
_cell_angle_alpha   90.00000000
_cell_angle_beta   90.00000000
_cell_angle_gamma   90.00000000
_symmetry_Int_Tables_number   1
_chemical_formula_structural   SrCa2PmLuZrWO4
_chemical_formula_sum   'Sr1 Ca2 Pm1 Lu1 Zr1 W1 O4'
_cell_volume   179.67990961
_cell_formula_units_Z   1
loop_
 _symmetry_equiv_pos_site_id
 _symmetry_equiv_pos_as_xyz
  1  'x, y, z'
loop_
 _atom_site_type_symbol
 _atom_site_label
 _atom_site_symmetry_multiplicity
 _atom_site_fract_x
 _atom_site_fract_y
 _atom_site_fract_z
 _atom_site_occupancy
  Sr  Sr0  1  0.00000000  0.00000000  0.50000001  1
  Pm  Pm1  1  0.00000000  0.00000000  0.00000000  1
  Ca  Ca2  1  0.49999999  0.49999999  0.19817700  1
  Ca  Ca3  1  0.49999999  0.49999999  0.80182301  1
  Zr  Zr4  1  0.49999999  0.49999999  0.64456801  1
  Lu  Lu5  1  0.00000000  0.49999999  0.16097000  1
  W  W6  1  0.49999999  0.00000000  0.16097000  1
  O  O7  1  0.00000000  0.49999999  0.83903001  1
  O  O8  1  0.49999999  0.00000000  0.83903001  1
  O  O9  1  0.49999999  0.49999999  0.35543201  1
  O  O10  1  0.49999999  0.49999999  -0.00000000  1
