# generated using pymatgen
data_Bi(Sb2Pb)2
_symmetry_space_group_name_H-M   'P 1'
_cell_length_a   6.15228701
_cell_length_b   6.15228701
_cell_length_c   6.43982220
_cell_angle_alpha   90.00000000
_cell_angle_beta   90.00000000
_cell_angle_gamma   90.00000000
_symmetry_Int_Tables_number   1
_chemical_formula_structural   Bi(Sb2Pb)2
_chemical_formula_sum   'Bi1 Sb4 Pb2'
_cell_volume   243.75136207
_cell_formula_units_Z   1
loop_
 _symmetry_equiv_pos_site_id
 _symmetry_equiv_pos_as_xyz
  1  'x, y, z'
loop_
 _atom_site_type_symbol
 _atom_site_label
 _atom_site_symmetry_multiplicity
 _atom_site_fract_x
 _atom_site_fract_y
 _atom_site_fract_z
 _atom_site_occupancy
  Bi  Bi0  1  0.00000000  0.50000000  0.49999998  1
  Sb  Sb1  1  0.50000000  0.00000000  0.49999998  1
  Sb  Sb2  1  0.00000000  0.00000000  0.00000000  1
  Sb  Sb3  1  0.26377600  0.26377600  0.27118499  1
  Sb  Sb4  1  0.73622400  0.73622400  0.27118499  1
  Pb  Pb5  1  0.26377600  0.73622400  0.72881498  1
  Pb  Pb6  1  0.73622400  0.26377600  0.72881498  1
