# generated using pymatgen
data_Rb3TlS2
_symmetry_space_group_name_H-M   'P 1'
_cell_length_a   4.27380991
_cell_length_b   7.88965511
_cell_length_c   11.92362595
_cell_angle_alpha   90.00000000
_cell_angle_beta   100.32409668
_cell_angle_gamma   90.00000000
_symmetry_Int_Tables_number   1
_chemical_formula_structural   Rb3TlS2
_chemical_formula_sum   'Rb6 Tl2 S4'
_cell_volume   395.54207509
_cell_formula_units_Z   2
loop_
 _symmetry_equiv_pos_site_id
 _symmetry_equiv_pos_as_xyz
  1  'x, y, z'
loop_
 _atom_site_type_symbol
 _atom_site_label
 _atom_site_symmetry_multiplicity
 _atom_site_fract_x
 _atom_site_fract_y
 _atom_site_fract_z
 _atom_site_occupancy
  Rb  Rb0  1  0.99703801  0.25000000  0.99407595  1
  Rb  Rb1  1  0.82180401  0.74999999  0.64360796  1
  Rb  Rb2  1  0.17819600  0.25000000  0.35639199  1
  Rb  Rb3  1  0.00296200  0.74999999  0.00592400  1
  Rb  Rb4  1  0.35217600  0.25000000  0.70435197  1
  Rb  Rb5  1  0.64782401  0.74999999  0.29564798  1
  Tl  Tl6  1  0.20194200  0.74999999  0.40388398  1
  Tl  Tl7  1  0.79805801  0.25000000  0.59611596  1
  S  S8  1  0.41149600  0.00218600  0.82299197  1
  S  S9  1  0.58850401  0.99781399  0.17700798  1
  S  S10  1  0.41149600  0.49781399  0.82299197  1
  S  S11  1  0.58850401  0.50218599  0.17700798  1
