# generated using pymatgen
data_Na7LaBiO10
_symmetry_space_group_name_H-M   'P 1'
_cell_length_a   3.75906801
_cell_length_b   5.49971294
_cell_length_c   13.94079876
_cell_angle_alpha   101.18785095
_cell_angle_beta   97.74835968
_cell_angle_gamma   90.00000000
_symmetry_Int_Tables_number   1
_chemical_formula_structural   Na7LaBiO10
_chemical_formula_sum   'Na7 La1 Bi1 O10'
_cell_volume   280.04930073
_cell_formula_units_Z   1
loop_
 _symmetry_equiv_pos_site_id
 _symmetry_equiv_pos_as_xyz
  1  'x, y, z'
loop_
 _atom_site_type_symbol
 _atom_site_label
 _atom_site_symmetry_multiplicity
 _atom_site_fract_x
 _atom_site_fract_y
 _atom_site_fract_z
 _atom_site_occupancy
  Na  Na0  1  0.14324500  0.14532000  0.28649000  1
  La  La1  1  0.71969100  0.72179999  0.43938199  1
  Na  Na2  1  0.57505900  0.56783399  0.15011799  1
  Na  Na3  1  0.99584900  0.05097500  0.99169801  1
  Na  Na4  1  0.42747800  0.42815599  0.85495600  1
  Na  Na5  1  0.28182200  0.29256499  0.56364400  1
  Na  Na6  1  0.85768499  0.80501298  0.71536999  1
  Na  Na7  1  0.79771400  0.03948200  0.59542801  1
  Bi  Bi8  1  0.91428000  0.16494300  0.82856001  1
  O  O9  1  0.07362700  0.32824799  0.14725399  1
  O  O10  1  0.64280000  0.38896899  0.28560000  1
  O  O11  1  0.49828700  0.26629999  0.99657400  1
  O  O12  1  0.21226500  0.46637299  0.42452999  1
  O  O13  1  0.94510700  0.68689399  0.89021400  1
  O  O14  1  0.78296900  0.53210199  0.56593800  1
  O  O15  1  0.35943300  0.59118499  0.71886599  1
  O  O16  1  0.21536199  0.97020498  0.43072398  1
  O  O17  1  0.64055099  0.88724398  0.28110199  1
  O  O18  1  0.05962300  0.80924698  0.11924599  1
