# generated using pymatgen
data_Al2CrSi(PS7)2
_symmetry_space_group_name_H-M   'P 1'
_cell_length_a   5.51524782
_cell_length_b   5.58613300
_cell_length_c   9.63139439
_cell_angle_alpha   90.00000000
_cell_angle_beta   90.00000000
_cell_angle_gamma   90.00000000
_symmetry_Int_Tables_number   1
_chemical_formula_structural   Al2CrSi(PS7)2
_chemical_formula_sum   'Al2 Cr1 Si1 P2 S14'
_cell_volume   296.73274239
_cell_formula_units_Z   1
loop_
 _symmetry_equiv_pos_site_id
 _symmetry_equiv_pos_as_xyz
  1  'x, y, z'
loop_
 _atom_site_type_symbol
 _atom_site_label
 _atom_site_symmetry_multiplicity
 _atom_site_fract_x
 _atom_site_fract_y
 _atom_site_fract_z
 _atom_site_occupancy
  Al  Al0  1  0.12535700  0.91965200  0.36096299  1
  Cr  Cr1  1  0.37464301  0.08034800  0.86096297  1
  Al  Al2  1  0.87464303  0.41965200  0.13903699  1
  Si  Si3  1  0.62535702  0.58034800  0.63903697  1
  S  S4  1  0.55275102  0.89650100  0.74165697  1
  P  P5  1  0.94724903  0.10349900  0.24165699  1
  S  S6  1  0.44724901  0.39650100  0.75834297  1
  P  P7  1  0.05275100  0.60349900  0.25834299  1
  S  S8  1  0.86273703  0.80406900  0.49383598  1
  S  S9  1  0.30041801  0.83316800  0.98986296  1
  S  S10  1  0.07217800  0.05109200  0.76949497  1
  S  S11  1  0.42782201  0.94890800  0.26949499  1
  S  S12  1  0.19958201  0.16683200  0.48986298  1
  S  S13  1  0.63726302  0.19593100  0.99383596  1
  S  S14  1  0.13726300  0.30406900  0.00616400  1
  S  S15  1  0.69958202  0.33316800  0.51013698  1
  S  S16  1  0.92782203  0.55109200  0.73050497  1
  S  S17  1  0.57217802  0.44890800  0.23050499  1
  S  S18  1  0.80041803  0.66683200  0.01013700  1
  S  S19  1  0.36273701  0.69593100  0.50616398  1
