# generated using pymatgen
data_KRb3Cu3Te5
_symmetry_space_group_name_H-M   'P 1'
_cell_length_a   6.88401794
_cell_length_b   7.70856810
_cell_length_c   8.94718933
_cell_angle_alpha   115.51716614
_cell_angle_beta   112.62528992
_cell_angle_gamma   90.00000000
_symmetry_Int_Tables_number   1
_chemical_formula_structural   KRb3Cu3Te5
_chemical_formula_sum   'K1 Rb3 Cu3 Te5'
_cell_volume   387.59659466
_cell_formula_units_Z   1
loop_
 _symmetry_equiv_pos_site_id
 _symmetry_equiv_pos_as_xyz
  1  'x, y, z'
loop_
 _atom_site_type_symbol
 _atom_site_label
 _atom_site_symmetry_multiplicity
 _atom_site_fract_x
 _atom_site_fract_y
 _atom_site_fract_z
 _atom_site_occupancy
  K  K0  1  0.18441493  0.98343995  0.36882991  1
  Rb  Rb1  1  0.74999996  0.49999997  -0.00000007  1
  Rb  Rb2  1  0.68441497  0.38538998  0.36882994  1
  Rb  Rb3  1  0.31558496  0.61460997  0.63116993  1
  Cu  Cu4  1  0.24999996  0.49999997  0.99999994  1
  Te  Te5  1  0.81558499  0.01656000  0.63116995  1
  Cu  Cu6  1  0.25000000  0.00000000  -0.00000001  1
  Cu  Cu7  1  0.74999993  0.99999995  -0.00000011  1
  Te  Te8  1  0.59711493  0.90729795  0.19422890  1
  Te  Te9  1  0.40288499  0.09270200  0.80577096  1
  Te  Te10  1  0.90288594  0.71306896  0.80577189  1
  Te  Te11  1  0.09711398  0.28693099  0.19422797  1
