# generated using pymatgen
data_LiCu2S7
_symmetry_space_group_name_H-M   'P 1'
_cell_length_a   5.40878105
_cell_length_b   6.45938253
_cell_length_c   6.98163652
_cell_angle_alpha   76.71876526
_cell_angle_beta   89.68563843
_cell_angle_gamma   89.91291809
_symmetry_Int_Tables_number   1
_chemical_formula_structural   LiCu2S7
_chemical_formula_sum   'Li2 Cu4 S14'
_cell_volume   237.39270010
_cell_formula_units_Z   2
loop_
 _symmetry_equiv_pos_site_id
 _symmetry_equiv_pos_as_xyz
  1  'x, y, z'
loop_
 _atom_site_type_symbol
 _atom_site_label
 _atom_site_symmetry_multiplicity
 _atom_site_fract_x
 _atom_site_fract_y
 _atom_site_fract_z
 _atom_site_occupancy
  Li  Li0  1  0.71126991  0.86972099  0.15312904  1
  Li  Li1  1  0.70089996  0.37161699  0.15262304  1
  Cu  Cu2  1  0.19709597  0.32197300  0.34922201  1
  Cu  Cu3  1  0.21367692  0.82175299  0.34208102  1
  Cu  Cu4  1  0.77674595  0.50332799  0.61523503  1
  Cu  Cu5  1  0.75990499  0.00893200  0.60115803  1
  S  S6  1  0.31017893  0.69238899  0.86902901  1
  S  S7  1  0.27481498  0.18398700  0.89674300  1
  S  S8  1  0.42798494  0.61511599  0.18025603  1
  S  S9  1  0.42227199  0.10982200  0.19548402  1
  S  S10  1  0.92626494  0.58079099  0.31356505  1
  S  S11  1  0.92474498  0.08269900  0.30482704  1
  S  S12  1  0.52659593  0.77303599  0.52463403  1
  S  S13  1  0.04348998  0.24412200  0.63818599  1
  S  S14  1  0.55021391  0.95207299  0.86600902  1
  S  S15  1  0.54310396  0.43182799  0.86671902  1
  S  S16  1  0.55398297  0.29036800  0.49240802  1
  S  S17  1  0.02770393  0.75169599  0.64200700  1
  S  S18  1  0.06120192  0.89964299  0.00398402  1
  S  S19  1  0.04785096  0.41887399  0.99269999  1
