# generated using pymatgen
data_K2NaOF4
_symmetry_space_group_name_H-M   'P 1'
_cell_length_a   4.19275618
_cell_length_b   4.19275475
_cell_length_c   7.37797689
_cell_angle_alpha   90.00000000
_cell_angle_beta   90.00000000
_cell_angle_gamma   120.00000763
_symmetry_Int_Tables_number   1
_chemical_formula_structural   K2NaOF4
_chemical_formula_sum   'K2 Na1 O1 F4'
_cell_volume   112.32255030
_cell_formula_units_Z   1
loop_
 _symmetry_equiv_pos_site_id
 _symmetry_equiv_pos_as_xyz
  1  'x, y, z'
loop_
 _atom_site_type_symbol
 _atom_site_label
 _atom_site_symmetry_multiplicity
 _atom_site_fract_x
 _atom_site_fract_y
 _atom_site_fract_z
 _atom_site_occupancy
  K  K0  1  0.33333331  0.66666669  0.25000000  1
  K  K1  1  0.66666663  0.33333335  0.75000001  1
  Na  Na2  1  0.66666663  0.33333335  0.07860500  1
  F  F3  1  0.33333331  0.66666669  0.57860501  1
  O  O4  1  0.00000000  0.00000000  0.75000001  1
  F  F5  1  0.00000000  0.00000000  0.25000000  1
  F  F6  1  0.66666663  0.33333335  0.42139501  1
  F  F7  1  0.33333331  0.66666669  0.92139501  1
