# generated using pymatgen
data_Rb2Na2AlVO8
_symmetry_space_group_name_H-M   'P 1'
_cell_length_a   6.08180618
_cell_length_b   6.08180571
_cell_length_c   7.99080896
_cell_angle_alpha   90.00000000
_cell_angle_beta   90.00000000
_cell_angle_gamma   120.00000000
_symmetry_Int_Tables_number   1
_chemical_formula_structural   Rb2Na2AlVO8
_chemical_formula_sum   'Rb2 Na2 Al1 V1 O8'
_cell_volume   255.96848460
_cell_formula_units_Z   1
loop_
 _symmetry_equiv_pos_site_id
 _symmetry_equiv_pos_as_xyz
  1  'x, y, z'
loop_
 _atom_site_type_symbol
 _atom_site_label
 _atom_site_symmetry_multiplicity
 _atom_site_fract_x
 _atom_site_fract_y
 _atom_site_fract_z
 _atom_site_occupancy
  Rb  Rb0  1  0.66666663  0.33333332  0.29854500  1
  Na  Na1  1  0.33333329  0.66666664  0.70145500  1
  Rb  Rb2  1  0.00000000  0.00000000  0.00000000  1
  Na  Na3  1  0.00000000  0.00000000  0.50000000  1
  Al  Al4  1  0.66666663  0.33333332  0.74468500  1
  V  V5  1  0.33333329  0.66666664  0.25531500  1
  O  O6  1  0.66666663  0.33333332  0.95522600  1
  O  O7  1  0.33333329  0.66666664  0.04477400  1
  O  O8  1  0.82452294  0.64904597  0.66857000  1
  O  O9  1  0.17547698  0.35095398  0.33143000  1
  O  O10  1  0.82452297  0.17547699  0.66857000  1
  O  O11  1  0.17547696  0.82452296  0.33143000  1
  O  O12  1  0.35095398  0.17547699  0.66857000  1
  O  O13  1  0.64904594  0.82452296  0.33143000  1
