# generated using pymatgen
data_VCoSi2PO6
_symmetry_space_group_name_H-M   'P 1'
_cell_length_a   4.56605101
_cell_length_b   5.27411079
_cell_length_c   5.27411079
_cell_angle_alpha   77.56864166
_cell_angle_beta   81.42842865
_cell_angle_gamma   98.57157135
_symmetry_Int_Tables_number   1
_chemical_formula_structural   VCoSi2PO6
_chemical_formula_sum   'V1 Co1 Si2 P1 O6'
_cell_volume   120.47028303
_cell_formula_units_Z   1
loop_
 _symmetry_equiv_pos_site_id
 _symmetry_equiv_pos_as_xyz
  1  'x, y, z'
loop_
 _atom_site_type_symbol
 _atom_site_label
 _atom_site_symmetry_multiplicity
 _atom_site_fract_x
 _atom_site_fract_y
 _atom_site_fract_z
 _atom_site_occupancy
  V  V0  1  0.00000003  0.75074301  0.75074300  1
  Co  Co1  1  0.00000000  0.12638300  0.12638300  1
  Si  Si2  1  0.40997403  0.66776401  0.25302099  1
  Si  Si3  1  0.59002602  0.25302100  0.66776399  1
  P  P4  1  0.25502802  0.46271900  0.12767799  1
  O  O5  1  0.70984004  0.81650501  0.07275098  1
  O  O6  1  0.19754503  0.84285801  0.34861100  1
  O  O7  1  0.50000003  0.52581600  0.52581599  1
  O  O8  1  0.29016001  0.07275100  0.81650500  1
  O  O9  1  0.74497201  0.12767800  0.46271899  1
  O  O10  1  0.80245502  0.34861100  0.84285798  1
