# generated using pymatgen
data_In4SnS4
_symmetry_space_group_name_H-M   'P 1'
_cell_length_a   6.15920925
_cell_length_b   8.07649136
_cell_length_c   8.07649136
_cell_angle_alpha   89.30910492
_cell_angle_beta   89.48572540
_cell_angle_gamma   89.48572540
_symmetry_Int_Tables_number   1
_chemical_formula_structural   In4SnS4
_chemical_formula_sum   'In8 Sn2 S8'
_cell_volume   401.70226022
_cell_formula_units_Z   2
loop_
 _symmetry_equiv_pos_site_id
 _symmetry_equiv_pos_as_xyz
  1  'x, y, z'
loop_
 _atom_site_type_symbol
 _atom_site_label
 _atom_site_symmetry_multiplicity
 _atom_site_fract_x
 _atom_site_fract_y
 _atom_site_fract_z
 _atom_site_occupancy
  In  In0  1  0.01638701  0.25916300  0.89597398  1
  In  In1  1  0.48361301  0.10402600  0.74083700  1
  In  In2  1  0.98361303  0.74083700  0.10402597  1
  In  In3  1  0.51638703  0.89597400  0.25916295  1
  In  In4  1  0.98683301  0.10291000  0.25743801  1
  In  In5  1  0.51316703  0.74256200  0.89708996  1
  In  In6  1  0.01316702  0.89709000  0.74256194  1
  In  In7  1  0.48683301  0.25743800  0.10290999  1
  S  S8  1  0.75000001  0.00921500  0.99078501  1
  Sn  Sn9  1  0.25000003  0.99078500  0.00921494  1
  S  S10  1  0.10218701  0.18081500  0.57825399  1
  S  S11  1  0.39781302  0.42174600  0.81918498  1
  Sn  Sn12  1  0.89781303  0.81918500  0.42174596  1
  S  S13  1  0.60218702  0.57825400  0.18081497  1
  S  S14  1  0.10470801  0.41832800  0.19320997  1
  S  S15  1  0.39529203  0.80679000  0.58167195  1
  S  S16  1  0.89529202  0.58167200  0.80678998  1
  S  S17  1  0.60470801  0.19321000  0.41832800  1
