# generated using pymatgen
data_BPO3
_symmetry_space_group_name_H-M   'P 1'
_cell_length_a   4.54863977
_cell_length_b   5.15351868
_cell_length_c   5.15351868
_cell_angle_alpha   79.86732483
_cell_angle_beta   81.81704712
_cell_angle_gamma   98.18295288
_symmetry_Int_Tables_number   1
_chemical_formula_structural   BPO3
_chemical_formula_sum   'B2 P2 O6'
_cell_volume   115.96155210
_cell_formula_units_Z   2
loop_
 _symmetry_equiv_pos_site_id
 _symmetry_equiv_pos_as_xyz
  1  'x, y, z'
loop_
 _atom_site_type_symbol
 _atom_site_label
 _atom_site_symmetry_multiplicity
 _atom_site_fract_x
 _atom_site_fract_y
 _atom_site_fract_z
 _atom_site_occupancy
  B  B0  1  0.99999997  0.88772100  0.88772100  1
  P  P1  1  0.40992097  0.74008600  0.33402099  1
  P  P2  1  0.59007899  0.33402100  0.74008601  1
  B  B3  1  0.73657398  0.55536300  0.86269801  1
  O  O4  1  0.19744697  0.66357100  0.14300998  1
  O  O5  1  0.70461896  0.92172900  0.18415899  1
  O  O6  1  0.80255300  0.14301000  0.66357103  1
  O  O7  1  0.49999998  0.46113200  0.46113200  1
  O  O8  1  0.29538099  0.18415900  0.92172900  1
  O  O9  1  0.26342596  0.86269800  0.55536298  1
