# generated using pymatgen
data_Li5MnAg2SO11
_symmetry_space_group_name_H-M   'P 1'
_cell_length_a   5.15544844
_cell_length_b   5.19143295
_cell_length_c   7.85222101
_cell_angle_alpha   108.37833405
_cell_angle_beta   101.69252777
_cell_angle_gamma   101.43211365
_symmetry_Int_Tables_number   1
_chemical_formula_structural   Li5MnAg2SO11
_chemical_formula_sum   'Li5 Mn1 Ag2 S1 O11'
_cell_volume   187.37172055
_cell_formula_units_Z   1
loop_
 _symmetry_equiv_pos_site_id
 _symmetry_equiv_pos_as_xyz
  1  'x, y, z'
loop_
 _atom_site_type_symbol
 _atom_site_label
 _atom_site_symmetry_multiplicity
 _atom_site_fract_x
 _atom_site_fract_y
 _atom_site_fract_z
 _atom_site_occupancy
  Li  Li0  1  0.69809495  0.38502800  0.39126300  1
  Li  Li1  1  0.77631794  0.59628699  0.10088500  1
  Li  Li2  1  0.56696497  0.19431600  0.69243201  1
  Li  Li3  1  0.49999998  0.00000000  0.00000001  1
  Mn  Mn4  1  0.22368197  0.40371300  0.89911499  1
  Li  Li5  1  0.43303495  0.80568399  0.30756798  1
  Ag  Ag6  1  0.30190496  0.61497199  0.60873699  1
  Ag  Ag7  1  0.99999991  0.99999999  0.49999999  1
  O  O8  1  0.89067793  0.78435699  0.78394900  1
  S  S9  1  0.10932199  0.21564300  0.21605100  1
  O  O10  1  0.05181397  0.56577399  0.33480298  1
  O  O11  1  0.77877397  0.00955700  0.24992102  1
  O  O12  1  0.22122594  0.99044299  0.75007897  1
  O  O13  1  0.42757396  0.39077900  0.15494900  1
  O  O14  1  0.94818594  0.43422599  0.66519701  1
  O  O15  1  0.13104796  0.82638499  0.04153498  1
  O  O16  1  0.33446598  0.18689500  0.42805900  1
  O  O17  1  0.86895196  0.17361500  0.95846501  1
  O  O18  1  0.57242595  0.60922099  0.84505099  1
  O  O19  1  0.66553394  0.81310399  0.57194099  1
