# generated using pymatgen
data_Li2PrCu5S12
_symmetry_space_group_name_H-M   'P 1'
_cell_length_a   5.89695024
_cell_length_b   6.07715178
_cell_length_c   8.44091415
_cell_angle_alpha   90.00000000
_cell_angle_beta   90.16872406
_cell_angle_gamma   90.00000000
_symmetry_Int_Tables_number   1
_chemical_formula_structural   Li2PrCu5S12
_chemical_formula_sum   'Li2 Pr1 Cu5 S12'
_cell_volume   302.49287297
_cell_formula_units_Z   1
loop_
 _symmetry_equiv_pos_site_id
 _symmetry_equiv_pos_as_xyz
  1  'x, y, z'
loop_
 _atom_site_type_symbol
 _atom_site_label
 _atom_site_symmetry_multiplicity
 _atom_site_fract_x
 _atom_site_fract_y
 _atom_site_fract_z
 _atom_site_occupancy
  Pr  Pr0  1  0.01188100  0.45440402  0.25333699  1
  Li  Li1  1  0.98811896  0.54559602  0.74666296  1
  Cu  Cu2  1  0.48811898  0.95440404  0.24666299  1
  Li  Li3  1  0.51188098  0.04559600  0.75333696  1
  Cu  Cu4  1  0.00000000  0.00000000  0.49999997  1
  Cu  Cu5  1  0.49999998  0.50000002  0.00000000  1
  Cu  Cu6  1  0.00000000  0.00000000  0.00000000  1
  Cu  Cu7  1  0.49999998  0.50000002  0.49999998  1
  S  S8  1  0.90608597  0.03738500  0.22865699  1
  S  S9  1  0.09391400  0.96261504  0.77134296  1
  S  S10  1  0.59391398  0.53738502  0.27134299  1
  S  S11  1  0.40608599  0.46261502  0.72865696  1
  S  S12  1  0.18292899  0.72727803  0.05607800  1
  S  S13  1  0.81707097  0.27272201  0.94392195  1
  S  S14  1  0.31707099  0.22727801  0.44392198  1
  S  S15  1  0.68292898  0.77272203  0.55607797  1
  S  S16  1  0.27600899  0.18577901  0.04434700  1
  S  S17  1  0.72399097  0.81422103  0.95565295  1
  S  S18  1  0.22399099  0.68577903  0.45565298  1
  S  S19  1  0.77600897  0.31422101  0.54434697  1
