# generated using pymatgen
data_Na2O
_symmetry_space_group_name_H-M   'P 1'
_cell_length_a   3.83898497
_cell_length_b   7.42789125
_cell_length_c   7.44708395
_cell_angle_alpha   86.28540802
_cell_angle_beta   75.18305969
_cell_angle_gamma   75.21562195
_symmetry_Int_Tables_number   1
_chemical_formula_structural   Na2O
_chemical_formula_sum   'Na8 O4'
_cell_volume   198.49965705
_cell_formula_units_Z   4
loop_
 _symmetry_equiv_pos_site_id
 _symmetry_equiv_pos_as_xyz
  1  'x, y, z'
loop_
 _atom_site_type_symbol
 _atom_site_label
 _atom_site_symmetry_multiplicity
 _atom_site_fract_x
 _atom_site_fract_y
 _atom_site_fract_z
 _atom_site_occupancy
  Na  Na0  1  0.24784898  0.49342100  0.49989400  1
  Na  Na1  1  0.61745899  0.16098300  0.11538401  1
  Na  Na2  1  0.90589696  0.84265999  0.88759701  1
  Na  Na3  1  0.23575999  0.11978700  0.84491099  1
  Na  Na4  1  0.20031996  0.89178699  0.14757601  1
  Na  Na5  1  0.57308597  0.56820799  0.97651799  1
  Na  Na6  1  0.84935699  0.06288700  0.59264801  1
  Na  Na7  1  0.50889396  0.93275499  0.39770301  1
  O  O8  1  0.79665397  0.69375999  0.17324502  1
  O  O9  1  0.66077198  0.30222000  0.83557900  1
  O  O10  1  0.02230099  0.17558100  0.30472999  1
  O  O11  1  0.50764996  0.83194999  0.69621500  1
