# generated using pymatgen
data_Li2PrCu3(PS6)2
_symmetry_space_group_name_H-M   'P 1'
_cell_length_a   5.70567942
_cell_length_b   5.93742895
_cell_length_c   8.23748302
_cell_angle_alpha   90.00000000
_cell_angle_beta   90.09321594
_cell_angle_gamma   90.00000000
_symmetry_Int_Tables_number   1
_chemical_formula_structural   Li2PrCu3(PS6)2
_chemical_formula_sum   'Li2 Pr1 Cu3 P2 S12'
_cell_volume   279.06138805
_cell_formula_units_Z   1
loop_
 _symmetry_equiv_pos_site_id
 _symmetry_equiv_pos_as_xyz
  1  'x, y, z'
loop_
 _atom_site_type_symbol
 _atom_site_label
 _atom_site_symmetry_multiplicity
 _atom_site_fract_x
 _atom_site_fract_y
 _atom_site_fract_z
 _atom_site_occupancy
  Pr  Pr0  1  0.51231999  0.94879001  0.24556801  1
  Li  Li1  1  0.01232000  0.55121000  0.74556800  1
  Cu  Cu2  1  0.99926598  0.99709001  0.49956101  1
  Li  Li3  1  0.49926599  0.50291000  0.99956100  1
  Cu  Cu4  1  0.48728399  0.05224000  0.75434800  1
  Cu  Cu5  1  0.98728398  0.44776000  0.25434801  1
  P  P6  1  0.49958799  0.50106600  0.50123300  1
  P  P7  1  0.99958798  0.99893401  0.00123301  1
  S  S8  1  0.82837698  0.71595801  0.06744401  1
  S  S9  1  0.32837699  0.78404201  0.56744400  1
  S  S10  1  0.17145000  0.28135800  0.93239400  1
  S  S11  1  0.67144999  0.21864200  0.43239401  1
  S  S12  1  0.38753999  0.55323500  0.27072100  1
  S  S13  1  0.88753998  0.94676501  0.77072101  1
  S  S14  1  0.61354899  0.44930400  0.72934201  1
  S  S15  1  0.11354900  0.05069600  0.22934200  1
  S  S16  1  0.78862599  0.67699401  0.44778601  1
  S  S17  1  0.28862599  0.82300601  0.94778600  1
  S  S18  1  0.21200000  0.32302400  0.55160300  1
  S  S19  1  0.71199999  0.17697600  0.05160301  1
