# generated using pymatgen
data_BiSb4TeAs2PSe4S6N
_symmetry_space_group_name_H-M   'P 1'
_cell_length_a   5.64574003
_cell_length_b   8.04110241
_cell_length_c   8.04110241
_cell_angle_alpha   90.00000000
_cell_angle_beta   90.00000000
_cell_angle_gamma   90.00000000
_symmetry_Int_Tables_number   1
_chemical_formula_structural   BiSb4TeAs2PSe4S6N
_chemical_formula_sum   'Bi1 Sb4 Te1 As2 P1 Se4 S6 N1'
_cell_volume   365.04975631
_cell_formula_units_Z   1
loop_
 _symmetry_equiv_pos_site_id
 _symmetry_equiv_pos_as_xyz
  1  'x, y, z'
loop_
 _atom_site_type_symbol
 _atom_site_label
 _atom_site_symmetry_multiplicity
 _atom_site_fract_x
 _atom_site_fract_y
 _atom_site_fract_z
 _atom_site_occupancy
  Te  Te0  1  0.30908400  0.99999995  0.27486599  1
  Bi  Bi1  1  0.80908400  0.77486596  0.49999997  1
  Sb  Sb2  1  0.80908400  0.22513399  0.49999997  1
  Sb  Sb3  1  0.30908400  0.00000000  0.72513396  1
  Sb  Sb4  1  0.19091600  0.49999997  0.77486596  1
  Sb  Sb5  1  0.69091600  0.27486599  -0.00000000  1
  As  As6  1  0.69091600  0.72513396  0.00000000  1
  As  As7  1  0.19091600  0.49999997  0.22513399  1
  N  N8  1  0.10173600  0.99999995  0.49999997  1
  Se  Se9  1  0.60173600  0.99999995  0.49999997  1
  S  S10  1  0.89826399  0.49999997  -0.00000000  1
  S  S11  1  0.39826400  0.49999997  0.00000000  1
  P  P12  1  0.50000000  0.29595898  0.29595898  1
  Se  Se13  1  0.50000000  0.70404096  0.29595898  1
  S  S14  1  0.50000000  0.29595898  0.70404096  1
  S  S15  1  0.50000000  0.70404096  0.70404096  1
  S  S16  1  0.00000000  0.79595896  0.79595896  1
  S  S17  1  0.99999999  0.20404099  0.79595896  1
  Se  Se18  1  0.00000000  0.79595896  0.20404099  1
  Se  Se19  1  0.00000000  0.20404099  0.20404099  1
