# generated using pymatgen
data_Na6AuO7
_symmetry_space_group_name_H-M   'P 1'
_cell_length_a   5.52357483
_cell_length_b   5.52357483
_cell_length_c   7.22498083
_cell_angle_alpha   90.00000000
_cell_angle_beta   90.00000000
_cell_angle_gamma   115.56100464
_symmetry_Int_Tables_number   1
_chemical_formula_structural   Na6AuO7
_chemical_formula_sum   'Na6 Au1 O7'
_cell_volume   198.85868916
_cell_formula_units_Z   1
loop_
 _symmetry_equiv_pos_site_id
 _symmetry_equiv_pos_as_xyz
  1  'x, y, z'
loop_
 _atom_site_type_symbol
 _atom_site_label
 _atom_site_symmetry_multiplicity
 _atom_site_fract_x
 _atom_site_fract_y
 _atom_site_fract_z
 _atom_site_occupancy
  Na  Na0  1  0.50000002  0.50000003  -0.00000000  1
  Na  Na1  1  0.50000002  0.50000003  0.50000001  1
  Na  Na2  1  0.18145605  0.81854405  0.75000002  1
  Na  Na3  1  0.81854399  0.18145601  0.25000001  1
  Na  Na4  1  0.14711905  0.85288105  0.25000001  1
  Na  Na5  1  0.85288099  0.14711901  0.75000002  1
  O  O6  1  0.24983404  0.75016605  0.06411300  1
  Au  Au7  1  0.75016600  0.24983402  0.56411301  1
  O  O8  1  0.75016600  0.24983402  0.93588702  1
  O  O9  1  0.24983404  0.75016605  0.43588701  1
  O  O10  1  0.27269501  0.18807601  0.25000001  1
  O  O11  1  0.72730504  0.81192405  0.75000002  1
  O  O12  1  0.81192403  0.72730505  0.25000001  1
  O  O13  1  0.18807601  0.27269502  0.75000002  1
