# generated using pymatgen
data_Rb3AuBr5
_symmetry_space_group_name_H-M   'P 1'
_cell_length_a   8.47717953
_cell_length_b   9.43751144
_cell_length_c   8.47717953
_cell_angle_alpha   63.31266022
_cell_angle_beta   90.00000000
_cell_angle_gamma   116.68733978
_symmetry_Int_Tables_number   1
_chemical_formula_structural   Rb3AuBr5
_chemical_formula_sum   'Rb6 Au2 Br10'
_cell_volume   523.83492770
_cell_formula_units_Z   2
loop_
 _symmetry_equiv_pos_site_id
 _symmetry_equiv_pos_as_xyz
  1  'x, y, z'
loop_
 _atom_site_type_symbol
 _atom_site_label
 _atom_site_symmetry_multiplicity
 _atom_site_fract_x
 _atom_site_fract_y
 _atom_site_fract_z
 _atom_site_occupancy
  Rb  Rb0  1  0.65505804  0.00000000  0.15505801  1
  Rb  Rb1  1  0.34494202  0.00000000  0.84494205  1
  Rb  Rb2  1  0.15505801  0.00000000  0.34494202  1
  Rb  Rb3  1  0.84494205  0.00000000  0.65505804  1
  Rb  Rb4  1  0.75000003  0.49999997  0.25000002  1
  Rb  Rb5  1  0.25000000  0.49999997  0.75000005  1
  Au  Au6  1  0.75000003  0.49999997  0.75000005  1
  Au  Au7  1  0.25000000  0.49999997  0.25000002  1
  Br  Br8  1  0.01509199  0.71576895  0.79932306  1
  Br  Br9  1  0.70067702  0.71576895  0.48490804  1
  Br  Br10  1  0.51509201  0.71576895  0.98490807  1
  Br  Br11  1  0.20067700  0.71576895  0.29932303  1
  Br  Br12  1  0.98490805  0.28423098  0.20067702  1
  Br  Br13  1  0.29932301  0.28423098  0.51509203  1
  Br  Br14  1  0.48490802  0.28423098  0.01509201  1
  Br  Br15  1  0.79932304  0.28423098  0.70067704  1
  Br  Br16  1  0.00000000  0.00000000  0.00000000  1
  Br  Br17  1  0.50000003  0.00000000  0.50000003  1
