# generated using pymatgen
data_Ba3Sr(SnS3)4
_symmetry_space_group_name_H-M   'P 1'
_cell_length_a   6.42156506
_cell_length_b   6.92966890
_cell_length_c   11.87969208
_cell_angle_alpha   90.00000000
_cell_angle_beta   84.76766205
_cell_angle_gamma   90.00000000
_symmetry_Int_Tables_number   1
_chemical_formula_structural   Ba3Sr(SnS3)4
_chemical_formula_sum   'Ba3 Sr1 Sn4 S12'
_cell_volume   526.43542580
_cell_formula_units_Z   1
loop_
 _symmetry_equiv_pos_site_id
 _symmetry_equiv_pos_as_xyz
  1  'x, y, z'
loop_
 _atom_site_type_symbol
 _atom_site_label
 _atom_site_symmetry_multiplicity
 _atom_site_fract_x
 _atom_site_fract_y
 _atom_site_fract_z
 _atom_site_occupancy
  Ba  Ba0  1  0.77073599  0.75000001  0.04566202  1
  Ba  Ba1  1  0.56724299  0.75000001  0.65306300  1
  Sr  Sr2  1  0.22926400  0.25000000  0.95433798  1
  Ba  Ba3  1  0.43275699  0.25000000  0.34693700  1
  Sn  Sn4  1  0.99109699  0.75000001  0.44949102  1
  Sn  Sn5  1  0.88298199  0.00603000  0.80476200  1
  Sn  Sn6  1  0.67843699  0.25000000  0.77763400  1
  Sn  Sn7  1  0.32553300  0.75000001  0.40652300  1
  S  S8  1  0.85528299  0.58029901  0.31311302  1
  S  S9  1  0.85528299  0.91970101  0.31311302  1
  S  S10  1  0.14471700  0.08029900  0.68688698  1
  S  S11  1  0.11701800  0.99397001  0.19523800  1
  S  S12  1  0.32156300  0.75000001  0.22236600  1
  S  S13  1  0.11701800  0.50603001  0.19523800  1
  S  S14  1  0.14471700  0.41970101  0.68688698  1
  S  S15  1  0.67446699  0.25000000  0.59347700  1
  S  S16  1  0.88298199  0.49397001  0.80476200  1
  S  S17  1  0.00890300  0.25000000  0.55050898  1
  S  S18  1  0.63495899  0.25000000  0.08898702  1
  S  S19  1  0.36504099  0.75000001  0.91101298  1
