# generated using pymatgen
data_BaSrI4
_symmetry_space_group_name_H-M   'P 1'
_cell_length_a   7.66206408
_cell_length_b   7.66206408
_cell_length_c   14.62393761
_cell_angle_alpha   90.00000000
_cell_angle_beta   90.00000000
_cell_angle_gamma   90.00000000
_symmetry_Int_Tables_number   1
_chemical_formula_structural   BaSrI4
_chemical_formula_sum   'Ba3 Sr3 I12'
_cell_volume   858.53080858
_cell_formula_units_Z   3
loop_
 _symmetry_equiv_pos_site_id
 _symmetry_equiv_pos_as_xyz
  1  'x, y, z'
loop_
 _atom_site_type_symbol
 _atom_site_label
 _atom_site_symmetry_multiplicity
 _atom_site_fract_x
 _atom_site_fract_y
 _atom_site_fract_z
 _atom_site_occupancy
  Ba  Ba0  1  0.00000000  0.00000000  0.33359301  1
  Ba  Ba1  1  0.00000000  0.00000000  0.66640702  1
  Ba  Ba2  1  0.50000000  0.50000000  0.16640700  1
  Sr  Sr3  1  0.50000000  0.50000000  0.83359302  1
  Sr  Sr4  1  0.00000000  0.00000000  0.00000000  1
  Sr  Sr5  1  0.50000000  0.50000000  0.50000001  1
  I  I6  1  0.19408500  0.80591499  0.16006700  1
  I  I7  1  0.19408500  0.80591499  0.83993302  1
  I  I8  1  0.20533600  0.79466399  0.50000001  1
  I  I9  1  0.29466400  0.29466400  -0.00000000  1
  I  I10  1  0.30591500  0.30591500  0.33993301  1
  I  I11  1  0.30591500  0.30591500  0.66006702  1
  I  I12  1  0.69408499  0.69408499  0.33993301  1
  I  I13  1  0.69408499  0.69408499  0.66006702  1
  I  I14  1  0.70533599  0.70533599  -0.00000000  1
  I  I15  1  0.79466399  0.20533600  0.50000001  1
  I  I16  1  0.80591499  0.19408500  0.16006700  1
  I  I17  1  0.80591499  0.19408500  0.83993302  1
