# generated using pymatgen
data_Rb2BaTl2InHg2(Br4Cl)2
_symmetry_space_group_name_H-M   'P 1'
_cell_length_a   9.41318226
_cell_length_b   9.93930912
_cell_length_c   9.41318226
_cell_angle_alpha   118.26387787
_cell_angle_beta   90.00000000
_cell_angle_gamma   118.26387787
_symmetry_Int_Tables_number   1
_chemical_formula_structural   Rb2BaTl2InHg2(Br4Cl)2
_chemical_formula_sum   'Rb2 Ba1 Tl2 In1 Hg2 Br8 Cl2'
_cell_volume   654.05590265
_cell_formula_units_Z   1
loop_
 _symmetry_equiv_pos_site_id
 _symmetry_equiv_pos_as_xyz
  1  'x, y, z'
loop_
 _atom_site_type_symbol
 _atom_site_label
 _atom_site_symmetry_multiplicity
 _atom_site_fract_x
 _atom_site_fract_y
 _atom_site_fract_z
 _atom_site_occupancy
  Ba  Ba0  1  0.83413398  0.00000000  0.66586598  1
  Rb  Rb1  1  0.66586598  0.00000000  0.16586600  1
  Rb  Rb2  1  0.74999997  0.49999998  0.74999997  1
  Tl  Tl3  1  0.16586600  0.00000000  0.33413399  1
  Tl  Tl4  1  0.24999999  0.49999998  0.24999999  1
  In  In5  1  0.33413399  0.00000000  0.83413398  1
  Hg  Hg6  1  0.24999999  0.49999998  0.74999997  1
  Hg  Hg7  1  0.74999997  0.49999998  0.24999999  1
  Br  Br8  1  0.01943999  0.31569199  0.51943998  1
  Br  Br9  1  0.29625199  0.31569199  0.79625197  1
  Br  Br10  1  0.98055996  0.68430797  0.48055998  1
  Br  Br11  1  0.00000000  0.00000000  0.00000000  1
  Br  Br12  1  0.79625197  0.31569199  0.01943999  1
  Cl  Cl13  1  0.20374798  0.68430797  0.98055996  1
  Cl  Cl14  1  0.51943998  0.31569199  0.29625199  1
  Br  Br15  1  0.70374797  0.68430797  0.20374798  1
  Br  Br16  1  0.48055998  0.68430797  0.70374797  1
  Br  Br17  1  0.49999999  0.00000000  0.49999999  1
