# generated using pymatgen
data_K3TlHF3
_symmetry_space_group_name_H-M   'P 1'
_cell_length_a   5.45371485
_cell_length_b   5.45371485
_cell_length_c   5.45371532
_cell_angle_alpha   96.18771362
_cell_angle_beta   96.18771362
_cell_angle_gamma   96.18769836
_symmetry_Int_Tables_number   1
_chemical_formula_structural   K3TlHF3
_chemical_formula_sum   'K3 Tl1 H1 F3'
_cell_volume   159.15112795
_cell_formula_units_Z   1
loop_
 _symmetry_equiv_pos_site_id
 _symmetry_equiv_pos_as_xyz
  1  'x, y, z'
loop_
 _atom_site_type_symbol
 _atom_site_label
 _atom_site_symmetry_multiplicity
 _atom_site_fract_x
 _atom_site_fract_y
 _atom_site_fract_z
 _atom_site_occupancy
  K  K0  1  0.49999998  0.50000000  0.50000000  1
  K  K1  1  0.00000000  0.00000000  0.00000000  1
  K  K2  1  0.28488196  0.91896200  0.20102000  1
  Tl  Tl3  1  0.91896199  0.20102000  0.28488200  1
  H  H4  1  0.79897997  0.71511800  0.08103800  1
  F  F5  1  0.08103797  0.79898000  0.71511800  1
  F  F6  1  0.71511800  0.08103800  0.79898001  1
  F  F7  1  0.20101999  0.28488200  0.91896201  1
