# generated using pymatgen
data_Na2LuCuS6
_symmetry_space_group_name_H-M   'P 1'
_cell_length_a   6.08036470
_cell_length_b   6.08036470
_cell_length_c   6.08036470
_cell_angle_alpha   60.00000000
_cell_angle_beta   60.00000000
_cell_angle_gamma   60.00000000
_symmetry_Int_Tables_number   1
_chemical_formula_structural   Na2LuCuS6
_chemical_formula_sum   'Na2 Lu1 Cu1 S6'
_cell_volume   158.95488900
_cell_formula_units_Z   1
loop_
 _symmetry_equiv_pos_site_id
 _symmetry_equiv_pos_as_xyz
  1  'x, y, z'
loop_
 _atom_site_type_symbol
 _atom_site_label
 _atom_site_symmetry_multiplicity
 _atom_site_fract_x
 _atom_site_fract_y
 _atom_site_fract_z
 _atom_site_occupancy
  Na  Na0  1  0.24999999  0.24999999  0.24999999  1
  Na  Na1  1  0.74999998  0.74999998  0.74999998  1
  Lu  Lu2  1  0.49999999  0.49999999  0.49999999  1
  Cu  Cu3  1  0.00000000  0.00000000  0.00000000  1
  S  S4  1  0.25600099  0.74399898  0.25600099  1
  S  S5  1  0.25600099  0.25600099  0.74399898  1
  S  S6  1  0.74399898  0.25600099  0.74399898  1
  S  S7  1  0.25600099  0.74399898  0.74399898  1
  S  S8  1  0.74399898  0.25600099  0.25600099  1
  S  S9  1  0.74399898  0.74399898  0.25600099  1
