# generated using pymatgen
data_RbBaAl2BH4N
_symmetry_space_group_name_H-M   'P 1'
_cell_length_a   4.81491756
_cell_length_b   4.81491756
_cell_length_c   8.58306122
_cell_angle_alpha   90.00000000
_cell_angle_beta   90.00000000
_cell_angle_gamma   105.83343506
_symmetry_Int_Tables_number   1
_chemical_formula_structural   RbBaAl2BH4N
_chemical_formula_sum   'Rb1 Ba1 Al2 B1 H4 N1'
_cell_volume   191.43511427
_cell_formula_units_Z   1
loop_
 _symmetry_equiv_pos_site_id
 _symmetry_equiv_pos_as_xyz
  1  'x, y, z'
loop_
 _atom_site_type_symbol
 _atom_site_label
 _atom_site_symmetry_multiplicity
 _atom_site_fract_x
 _atom_site_fract_y
 _atom_site_fract_z
 _atom_site_occupancy
  Al  Al0  1  0.43742398  0.43742398  0.95045498  1
  Rb  Rb1  1  0.56257598  0.56257598  0.45045499  1
  Al  Al2  1  0.44932898  0.78272497  0.54035299  1
  Ba  Ba3  1  0.55067098  0.21727499  0.04035300  1
  H  H4  1  0.21727499  0.55067098  0.04035300  1
  B  B5  1  0.78272497  0.44932898  0.54035299  1
  H  H6  1  0.32833999  0.32833999  0.36969999  1
  N  N7  1  0.67165998  0.67165998  0.86969998  1
  H  H8  1  0.18511299  0.18511299  0.75630698  1
  H  H9  1  0.81488697  0.81488697  0.25630699  1
