# generated using pymatgen
data_BaAcClOF2
_symmetry_space_group_name_H-M   'P 1'
_cell_length_a   4.07206011
_cell_length_b   4.07205963
_cell_length_c   7.19159222
_cell_angle_alpha   90.00000000
_cell_angle_beta   90.00000000
_cell_angle_gamma   120.00000000
_symmetry_Int_Tables_number   1
_chemical_formula_structural   BaAcClOF2
_chemical_formula_sum   'Ba1 Ac1 Cl1 O1 F2'
_cell_volume   103.27233454
_cell_formula_units_Z   1
loop_
 _symmetry_equiv_pos_site_id
 _symmetry_equiv_pos_as_xyz
  1  'x, y, z'
loop_
 _atom_site_type_symbol
 _atom_site_label
 _atom_site_symmetry_multiplicity
 _atom_site_fract_x
 _atom_site_fract_y
 _atom_site_fract_z
 _atom_site_occupancy
  Ac  Ac0  1  0.33333329  0.66666665  0.31181999  1
  Ba  Ba1  1  0.66666663  0.33333333  0.68817998  1
  Cl  Cl2  1  0.33333329  0.66666665  0.64399498  1
  F  F3  1  0.66666663  0.33333333  0.35600499  1
  F  F4  1  0.00000000  0.00000000  0.49999998  1
  O  O5  1  0.00000000  0.00000000  0.00000000  1
