# generated using pymatgen
data_Cs2HF
_symmetry_space_group_name_H-M   'P 1'
_cell_length_a   4.23423910
_cell_length_b   6.98366022
_cell_length_c   6.98366022
_cell_angle_alpha   90.00000000
_cell_angle_beta   90.00000000
_cell_angle_gamma   90.00000000
_symmetry_Int_Tables_number   1
_chemical_formula_structural   Cs2HF
_chemical_formula_sum   'Cs4 H2 F2'
_cell_volume   206.51023503
_cell_formula_units_Z   2
loop_
 _symmetry_equiv_pos_site_id
 _symmetry_equiv_pos_as_xyz
  1  'x, y, z'
loop_
 _atom_site_type_symbol
 _atom_site_label
 _atom_site_symmetry_multiplicity
 _atom_site_fract_x
 _atom_site_fract_y
 _atom_site_fract_z
 _atom_site_occupancy
  Cs  Cs0  1  0.99999998  0.49999998  0.49999998  1
  Cs  Cs1  1  0.00000000  0.00000000  0.00000000  1
  Cs  Cs2  1  0.47423799  0.82156697  0.67843298  1
  Cs  Cs3  1  0.52576199  0.32156699  0.82156697  1
  H  H4  1  0.21046099  0.00000000  0.49999998  1
  H  H5  1  0.78953898  0.49999998  -0.00000000  1
  F  F6  1  0.47423799  0.17843299  0.32156699  1
  F  F7  1  0.52576199  0.67843298  0.17843299  1
