# generated using pymatgen
data_La3YSb2AsSe5
_symmetry_space_group_name_H-M   'P 1'
_cell_length_a   4.09432793
_cell_length_b   8.63372612
_cell_length_c   9.08461380
_cell_angle_alpha   102.71097565
_cell_angle_beta   103.02310944
_cell_angle_gamma   90.00000000
_symmetry_Int_Tables_number   1
_chemical_formula_structural   La3YSb2AsSe5
_chemical_formula_sum   'La3 Y1 Sb2 As1 Se5'
_cell_volume   304.79151911
_cell_formula_units_Z   1
loop_
 _symmetry_equiv_pos_site_id
 _symmetry_equiv_pos_as_xyz
  1  'x, y, z'
loop_
 _atom_site_type_symbol
 _atom_site_label
 _atom_site_symmetry_multiplicity
 _atom_site_fract_x
 _atom_site_fract_y
 _atom_site_fract_z
 _atom_site_occupancy
  La  La0  1  0.86488300  0.43074301  0.72976601  1
  La  La1  1  0.13511699  0.56925701  0.27023401  1
  La  La2  1  0.83610899  0.91830701  0.67221802  1
  Y  Y3  1  0.16389100  0.08169300  0.32778201  1
  Sb  Sb4  1  0.48367599  0.79144801  0.96735204  1
  Sb  Sb5  1  0.51632400  0.20855200  0.03264799  1
  As  As6  1  0.67461899  0.86971101  0.34923801  1
  Se  Se7  1  0.32538100  0.13028900  0.65076202  1
  Se  Se8  1  0.32407899  0.69803001  0.64815803  1
  Se  Se9  1  0.67592100  0.30197000  0.35184200  1
  Se  Se10  1  0.50000000  0.50000001  -0.00000000  1
  Se  Se11  1  0.00000000  0.00000000  0.00000000  1
