# generated using pymatgen
data_Sc2BiSbS3Cl11
_symmetry_space_group_name_H-M   'P 1'
_cell_length_a   5.84913778
_cell_length_b   5.84913778
_cell_length_c   8.36025143
_cell_angle_alpha   90.00000000
_cell_angle_beta   90.00000000
_cell_angle_gamma   90.00000000
_symmetry_Int_Tables_number   1
_chemical_formula_structural   Sc2BiSbS3Cl11
_chemical_formula_sum   'Sc2 Bi1 Sb1 S3 Cl11'
_cell_volume   286.02437296
_cell_formula_units_Z   1
loop_
 _symmetry_equiv_pos_site_id
 _symmetry_equiv_pos_as_xyz
  1  'x, y, z'
loop_
 _atom_site_type_symbol
 _atom_site_label
 _atom_site_symmetry_multiplicity
 _atom_site_fract_x
 _atom_site_fract_y
 _atom_site_fract_z
 _atom_site_occupancy
  Bi  Bi0  1  0.50000002  0.50000002  -0.00000000  1
  Sc  Sc1  1  0.00000000  0.00000000  0.00000000  1
  Sc  Sc2  1  0.50000002  0.00000000  0.24106699  1
  Sb  Sb3  1  0.00000000  0.50000002  0.75893296  1
  S  S4  1  0.50000002  0.50000002  0.49999997  1
  Cl  Cl5  1  0.00000000  0.00000000  0.49999997  1
  S  S6  1  0.00000000  0.50000002  0.25399699  1
  S  S7  1  0.50000002  0.00000000  0.74600296  1
  Cl  Cl8  1  0.00000000  0.50000002  0.03192800  1
  Cl  Cl9  1  0.77157203  0.27157201  0.32469398  1
  Cl  Cl10  1  0.22842801  0.27157201  0.32469398  1
  Cl  Cl11  1  0.77157203  0.72842803  0.32469398  1
  Cl  Cl12  1  0.22842801  0.72842803  0.32469398  1
  Cl  Cl13  1  0.27157201  0.77157203  0.67530597  1
  Cl  Cl14  1  0.72842803  0.77157203  0.67530597  1
  Cl  Cl15  1  0.27157201  0.22842801  0.67530597  1
  Cl  Cl16  1  0.72842803  0.22842801  0.67530597  1
  Cl  Cl17  1  0.50000002  0.00000000  0.96807195  1
