# generated using pymatgen
data_K4SnGe2P3Se8
_symmetry_space_group_name_H-M   'P 1'
_cell_length_a   6.26178217
_cell_length_b   8.06981945
_cell_length_c   13.21945381
_cell_angle_alpha   84.72776794
_cell_angle_beta   76.29991150
_cell_angle_gamma   67.17141724
_symmetry_Int_Tables_number   1
_chemical_formula_structural   K4SnGe2P3Se8
_chemical_formula_sum   'K4 Sn1 Ge2 P3 Se8'
_cell_volume   598.15702029
_cell_formula_units_Z   1
loop_
 _symmetry_equiv_pos_site_id
 _symmetry_equiv_pos_as_xyz
  1  'x, y, z'
loop_
 _atom_site_type_symbol
 _atom_site_label
 _atom_site_symmetry_multiplicity
 _atom_site_fract_x
 _atom_site_fract_y
 _atom_site_fract_z
 _atom_site_occupancy
  K  K0  1  0.18007099  0.00000000  0.63985801  1
  K  K1  1  0.56992895  0.49999998  0.86014200  1
  K  K2  1  0.81992897  0.00000000  0.36014201  1
  K  K3  1  0.93007094  0.49999998  0.13985800  1
  Ge  Ge4  1  0.74999994  0.49999998  0.50000000  1
  Ge  Ge5  1  0.00000000  0.00000000  0.00000000  1
  Sn  Sn6  1  0.43867392  0.99999997  0.12265198  1
  P  P7  1  0.18867396  0.49999998  0.62265200  1
  P  P8  1  0.31132596  0.49999998  0.37734799  1
  P  P9  1  0.56132598  0.00000000  0.87734802  1
  Se  Se10  1  0.63599497  0.19517699  0.11535200  1
  Se  Se11  1  0.80347693  0.69517598  0.61535100  1
  Se  Se12  1  0.16882698  0.19517699  0.88464901  1
  Se  Se13  1  0.58117296  0.30482299  0.61535100  1
  Se  Se14  1  0.50134794  0.69517598  0.38464799  1
  Se  Se15  1  0.11400498  0.30482299  0.38464800  1
  Se  Se16  1  0.94652292  0.80482398  0.88464900  1
  Se  Se17  1  0.24865194  0.80482398  0.11535198  1
