# generated using pymatgen
data_BCN4
_symmetry_space_group_name_H-M   'P 1'
_cell_length_a   4.59679985
_cell_length_b   4.76455212
_cell_length_c   4.59679985
_cell_angle_alpha   118.84199524
_cell_angle_beta   90.00000000
_cell_angle_gamma   118.84199524
_symmetry_Int_Tables_number   1
_chemical_formula_structural   BCN4
_chemical_formula_sum   'B1 C1 N4'
_cell_volume   73.61106162
_cell_formula_units_Z   1
loop_
 _symmetry_equiv_pos_site_id
 _symmetry_equiv_pos_as_xyz
  1  'x, y, z'
loop_
 _atom_site_type_symbol
 _atom_site_label
 _atom_site_symmetry_multiplicity
 _atom_site_fract_x
 _atom_site_fract_y
 _atom_site_fract_z
 _atom_site_occupancy
  B  B0  1  0.75000004  0.50000001  0.25000002  1
  C  C1  1  0.00000000  0.00000000  0.00000000  1
  N  N2  1  0.35379102  0.23962500  0.99290204  1
  N  N3  1  0.00709802  0.76037501  0.11416603  1
  N  N4  1  0.88583404  0.23962500  0.24672302  1
  N  N5  1  0.75327705  0.76037501  0.64620904  1
