# generated using pymatgen
data_Na2LiVO8
_symmetry_space_group_name_H-M   'P 1'
_cell_length_a   5.32763815
_cell_length_b   5.32763815
_cell_length_c   6.79690886
_cell_angle_alpha   113.07378387
_cell_angle_beta   113.07378387
_cell_angle_gamma   90.00000000
_symmetry_Int_Tables_number   1
_chemical_formula_structural   Na2LiVO8
_chemical_formula_sum   'Na2 Li1 V1 O8'
_cell_volume   160.57794089
_cell_formula_units_Z   1
loop_
 _symmetry_equiv_pos_site_id
 _symmetry_equiv_pos_as_xyz
  1  'x, y, z'
loop_
 _atom_site_type_symbol
 _atom_site_label
 _atom_site_symmetry_multiplicity
 _atom_site_fract_x
 _atom_site_fract_y
 _atom_site_fract_z
 _atom_site_occupancy
  Na  Na0  1  0.24999995  0.74999996  0.49999995  1
  Na  Na1  1  0.00000000  0.00000000  0.00000000  1
  Li  Li2  1  0.74999995  0.24999999  0.49999996  1
  V  V3  1  0.49999995  0.49999997  -0.00000005  1
  O  O4  1  0.90536194  0.31631298  0.32339995  1
  O  O5  1  0.41803798  0.00708700  0.32339998  1
  O  O6  1  0.56778097  0.16943299  0.82276497  1
  O  O7  1  0.25498396  0.65333196  0.82276496  1
  O  O8  1  0.34666796  0.43221898  0.17723496  1
  O  O9  1  0.83056693  0.74501596  0.17723493  1
  O  O10  1  0.68368694  0.58196097  0.67659894  1
  O  O11  1  0.99291295  0.09463899  0.67660096  1
