# generated using pymatgen
data_K7Tl2O9
_symmetry_space_group_name_H-M   'P 1'
_cell_length_a   5.96205902
_cell_length_b   6.72815323
_cell_length_c   6.72815323
_cell_angle_alpha   90.00000000
_cell_angle_beta   90.00000000
_cell_angle_gamma   90.00000000
_symmetry_Int_Tables_number   1
_chemical_formula_structural   K7Tl2O9
_chemical_formula_sum   'K7 Tl2 O9'
_cell_volume   269.89076124
_cell_formula_units_Z   1
loop_
 _symmetry_equiv_pos_site_id
 _symmetry_equiv_pos_as_xyz
  1  'x, y, z'
loop_
 _atom_site_type_symbol
 _atom_site_label
 _atom_site_symmetry_multiplicity
 _atom_site_fract_x
 _atom_site_fract_y
 _atom_site_fract_z
 _atom_site_occupancy
  K  K0  1  0.00000000  0.49999998  0.49999998  1
  K  K1  1  0.00000000  0.00000000  0.00000000  1
  K  K2  1  0.50000000  0.67374998  0.17374999  1
  K  K3  1  0.50000000  0.17374999  0.32624999  1
  K  K4  1  0.50000000  0.82624997  0.67374998  1
  K  K5  1  0.50000000  0.32624999  0.82624997  1
  K  K6  1  0.00000000  0.00000000  0.49999998  1
  Tl  Tl7  1  0.00000000  0.49999998  -0.00000000  1
  O  O8  1  0.50000000  0.49999998  0.49999998  1
  Tl  Tl9  1  0.50000000  0.00000000  -0.00000000  1
  O  O10  1  0.25490300  0.14048700  0.64048698  1
  O  O11  1  0.25490300  0.85951297  0.35951299  1
  O  O12  1  0.25490300  0.35951299  0.14048700  1
  O  O13  1  0.25490300  0.64048698  0.85951297  1
  O  O14  1  0.74509700  0.14048700  0.64048698  1
  O  O15  1  0.74509700  0.64048698  0.85951297  1
  O  O16  1  0.74509700  0.85951297  0.35951299  1
  O  O17  1  0.74509700  0.35951299  0.14048700  1
