# generated using pymatgen
data_Li5H4NO8
_symmetry_space_group_name_H-M   'P 1'
_cell_length_a   5.47611618
_cell_length_b   5.47611618
_cell_length_c   7.40731049
_cell_angle_alpha   100.02025604
_cell_angle_beta   108.55592346
_cell_angle_gamma   109.52306366
_symmetry_Int_Tables_number   1
_chemical_formula_structural   Li5H4NO8
_chemical_formula_sum   'Li5 H4 N1 O8'
_cell_volume   188.45233752
_cell_formula_units_Z   1
loop_
 _symmetry_equiv_pos_site_id
 _symmetry_equiv_pos_as_xyz
  1  'x, y, z'
loop_
 _atom_site_type_symbol
 _atom_site_label
 _atom_site_symmetry_multiplicity
 _atom_site_fract_x
 _atom_site_fract_y
 _atom_site_fract_z
 _atom_site_occupancy
  Li  Li0  1  0.99999304  0.49987501  0.49986805  1
  Li  Li1  1  0.99397604  0.49710901  0.99814203  1
  Li  Li2  1  0.50103300  0.00416600  0.99814199  1
  Li  Li3  1  0.51600205  0.70726002  0.22326205  1
  H  H4  1  0.48726502  0.29185901  0.77912401  1
  Li  Li5  1  0.49097204  0.51733401  0.00830604  1
  H  H6  1  0.20928101  0.09002700  0.29930800  1
  H  H7  1  0.79069607  0.90956703  0.70026305  1
  O  O8  1  0.30768702  0.20789201  0.51557901  1
  O  O9  1  0.69193406  0.79188202  0.48381605  1
  H  H10  1  0.41664105  0.65790302  0.07454405  1
  N  N11  1  0.58426403  0.34327201  0.92753601  1
  O  O12  1  0.46001202  0.17363700  0.24269802  1
  O  O13  1  0.06906105  0.78268602  0.24269804  1
  O  O14  1  0.54015906  0.82588002  0.75699604  1
  O  O15  1  0.93111602  0.21683701  0.75699602  1
  O  O16  1  0.00162601  0.19180601  0.19343200  1
  O  O17  1  0.99828306  0.80790802  0.80619105  1
