# generated using pymatgen
data_KAg
_symmetry_space_group_name_H-M   'P 1'
_cell_length_a   4.30014992
_cell_length_b   4.30014992
_cell_length_c   7.38522530
_cell_angle_alpha   73.07426453
_cell_angle_beta   73.07426453
_cell_angle_gamma   60.00000000
_symmetry_Int_Tables_number   1
_chemical_formula_structural   KAg
_chemical_formula_sum   'K2 Ag2'
_cell_volume   111.38349384
_cell_formula_units_Z   2
loop_
 _symmetry_equiv_pos_site_id
 _symmetry_equiv_pos_as_xyz
  1  'x, y, z'
loop_
 _atom_site_type_symbol
 _atom_site_label
 _atom_site_symmetry_multiplicity
 _atom_site_fract_x
 _atom_site_fract_y
 _atom_site_fract_z
 _atom_site_occupancy
  K  K0  1  0.50000005  0.50000002  0.49999998  1
  K  K1  1  0.00000000  0.00000000  0.00000000  1
  Ag  Ag2  1  0.74573807  0.74573802  0.76278598  1
  Ag  Ag3  1  0.25426202  0.25426201  0.23721399  1
