# generated using pymatgen
data_NaMgScHBr6(Cl3O2)2
_symmetry_space_group_name_H-M   'P 1'
_cell_length_a   5.37465382
_cell_length_b   7.06315088
_cell_length_c   9.77173710
_cell_angle_alpha   97.56074524
_cell_angle_beta   90.00000000
_cell_angle_gamma   90.00000000
_symmetry_Int_Tables_number   1
_chemical_formula_structural   NaMgScHBr6(Cl3O2)2
_chemical_formula_sum   'Na1 Mg1 Sc1 H1 Br6 Cl6 O4'
_cell_volume   367.72948528
_cell_formula_units_Z   1
loop_
 _symmetry_equiv_pos_site_id
 _symmetry_equiv_pos_as_xyz
  1  'x, y, z'
loop_
 _atom_site_type_symbol
 _atom_site_label
 _atom_site_symmetry_multiplicity
 _atom_site_fract_x
 _atom_site_fract_y
 _atom_site_fract_z
 _atom_site_occupancy
  Na  Na0  1  0.70840502  0.61182100  0.83328999  1
  Sc  Sc1  1  0.29159501  0.38817900  0.16670999  1
  Mg  Mg2  1  0.79159503  0.11182100  0.33329000  1
  Br  Br3  1  0.20840501  0.88813567  0.66666664  1
  Br  Br4  1  0.72021902  0.08714400  0.99190502  1
  Br  Br5  1  0.77978103  0.58714400  0.49190498  1
  Br  Br6  1  0.22021901  0.41285600  0.50809499  1
  Br  Br7  1  0.27978101  0.91285601  0.00809496  1
  Br  Br8  1  0.30623301  0.67201501  0.03469697  1
  Cl  Cl9  1  0.52048602  0.41400900  0.38177599  1
  Cl  Cl10  1  0.80623303  0.82798501  0.46530297  1
  H  H11  1  0.50200402  0.93653901  0.84854998  1
  Cl  Cl12  1  0.19376701  0.17201500  0.53469701  1
  Cl  Cl13  1  0.49799602  0.06346100  0.15145000  1
  O  O14  1  0.00200400  0.56346100  0.65144999  1
  O  O15  1  0.47951402  0.58599100  0.61822399  1
  Cl  Cl16  1  0.99799603  0.43653900  0.34854999  1
  O  O17  1  0.69376702  0.32798500  0.96530301  1
  O  O18  1  0.97951403  0.91400901  0.88177598  1
  Cl  Cl19  1  0.02048600  0.08599100  0.11822400  1
