# generated using pymatgen
data_LiTlSnTe4
_symmetry_space_group_name_H-M   'P 1'
_cell_length_a   5.96588802
_cell_length_b   5.96588802
_cell_length_c   5.96588802
_cell_angle_alpha   90.00000000
_cell_angle_beta   90.00000000
_cell_angle_gamma   90.00000000
_symmetry_Int_Tables_number   1
_chemical_formula_structural   LiTlSnTe4
_chemical_formula_sum   'Li1 Tl1 Sn1 Te4'
_cell_volume   212.33681212
_cell_formula_units_Z   1
loop_
 _symmetry_equiv_pos_site_id
 _symmetry_equiv_pos_as_xyz
  1  'x, y, z'
loop_
 _atom_site_type_symbol
 _atom_site_label
 _atom_site_symmetry_multiplicity
 _atom_site_fract_x
 _atom_site_fract_y
 _atom_site_fract_z
 _atom_site_occupancy
  Li  Li0  1  0.50000000  0.00000000  0.00000000  1
  Tl  Tl1  1  0.00000000  0.50000000  -0.00000000  1
  Sn  Sn2  1  0.00000000  0.00000000  0.50000000  1
  Te  Te3  1  0.00000000  0.00000000  0.00000000  1
  Te  Te4  1  0.00000000  0.50000000  0.50000000  1
  Te  Te5  1  0.50000000  0.00000000  0.50000000  1
  Te  Te6  1  0.50000000  0.50000000  -0.00000000  1
