# generated using pymatgen
data_Al3SiP10
_symmetry_space_group_name_H-M   'P 1'
_cell_length_a   6.59780836
_cell_length_b   6.59780836
_cell_length_c   6.59780836
_cell_angle_alpha   60.00000000
_cell_angle_beta   60.00000000
_cell_angle_gamma   60.00000000
_symmetry_Int_Tables_number   1
_chemical_formula_structural   Al3SiP10
_chemical_formula_sum   'Al3 Si1 P10'
_cell_volume   203.08792064
_cell_formula_units_Z   1
loop_
 _symmetry_equiv_pos_site_id
 _symmetry_equiv_pos_as_xyz
  1  'x, y, z'
loop_
 _atom_site_type_symbol
 _atom_site_label
 _atom_site_symmetry_multiplicity
 _atom_site_fract_x
 _atom_site_fract_y
 _atom_site_fract_z
 _atom_site_occupancy
  Al  Al0  1  0.50000000  0.50000000  0.50000000  1
  Al  Al1  1  0.25000000  0.25000000  0.25000000  1
  Al  Al2  1  0.87499999  0.87499999  0.37500000  1
  Si  Si3  1  0.37500000  0.87499999  0.87499999  1
  P  P4  1  0.87499999  0.37500000  0.87499999  1
  P  P5  1  0.87499999  0.87499999  0.87499999  1
  P  P6  1  0.68470299  0.10509900  0.10509900  1
  P  P7  1  0.64490000  0.64490100  0.06529800  1
  P  P8  1  0.64490000  0.64490100  0.64490100  1
  P  P9  1  0.64490000  0.06529800  0.64490100  1
  P  P10  1  0.10510000  0.68470199  0.10509900  1
  P  P11  1  0.10510000  0.10509900  0.10509900  1
  P  P12  1  0.10510000  0.10509900  0.68470199  1
  P  P13  1  0.06529700  0.64490100  0.64490100  1
