# generated using pymatgen
data_V2O3
_symmetry_space_group_name_H-M   'P 1'
_cell_length_a   5.17655802
_cell_length_b   5.54408216
_cell_length_c   5.54408216
_cell_angle_alpha   116.49879456
_cell_angle_beta   90.00000000
_cell_angle_gamma   90.00000000
_symmetry_Int_Tables_number   1
_chemical_formula_structural   V2O3
_chemical_formula_sum   'V4 O6'
_cell_volume   142.39545931
_cell_formula_units_Z   2
loop_
 _symmetry_equiv_pos_site_id
 _symmetry_equiv_pos_as_xyz
  1  'x, y, z'
loop_
 _atom_site_type_symbol
 _atom_site_label
 _atom_site_symmetry_multiplicity
 _atom_site_fract_x
 _atom_site_fract_y
 _atom_site_fract_z
 _atom_site_occupancy
  V  V0  1  0.38244500  0.67050203  0.02088503  1
  V  V1  1  0.88244500  0.32949802  0.97911504  1
  V  V2  1  0.88244500  0.97911505  0.32949805  1
  V  V3  1  0.38244500  0.02088500  0.67050202  1
  O  O4  1  0.23112400  0.91864604  0.33666205  1
  O  O5  1  0.73112400  0.08135400  0.66333802  1
  O  O6  1  0.73112400  0.66333803  0.08135403  1
  O  O7  1  0.23112400  0.33666202  0.91864604  1
  O  O8  1  0.30086100  0.75865504  0.75865506  1
  O  O9  1  0.80086100  0.24134501  0.24134502  1
