# generated using pymatgen
data_Rb4MnAg4
_symmetry_space_group_name_H-M   'P 1'
_cell_length_a   5.78991222
_cell_length_b   7.21457672
_cell_length_c   7.21457672
_cell_angle_alpha   63.44591904
_cell_angle_beta   88.99315643
_cell_angle_gamma   88.99315643
_symmetry_Int_Tables_number   1
_chemical_formula_structural   Rb4MnAg4
_chemical_formula_sum   'Rb4 Mn1 Ag4'
_cell_volume   269.51786809
_cell_formula_units_Z   1
loop_
 _symmetry_equiv_pos_site_id
 _symmetry_equiv_pos_as_xyz
  1  'x, y, z'
loop_
 _atom_site_type_symbol
 _atom_site_label
 _atom_site_symmetry_multiplicity
 _atom_site_fract_x
 _atom_site_fract_y
 _atom_site_fract_z
 _atom_site_occupancy
  Rb  Rb0  1  0.78045201  0.84311302  0.84311303  1
  Rb  Rb1  1  0.21954800  0.15688700  0.15688700  1
  Mn  Mn2  1  0.50000000  0.50000001  0.50000002  1
  Rb  Rb3  1  0.71762600  0.86178302  0.35645902  1
  Ag  Ag4  1  0.71762601  0.35645901  0.86178302  1
  Rb  Rb5  1  0.28237400  0.13821700  0.64354102  1
  Ag  Ag6  1  0.28237400  0.64354101  0.13821701  1
  Ag  Ag7  1  0.71251601  0.39339001  0.39339001  1
  Ag  Ag8  1  0.28748400  0.60661001  0.60661002  1
