# generated using pymatgen
data_Sr2CaThO4
_symmetry_space_group_name_H-M   'P 1'
_cell_length_a   5.80422401
_cell_length_b   5.80422401
_cell_length_c   7.10354900
_cell_angle_alpha   114.11340332
_cell_angle_beta   114.11340332
_cell_angle_gamma   90.00000000
_symmetry_Int_Tables_number   1
_chemical_formula_structural   Sr2CaThO4
_chemical_formula_sum   'Sr2 Ca1 Th1 O4'
_cell_volume   195.32628311
_cell_formula_units_Z   1
loop_
 _symmetry_equiv_pos_site_id
 _symmetry_equiv_pos_as_xyz
  1  'x, y, z'
loop_
 _atom_site_type_symbol
 _atom_site_label
 _atom_site_symmetry_multiplicity
 _atom_site_fract_x
 _atom_site_fract_y
 _atom_site_fract_z
 _atom_site_occupancy
  Th  Th0  1  0.75000002  0.25000001  0.50000003  1
  Sr  Sr1  1  0.25000003  0.75000002  0.50000004  1
  Sr  Sr2  1  0.50000003  0.50000001  0.00000004  1
  Ca  Ca3  1  0.00000000  0.00000000  0.00000000  1
  O  O4  1  0.36393004  0.89223102  0.25616105  1
  O  O5  1  0.10776901  0.10776900  0.74383900  1
  O  O6  1  0.89223103  0.36393001  0.25616104  1
  O  O7  1  0.63607003  0.63607001  0.74383905  1
