# generated using pymatgen
data_UMn2Sn2GeO13
_symmetry_space_group_name_H-M   'P 1'
_cell_length_a   5.59978676
_cell_length_b   6.20308065
_cell_length_c   6.42474461
_cell_angle_alpha   103.16999054
_cell_angle_beta   101.03191376
_cell_angle_gamma   97.56357574
_symmetry_Int_Tables_number   1
_chemical_formula_structural   UMn2Sn2GeO13
_chemical_formula_sum   'U1 Mn2 Sn2 Ge1 O13'
_cell_volume   209.66870862
_cell_formula_units_Z   1
loop_
 _symmetry_equiv_pos_site_id
 _symmetry_equiv_pos_as_xyz
  1  'x, y, z'
loop_
 _atom_site_type_symbol
 _atom_site_label
 _atom_site_symmetry_multiplicity
 _atom_site_fract_x
 _atom_site_fract_y
 _atom_site_fract_z
 _atom_site_occupancy
  U  U0  1  0.85578707  0.66261100  0.44780505  1
  Mn  Mn1  1  0.61483003  0.14494600  0.35963402  1
  Mn  Mn2  1  0.38353306  0.87148200  0.64315305  1
  Sn  Sn3  1  0.13913102  0.33282800  0.53925202  1
  Sn  Sn4  1  0.29830905  0.61908200  0.13728204  1
  Ge  Ge5  1  0.99151909  0.97509300  0.99885307  1
  O  O6  1  0.69952805  0.39545600  0.86794604  1
  O  O7  1  0.94377907  0.67392100  0.02664705  1
  O  O8  1  0.93479804  0.10861400  0.28644003  1
  O  O9  1  0.57179304  0.41418500  0.15549203  1
  O  O10  1  0.34071507  0.95255200  0.13109705  1
  O  O11  1  0.83360505  0.41710300  0.60469404  1
  O  O12  1  0.57142607  0.79877900  0.40292805  1
  O  O13  1  0.42294803  0.20754400  0.60078302  1
  O  O14  1  0.16697004  0.57622400  0.39669603  1
  O  O15  1  0.66315502  0.05630300  0.87323102  1
  O  O16  1  0.43106105  0.59437000  0.85173604  1
  O  O17  1  0.05860706  0.89579600  0.70557405  1
  O  O18  1  0.07850302  0.30311200  0.97075902  1
