# generated using pymatgen
data_K2Mn3Cr2O3
_symmetry_space_group_name_H-M   'P 1'
_cell_length_a   3.38881397
_cell_length_b   5.71086216
_cell_length_c   7.49529219
_cell_angle_alpha   77.31730652
_cell_angle_beta   76.93461609
_cell_angle_gamma   72.74055481
_symmetry_Int_Tables_number   1
_chemical_formula_structural   K2Mn3Cr2O3
_chemical_formula_sum   'K2 Mn3 Cr2 O3'
_cell_volume   133.11392033
_cell_formula_units_Z   1
loop_
 _symmetry_equiv_pos_site_id
 _symmetry_equiv_pos_as_xyz
  1  'x, y, z'
loop_
 _atom_site_type_symbol
 _atom_site_label
 _atom_site_symmetry_multiplicity
 _atom_site_fract_x
 _atom_site_fract_y
 _atom_site_fract_z
 _atom_site_occupancy
  K  K0  1  0.16450897  0.79851300  0.87246902  1
  K  K1  1  0.83549100  0.20148700  0.12753100  1
  Mn  Mn2  1  0.33967497  0.87579600  0.44485401  1
  Mn  Mn3  1  0.66032500  0.12420400  0.55514601  1
  Cr  Cr4  1  0.03890598  0.60087600  0.32131201  1
  Cr  Cr5  1  0.96109399  0.39912400  0.67868802  1
  O  O6  1  0.53805998  0.72736000  0.19652001  1
  Mn  Mn7  1  0.83549398  0.76483800  0.56417401  1
  O  O8  1  0.16450599  0.23516200  0.43582601  1
  O  O9  1  0.46193999  0.27264000  0.80348002  1
