# generated using pymatgen
data_Na3LiFeP3O8
_symmetry_space_group_name_H-M   'P 1'
_cell_length_a   5.45665312
_cell_length_b   5.45665312
_cell_length_c   7.14089441
_cell_angle_alpha   105.47409058
_cell_angle_beta   105.47409058
_cell_angle_gamma   104.34095764
_symmetry_Int_Tables_number   1
_chemical_formula_structural   Na3LiFeP3O8
_chemical_formula_sum   'Na3 Li1 Fe1 P3 O8'
_cell_volume   185.48247851
_cell_formula_units_Z   1
loop_
 _symmetry_equiv_pos_site_id
 _symmetry_equiv_pos_as_xyz
  1  'x, y, z'
loop_
 _atom_site_type_symbol
 _atom_site_label
 _atom_site_symmetry_multiplicity
 _atom_site_fract_x
 _atom_site_fract_y
 _atom_site_fract_z
 _atom_site_occupancy
  Na  Na0  1  0.67142194  0.32857798  0.74999998  1
  Na  Na1  1  0.32857793  0.67142195  0.24999997  1
  Na  Na2  1  0.00000000  0.00000000  0.00000000  1
  Li  Li3  1  0.00000000  0.00000000  0.50000000  1
  Fe  Fe4  1  0.68648394  0.31351598  0.24999998  1
  P  P5  1  0.31351593  0.68648395  0.74999997  1
  P  P6  1  0.69635896  0.10068599  0.39007099  1
  P  P7  1  0.89931394  0.30364098  0.10992898  1
  O  O8  1  0.30364091  0.89931394  0.60992896  1
  O  O9  1  0.10068593  0.69635895  0.89007097  1
  O  O10  1  0.23683496  0.36266097  0.58579098  1
  O  O11  1  0.76316491  0.63733895  0.41420897  1
  O  O12  1  0.63733891  0.76316495  0.91420896  1
  O  O13  1  0.36266096  0.23683498  0.08579099  1
  O  O14  1  0.93483796  0.06516200  0.74999999  1
  O  O15  1  0.06516191  0.93483793  0.24999996  1
