# generated using pymatgen
data_PrLu3(CuS3)4
_symmetry_space_group_name_H-M   'P 1'
_cell_length_a   5.89046288
_cell_length_b   6.00564098
_cell_length_c   8.39901066
_cell_angle_alpha   90.00000000
_cell_angle_beta   89.68761444
_cell_angle_gamma   90.00000000
_symmetry_Int_Tables_number   1
_chemical_formula_structural   PrLu3(CuS3)4
_chemical_formula_sum   'Pr1 Lu3 Cu4 S12'
_cell_volume   297.11902906
_cell_formula_units_Z   1
loop_
 _symmetry_equiv_pos_site_id
 _symmetry_equiv_pos_as_xyz
  1  'x, y, z'
loop_
 _atom_site_type_symbol
 _atom_site_label
 _atom_site_symmetry_multiplicity
 _atom_site_fract_x
 _atom_site_fract_y
 _atom_site_fract_z
 _atom_site_occupancy
  Pr  Pr0  1  0.98916802  0.04259300  0.24946796  1
  Lu  Lu1  1  0.51083201  0.54259300  0.25053198  1
  Lu  Lu2  1  0.01083200  0.95740700  0.75053202  1
  Lu  Lu3  1  0.48916801  0.45740700  0.74946800  1
  Cu  Cu4  1  0.50000001  0.00000000  -0.00000002  1
  Cu  Cu5  1  0.00000000  0.50000000  0.50000001  1
  Cu  Cu6  1  0.00000000  0.50000000  -0.00000000  1
  Cu  Cu7  1  0.50000001  0.00000000  0.49999999  1
  S  S8  1  0.08830400  0.47121000  0.23203300  1
  S  S9  1  0.41169601  0.97121000  0.26796699  1
  S  S10  1  0.91169602  0.52879000  0.76796698  1
  S  S11  1  0.58830401  0.02879000  0.73203299  1
  S  S12  1  0.68760701  0.27583300  0.45124098  1
  S  S13  1  0.81239302  0.77583300  0.04875897  1
  S  S14  1  0.31239301  0.72416700  0.54875900  1
  S  S15  1  0.18760700  0.22416700  0.95124101  1
  S  S16  1  0.72516102  0.30754500  0.04521297  1
  S  S17  1  0.77483902  0.80754500  0.45478698  1
  S  S18  1  0.27483901  0.69245500  0.95478701  1
  S  S19  1  0.22516100  0.19245500  0.54521300  1
