# generated using pymatgen
data_Li5Co(OF2)3
_symmetry_space_group_name_H-M   'P 1'
_cell_length_a   3.64465189
_cell_length_b   5.45937252
_cell_length_c   11.47766495
_cell_angle_alpha   89.97885895
_cell_angle_beta   90.00000763
_cell_angle_gamma   109.49936676
_symmetry_Int_Tables_number   1
_chemical_formula_structural   Li5Co(OF2)3
_chemical_formula_sum   'Li5 Co1 O3 F6'
_cell_volume   215.27844330
_cell_formula_units_Z   1
loop_
 _symmetry_equiv_pos_site_id
 _symmetry_equiv_pos_as_xyz
  1  'x, y, z'
loop_
 _atom_site_type_symbol
 _atom_site_label
 _atom_site_symmetry_multiplicity
 _atom_site_fract_x
 _atom_site_fract_y
 _atom_site_fract_z
 _atom_site_occupancy
  Li  Li0  1  0.20116800  0.40228099  0.90136003  1
  Li  Li1  1  0.79074701  0.58153299  0.10280702  1
  Li  Li2  1  0.20118100  0.40231899  0.59866702  1
  Li  Li3  1  0.79074601  0.58152799  0.39722602  1
  Co  Co4  1  0.89924701  0.79861498  0.75000504  1
  Li  Li5  1  0.72627001  0.45242499  0.25001602  1
  F  F6  1  0.30141599  0.60281999  0.75001503  1
  O  O7  1  0.24195799  0.48395499  0.07049701  1
  F  F8  1  0.24200599  0.48405099  0.42952302  1
  F  F9  1  0.76308601  0.52612699  0.92722004  1
  O  O10  1  0.76305701  0.52607499  0.57278403  1
  O  O11  1  0.04249100  0.08493600  0.62969802  1
  F  F12  1  0.04254200  0.08504500  0.87023202  1
  F  F13  1  0.94539401  0.89084498  0.38079003  1
  F  F14  1  0.94533301  0.89071598  0.11916102  1
