# generated using pymatgen
data_Mn3Al4CrO4
_symmetry_space_group_name_H-M   'P 1'
_cell_length_a   5.44150209
_cell_length_b   5.74244928
_cell_length_c   5.74244928
_cell_angle_alpha   119.20914459
_cell_angle_beta   90.00000000
_cell_angle_gamma   90.00000000
_symmetry_Int_Tables_number   1
_chemical_formula_structural   Mn3Al4CrO4
_chemical_formula_sum   'Mn3 Al4 Cr1 O4'
_cell_volume   156.62095532
_cell_formula_units_Z   1
loop_
 _symmetry_equiv_pos_site_id
 _symmetry_equiv_pos_as_xyz
  1  'x, y, z'
loop_
 _atom_site_type_symbol
 _atom_site_label
 _atom_site_symmetry_multiplicity
 _atom_site_fract_x
 _atom_site_fract_y
 _atom_site_fract_z
 _atom_site_occupancy
  Al  Al0  1  0.48687999  0.33010601  0.33010600  1
  Al  Al1  1  0.98687998  0.66989401  0.66989401  1
  Mn  Mn2  1  0.49699199  0.00892900  0.66641601  1
  Mn  Mn3  1  0.49699199  0.66641601  0.00892899  1
  Mn  Mn4  1  0.99699198  0.99107102  0.33358400  1
  Al  Al5  1  0.99699198  0.33358401  0.99107102  1
  Cr  Cr6  1  0.87509098  0.99017402  0.67049100  1
  Al  Al7  1  0.87509098  0.67049101  0.99017401  1
  O  O8  1  0.37509099  0.00982600  0.32950901  1
  O  O9  1  0.37509099  0.32950901  0.00982600  1
  O  O10  1  0.85695599  0.34368301  0.34368300  1
  O  O11  1  0.35695599  0.65631701  0.65631701  1
