# generated using pymatgen
data_K3NaBr3Cl
_symmetry_space_group_name_H-M   'P 1'
_cell_length_a   5.36992788
_cell_length_b   5.36992788
_cell_length_c   10.43071556
_cell_angle_alpha   90.00000000
_cell_angle_beta   90.00000000
_cell_angle_gamma   90.00000000
_symmetry_Int_Tables_number   1
_chemical_formula_structural   K3NaBr3Cl
_chemical_formula_sum   'K3 Na1 Br3 Cl1'
_cell_volume   300.78142266
_cell_formula_units_Z   1
loop_
 _symmetry_equiv_pos_site_id
 _symmetry_equiv_pos_as_xyz
  1  'x, y, z'
loop_
 _atom_site_type_symbol
 _atom_site_label
 _atom_site_symmetry_multiplicity
 _atom_site_fract_x
 _atom_site_fract_y
 _atom_site_fract_z
 _atom_site_occupancy
  K  K0  1  0.50000001  0.00000000  0.70675703  1
  K  K1  1  0.00000000  0.50000001  0.29324301  1
  Na  Na2  1  0.50000001  0.00000000  0.09996000  1
  K  K3  1  0.00000000  0.50000001  0.90004004  1
  Br  Br4  1  0.00000000  0.00000000  0.00000000  1
  Br  Br5  1  0.50000001  0.00000000  0.35507601  1
  Br  Br6  1  0.00000000  0.50000001  0.64492403  1
  Cl  Cl7  1  0.50000001  0.50000001  -0.00000000  1
