# generated using pymatgen
data_CaMgZnAsP
_symmetry_space_group_name_H-M   'P 1'
_cell_length_a   3.86870408
_cell_length_b   3.86870408
_cell_length_c   6.69502306
_cell_angle_alpha   90.00000000
_cell_angle_beta   90.00000000
_cell_angle_gamma   120.00000000
_symmetry_Int_Tables_number   1
_chemical_formula_structural   CaMgZnAsP
_chemical_formula_sum   'Ca1 Mg1 Zn1 As1 P1'
_cell_volume   86.77881833
_cell_formula_units_Z   1
loop_
 _symmetry_equiv_pos_site_id
 _symmetry_equiv_pos_as_xyz
  1  'x, y, z'
loop_
 _atom_site_type_symbol
 _atom_site_label
 _atom_site_symmetry_multiplicity
 _atom_site_fract_x
 _atom_site_fract_y
 _atom_site_fract_z
 _atom_site_occupancy
  Mg  Mg0  1  0.66666666  0.33333333  0.28135700  1
  Ca  Ca1  1  0.33333333  0.66666666  0.71864299  1
  Zn  Zn2  1  0.00000000  0.00000000  0.00000000  1
  As  As3  1  0.33333333  0.66666666  0.36977300  1
  P  P4  1  0.66666666  0.33333333  0.63022699  1
