# generated using pymatgen
data_Li3YCdInCu2Br9
_symmetry_space_group_name_H-M   'P 1'
_cell_length_a   6.17044401
_cell_length_b   7.53412819
_cell_length_c   13.38282299
_cell_angle_alpha   91.05738831
_cell_angle_beta   90.00000000
_cell_angle_gamma   114.17340088
_symmetry_Int_Tables_number   1
_chemical_formula_structural   Li3YCdInCu2Br9
_chemical_formula_sum   'Li3 Y1 Cd1 In1 Cu2 Br9'
_cell_volume   567.48041539
_cell_formula_units_Z   1
loop_
 _symmetry_equiv_pos_site_id
 _symmetry_equiv_pos_as_xyz
  1  'x, y, z'
loop_
 _atom_site_type_symbol
 _atom_site_label
 _atom_site_symmetry_multiplicity
 _atom_site_fract_x
 _atom_site_fract_y
 _atom_site_fract_z
 _atom_site_occupancy
  Cd  Cd0  1  0.10026500  0.00000000  0.50000000  1
  Li  Li1  1  0.99672401  0.80433901  0.80148802  1
  Li  Li2  1  0.28606101  0.39239001  0.89877602  1
  Cu  Cu3  1  0.19238500  0.19566100  0.19851201  1
  Li  Li4  1  0.89367101  0.60761001  0.10122401  1
  In  In5  1  0.79875101  0.40311701  0.39972701  1
  Cu  Cu6  1  0.39563401  0.59688301  0.60027302  1
  Y  Y7  1  0.21731101  0.71020301  0.95425002  1
  Br  Br8  1  0.89491000  0.10152800  0.84392801  1
  Br  Br9  1  0.79338201  0.89847201  0.15607202  1
  Br  Br10  1  0.50710800  0.28979700  0.04575001  1
  Br  Br11  1  0.42536500  0.08719000  0.33675800  1
  Br  Br12  1  0.12332001  0.51773101  0.25119901  1
  Br  Br13  1  0.96870100  0.30647100  0.56488201  1
  Br  Br14  1  0.66223001  0.69352901  0.43511802  1
  Br  Br15  1  0.60558901  0.48226901  0.74880102  1
  Br  Br16  1  0.33817502  0.91281001  0.66324203  1
