# generated using pymatgen
data_UMn3Sn2(Pd2O5)2
_symmetry_space_group_name_H-M   'P 1'
_cell_length_a   5.22235298
_cell_length_b   5.23426867
_cell_length_c   7.81613398
_cell_angle_alpha   103.63820648
_cell_angle_beta   108.37757874
_cell_angle_gamma   99.41812897
_symmetry_Int_Tables_number   1
_chemical_formula_structural   UMn3Sn2(Pd2O5)2
_chemical_formula_sum   'U1 Mn3 Sn2 Pd4 O10'
_cell_volume   190.36891671
_cell_formula_units_Z   1
loop_
 _symmetry_equiv_pos_site_id
 _symmetry_equiv_pos_as_xyz
  1  'x, y, z'
loop_
 _atom_site_type_symbol
 _atom_site_label
 _atom_site_symmetry_multiplicity
 _atom_site_fract_x
 _atom_site_fract_y
 _atom_site_fract_z
 _atom_site_occupancy
  U  U0  1  0.07906298  0.78931800  0.58546603  1
  Mn  Mn1  1  0.71924798  0.60515500  0.21811600  1
  Mn  Mn2  1  0.49999998  0.50000000  0.50000001  1
  Mn  Mn3  1  0.28075199  0.39484500  0.78188402  1
  Sn  Sn4  1  0.92093699  0.21068200  0.41453399  1
  Sn  Sn5  1  0.50000000  0.00000000  -0.00000001  1
  Pd  Pd6  1  0.10500299  0.30239500  0.10288201  1
  Pd  Pd7  1  0.89499697  0.69760500  0.89711801  1
  Pd  Pd8  1  0.30285897  0.89756001  0.31208502  1
  Pd  Pd9  1  0.69714099  0.10244000  0.68791500  1
  O  O10  1  0.91262197  0.92576701  0.14349800  1
  O  O11  1  0.28462198  0.67654700  0.04084601  1
  O  O12  1  0.68587897  0.86458401  0.44968401  1
  O  O13  1  0.53014197  0.76893100  0.77184702  1
  O  O14  1  0.11258798  0.54345800  0.33471502  1
  O  O15  1  0.88741198  0.45654200  0.66528500  1
  O  O16  1  0.46985799  0.23106900  0.22815300  1
  O  O17  1  0.31412099  0.13541600  0.55031601  1
  O  O18  1  0.71537799  0.32345300  0.95915401  1
  O  O19  1  0.08737800  0.07423300  0.85650202  1
