# generated using pymatgen
data_K2GeP2H2C2N
_symmetry_space_group_name_H-M   'P 1'
_cell_length_a   4.84603977
_cell_length_b   6.04718971
_cell_length_c   6.22088718
_cell_angle_alpha   80.97470093
_cell_angle_beta   68.56260681
_cell_angle_gamma   66.60665131
_symmetry_Int_Tables_number   1
_chemical_formula_structural   K2GeP2H2C2N
_chemical_formula_sum   'K2 Ge1 P2 H2 C2 N1'
_cell_volume   155.72727481
_cell_formula_units_Z   1
loop_
 _symmetry_equiv_pos_site_id
 _symmetry_equiv_pos_as_xyz
  1  'x, y, z'
loop_
 _atom_site_type_symbol
 _atom_site_label
 _atom_site_symmetry_multiplicity
 _atom_site_fract_x
 _atom_site_fract_y
 _atom_site_fract_z
 _atom_site_occupancy
  Ge  Ge0  1  0.27063897  0.93642499  0.70774296  1
  P  P1  1  0.72936102  0.06357500  0.29225701  1
  K  K2  1  0.54938701  0.25534500  0.76589500  1
  K  K3  1  0.45061298  0.74465499  0.23410498  1
  P  P4  1  0.31654698  0.74882799  0.58244397  1
  H  H5  1  0.51959498  0.92524299  0.77852697  1
  H  H6  1  0.99746403  0.14120500  0.76785201  1
  C  C7  1  0.00253596  0.85879499  0.23214796  1
  N  N8  1  0.48040501  0.07475700  0.22147300  1
  C  C9  1  0.68345301  0.25117200  0.41755600  1
