# generated using pymatgen
data_NaLiHfTaFeCoGeO11
_symmetry_space_group_name_H-M   'P 1'
_cell_length_a   5.17020607
_cell_length_b   5.17020559
_cell_length_c   9.87808514
_cell_angle_alpha   90.00000000
_cell_angle_beta   90.00000000
_cell_angle_gamma   120.00000763
_symmetry_Int_Tables_number   1
_chemical_formula_structural   NaLiHfTaFeCoGeO11
_chemical_formula_sum   'Na1 Li1 Hf1 Ta1 Fe1 Co1 Ge1 O11'
_cell_volume   228.67517997
_cell_formula_units_Z   1
loop_
 _symmetry_equiv_pos_site_id
 _symmetry_equiv_pos_as_xyz
  1  'x, y, z'
loop_
 _atom_site_type_symbol
 _atom_site_label
 _atom_site_symmetry_multiplicity
 _atom_site_fract_x
 _atom_site_fract_y
 _atom_site_fract_z
 _atom_site_occupancy
  Na  Na0  1  0.66666668  0.33333333  0.74999999  1
  Li  Li1  1  0.33333338  0.66666666  0.25000000  1
  Ta  Ta2  1  0.00000000  0.00000000  0.00000000  1
  Hf  Hf3  1  0.00000000  0.00000000  0.49999999  1
  Co  Co4  1  0.33333338  0.66666666  0.74999999  1
  Fe  Fe5  1  0.66666668  0.33333333  0.25000000  1
  O  O6  1  0.01909103  0.36612900  0.85971399  1
  Ge  Ge7  1  0.98090901  0.34703800  0.35971400  1
  O  O8  1  0.36612900  0.01909100  0.35971400  1
  O  O9  1  0.65296204  0.63387099  0.35971400  1
  O  O10  1  0.34703802  0.36612900  0.64028599  1
  O  O11  1  0.34703807  0.98090899  0.85971399  1
  O  O12  1  0.63387104  0.65296199  0.85971399  1
  O  O13  1  0.63387106  0.98090899  0.64028599  1
  O  O14  1  0.65296199  0.01909100  0.14028600  1
  O  O15  1  0.01909105  0.65296199  0.64028599  1
  O  O16  1  0.98090903  0.63387099  0.14028600  1
  O  O17  1  0.36612902  0.34703800  0.14028600  1
