# generated using pymatgen
data_NaPO2
_symmetry_space_group_name_H-M   'P 1'
_cell_length_a   5.50872183
_cell_length_b   5.50872183
_cell_length_c   7.13048792
_cell_angle_alpha   104.27922058
_cell_angle_beta   104.27922058
_cell_angle_gamma   105.56592560
_symmetry_Int_Tables_number   1
_chemical_formula_structural   NaPO2
_chemical_formula_sum   'Na4 P4 O8'
_cell_volume   190.32631227
_cell_formula_units_Z   4
loop_
 _symmetry_equiv_pos_site_id
 _symmetry_equiv_pos_as_xyz
  1  'x, y, z'
loop_
 _atom_site_type_symbol
 _atom_site_label
 _atom_site_symmetry_multiplicity
 _atom_site_fract_x
 _atom_site_fract_y
 _atom_site_fract_z
 _atom_site_occupancy
  Na  Na0  1  0.82826601  0.17173400  0.25000004  1
  Na  Na1  1  0.17173408  0.82826602  0.75000007  1
  Na  Na2  1  0.50000005  0.50000001  0.00000005  1
  Na  Na3  1  0.50000005  0.50000001  0.50000006  1
  P  P4  1  0.81974201  0.18025800  0.75000006  1
  P  P5  1  0.18025808  0.81974202  0.25000006  1
  P  P6  1  0.61445201  0.18739500  0.88438005  1
  P  P7  1  0.81260503  0.38554801  0.61562007  1
  O  O8  1  0.38554808  0.81260502  0.11562007  1
  O  O9  1  0.18739506  0.61445202  0.38438005  1
  O  O10  1  0.75067308  0.87723802  0.59220309  1
  O  O11  1  0.12276202  0.24932701  0.90779704  1
  O  O12  1  0.56888704  0.43111301  0.25000005  1
  O  O13  1  0.43111305  0.56888701  0.75000007  1
  O  O14  1  0.87723807  0.75067302  0.09220308  1
  O  O15  1  0.24932701  0.12276200  0.40779703  1
