# generated using pymatgen
data_CsBa2(InSe2)5
_symmetry_space_group_name_H-M   'P 1'
_cell_length_a   4.29507780
_cell_length_b   9.75317955
_cell_length_c   13.49221325
_cell_angle_alpha   90.00000000
_cell_angle_beta   90.00000000
_cell_angle_gamma   102.72010803
_symmetry_Int_Tables_number   1
_chemical_formula_structural   CsBa2(InSe2)5
_chemical_formula_sum   'Cs1 Ba2 In5 Se10'
_cell_volume   551.32632142
_cell_formula_units_Z   1
loop_
 _symmetry_equiv_pos_site_id
 _symmetry_equiv_pos_as_xyz
  1  'x, y, z'
loop_
 _atom_site_type_symbol
 _atom_site_label
 _atom_site_symmetry_multiplicity
 _atom_site_fract_x
 _atom_site_fract_y
 _atom_site_fract_z
 _atom_site_occupancy
  In  In0  1  0.13294597  0.26589199  0.81316098  1
  Cs  Cs1  1  0.86705394  0.73410796  0.31316099  1
  Ba  Ba2  1  0.11753497  0.23506999  0.18106800  1
  Ba  Ba3  1  0.88246494  0.76492996  0.68106799  1
  In  In4  1  0.21159195  0.42318398  0.51809399  1
  In  In5  1  0.78840796  0.57681597  0.01809400  1
  In  In6  1  0.44747990  0.89495996  0.93717498  1
  In  In7  1  0.55252001  0.10503999  0.43717499  1
  Se  Se8  1  0.35516392  0.71032797  0.50021799  1
  Se  Se9  1  0.64483599  0.28967199  0.00021800  1
  Se  Se10  1  0.29077893  0.58155797  0.15539800  1
  Se  Se11  1  0.70922098  0.41844198  0.65539799  1
  Se  Se12  1  0.31252193  0.62504397  0.87159998  1
  Se  Se13  1  0.68747798  0.37495598  0.37159999  1
  Se  Se14  1  0.50477202  0.00954400  0.76626599  1
  Se  Se15  1  0.49522789  0.99045595  0.26626600  1
  Se  Se16  1  0.05171299  0.10342599  0.55081799  1
  Se  Se17  1  0.94828692  0.89657396  0.05081800  1
