# generated using pymatgen
data_NaNd6BiO10
_symmetry_space_group_name_H-M   'P 1'
_cell_length_a   3.40180397
_cell_length_b   5.91683245
_cell_length_c   13.68466473
_cell_angle_alpha   90.00000000
_cell_angle_beta   90.00000000
_cell_angle_gamma   106.70645142
_symmetry_Int_Tables_number   1
_chemical_formula_structural   NaNd6BiO10
_chemical_formula_sum   'Na1 Nd6 Bi1 O10'
_cell_volume   263.81718069
_cell_formula_units_Z   1
loop_
 _symmetry_equiv_pos_site_id
 _symmetry_equiv_pos_as_xyz
  1  'x, y, z'
loop_
 _atom_site_type_symbol
 _atom_site_label
 _atom_site_symmetry_multiplicity
 _atom_site_fract_x
 _atom_site_fract_y
 _atom_site_fract_z
 _atom_site_occupancy
  Nd  Nd0  1  0.02937600  0.05875200  0.74198301  1
  Na  Na1  1  0.97062408  0.94124805  0.24198300  1
  Nd  Nd2  1  0.77733805  0.55467603  0.88775702  1
  Nd  Nd3  1  0.22266203  0.44532402  0.38775701  1
  Nd  Nd4  1  0.50549301  0.01098600  0.99664302  1
  Nd  Nd5  1  0.49450708  0.98901405  0.49664301  1
  Bi  Bi6  1  0.23411204  0.46822402  0.11397900  1
  Nd  Nd7  1  0.76588805  0.53177603  0.61397901  1
  O  O8  1  0.66937003  0.33874002  0.74872901  1
  O  O9  1  0.33063005  0.66126003  0.24872900  1
  O  O10  1  0.41387406  0.82774804  0.64242801  1
  O  O11  1  0.57771202  0.15542401  0.35416201  1
  O  O12  1  0.42228806  0.84457604  0.85416202  1
  O  O13  1  0.58612602  0.17225201  0.14242800  1
  O  O14  1  0.13326302  0.26652601  0.55315901  1
  O  O15  1  0.84650406  0.69300803  0.46116001  1
  O  O16  1  0.15349602  0.30699201  0.96116002  1
  O  O17  1  0.86673706  0.73347404  0.05315900  1
