# generated using pymatgen
data_Ag2S
_symmetry_space_group_name_H-M   'P 1'
_cell_length_a   3.64919305
_cell_length_b   6.14336681
_cell_length_c   12.80177879
_cell_angle_alpha   89.94683075
_cell_angle_beta   90.00000000
_cell_angle_gamma   90.00000000
_symmetry_Int_Tables_number   1
_chemical_formula_structural   Ag2S
_chemical_formula_sum   'Ag8 S4'
_cell_volume   286.99439683
_cell_formula_units_Z   4
loop_
 _symmetry_equiv_pos_site_id
 _symmetry_equiv_pos_as_xyz
  1  'x, y, z'
loop_
 _atom_site_type_symbol
 _atom_site_label
 _atom_site_symmetry_multiplicity
 _atom_site_fract_x
 _atom_site_fract_y
 _atom_site_fract_z
 _atom_site_occupancy
  Ag  Ag0  1  0.00000000  0.33547901  0.59031399  1
  Ag  Ag1  1  0.00000000  0.32855001  0.91659498  1
  Ag  Ag2  1  0.49999999  0.16655201  0.07578600  1
  Ag  Ag3  1  0.49999999  0.83811703  0.91174799  1
  Ag  Ag4  1  0.00000000  0.66549702  0.38982700  1
  Ag  Ag5  1  0.00000000  0.66652202  0.09557500  1
  Ag  Ag6  1  0.49999999  0.17139101  0.39281299  1
  Ag  Ag7  1  0.49999999  0.83025303  0.62294399  1
  S  S8  1  0.00000000  0.99294603  0.99424199  1
  S  S9  1  0.00000000  0.00328300  0.51088599  1
  S  S10  1  0.49999999  0.49993402  0.98091398  1
  S  S11  1  0.49999999  0.50157502  0.51835799  1
