# generated using pymatgen
data_Li4MnF3
_symmetry_space_group_name_H-M   'P 1'
_cell_length_a   5.36363125
_cell_length_b   5.36363125
_cell_length_c   5.65058613
_cell_angle_alpha   61.66615677
_cell_angle_beta   61.66615677
_cell_angle_gamma   60.00001144
_symmetry_Int_Tables_number   1
_chemical_formula_structural   Li4MnF3
_chemical_formula_sum   'Li4 Mn1 F3'
_cell_volume   117.75690086
_cell_formula_units_Z   1
loop_
 _symmetry_equiv_pos_site_id
 _symmetry_equiv_pos_as_xyz
  1  'x, y, z'
loop_
 _atom_site_type_symbol
 _atom_site_label
 _atom_site_symmetry_multiplicity
 _atom_site_fract_x
 _atom_site_fract_y
 _atom_site_fract_z
 _atom_site_occupancy
  Li  Li0  1  0.00000000  0.00000000  0.00000000  1
  Li  Li1  1  0.49999998  0.49999998  0.50000001  1
  Mn  Mn2  1  0.85794996  0.62338598  0.25769703  1
  Li  Li3  1  0.62338597  0.26096699  0.25769701  1
  F  F4  1  0.73903297  0.14204999  0.74230300  1
  Li  Li5  1  0.37661398  0.73903297  0.74230301  1
  F  F6  1  0.14204999  0.37661399  0.74230299  1
  F  F7  1  0.26096698  0.85794997  0.25769702  1
