# generated using pymatgen
data_KBaTlInCu2HgAuSe8
_symmetry_space_group_name_H-M   'P 1'
_cell_length_a   5.72559214
_cell_length_b   7.81533289
_cell_length_c   10.05068493
_cell_angle_alpha   90.00000000
_cell_angle_beta   106.54904175
_cell_angle_gamma   90.00000000
_symmetry_Int_Tables_number   1
_chemical_formula_structural   KBaTlInCu2HgAuSe8
_chemical_formula_sum   'K1 Ba1 Tl1 In1 Cu2 Hg1 Au1 Se8'
_cell_volume   431.11211517
_cell_formula_units_Z   1
loop_
 _symmetry_equiv_pos_site_id
 _symmetry_equiv_pos_as_xyz
  1  'x, y, z'
loop_
 _atom_site_type_symbol
 _atom_site_label
 _atom_site_symmetry_multiplicity
 _atom_site_fract_x
 _atom_site_fract_y
 _atom_site_fract_z
 _atom_site_occupancy
  K  K0  1  0.44745499  0.25000000  0.36822399  1
  Ba  Ba1  1  0.07923100  0.75000001  0.63177598  1
  Tl  Tl2  1  0.60848099  0.75000001  0.21665500  1
  In  In3  1  0.39182599  0.25000000  0.78334498  1
  Hg  Hg4  1  0.10660500  0.75000001  0.21342800  1
  Au  Au5  1  0.89317698  0.25000000  0.78657199  1
  Cu  Cu6  1  0.51599399  0.50000001  0.99999998  1
  Cu  Cu7  1  0.51599399  0.00000000  0.99999998  1
  Se  Se8  1  0.25660800  0.75000001  0.00607800  1
  Se  Se9  1  0.25053000  0.25000000  0.99392198  1
  Se  Se10  1  0.46208099  0.75000001  0.42022199  1
  Se  Se11  1  0.04185900  0.25000000  0.57977799  1
  Se  Se12  1  0.64015499  0.99532001  0.78563099  1
  Se  Se13  1  0.85452398  0.00468000  0.21436900  1
  Se  Se14  1  0.64015499  0.50468001  0.78563099  1
  Se  Se15  1  0.85452398  0.49532001  0.21436900  1
