# generated using pymatgen
data_SrBPH2PdC6NO
_symmetry_space_group_name_H-M   'P 1'
_cell_length_a   5.51313210
_cell_length_b   5.51313210
_cell_length_c   6.74512577
_cell_angle_alpha   114.12164307
_cell_angle_beta   114.12164307
_cell_angle_gamma   90.00000000
_symmetry_Int_Tables_number   1
_chemical_formula_structural   SrBPH2PdC6NO
_chemical_formula_sum   'Sr1 B1 P1 Pd1 H2 C6 N1 O1'
_cell_volume   167.30691179
_cell_formula_units_Z   1
loop_
 _symmetry_equiv_pos_site_id
 _symmetry_equiv_pos_as_xyz
  1  'x, y, z'
loop_
 _atom_site_type_symbol
 _atom_site_label
 _atom_site_symmetry_multiplicity
 _atom_site_fract_x
 _atom_site_fract_y
 _atom_site_fract_z
 _atom_site_occupancy
  B  B0  1  0.74999998  0.24999999  0.50000000  1
  Sr  Sr1  1  0.00000000  0.00000000  0.00000000  1
  C  C2  1  0.45140499  0.80484198  0.90281000  1
  C  C3  1  0.45140499  0.09796800  0.90281000  1
  Pd  Pd4  1  0.29859499  0.15203200  0.59719000  1
  C  C5  1  0.29859499  0.44515799  0.59719000  1
  C  C6  1  0.90203198  0.54859499  0.09718999  1
  C  C7  1  0.19515799  0.54859499  0.09719000  1
  P  P8  1  0.55484198  0.70140498  0.40281000  1
  C  C9  1  0.84796798  0.70140498  0.40280999  1
  O  O10  1  0.99032098  0.49032099  0.98064200  1
  H  H11  1  0.75967898  0.75967898  0.51935799  1
  H  H12  1  0.50967899  0.00967900  0.01935800  1
  N  N13  1  0.24032099  0.24032099  0.48064200  1
