# generated using pymatgen
data_InHg2PSCl9
_symmetry_space_group_name_H-M   'P 1'
_cell_length_a   7.05507898
_cell_length_b   7.05507898
_cell_length_c   7.05507946
_cell_angle_alpha   102.12426758
_cell_angle_beta   102.12426758
_cell_angle_gamma   102.12427521
_symmetry_Int_Tables_number   1
_chemical_formula_structural   InHg2PSCl9
_chemical_formula_sum   'In1 Hg2 P1 S1 Cl9'
_cell_volume   323.58790213
_cell_formula_units_Z   1
loop_
 _symmetry_equiv_pos_site_id
 _symmetry_equiv_pos_as_xyz
  1  'x, y, z'
loop_
 _atom_site_type_symbol
 _atom_site_label
 _atom_site_symmetry_multiplicity
 _atom_site_fract_x
 _atom_site_fract_y
 _atom_site_fract_z
 _atom_site_occupancy
  In  In0  1  0.21585799  0.02147400  0.57034598  1
  Hg  Hg1  1  0.02147394  0.57034596  0.21585794  1
  Hg  Hg2  1  0.57034595  0.21585798  0.02147394  1
  P  P3  1  0.72328796  0.06723000  0.52452095  1
  S  S4  1  0.06722994  0.52452096  0.72328795  1
  Cl  Cl5  1  0.52452090  0.72328795  0.06722990  1
  Cl  Cl6  1  0.47634093  0.47634097  0.47634092  1
  Cl  Cl7  1  0.99478785  0.99478793  0.99478784  1
  Cl  Cl8  1  0.22420089  0.90033294  0.21820690  1
  Cl  Cl9  1  0.90033294  0.21820698  0.22420092  1
  Cl  Cl10  1  0.21820697  0.22420098  0.90033297  1
  Cl  Cl11  1  0.73314889  0.72097595  0.38928788  1
  Cl  Cl12  1  0.72097593  0.38928797  0.73314892  1
  Cl  Cl13  1  0.38928790  0.73314895  0.72097591  1
