# generated using pymatgen
data_AcTlCl2F
_symmetry_space_group_name_H-M   'P 1'
_cell_length_a   3.61192632
_cell_length_b   3.61192632
_cell_length_c   9.41648579
_cell_angle_alpha   78.94290161
_cell_angle_beta   78.94290161
_cell_angle_gamma   59.99999237
_symmetry_Int_Tables_number   1
_chemical_formula_structural   AcTlCl2F
_chemical_formula_sum   'Ac1 Tl1 Cl2 F1'
_cell_volume   103.74750004
_cell_formula_units_Z   1
loop_
 _symmetry_equiv_pos_site_id
 _symmetry_equiv_pos_as_xyz
  1  'x, y, z'
loop_
 _atom_site_type_symbol
 _atom_site_label
 _atom_site_symmetry_multiplicity
 _atom_site_fract_x
 _atom_site_fract_y
 _atom_site_fract_z
 _atom_site_occupancy
  Tl  Tl0  1  0.88040000  0.88040002  0.35880004  1
  Ac  Ac1  1  0.11960000  0.11960000  0.64120003  1
  F  F2  1  0.50000000  0.50000001  0.50000004  1
  Cl  Cl3  1  0.27645300  0.27645301  0.17064102  1
  Cl  Cl4  1  0.72354700  0.72354702  0.82935906  1
