# generated using pymatgen
data_K4AgP2S
_symmetry_space_group_name_H-M   'P 1'
_cell_length_a   4.03038216
_cell_length_b   4.03038263
_cell_length_c   16.05792427
_cell_angle_alpha   90.00000000
_cell_angle_beta   90.00000000
_cell_angle_gamma   119.99999237
_symmetry_Int_Tables_number   1
_chemical_formula_structural   K4AgP2S
_chemical_formula_sum   'K4 Ag1 P2 S1'
_cell_volume   225.89809927
_cell_formula_units_Z   1
loop_
 _symmetry_equiv_pos_site_id
 _symmetry_equiv_pos_as_xyz
  1  'x, y, z'
loop_
 _atom_site_type_symbol
 _atom_site_label
 _atom_site_symmetry_multiplicity
 _atom_site_fract_x
 _atom_site_fract_y
 _atom_site_fract_z
 _atom_site_occupancy
  K  K0  1  0.66666663  0.33333333  0.74999999  1
  K  K1  1  0.33333329  0.66666666  0.25000000  1
  K  K2  1  0.00000000  0.00000000  0.49999999  1
  K  K3  1  0.00000000  0.00000000  0.00000000  1
  P  P4  1  0.66666663  0.33333333  0.08918200  1
  Ag  Ag5  1  0.33333329  0.66666666  0.91081798  1
  S  S6  1  0.33333329  0.66666666  0.58918199  1
  P  P7  1  0.66666663  0.33333333  0.41081799  1
