# generated using pymatgen
data_KNa4LiP2F8
_symmetry_space_group_name_H-M   'P 1'
_cell_length_a   5.53954506
_cell_length_b   5.57881784
_cell_length_c   7.03197050
_cell_angle_alpha   90.00000000
_cell_angle_beta   90.97468567
_cell_angle_gamma   90.00000000
_symmetry_Int_Tables_number   1
_chemical_formula_structural   KNa4LiP2F8
_chemical_formula_sum   'K1 Na4 Li1 P2 F8'
_cell_volume   217.28536583
_cell_formula_units_Z   1
loop_
 _symmetry_equiv_pos_site_id
 _symmetry_equiv_pos_as_xyz
  1  'x, y, z'
loop_
 _atom_site_type_symbol
 _atom_site_label
 _atom_site_symmetry_multiplicity
 _atom_site_fract_x
 _atom_site_fract_y
 _atom_site_fract_z
 _atom_site_occupancy
  Na  Na0  1  0.49433200  0.19374801  0.50304402  1
  Li  Li1  1  0.99433199  0.80625202  0.00304405  1
  K  K2  1  0.99366999  0.30764401  0.25462504  1
  Na  Na3  1  0.49367000  0.69235602  0.75462502  1
  Na  Na4  1  0.98433799  0.79737902  0.50567104  1
  Na  Na5  1  0.48433800  0.20262101  0.00567102  1
  P  P6  1  0.50081200  0.69635502  0.24934302  1
  P  P7  1  0.00081200  0.30364501  0.74934300  1
  F  F8  1  0.20051300  0.71312702  0.78952000  1
  F  F9  1  0.70051299  0.28687301  0.28952003  1
  F  F10  1  0.14300800  0.20546201  0.44365100  1
  F  F11  1  0.64300799  0.79453802  0.94365102  1
  F  F12  1  0.57158899  0.40915101  0.71945902  1
  F  F13  1  0.56373799  0.85148202  0.56368702  1
  F  F14  1  0.07158900  0.59084902  0.21945900  1
  F  F15  1  0.06373800  0.14851800  0.06368700  1
