# generated using pymatgen
data_CsK4Cl5
_symmetry_space_group_name_H-M   'P 1'
_cell_length_a   6.75528383
_cell_length_b   7.66724014
_cell_length_c   7.66724014
_cell_angle_alpha   60.00000000
_cell_angle_beta   90.00000000
_cell_angle_gamma   90.00000000
_symmetry_Int_Tables_number   1
_chemical_formula_structural   CsK4Cl5
_chemical_formula_sum   'Cs1 K4 Cl5'
_cell_volume   343.91598705
_cell_formula_units_Z   1
loop_
 _symmetry_equiv_pos_site_id
 _symmetry_equiv_pos_as_xyz
  1  'x, y, z'
loop_
 _atom_site_type_symbol
 _atom_site_label
 _atom_site_symmetry_multiplicity
 _atom_site_fract_x
 _atom_site_fract_y
 _atom_site_fract_z
 _atom_site_occupancy
  K  K0  1  0.75000002  0.15952600  0.15952600  1
  K  K1  1  0.25000001  0.84047400  0.31905198  1
  K  K2  1  0.75000002  0.68094800  0.15952598  1
  K  K3  1  0.25000001  0.31905200  0.84047401  1
  Cs  Cs4  1  0.25000001  0.84047400  0.84047400  1
  Cl  Cl5  1  0.75000002  0.15952600  0.68094801  1
  Cl  Cl6  1  0.75000002  0.66666666  0.66666666  1
  Cl  Cl7  1  0.25000001  0.33333333  0.33333333  1
  Cl  Cl8  1  0.50000001  0.00000000  0.00000000  1
  Cl  Cl9  1  0.00000000  0.00000000  0.00000000  1
