# generated using pymatgen
data_V(CoO3)2
_symmetry_space_group_name_H-M   'P 1'
_cell_length_a   5.14922810
_cell_length_b   5.14922762
_cell_length_c   5.49372005
_cell_angle_alpha   90.00000000
_cell_angle_beta   90.00000000
_cell_angle_gamma   120.00000000
_symmetry_Int_Tables_number   1
_chemical_formula_structural   V(CoO3)2
_chemical_formula_sum   'V1 Co2 O6'
_cell_volume   126.14829270
_cell_formula_units_Z   1
loop_
 _symmetry_equiv_pos_site_id
 _symmetry_equiv_pos_as_xyz
  1  'x, y, z'
loop_
 _atom_site_type_symbol
 _atom_site_label
 _atom_site_symmetry_multiplicity
 _atom_site_fract_x
 _atom_site_fract_y
 _atom_site_fract_z
 _atom_site_occupancy
  V  V0  1  0.66666665  0.33333334  -0.00000000  1
  Co  Co1  1  0.00000000  0.00000000  0.50000000  1
  Co  Co2  1  0.33333331  0.66666668  0.50000000  1
  O  O3  1  0.28409399  0.32963701  0.30056600  1
  O  O4  1  0.04554298  0.71590601  0.30056600  1
  O  O5  1  0.67036296  0.95445702  0.30056600  1
  O  O6  1  0.28409397  0.95445702  0.69943399  1
  O  O7  1  0.67036297  0.71590601  0.69943399  1
  O  O8  1  0.04554299  0.32963701  0.69943399  1
