# generated using pymatgen
data_Ba2La3Bi6SbWSe7
_symmetry_space_group_name_H-M   'P 1'
_cell_length_a   4.44631386
_cell_length_b   7.46967983
_cell_length_c   20.39703560
_cell_angle_alpha   100.55078888
_cell_angle_beta   96.25733185
_cell_angle_gamma   90.00000000
_symmetry_Int_Tables_number   1
_chemical_formula_structural   Ba2La3Bi6SbWSe7
_chemical_formula_sum   'Ba2 La3 Bi6 Sb1 W1 Se7'
_cell_volume   661.87819689
_cell_formula_units_Z   1
loop_
 _symmetry_equiv_pos_site_id
 _symmetry_equiv_pos_as_xyz
  1  'x, y, z'
loop_
 _atom_site_type_symbol
 _atom_site_label
 _atom_site_symmetry_multiplicity
 _atom_site_fract_x
 _atom_site_fract_y
 _atom_site_fract_z
 _atom_site_occupancy
  Ba  Ba0  1  0.50000001  0.65642302  0.00000000  1
  La  La1  1  0.31523200  0.82056102  0.63046399  1
  La  La2  1  0.68476802  0.19009701  0.36953599  1
  La  La3  1  0.38620701  0.39150601  0.77241298  1
  Bi  Bi4  1  0.61379401  0.61909302  0.22758800  1
  Ba  Ba5  1  0.94598502  0.09357800  0.89196997  1
  Bi  Bi6  1  0.05401600  0.20160901  0.10803100  1
  Bi  Bi7  1  0.80176302  0.32675801  0.60352598  1
  Bi  Bi8  1  0.19823700  0.72323202  0.39647400  1
  Bi  Bi9  1  0.41081400  0.91520803  0.82162799  1
  Bi  Bi10  1  0.58918602  0.09358000  0.17837199  1
  Sb  Sb11  1  0.25935300  0.34575801  0.51870599  1
  W  W12  1  0.74064601  0.82705102  0.48129299  1
  Se  Se13  1  -0.00000001  0.97356303  0.00000001  1
  Se  Se14  1  0.94734302  0.42777001  0.89468597  1
  Se  Se15  1  0.05265700  0.53308402  0.10531400  1
  Se  Se16  1  0.84660802  0.60450302  0.69321698  1
  Se  Se17  1  0.15339100  0.91128603  0.30678200  1
  Se  Se18  1  0.84150902  0.11344400  0.68301798  1
  Se  Se19  1  0.15849200  0.43042701  0.31698300  1
