# generated using pymatgen
data_Li4Ag3S5
_symmetry_space_group_name_H-M   'P 1'
_cell_length_a   5.79539108
_cell_length_b   5.83771610
_cell_length_c   5.90072823
_cell_angle_alpha   90.00000000
_cell_angle_beta   68.69319153
_cell_angle_gamma   90.00000000
_symmetry_Int_Tables_number   1
_chemical_formula_structural   Li4Ag3S5
_chemical_formula_sum   'Li4 Ag3 S5'
_cell_volume   185.98726730
_cell_formula_units_Z   1
loop_
 _symmetry_equiv_pos_site_id
 _symmetry_equiv_pos_as_xyz
  1  'x, y, z'
loop_
 _atom_site_type_symbol
 _atom_site_label
 _atom_site_symmetry_multiplicity
 _atom_site_fract_x
 _atom_site_fract_y
 _atom_site_fract_z
 _atom_site_occupancy
  Li  Li0  1  0.15790100  0.88106998  0.12908900  1
  Li  Li1  1  0.84209899  0.38106999  0.37091099  1
  Li  Li2  1  0.84209899  0.11893000  0.87091099  1
  Li  Li3  1  0.15790100  0.61892999  0.62908900  1
  Ag  Ag4  1  0.33410600  0.37643399  0.81101000  1
  Ag  Ag5  1  0.66589399  0.87643398  0.68898999  1
  Ag  Ag6  1  0.66589399  0.62356599  0.18898999  1
  S  S7  1  0.33410600  0.12356600  0.31101000  1
  S  S8  1  0.27167600  0.49929199  0.20819900  1
  S  S9  1  0.72832399  0.99929198  0.29180099  1
  S  S10  1  0.72832399  0.50070799  0.79180099  1
  S  S11  1  0.27167600  0.00070800  0.70819900  1
