# generated using pymatgen
data_SrAlCd2GaSnGePS12
_symmetry_space_group_name_H-M   'P 1'
_cell_length_a   5.97954130
_cell_length_b   6.14159679
_cell_length_c   8.55320454
_cell_angle_alpha   90.00000000
_cell_angle_beta   90.00836182
_cell_angle_gamma   90.00000000
_symmetry_Int_Tables_number   1
_chemical_formula_structural   SrAlCd2GaSnGePS12
_chemical_formula_sum   'Sr1 Al1 Cd2 Ga1 Sn1 Ge1 P1 S12'
_cell_volume   314.10729577
_cell_formula_units_Z   1
loop_
 _symmetry_equiv_pos_site_id
 _symmetry_equiv_pos_as_xyz
  1  'x, y, z'
loop_
 _atom_site_type_symbol
 _atom_site_label
 _atom_site_symmetry_multiplicity
 _atom_site_fract_x
 _atom_site_fract_y
 _atom_site_fract_z
 _atom_site_occupancy
  Sr  Sr0  1  0.01252000  0.45332302  0.25213500  1
  Cd  Cd1  1  0.98748000  0.54667702  0.74786504  1
  Ga  Ga2  1  0.48748000  0.95332303  0.24786502  1
  Cd  Cd3  1  0.51252000  0.04667700  0.75213502  1
  Sn  Sn4  1  0.00000000  0.00000000  0.50000000  1
  Al  Al5  1  0.50000000  0.50000002  0.00000002  1
  Ge  Ge6  1  0.00000000  0.00000000  0.00000000  1
  P  P7  1  0.50000000  0.50000002  0.50000002  1
  S  S8  1  0.90320400  0.03884100  0.24120104  1
  S  S9  1  0.09679600  0.96115903  0.75879900  1
  S  S10  1  0.59679600  0.53884102  0.25879903  1
  S  S11  1  0.40320400  0.46115902  0.74120101  1
  S  S12  1  0.19513700  0.71424702  0.05514301  1
  S  S13  1  0.80486300  0.28575301  0.94485703  1
  S  S14  1  0.30486300  0.21424701  0.44485701  1
  S  S15  1  0.69513700  0.78575303  0.55514303  1
  S  S16  1  0.28916300  0.19709101  0.04787201  1
  S  S17  1  0.71083700  0.80290903  0.95212803  1
  S  S18  1  0.21083700  0.69709102  0.45212801  1
  S  S19  1  0.78916300  0.30290901  0.54787203  1
