# generated using pymatgen
data_Ba3SrF8
_symmetry_space_group_name_H-M   'P 1'
_cell_length_a   3.94636011
_cell_length_b   6.56594515
_cell_length_c   7.80794001
_cell_angle_alpha   90.00000000
_cell_angle_beta   90.00000000
_cell_angle_gamma   90.00000000
_symmetry_Int_Tables_number   1
_chemical_formula_structural   Ba3SrF8
_chemical_formula_sum   'Ba3 Sr1 F8'
_cell_volume   202.31609355
_cell_formula_units_Z   1
loop_
 _symmetry_equiv_pos_site_id
 _symmetry_equiv_pos_as_xyz
  1  'x, y, z'
loop_
 _atom_site_type_symbol
 _atom_site_label
 _atom_site_symmetry_multiplicity
 _atom_site_fract_x
 _atom_site_fract_y
 _atom_site_fract_z
 _atom_site_occupancy
  Sr  Sr0  1  0.24999999  0.25722099  0.90178300  1
  Ba  Ba1  1  0.74999998  0.74277898  0.09821700  1
  Ba  Ba2  1  0.24999999  0.75722098  0.59821700  1
  Ba  Ba3  1  0.74999998  0.24277899  0.40178300  1
  F  F4  1  0.24999999  0.48277799  0.14796100  1
  F  F5  1  0.74999998  0.51722199  0.85203900  1
  F  F6  1  0.24999999  0.98277798  0.35203900  1
  F  F7  1  0.74999998  0.01722200  0.64796100  1
  F  F8  1  0.74999998  0.64144999  0.42906200  1
  F  F9  1  0.24999999  0.35854999  0.57093800  1
  F  F10  1  0.74999998  0.14145000  0.07093800  1
  F  F11  1  0.24999999  0.85854998  0.92906200  1
