# generated using pymatgen
data_Rb2BaTlS3Cl(O3F)2
_symmetry_space_group_name_H-M   'P 1'
_cell_length_a   7.67894936
_cell_length_b   7.67894936
_cell_length_c   7.67894936
_cell_angle_alpha   60.00000000
_cell_angle_beta   60.00000000
_cell_angle_gamma   60.00000000
_symmetry_Int_Tables_number   1
_chemical_formula_structural   Rb2BaTlS3Cl(O3F)2
_chemical_formula_sum   'Rb2 Ba1 Tl1 S3 Cl1 O6 F2'
_cell_volume   320.17720730
_cell_formula_units_Z   1
loop_
 _symmetry_equiv_pos_site_id
 _symmetry_equiv_pos_as_xyz
  1  'x, y, z'
loop_
 _atom_site_type_symbol
 _atom_site_label
 _atom_site_symmetry_multiplicity
 _atom_site_fract_x
 _atom_site_fract_y
 _atom_site_fract_z
 _atom_site_occupancy
  Ba  Ba0  1  0.24999999  0.24999999  0.24999999  1
  Rb  Rb1  1  0.74999998  0.74999998  0.74999998  1
  Rb  Rb2  1  0.49999999  0.49999999  0.49999999  1
  Tl  Tl3  1  0.00000000  0.00000000  0.00000000  1
  F  F4  1  0.18615299  0.81384698  0.18615299  1
  F  F5  1  0.81384698  0.18615299  0.18615299  1
  O  O6  1  0.81384698  0.81384698  0.18615299  1
  O  O7  1  0.81384698  0.18615299  0.81384698  1
  O  O8  1  0.18615299  0.18615299  0.81384698  1
  O  O9  1  0.18615299  0.81384698  0.81384698  1
  S  S10  1  0.70570198  0.29429799  0.70570198  1
  S  S11  1  0.29429799  0.29429799  0.70570198  1
  Cl  Cl12  1  0.70570198  0.70570198  0.29429799  1
  O  O13  1  0.70570198  0.29429799  0.29429799  1
  O  O14  1  0.29429799  0.70570198  0.29429799  1
  S  S15  1  0.29429799  0.70570198  0.70570198  1
