# generated using pymatgen
data_LiB7(HO3)3
_symmetry_space_group_name_H-M   'P 1'
_cell_length_a   4.79899788
_cell_length_b   5.05596209
_cell_length_c   8.80525017
_cell_angle_alpha   90.00000000
_cell_angle_beta   90.00000000
_cell_angle_gamma   89.62375641
_symmetry_Int_Tables_number   1
_chemical_formula_structural   LiB7(HO3)3
_chemical_formula_sum   'Li1 B7 H3 O9'
_cell_volume   213.64203303
_cell_formula_units_Z   1
loop_
 _symmetry_equiv_pos_site_id
 _symmetry_equiv_pos_as_xyz
  1  'x, y, z'
loop_
 _atom_site_type_symbol
 _atom_site_label
 _atom_site_symmetry_multiplicity
 _atom_site_fract_x
 _atom_site_fract_y
 _atom_site_fract_z
 _atom_site_occupancy
  B  B0  1  0.68011907  0.86003099  0.63350199  1
  Li  Li1  1  0.81381204  0.35500999  0.38179299  1
  B  B2  1  0.18618805  0.64498999  0.88179298  1
  B  B3  1  0.31988102  0.13996900  0.13350200  1
  B  B4  1  0.48068503  0.32717999  0.59752599  1
  B  B5  1  0.00537805  0.82103299  0.41365199  1
  B  B6  1  0.99462204  0.17896700  0.91365198  1
  B  B7  1  0.51931506  0.67281999  0.09752600  1
  H  H8  1  0.72196307  0.87263699  0.90910298  1
  H  H9  1  0.78625704  0.36179299  0.10480100  1
  H  H10  1  0.21374305  0.63820699  0.60480099  1
  O  O11  1  0.27803702  0.12736300  0.40910299  1
  O  O12  1  0.54950003  0.18308100  0.52748999  1
  O  O13  1  0.93782207  0.68065799  0.48568199  1
  O  O14  1  0.06217802  0.31934200  0.98568198  1
  O  O15  1  0.45050006  0.81691899  0.02749000  1
  O  O16  1  0.87394408  0.90031099  0.83202698  1
  O  O17  1  0.63144004  0.39200899  0.18008500  1
  O  O18  1  0.36856005  0.60799099  0.68008499  1
  O  O19  1  0.12605601  0.09968900  0.33202699  1
