# generated using pymatgen
data_Al2Ga5SiBP3Ru2
_symmetry_space_group_name_H-M   'P 1'
_cell_length_a   5.51050711
_cell_length_b   5.51050711
_cell_length_c   10.41209984
_cell_angle_alpha   90.00000000
_cell_angle_beta   90.00000000
_cell_angle_gamma   90.00000000
_symmetry_Int_Tables_number   1
_chemical_formula_structural   Al2Ga5SiBP3Ru2
_chemical_formula_sum   'Al2 Ga5 Si1 B1 P3 Ru2'
_cell_volume   316.17058109
_cell_formula_units_Z   1
loop_
 _symmetry_equiv_pos_site_id
 _symmetry_equiv_pos_as_xyz
  1  'x, y, z'
loop_
 _atom_site_type_symbol
 _atom_site_label
 _atom_site_symmetry_multiplicity
 _atom_site_fract_x
 _atom_site_fract_y
 _atom_site_fract_z
 _atom_site_occupancy
  Al  Al0  1  0.49999999  0.49999999  0.50000001  1
  Ga  Ga1  1  0.00000000  0.00000000  0.00000000  1
  Ga  Ga2  1  0.49999999  0.49999999  -0.00000000  1
  Al  Al3  1  0.00000000  0.00000000  0.50000001  1
  Ga  Ga4  1  0.00000000  0.49999999  0.25358400  1
  Ga  Ga5  1  0.49999999  0.00000000  0.74641601  1
  P  P6  1  0.24373500  0.75509499  0.37254901  1
  Ga  Ga7  1  0.73293399  0.26882299  0.86241601  1
  Ru  Ru8  1  0.75626499  0.24490500  0.37254901  1
  Ru  Ru9  1  0.26706599  0.73117699  0.86241601  1
  P  P10  1  0.73117699  0.73293399  0.13758400  1
  Si  Si11  1  0.24490500  0.24373500  0.62745101  1
  P  P12  1  0.26882299  0.26706599  0.13758400  1
  B  B13  1  0.75509499  0.75626499  0.62745101  1
