# generated using pymatgen
data_Na3VO4
_symmetry_space_group_name_H-M   'P 1'
_cell_length_a   4.76146221
_cell_length_b   5.34980202
_cell_length_c   9.98018932
_cell_angle_alpha   105.54653931
_cell_angle_beta   103.80072021
_cell_angle_gamma   90.00000000
_symmetry_Int_Tables_number   1
_chemical_formula_structural   Na3VO4
_chemical_formula_sum   'Na6 V2 O8'
_cell_volume   237.29626108
_cell_formula_units_Z   2
loop_
 _symmetry_equiv_pos_site_id
 _symmetry_equiv_pos_as_xyz
  1  'x, y, z'
loop_
 _atom_site_type_symbol
 _atom_site_label
 _atom_site_symmetry_multiplicity
 _atom_site_fract_x
 _atom_site_fract_y
 _atom_site_fract_z
 _atom_site_occupancy
  V  V0  1  0.50031996  0.75031998  0.50063997  1
  V  V1  1  0.99967995  0.24967999  0.49935999  1
  Na  Na2  1  0.49967997  0.24967999  0.49935999  1
  Na  Na3  1  0.00031998  0.75031998  0.50063998  1
  Na  Na4  1  0.90965194  0.67019899  0.81930398  1
  Na  Na5  1  0.09034799  0.32980099  0.18069599  1
  Na  Na6  1  0.59034695  0.85089398  0.18069497  1
  Na  Na7  1  0.40965298  0.14910600  0.81930500  1
  O  O8  1  0.79816495  0.54744599  0.59632898  1
  O  O9  1  0.20183498  0.45255399  0.40367099  1
  O  O10  1  0.70183595  0.95111698  0.40367197  1
  O  O11  1  0.29816398  0.04888300  0.59632800  1
  O  O12  1  0.91865996  0.08072400  0.83731900  1
  O  O13  1  0.08133998  0.91927598  0.16268097  1
  O  O14  1  0.58134097  0.24340499  0.16268199  1
  O  O15  1  0.41865896  0.75659498  0.83731798  1
