# generated using pymatgen
data_MgSi3HC4NO
_symmetry_space_group_name_H-M   'P 1'
_cell_length_a   6.16302872
_cell_length_b   6.16302872
_cell_length_c   6.16302824
_cell_angle_alpha   60.77112579
_cell_angle_beta   60.77112579
_cell_angle_gamma   60.77112579
_symmetry_Int_Tables_number   1
_chemical_formula_structural   MgSi3HC4NO
_chemical_formula_sum   'Mg1 Si3 H1 C4 N1 O1'
_cell_volume   168.40603994
_cell_formula_units_Z   1
loop_
 _symmetry_equiv_pos_site_id
 _symmetry_equiv_pos_as_xyz
  1  'x, y, z'
loop_
 _atom_site_type_symbol
 _atom_site_label
 _atom_site_symmetry_multiplicity
 _atom_site_fract_x
 _atom_site_fract_y
 _atom_site_fract_z
 _atom_site_occupancy
  C  C0  1  0.82775194  0.82775197  0.82775208  1
  Mg  Mg1  1  0.17224799  0.17224799  0.17224802  1
  Si  Si2  1  0.28944797  0.71055197  1.00000007  1
  Si  Si3  1  0.71055197  0.00000000  0.28944803  1
  Si  Si4  1  -0.00000001  0.28944799  0.71055203  1
  H  H5  1  0.40467196  0.83296197  0.99025607  1
  C  C6  1  0.00974400  0.16703799  0.59532803  1
  C  C7  1  0.16703798  0.59532798  0.00974402  1
  O  O8  1  0.83296194  0.99025596  0.40467207  1
  C  C9  1  0.59532797  0.00974400  0.16703802  1
  N  N10  1  0.99025595  0.40467198  0.83296207  1
