# generated using pymatgen
data_Al6GeBCl12
_symmetry_space_group_name_H-M   'P 1'
_cell_length_a   5.59694576
_cell_length_b   5.81315517
_cell_length_c   11.55035114
_cell_angle_alpha   90.00000000
_cell_angle_beta   90.00000000
_cell_angle_gamma   90.00000000
_symmetry_Int_Tables_number   1
_chemical_formula_structural   Al6GeBCl12
_chemical_formula_sum   'Al6 Ge1 B1 Cl12'
_cell_volume   375.80123400
_cell_formula_units_Z   1
loop_
 _symmetry_equiv_pos_site_id
 _symmetry_equiv_pos_as_xyz
  1  'x, y, z'
loop_
 _atom_site_type_symbol
 _atom_site_label
 _atom_site_symmetry_multiplicity
 _atom_site_fract_x
 _atom_site_fract_y
 _atom_site_fract_z
 _atom_site_occupancy
  B  B0  1  0.25000001  0.84931197  0.60806099  1
  Al  Al1  1  0.75000003  0.15068800  0.39193900  1
  Al  Al2  1  0.75000003  0.84931197  0.89193899  1
  Al  Al3  1  0.25000001  0.15068800  0.10806100  1
  Al  Al4  1  0.25000001  0.47970899  0.83667899  1
  Al  Al5  1  0.75000003  0.52029098  0.16332100  1
  Al  Al6  1  0.75000003  0.47970899  0.66332099  1
  Ge  Ge7  1  0.25000001  0.52029098  0.33667900  1
  Cl  Cl8  1  0.25000001  0.90325597  0.34682200  1
  Cl  Cl9  1  0.75000003  0.09674400  0.65317799  1
  Cl  Cl10  1  0.75000003  0.90325597  0.15317800  1
  Cl  Cl11  1  0.25000001  0.09674400  0.84682199  1
  Cl  Cl12  1  0.25000001  0.65807098  0.01114200  1
  Cl  Cl13  1  0.75000003  0.34192899  0.98885799  1
  Cl  Cl14  1  0.75000003  0.65807098  0.48885799  1
  Cl  Cl15  1  0.25000001  0.34192899  0.51114199  1
  Cl  Cl16  1  0.50000002  0.37351799  0.25000000  1
  Cl  Cl17  1  0.00000000  0.62648198  0.74999999  1
  Cl  Cl18  1  0.50000002  0.62648198  0.74999999  1
  Cl  Cl19  1  0.00000000  0.37351799  0.25000000  1
