# generated using pymatgen
data_Na3Zn3P2
_symmetry_space_group_name_H-M   'P 1'
_cell_length_a   3.48460007
_cell_length_b   3.48459983
_cell_length_c   15.61872005
_cell_angle_alpha   90.00000000
_cell_angle_beta   90.00000000
_cell_angle_gamma   120.00000000
_symmetry_Int_Tables_number   1
_chemical_formula_structural   Na3Zn3P2
_chemical_formula_sum   'Na3 Zn3 P2'
_cell_volume   164.24112990
_cell_formula_units_Z   1
loop_
 _symmetry_equiv_pos_site_id
 _symmetry_equiv_pos_as_xyz
  1  'x, y, z'
loop_
 _atom_site_type_symbol
 _atom_site_label
 _atom_site_symmetry_multiplicity
 _atom_site_fract_x
 _atom_site_fract_y
 _atom_site_fract_z
 _atom_site_occupancy
  Na  Na0  1  0.00000000  0.00000000  0.50000000  1
  Na  Na1  1  0.00000000  0.00000000  0.00000000  1
  Na  Na2  1  0.00000000  0.00000000  0.75000000  1
  Zn  Zn3  1  0.00000000  0.00000000  0.25000000  1
  Zn  Zn4  1  0.66666665  0.33333334  0.65141900  1
  Zn  Zn5  1  0.33333331  0.66666667  0.15141900  1
  P  P6  1  0.66666665  0.33333334  0.84858100  1
  P  P7  1  0.33333331  0.66666667  0.34858100  1
