# generated using pymatgen
data_NaLaNd3Bi3S2
_symmetry_space_group_name_H-M   'P 1'
_cell_length_a   4.59673452
_cell_length_b   4.59673452
_cell_length_c   18.91932678
_cell_angle_alpha   83.02233124
_cell_angle_beta   83.02233124
_cell_angle_gamma   59.99999619
_symmetry_Int_Tables_number   1
_chemical_formula_structural   NaLaNd3Bi3S2
_chemical_formula_sum   'Na1 La1 Nd3 Bi3 S2'
_cell_volume   342.78330575
_cell_formula_units_Z   1
loop_
 _symmetry_equiv_pos_site_id
 _symmetry_equiv_pos_as_xyz
  1  'x, y, z'
loop_
 _atom_site_type_symbol
 _atom_site_label
 _atom_site_symmetry_multiplicity
 _atom_site_fract_x
 _atom_site_fract_y
 _atom_site_fract_z
 _atom_site_occupancy
  Na  Na0  1  0.99501797  0.99501795  0.01494599  1
  Nd  Nd1  1  0.60492198  0.60492197  0.18523399  1
  La  La2  1  0.20233699  0.20233699  0.39298899  1
  Bi  Bi3  1  0.79993498  0.79993496  0.60019498  1
  Nd  Nd4  1  0.39747099  0.39747098  0.80758698  1
  Nd  Nd5  1  0.55381299  0.55381297  0.33856099  1
  Bi  Bi6  1  0.15139400  0.15139399  0.54581799  1
  Bi  Bi7  1  0.74905598  0.74905596  0.75283198  1
  S  S8  1  0.34669399  0.34669398  0.95991798  1
  S  S9  1  0.94935897  0.94935895  0.15192299  1
