# generated using pymatgen
data_Na2P3O5
_symmetry_space_group_name_H-M   'P 1'
_cell_length_a   5.92494297
_cell_length_b   7.09178352
_cell_length_c   7.09178352
_cell_angle_alpha   83.26401520
_cell_angle_beta   75.74079895
_cell_angle_gamma   75.74079895
_symmetry_Int_Tables_number   1
_chemical_formula_structural   Na2P3O5
_chemical_formula_sum   'Na4 P6 O10'
_cell_volume   279.39820576
_cell_formula_units_Z   2
loop_
 _symmetry_equiv_pos_site_id
 _symmetry_equiv_pos_as_xyz
  1  'x, y, z'
loop_
 _atom_site_type_symbol
 _atom_site_label
 _atom_site_symmetry_multiplicity
 _atom_site_fract_x
 _atom_site_fract_y
 _atom_site_fract_z
 _atom_site_occupancy
  Na  Na0  1  0.49999998  0.28863501  0.71136499  1
  Na  Na1  1  0.99999997  0.71149801  0.28850196  1
  Na  Na2  1  0.00000000  0.08449300  0.91550701  1
  Na  Na3  1  0.49999998  0.91015102  0.08984895  1
  P  P4  1  0.49568198  0.38362901  0.19794598  1
  P  P5  1  0.50431798  0.80205401  0.61637097  1
  P  P6  1  0.00006100  0.62127901  0.80191298  1
  P  P7  1  0.99993897  0.19808700  0.37872099  1
  P  P8  1  0.71550298  0.35617801  0.34666198  1
  P  P9  1  0.28449699  0.65333801  0.64382197  1
  O  O10  1  0.78658897  0.64130501  0.64821497  1
  O  O11  1  0.21341099  0.35178501  0.35869499  1
  O  O12  1  0.44022999  0.61322901  0.10202797  1
  O  O13  1  0.55976998  0.89797202  0.38677096  1
  O  O14  1  0.06475300  0.39456701  0.89931799  1
  O  O15  1  0.93524697  0.10068200  0.60543299  1
  O  O16  1  0.58319898  0.21914100  0.02661598  1
  O  O17  1  0.41680099  0.97338402  0.78085896  1
  O  O18  1  0.89447297  0.77867901  0.98008697  1
  O  O19  1  0.10552700  0.01991300  0.22132100  1
