# generated using pymatgen
data_Li8TiO5
_symmetry_space_group_name_H-M   'P 1'
_cell_length_a   5.71228647
_cell_length_b   5.71228647
_cell_length_c   6.08299017
_cell_angle_alpha   61.99624634
_cell_angle_beta   61.99624634
_cell_angle_gamma   59.99999619
_symmetry_Int_Tables_number   1
_chemical_formula_structural   Li8TiO5
_chemical_formula_sum   'Li8 Ti1 O5'
_cell_volume   144.43994733
_cell_formula_units_Z   1
loop_
 _symmetry_equiv_pos_site_id
 _symmetry_equiv_pos_as_xyz
  1  'x, y, z'
loop_
 _atom_site_type_symbol
 _atom_site_label
 _atom_site_symmetry_multiplicity
 _atom_site_fract_x
 _atom_site_fract_y
 _atom_site_fract_z
 _atom_site_occupancy
  Li  Li0  1  0.50202900  0.26890100  0.35056599  1
  Li  Li1  1  0.77207699  0.06634700  0.65266600  1
  Li  Li2  1  0.06634701  0.50890999  0.65266600  1
  Li  Li3  1  0.34959300  0.34959299  0.95122101  1
  Li  Li4  1  0.26890102  0.87850398  0.35056597  1
  Li  Li5  1  0.87850400  0.50202899  0.35056597  1
  Li  Li6  1  0.50891001  0.77207699  0.65266598  1
  Li  Li7  1  0.99781901  0.99781898  0.00654294  1
  O  O8  1  0.36698300  0.12322500  0.75145401  1
  O  O9  1  0.92351600  0.20256200  0.26254197  1
  O  O10  1  0.20256201  0.61137999  0.26254198  1
  Ti  Ti11  1  0.75833800  0.36698299  0.75145399  1
  O  O12  1  0.12322502  0.75833799  0.75145399  1
  O  O13  1  0.61138001  0.92351598  0.26254196  1
