# generated using pymatgen
data_V5CuSO10
_symmetry_space_group_name_H-M   'P 1'
_cell_length_a   5.40273905
_cell_length_b   5.68633604
_cell_length_c   7.61052608
_cell_angle_alpha   103.42623138
_cell_angle_beta   106.50202942
_cell_angle_gamma   97.32936096
_symmetry_Int_Tables_number   1
_chemical_formula_structural   V5CuSO10
_chemical_formula_sum   'V5 Cu1 S1 O10'
_cell_volume   213.30498450
_cell_formula_units_Z   1
loop_
 _symmetry_equiv_pos_site_id
 _symmetry_equiv_pos_as_xyz
  1  'x, y, z'
loop_
 _atom_site_type_symbol
 _atom_site_label
 _atom_site_symmetry_multiplicity
 _atom_site_fract_x
 _atom_site_fract_y
 _atom_site_fract_z
 _atom_site_occupancy
  V  V0  1  0.22881600  0.08620600  0.19289199  1
  V  V1  1  0.77118400  0.91379397  0.80710794  1
  V  V2  1  0.00000001  0.49999999  -0.00000001  1
  V  V3  1  0.68554500  0.72083098  0.30809695  1
  Cu  Cu4  1  0.31445500  0.27916899  0.69190297  1
  V  V5  1  0.77082999  0.17334499  0.13233896  1
  S  S6  1  0.22917002  0.82665498  0.86766096  1
  O  O7  1  0.89283698  0.17928399  0.05803196  1
  O  O8  1  0.43681700  0.45412099  0.16748697  1
  O  O9  1  0.97893699  0.70344398  0.23686994  1
  O  O10  1  0.57213501  0.99808097  0.26888395  1
  O  O11  1  0.23082200  0.26579099  0.44454998  1
  O  O12  1  0.76917800  0.73420898  0.55544994  1
  O  O13  1  0.42786499  0.00191900  0.73111597  1
  O  O14  1  0.02106301  0.29655599  0.76312998  1
  O  O15  1  0.56318300  0.54587898  0.83251295  1
  O  O16  1  0.10716302  0.82071598  0.94196796  1
