# generated using pymatgen
data_BaSrCdTe3
_symmetry_space_group_name_H-M   'P 1'
_cell_length_a   4.66176605
_cell_length_b   9.00706387
_cell_length_c   12.20091057
_cell_angle_alpha   90.00000000
_cell_angle_beta   90.00000000
_cell_angle_gamma   104.99791718
_symmetry_Int_Tables_number   1
_chemical_formula_structural   BaSrCdTe3
_chemical_formula_sum   'Ba2 Sr2 Cd2 Te6'
_cell_volume   494.85044934
_cell_formula_units_Z   2
loop_
 _symmetry_equiv_pos_site_id
 _symmetry_equiv_pos_as_xyz
  1  'x, y, z'
loop_
 _atom_site_type_symbol
 _atom_site_label
 _atom_site_symmetry_multiplicity
 _atom_site_fract_x
 _atom_site_fract_y
 _atom_site_fract_z
 _atom_site_occupancy
  Ba  Ba0  1  0.24983803  0.49967598  0.25000001  1
  Ba  Ba1  1  0.75016202  0.50032398  0.75000003  1
  Sr  Sr2  1  0.00000000  0.00000000  0.50000002  1
  Sr  Sr3  1  0.00000000  0.00000000  0.00000000  1
  Cd  Cd4  1  0.46502506  0.93004996  0.75000003  1
  Cd  Cd5  1  0.53497500  0.06995000  0.25000001  1
  Te  Te6  1  0.62275101  0.24550199  0.44561502  1
  Te  Te7  1  0.37724905  0.75449797  0.55438502  1
  Te  Te8  1  0.37724905  0.75449797  0.94561503  1
  Te  Te9  1  0.62275101  0.24550199  0.05438500  1
  Te  Te10  1  0.06639701  0.13279399  0.75000003  1
  Te  Te11  1  0.93360305  0.86720597  0.25000001  1
