# generated using pymatgen
data_Li2CoO3
_symmetry_space_group_name_H-M   'P 1'
_cell_length_a   3.13065290
_cell_length_b   4.94162321
_cell_length_c   5.44357872
_cell_angle_alpha   112.57452393
_cell_angle_beta   90.00000000
_cell_angle_gamma   90.00000000
_symmetry_Int_Tables_number   1
_chemical_formula_structural   Li2CoO3
_chemical_formula_sum   'Li2 Co1 O3'
_cell_volume   77.76245978
_cell_formula_units_Z   1
loop_
 _symmetry_equiv_pos_site_id
 _symmetry_equiv_pos_as_xyz
  1  'x, y, z'
loop_
 _atom_site_type_symbol
 _atom_site_label
 _atom_site_symmetry_multiplicity
 _atom_site_fract_x
 _atom_site_fract_y
 _atom_site_fract_z
 _atom_site_occupancy
  Li  Li0  1  0.50000002  0.00000000  0.49999998  1
  Li  Li1  1  0.00000000  0.00000000  0.00000000  1
  O  O2  1  -0.00000000  0.80775397  0.24780099  1
  Co  Co3  1  0.50000002  0.22629599  0.21984699  1
  O  O4  1  0.50000002  0.77370397  0.78015297  1
  O  O5  1  1.00000003  0.19224599  0.75219898  1
