# generated using pymatgen
data_SrCaTiMnO8
_symmetry_space_group_name_H-M   'P 1'
_cell_length_a   5.36216021
_cell_length_b   5.36216021
_cell_length_c   6.93042326
_cell_angle_alpha   112.75904846
_cell_angle_beta   112.75904846
_cell_angle_gamma   90.00000000
_symmetry_Int_Tables_number   1
_chemical_formula_structural   SrCaTiMnO8
_chemical_formula_sum   'Sr1 Ca1 Ti1 Mn1 O8'
_cell_volume   166.80167748
_cell_formula_units_Z   1
loop_
 _symmetry_equiv_pos_site_id
 _symmetry_equiv_pos_as_xyz
  1  'x, y, z'
loop_
 _atom_site_type_symbol
 _atom_site_label
 _atom_site_symmetry_multiplicity
 _atom_site_fract_x
 _atom_site_fract_y
 _atom_site_fract_z
 _atom_site_occupancy
  Sr  Sr0  1  0.49999997  0.49999998  -0.00000001  1
  Ca  Ca1  1  0.24999998  0.74999997  0.49999998  1
  Ti  Ti2  1  0.00000000  0.00000000  0.00000000  1
  Mn  Mn3  1  0.74999996  0.24999999  0.49999998  1
  O  O4  1  0.67103896  0.76368896  0.82372597  1
  O  O5  1  0.15268699  0.06003700  0.82372699  1
  O  O6  1  0.50842497  0.40885698  0.33182698  1
  O  O7  1  0.82340195  0.92296996  0.33182797  1
  O  O8  1  0.07702999  0.49157398  0.66817198  1
  O  O9  1  0.59114197  0.17659799  0.66817298  1
  O  O10  1  0.23630998  0.84731296  0.17627398  1
  O  O11  1  0.93996295  0.32895998  0.17627298  1
