# generated using pymatgen
data_Li4AlO6
_symmetry_space_group_name_H-M   'P 1'
_cell_length_a   4.86132765
_cell_length_b   5.45004845
_cell_length_c   5.45551777
_cell_angle_alpha   105.33286285
_cell_angle_beta   97.34370422
_cell_angle_gamma   97.46138000
_symmetry_Int_Tables_number   1
_chemical_formula_structural   Li4AlO6
_chemical_formula_sum   'Li4 Al1 O6'
_cell_volume   136.21407290
_cell_formula_units_Z   1
loop_
 _symmetry_equiv_pos_site_id
 _symmetry_equiv_pos_as_xyz
  1  'x, y, z'
loop_
 _atom_site_type_symbol
 _atom_site_label
 _atom_site_symmetry_multiplicity
 _atom_site_fract_x
 _atom_site_fract_y
 _atom_site_fract_z
 _atom_site_occupancy
  Li  Li0  1  0.49792701  0.30912199  0.69366303  1
  Li  Li1  1  0.49949403  0.69332697  0.31036501  1
  Li  Li2  1  0.09911403  0.75925397  0.76094001  1
  Al  Al3  1  0.90085501  0.23670799  0.23521703  1
  Li  Li4  1  0.00891300  0.00362900  0.99964203  1
  O  O5  1  0.77059502  0.59697397  0.59861703  1
  O  O6  1  0.22396202  0.40591898  0.40586201  1
  O  O7  1  0.29216004  0.92759896  0.59703701  1
  O  O8  1  0.28945402  0.59447097  0.92925603  1
  O  O9  1  0.70990902  0.40343098  0.07013502  1
  O  O10  1  0.70761700  0.06956400  0.39926603  1
