# generated using pymatgen
data_Na5Li2FePF10
_symmetry_space_group_name_H-M   'P 1'
_cell_length_a   2.89744210
_cell_length_b   5.13428354
_cell_length_c   13.87928581
_cell_angle_alpha   80.53437042
_cell_angle_beta   84.00854492
_cell_angle_gamma   73.61047363
_symmetry_Int_Tables_number   1
_chemical_formula_structural   Na5Li2FePF10
_chemical_formula_sum   'Na5 Li2 Fe1 P1 F10'
_cell_volume   195.01834692
_cell_formula_units_Z   1
loop_
 _symmetry_equiv_pos_site_id
 _symmetry_equiv_pos_as_xyz
  1  'x, y, z'
loop_
 _atom_site_type_symbol
 _atom_site_label
 _atom_site_symmetry_multiplicity
 _atom_site_fract_x
 _atom_site_fract_y
 _atom_site_fract_z
 _atom_site_occupancy
  Na  Na0  1  0.80328407  0.99924702  0.39418501  1
  Li  Li1  1  0.60774608  0.98804902  0.79645901  1
  Na  Na2  1  0.38360699  0.04672000  0.18606600  1
  Na  Na3  1  0.20972309  0.97872102  0.60183302  1
  Na  Na4  1  0.90971602  0.48085701  0.69971100  1
  Li  Li5  1  0.66779804  0.56095801  0.10344600  1
  Fe  Fe6  1  0.32933703  0.43239101  0.90893501  1
  Na  Na7  1  0.51056103  0.47415401  0.50472401  1
  P  P8  1  0.09322605  0.50975001  0.30379801  1
  F  F9  1  0.87693304  0.68797402  0.55816000  1
  F  F10  1  0.95310200  0.26823101  0.82556500  1
  F  F11  1  0.72699901  0.28507601  0.26092600  1
  F  F12  1  0.54374001  0.25502901  0.65749100  1
  F  F13  1  0.46186106  0.71878302  0.35749501  1
  F  F14  1  0.27725506  0.71302202  0.73246801  1
  F  F15  1  0.29821002  0.34304401  0.06053600  1
  F  F16  1  0.03975107  0.76367902  0.15681901  1
  F  F17  1  0.14540502  0.24474901  0.46444101  1
  F  F18  1  0.66174905  0.74956002  0.92694201  1
