# generated using pymatgen
data_Li2CoAgS5
_symmetry_space_group_name_H-M   'P 1'
_cell_length_a   5.91220284
_cell_length_b   5.91220284
_cell_length_c   7.53947687
_cell_angle_alpha   73.06038666
_cell_angle_beta   73.06038666
_cell_angle_gamma   74.27467346
_symmetry_Int_Tables_number   1
_chemical_formula_structural   Li2CoAgS5
_chemical_formula_sum   'Li4 Co2 Ag2 S10'
_cell_volume   236.12227815
_cell_formula_units_Z   2
loop_
 _symmetry_equiv_pos_site_id
 _symmetry_equiv_pos_as_xyz
  1  'x, y, z'
loop_
 _atom_site_type_symbol
 _atom_site_label
 _atom_site_symmetry_multiplicity
 _atom_site_fract_x
 _atom_site_fract_y
 _atom_site_fract_z
 _atom_site_occupancy
  Li  Li0  1  0.49999999  0.49999999  0.00000004  1
  Li  Li1  1  0.84908798  0.84908799  0.15575007  1
  Li  Li2  1  0.49999999  0.49999999  0.50000005  1
  Li  Li3  1  0.84219498  0.84219499  0.67922008  1
  Co  Co4  1  0.15780500  0.15780500  0.32078002  1
  Co  Co5  1  0.15091200  0.15091200  0.84425003  1
  Ag  Ag6  1  0.93812398  0.93812398  0.87959209  1
  Ag  Ag7  1  0.06187600  0.06187600  0.12040801  1
  S  S8  1  0.14285699  0.52433499  0.17454403  1
  S  S9  1  0.79811698  0.20188300  0.50000005  1
  S  S10  1  0.25127499  0.25127500  0.55162403  1
  S  S11  1  0.62237198  0.62237199  0.19357905  1
  S  S12  1  0.37762799  0.37762799  0.80642105  1
  S  S13  1  0.74872498  0.74872499  0.44837607  1
  S  S14  1  0.20188299  0.79811699  0.50000005  1
  S  S15  1  0.52433499  0.14285700  0.17454403  1
  S  S16  1  0.85714298  0.47566499  0.82545607  1
  S  S17  1  0.47566498  0.85714299  0.82545607  1
