# generated using pymatgen
data_Li6NiF7
_symmetry_space_group_name_H-M   'P 1'
_cell_length_a   2.90285802
_cell_length_b   5.04231215
_cell_length_c   9.87208652
_cell_angle_alpha   90.00000000
_cell_angle_beta   90.00000000
_cell_angle_gamma   106.72927856
_symmetry_Int_Tables_number   1
_chemical_formula_structural   Li6NiF7
_chemical_formula_sum   'Li6 Ni1 F7'
_cell_volume   138.38303910
_cell_formula_units_Z   1
loop_
 _symmetry_equiv_pos_site_id
 _symmetry_equiv_pos_as_xyz
  1  'x, y, z'
loop_
 _atom_site_type_symbol
 _atom_site_label
 _atom_site_symmetry_multiplicity
 _atom_site_fract_x
 _atom_site_fract_y
 _atom_site_fract_z
 _atom_site_occupancy
  Li  Li0  1  0.37475806  0.74951601  0.93606205  1
  Li  Li1  1  0.37475806  0.74951601  0.56393803  1
  Li  Li2  1  0.62524202  0.25048400  0.43606202  1
  Li  Li3  1  0.62524202  0.25048400  0.06393800  1
  Li  Li4  1  0.12059502  0.24119000  0.75000004  1
  Li  Li5  1  0.87940506  0.75881001  0.25000001  1
  F  F6  1  0.00000000  0.00000000  0.00000000  1
  Ni  Ni7  1  0.00000000  0.00000000  0.50000002  1
  F  F8  1  0.46372308  0.92744601  0.75000004  1
  F  F9  1  0.27885205  0.55770401  0.38167602  1
  F  F10  1  0.27885205  0.55770401  0.11832401  1
  F  F11  1  0.53627700  0.07255400  0.25000001  1
  F  F12  1  0.72114803  0.44229601  0.88167604  1
  F  F13  1  0.72114803  0.44229601  0.61832403  1
