# generated using pymatgen
data_Li2Cu2Se3
_symmetry_space_group_name_H-M   'P 1'
_cell_length_a   5.63702822
_cell_length_b   5.63702822
_cell_length_c   6.82161188
_cell_angle_alpha   114.40438843
_cell_angle_beta   114.40438843
_cell_angle_gamma   90.00000000
_symmetry_Int_Tables_number   1
_chemical_formula_structural   Li2Cu2Se3
_chemical_formula_sum   'Li2 Cu2 Se3'
_cell_volume   175.90969611
_cell_formula_units_Z   1
loop_
 _symmetry_equiv_pos_site_id
 _symmetry_equiv_pos_as_xyz
  1  'x, y, z'
loop_
 _atom_site_type_symbol
 _atom_site_label
 _atom_site_symmetry_multiplicity
 _atom_site_fract_x
 _atom_site_fract_y
 _atom_site_fract_z
 _atom_site_occupancy
  Li  Li0  1  0.00000000  0.00000000  0.00000000  1
  Li  Li1  1  0.49999996  0.49999997  -0.00000003  1
  Cu  Cu2  1  0.24999996  0.74999996  0.49999995  1
  Cu  Cu3  1  0.39764097  0.37454698  0.26557397  1
  Se  Se4  1  0.10897297  0.60235897  0.73442595  1
  Se  Se5  1  0.62545296  0.13206699  0.73442596  1
  Se  Se6  1  0.86793293  0.89102695  0.26557393  1
