# generated using pymatgen
data_BaSr(BO3)2
_symmetry_space_group_name_H-M   'P 1'
_cell_length_a   6.38206577
_cell_length_b   6.38206577
_cell_length_c   6.92534590
_cell_angle_alpha   103.78213501
_cell_angle_beta   103.78213501
_cell_angle_gamma   96.16590881
_symmetry_Int_Tables_number   1
_chemical_formula_structural   BaSr(BO3)2
_chemical_formula_sum   'Ba2 Sr2 B4 O12'
_cell_volume   262.00531234
_cell_formula_units_Z   2
loop_
 _symmetry_equiv_pos_site_id
 _symmetry_equiv_pos_as_xyz
  1  'x, y, z'
loop_
 _atom_site_type_symbol
 _atom_site_label
 _atom_site_symmetry_multiplicity
 _atom_site_fract_x
 _atom_site_fract_y
 _atom_site_fract_z
 _atom_site_occupancy
  Ba  Ba0  1  0.37973196  0.62026798  0.75000006  1
  Ba  Ba1  1  0.62026797  0.37973199  0.25000005  1
  Sr  Sr2  1  0.90409797  0.09590200  0.75000006  1
  Sr  Sr3  1  0.09590196  0.90409797  0.25000004  1
  B  B4  1  0.35470999  0.10998400  0.75713504  1
  B  B5  1  0.64528995  0.89001597  0.24286506  1
  B  B6  1  0.89001595  0.64528998  0.74286508  1
  B  B7  1  0.10998398  0.35470999  0.25713502  1
  O  O8  1  0.55803398  0.10462300  0.77940805  1
  O  O9  1  0.44196595  0.89537697  0.22059205  1
  O  O10  1  0.89537696  0.44196599  0.72059207  1
  O  O11  1  0.10462297  0.55803398  0.27940803  1
  O  O12  1  0.28344098  0.25045699  0.88345304  1
  O  O13  1  0.71655895  0.74954298  0.11654706  1
  O  O14  1  0.74954295  0.71655898  0.61654707  1
  O  O15  1  0.25045698  0.28344099  0.38345303  1
  O  O16  1  0.20223095  0.96626297  0.60658306  1
  O  O17  1  0.79776898  0.03373700  0.39341705  1
  O  O18  1  0.03373696  0.79776897  0.89341705  1
  O  O19  1  0.96626297  0.20223099  0.10658305  1
