# generated using pymatgen
data_SrCa3CdSn4S11
_symmetry_space_group_name_H-M   'P 1'
_cell_length_a   4.22958803
_cell_length_b   9.62848282
_cell_length_c   10.86842060
_cell_angle_alpha   90.00000000
_cell_angle_beta   90.00000000
_cell_angle_gamma   90.00000000
_symmetry_Int_Tables_number   1
_chemical_formula_structural   SrCa3CdSn4S11
_chemical_formula_sum   'Sr1 Ca3 Cd1 Sn4 S11'
_cell_volume   442.61116533
_cell_formula_units_Z   1
loop_
 _symmetry_equiv_pos_site_id
 _symmetry_equiv_pos_as_xyz
  1  'x, y, z'
loop_
 _atom_site_type_symbol
 _atom_site_label
 _atom_site_symmetry_multiplicity
 _atom_site_fract_x
 _atom_site_fract_y
 _atom_site_fract_z
 _atom_site_occupancy
  Sr  Sr0  1  0.74999999  0.25773600  0.67708402  1
  Ca  Ca1  1  0.25000000  0.74226401  0.32291601  1
  Ca  Ca2  1  0.74999999  0.75773601  0.82291603  1
  Ca  Ca3  1  0.25000000  0.24226400  0.17708401  1
  Sn  Sn4  1  0.25000000  0.57820801  0.04308900  1
  Cd  Cd5  1  0.74999999  0.42179201  0.95691104  1
  Sn  Sn6  1  0.74999999  0.92179202  0.54308902  1
  Sn  Sn7  1  0.25000000  0.07820800  0.45691102  1
  Sn  Sn8  1  0.74999999  0.44406001  0.38815301  1
  S  S9  1  0.25000000  0.55594001  0.61184702  1
  S  S10  1  0.74999999  0.94406002  0.11184700  1
  S  S11  1  0.25000000  0.05594000  0.88815303  1
  S  S12  1  0.25000000  0.34114801  0.46113702  1
  S  S13  1  0.74999999  0.65885201  0.53886302  1
  S  S14  1  0.74999999  0.15885200  0.96113704  1
  S  S15  1  0.25000000  0.84114802  0.03886300  1
  S  S16  1  0.74999999  0.02215300  0.33070201  1
  S  S17  1  0.25000000  0.97784702  0.66929802  1
  S  S18  1  0.74999999  0.52215301  0.16929801  1
  S  S19  1  0.25000000  0.47784701  0.83070203  1
