# generated using pymatgen
data_LiY2ScO6
_symmetry_space_group_name_H-M   'P 1'
_cell_length_a   5.60061693
_cell_length_b   5.90965080
_cell_length_c   8.10409260
_cell_angle_alpha   90.00000000
_cell_angle_beta   90.00000000
_cell_angle_gamma   90.00000000
_symmetry_Int_Tables_number   1
_chemical_formula_structural   LiY2ScO6
_chemical_formula_sum   'Li2 Y4 Sc2 O12'
_cell_volume   268.22674735
_cell_formula_units_Z   2
loop_
 _symmetry_equiv_pos_site_id
 _symmetry_equiv_pos_as_xyz
  1  'x, y, z'
loop_
 _atom_site_type_symbol
 _atom_site_label
 _atom_site_symmetry_multiplicity
 _atom_site_fract_x
 _atom_site_fract_y
 _atom_site_fract_z
 _atom_site_occupancy
  Li  Li0  1  0.00000000  0.50000002  -0.00000000  1
  Y  Y1  1  0.00000000  0.50000002  0.50000002  1
  Y  Y2  1  0.50000001  0.00000000  -0.00000000  1
  Li  Li3  1  0.50000001  0.00000000  0.50000002  1
  Sc  Sc4  1  0.01056700  0.04560500  0.25000001  1
  Y  Y5  1  0.48943301  0.54560502  0.25000001  1
  Y  Y6  1  0.51056701  0.45439502  0.75000004  1
  Sc  Sc7  1  0.98943301  0.95439503  0.75000004  1
  O  O8  1  0.11534800  0.53708902  0.75000004  1
  O  O9  1  0.18647500  0.80692903  0.05771600  1
  O  O10  1  0.18647500  0.80692903  0.44228402  1
  O  O11  1  0.31352500  0.30692901  0.05771600  1
  O  O12  1  0.31352500  0.30692901  0.44228402  1
  O  O13  1  0.38465200  0.03708900  0.75000004  1
  O  O14  1  0.61534801  0.96291103  0.25000001  1
  O  O15  1  0.68647501  0.69307102  0.55771603  1
  O  O16  1  0.68647501  0.69307102  0.94228405  1
  O  O17  1  0.81352501  0.19307101  0.55771603  1
  O  O18  1  0.81352501  0.19307101  0.94228405  1
  O  O19  1  0.88465201  0.46291102  0.25000001  1
