# generated using pymatgen
data_KNaNdTlBi(SeCl)2
_symmetry_space_group_name_H-M   'P 1'
_cell_length_a   4.26483202
_cell_length_b   4.26483202
_cell_length_c   17.99910545
_cell_angle_alpha   90.00000000
_cell_angle_beta   90.00000000
_cell_angle_gamma   120.00000000
_symmetry_Int_Tables_number   1
_chemical_formula_structural   KNaNdTlBi(SeCl)2
_chemical_formula_sum   'K1 Na1 Nd1 Tl1 Bi1 Se2 Cl2'
_cell_volume   283.52111844
_cell_formula_units_Z   1
loop_
 _symmetry_equiv_pos_site_id
 _symmetry_equiv_pos_as_xyz
  1  'x, y, z'
loop_
 _atom_site_type_symbol
 _atom_site_label
 _atom_site_symmetry_multiplicity
 _atom_site_fract_x
 _atom_site_fract_y
 _atom_site_fract_z
 _atom_site_occupancy
  K  K0  1  0.00000000  0.00000000  0.66774798  1
  Na  Na1  1  0.00000000  0.00000000  0.33225199  1
  Tl  Tl2  1  0.66666667  0.33333335  0.88734198  1
  Nd  Nd3  1  0.33333335  0.66666669  0.11265800  1
  Bi  Bi4  1  0.00000000  0.00000000  0.00000000  1
  Se  Se5  1  0.66666667  0.33333335  0.20989199  1
  Cl  Cl6  1  0.33333335  0.66666669  0.79010798  1
  Cl  Cl7  1  0.66666667  0.33333335  0.58895499  1
  Se  Se8  1  0.33333335  0.66666669  0.41104499  1
