# generated using pymatgen
data_Mg2Al2Si3NiO10
_symmetry_space_group_name_H-M   'P 1'
_cell_length_a   5.85650492
_cell_length_b   6.78009844
_cell_length_c   6.78004169
_cell_angle_alpha   84.07141113
_cell_angle_beta   74.57077026
_cell_angle_gamma   74.57096863
_symmetry_Int_Tables_number   1
_chemical_formula_structural   Mg2Al2Si3NiO10
_chemical_formula_sum   'Mg2 Al2 Si3 Ni1 O10'
_cell_volume   250.01105255
_cell_formula_units_Z   1
loop_
 _symmetry_equiv_pos_site_id
 _symmetry_equiv_pos_as_xyz
  1  'x, y, z'
loop_
 _atom_site_type_symbol
 _atom_site_label
 _atom_site_symmetry_multiplicity
 _atom_site_fract_x
 _atom_site_fract_y
 _atom_site_fract_z
 _atom_site_occupancy
  Al  Al0  1  0.24407797  0.20460300  0.38779701  1
  Mg  Mg1  1  0.25592794  0.61220899  0.79539502  1
  Al  Al2  1  0.74407893  0.38775299  0.20461704  1
  Mg  Mg3  1  0.75592090  0.79538499  0.61223905  1
  Ni  Ni4  1  0.24997198  0.08422900  0.91577900  1
  Si  Si5  1  0.75001789  0.91581899  0.08419807  1
  Si  Si6  1  0.36317198  0.03454500  0.19265101  1
  Si  Si7  1  0.86313195  0.19270000  0.03451404  1
  O  O8  1  0.13682993  0.80734299  0.96545703  1
  O  O9  1  0.63686889  0.96547498  0.80729705  1
  O  O10  1  0.22543798  0.08757600  0.61966400  1
  O  O11  1  0.27456196  0.38033899  0.91241801  1
  O  O12  1  0.72538592  0.61972899  0.08762305  1
  O  O13  1  0.77461489  0.91238499  0.38026506  1
  O  O14  1  0.44534495  0.37101799  0.35158603  1
  O  O15  1  0.94545493  0.35150599  0.37103504  1
  O  O16  1  0.05465295  0.64841899  0.62897602  1
  O  O17  1  0.55454692  0.62896799  0.64848804  1
