# generated using pymatgen
data_Al3SiO4
_symmetry_space_group_name_H-M   'P 1'
_cell_length_a   5.08029556
_cell_length_b   5.08007526
_cell_length_c   5.40501213
_cell_angle_alpha   118.02766418
_cell_angle_beta   118.02847290
_cell_angle_gamma   60.00442123
_symmetry_Int_Tables_number   1
_chemical_formula_structural   Al3SiO4
_chemical_formula_sum   'Al3 Si1 O4'
_cell_volume   101.47919133
_cell_formula_units_Z   1
loop_
 _symmetry_equiv_pos_site_id
 _symmetry_equiv_pos_as_xyz
  1  'x, y, z'
loop_
 _atom_site_type_symbol
 _atom_site_label
 _atom_site_symmetry_multiplicity
 _atom_site_fract_x
 _atom_site_fract_y
 _atom_site_fract_z
 _atom_site_occupancy
  Al  Al0  1  0.99999202  0.00001400  0.00000806  1
  Al  Al1  1  0.50000504  0.49998702  0.49999305  1
  Si  Si2  1  0.13359103  0.36642701  0.24996903  1
  Al  Al3  1  0.36641006  0.74999303  0.25000807  1
  O  O4  1  0.25001007  0.86640303  0.75000606  1
  O  O5  1  0.63359303  0.25001001  0.74999004  1
  O  O6  1  0.86640706  0.63357102  0.75003208  1
  O  O7  1  0.74999302  0.13359500  0.24999405  1
