# generated using pymatgen
data_La(SbO3)2
_symmetry_space_group_name_H-M   'P 1'
_cell_length_a   4.82058907
_cell_length_b   5.78982925
_cell_length_c   7.96639252
_cell_angle_alpha   86.41273499
_cell_angle_beta   89.67004395
_cell_angle_gamma   88.71363831
_symmetry_Int_Tables_number   1
_chemical_formula_structural   La(SbO3)2
_chemical_formula_sum   'La2 Sb4 O12'
_cell_volume   221.85141555
_cell_formula_units_Z   2
loop_
 _symmetry_equiv_pos_site_id
 _symmetry_equiv_pos_as_xyz
  1  'x, y, z'
loop_
 _atom_site_type_symbol
 _atom_site_label
 _atom_site_symmetry_multiplicity
 _atom_site_fract_x
 _atom_site_fract_y
 _atom_site_fract_z
 _atom_site_occupancy
  La  La0  1  0.45865499  0.17731500  0.82392501  1
  Sb  Sb1  1  0.54134500  0.82268499  0.17607499  1
  Sb  Sb2  1  0.50000000  0.49999999  0.50000000  1
  La  La3  1  0.00472400  0.33497499  0.15049799  1
  Sb  Sb4  1  0.00000000  0.00000000  0.50000000  1
  Sb  Sb5  1  0.99527599  0.66502499  0.84950201  1
  O  O6  1  0.81623499  0.62587599  0.07077300  1
  O  O7  1  0.68378499  0.77791199  0.40414100  1
  O  O8  1  0.31621500  0.22208800  0.59585900  1
  O  O9  1  0.18376500  0.37412399  0.92922700  1
  O  O10  1  0.80329699  0.29149000  0.37546201  1
  O  O11  1  0.79664799  0.96362098  0.74931100  1
  O  O12  1  0.70418899  0.47287799  0.71693301  1
  O  O13  1  0.67747399  0.13869400  0.05015601  1
  O  O14  1  0.29581100  0.52712199  0.28306700  1
  O  O15  1  0.32252600  0.86130599  0.94984399  1
  O  O16  1  0.20335200  0.03637900  0.25068900  1
  O  O17  1  0.19670300  0.70850999  0.62453799  1
