# generated using pymatgen
data_MgZnFeBiSe2
_symmetry_space_group_name_H-M   'P 1'
_cell_length_a   3.25797009
_cell_length_b   3.25797009
_cell_length_c   14.26265430
_cell_angle_alpha   90.00000000
_cell_angle_beta   90.00000000
_cell_angle_gamma   120.00000000
_symmetry_Int_Tables_number   1
_chemical_formula_structural   MgZnFeBiSe2
_chemical_formula_sum   'Mg1 Zn1 Fe1 Bi1 Se2'
_cell_volume   131.10678712
_cell_formula_units_Z   1
loop_
 _symmetry_equiv_pos_site_id
 _symmetry_equiv_pos_as_xyz
  1  'x, y, z'
loop_
 _atom_site_type_symbol
 _atom_site_label
 _atom_site_symmetry_multiplicity
 _atom_site_fract_x
 _atom_site_fract_y
 _atom_site_fract_z
 _atom_site_occupancy
  Mg  Mg0  1  0.00000000  0.00000000  0.74221398  1
  Zn  Zn1  1  0.00000000  0.00000000  0.25778599  1
  Bi  Bi2  1  0.33333335  0.66666670  0.13788500  1
  Se  Se3  1  0.66666666  0.33333335  0.86211498  1
  Se  Se4  1  0.66666666  0.33333335  0.63483499  1
  Fe  Fe5  1  0.33333335  0.66666670  0.36516499  1
