# generated using pymatgen
data_Cs2K2RbTlI4
_symmetry_space_group_name_H-M   'P 1'
_cell_length_a   7.60919714
_cell_length_b   7.60919714
_cell_length_c   8.75915527
_cell_angle_alpha   90.00000000
_cell_angle_beta   90.00000000
_cell_angle_gamma   110.22463226
_symmetry_Int_Tables_number   1
_chemical_formula_structural   Cs2K2RbTlI4
_chemical_formula_sum   'Cs2 K2 Rb1 Tl1 I4'
_cell_volume   475.88520615
_cell_formula_units_Z   1
loop_
 _symmetry_equiv_pos_site_id
 _symmetry_equiv_pos_as_xyz
  1  'x, y, z'
loop_
 _atom_site_type_symbol
 _atom_site_label
 _atom_site_symmetry_multiplicity
 _atom_site_fract_x
 _atom_site_fract_y
 _atom_site_fract_z
 _atom_site_occupancy
  K  K0  1  0.09128996  0.90870998  0.86733197  1
  Rb  Rb1  1  0.90870999  0.09129000  0.36733199  1
  K  K2  1  0.58354798  0.41645199  0.15505500  1
  Tl  Tl3  1  0.41645197  0.58354799  0.65505498  1
  Cs  Cs4  1  0.78085998  0.21913999  0.81077297  1
  Cs  Cs5  1  0.21913997  0.78085998  0.31077299  1
  I  I6  1  0.08274498  0.41753999  0.00292000  1
  I  I7  1  0.91725497  0.58245999  0.50291998  1
  I  I8  1  0.58245996  0.91725498  0.00292000  1
  I  I9  1  0.41753999  0.08274500  0.50291998  1
