# generated using pymatgen
data_Li2O2
_symmetry_space_group_name_H-M   'P 1'
_cell_length_a   5.02865791
_cell_length_b   5.14277887
_cell_length_c   5.92628813
_cell_angle_alpha   90.00000000
_cell_angle_beta   90.00000000
_cell_angle_gamma   108.81955719
_symmetry_Int_Tables_number   1
_chemical_formula_structural   Li2O2
_chemical_formula_sum   'Li8 O8'
_cell_volume   145.06789608
_cell_formula_units_Z   4
loop_
 _symmetry_equiv_pos_site_id
 _symmetry_equiv_pos_as_xyz
  1  'x, y, z'
loop_
 _atom_site_type_symbol
 _atom_site_label
 _atom_site_symmetry_multiplicity
 _atom_site_fract_x
 _atom_site_fract_y
 _atom_site_fract_z
 _atom_site_occupancy
  Li  Li0  1  0.50000000  0.50000002  0.75227798  1
  Li  Li1  1  -0.00000001  0.50000002  -0.00000000  1
  Li  Li2  1  0.50000000  0.50000002  0.24772199  1
  Li  Li3  1  -0.00000001  0.50000002  0.49999999  1
  Li  Li4  1  0.50000001  0.00000000  0.49999999  1
  Li  Li5  1  -0.00000001  1.00000004  0.75227298  1
  Li  Li6  1  0.50000000  1.00000004  0.99999998  1
  Li  Li7  1  0.00000000  0.00000000  0.24772699  1
  O  O8  1  0.26497500  0.77008303  0.73621398  1
  O  O9  1  0.75251700  0.76877203  -0.00000000  1
  O  O10  1  0.26497500  0.77008303  0.26378599  1
  O  O11  1  0.74393000  0.77614503  0.49999999  1
  O  O12  1  0.73502501  0.22991701  0.73621398  1
  O  O13  1  0.24748300  0.23122801  -0.00000000  1
  O  O14  1  0.73502501  0.22991701  0.26378599  1
  O  O15  1  0.25607000  0.22385501  0.49999999  1
