# generated using pymatgen
data_Na2Li2HfFe3SbPO6
_symmetry_space_group_name_H-M   'P 1'
_cell_length_a   2.92019010
_cell_length_b   3.20913506
_cell_length_c   21.84829712
_cell_angle_alpha   90.04817963
_cell_angle_beta   90.13180542
_cell_angle_gamma   117.04287720
_symmetry_Int_Tables_number   1
_chemical_formula_structural   Na2Li2HfFe3SbPO6
_chemical_formula_sum   'Na2 Li2 Hf1 Fe3 Sb1 P1 O6'
_cell_volume   182.36005780
_cell_formula_units_Z   1
loop_
 _symmetry_equiv_pos_site_id
 _symmetry_equiv_pos_as_xyz
  1  'x, y, z'
loop_
 _atom_site_type_symbol
 _atom_site_label
 _atom_site_symmetry_multiplicity
 _atom_site_fract_x
 _atom_site_fract_y
 _atom_site_fract_z
 _atom_site_occupancy
  Na  Na0  1  0.70048001  0.38312002  0.87501297  1
  Na  Na1  1  0.70002202  0.40942602  0.37495199  1
  Li  Li2  1  0.30197603  0.61778703  0.62508098  1
  Li  Li3  1  0.29753703  0.58887502  0.12505299  1
  Fe  Fe4  1  0.99696404  0.99885704  0.24996799  1
  Fe  Fe5  1  0.00341300  0.02452300  0.49984498  1
  Hf  Hf6  1  0.00155900  0.00097200  0.74990498  1
  Fe  Fe7  1  0.99786204  0.97656404  0.00016900  1
  O  O8  1  0.37693704  0.74991703  0.80080197  1
  Sb  Sb9  1  0.37325704  0.75002503  0.30084099  1
  O  O10  1  0.62648101  0.25190501  0.69909198  1
  P  P11  1  0.62137701  0.24748601  0.19905800  1
  O  O12  1  0.62756601  0.27235101  0.55085198  1
  O  O13  1  0.62363901  0.22817101  0.05107200  1
  O  O14  1  0.37368804  0.72808003  0.94925997  1
  O  O15  1  0.37724204  0.77194203  0.44903598  1
