# generated using pymatgen
data_Mn2CuGeMoPO12
_symmetry_space_group_name_H-M   'P 1'
_cell_length_a   5.08278990
_cell_length_b   5.22130203
_cell_length_c   7.51064014
_cell_angle_alpha   90.00000000
_cell_angle_beta   90.05044556
_cell_angle_gamma   90.00000000
_symmetry_Int_Tables_number   1
_chemical_formula_structural   Mn2CuGeMoPO12
_chemical_formula_sum   'Mn2 Cu1 Ge1 Mo1 P1 O12'
_cell_volume   199.32315839
_cell_formula_units_Z   1
loop_
 _symmetry_equiv_pos_site_id
 _symmetry_equiv_pos_as_xyz
  1  'x, y, z'
loop_
 _atom_site_type_symbol
 _atom_site_label
 _atom_site_symmetry_multiplicity
 _atom_site_fract_x
 _atom_site_fract_y
 _atom_site_fract_z
 _atom_site_occupancy
  Mo  Mo0  1  0.00507600  0.26192900  0.50002798  1
  Mn  Mn1  1  0.50198001  0.20577700  0.24182398  1
  Mn  Mn2  1  0.50507601  0.73807100  0.00002799  1
  Cu  Cu3  1  0.00198000  0.79422300  0.74182398  1
  Ge  Ge4  1  0.00145500  0.24963500  0.00009700  1
  P  P5  1  0.50145501  0.75036500  0.50009697  1
  O  O6  1  0.87465002  0.30268200  0.22988497  1
  O  O7  1  0.85061702  0.55667300  0.92735495  1
  O  O8  1  0.81096102  0.58031300  0.55864096  1
  O  O9  1  0.69916301  0.06915000  0.95384495  1
  O  O10  1  0.67116401  0.04365100  0.56791896  1
  O  O11  1  0.60309401  0.82007399  0.26982197  1
  O  O12  1  0.37465001  0.69731800  0.72988497  1
  O  O13  1  0.35061701  0.44332700  0.42735498  1
  O  O14  1  0.31096101  0.41968700  0.05864099  1
  O  O15  1  0.19916300  0.93084999  0.45384498  1
  O  O16  1  0.17116400  0.95634899  0.06791899  1
  O  O17  1  0.10309400  0.17992600  0.76982197  1
