# generated using pymatgen
data_CuS3
_symmetry_space_group_name_H-M   'P 1'
_cell_length_a   5.55840063
_cell_length_b   6.42187119
_cell_length_c   7.10959101
_cell_angle_alpha   116.85116577
_cell_angle_beta   105.09110260
_cell_angle_gamma   89.99942017
_symmetry_Int_Tables_number   1
_chemical_formula_structural   CuS3
_chemical_formula_sum   'Cu4 S12'
_cell_volume   216.56276914
_cell_formula_units_Z   4
loop_
 _symmetry_equiv_pos_site_id
 _symmetry_equiv_pos_as_xyz
  1  'x, y, z'
loop_
 _atom_site_type_symbol
 _atom_site_label
 _atom_site_symmetry_multiplicity
 _atom_site_fract_x
 _atom_site_fract_y
 _atom_site_fract_z
 _atom_site_occupancy
  Cu  Cu0  1  0.49999801  0.25047400  0.49999501  1
  Cu  Cu1  1  1.00000003  0.49952799  0.50000303  1
  Cu  Cu2  1  0.50000705  0.75049699  0.50000002  1
  Cu  Cu3  1  0.99999106  0.99950099  0.50000004  1
  S  S4  1  0.00000200  0.00007500  0.00000100  1
  S  S5  1  0.50000001  0.24992600  0.00000102  1
  S  S6  1  0.00000103  0.50007499  0.00000001  1
  S  S7  1  0.49999905  0.74992399  0.99999901  1
  S  S8  1  0.11105401  0.16649800  0.33342000  1
  S  S9  1  0.61105302  0.41690100  0.33342002  1
  S  S10  1  0.11105604  0.66649999  0.33342101  1
  S  S11  1  0.61105606  0.91689899  0.33341903  1
  S  S12  1  0.88894802  0.33309700  0.66658002  1
  S  S13  1  0.38894704  0.58350199  0.66658001  1
  S  S14  1  0.88894505  0.83310099  0.66658103  1
  S  S15  1  0.38894400  0.08350000  0.66657899  1
