# generated using pymatgen
data_LiVAgCl6F
_symmetry_space_group_name_H-M   'P 1'
_cell_length_a   5.98575878
_cell_length_b   5.98575878
_cell_length_c   6.11548138
_cell_angle_alpha   60.69924927
_cell_angle_beta   60.69924927
_cell_angle_gamma   60.00001144
_symmetry_Int_Tables_number   1
_chemical_formula_structural   LiVAgCl6F
_chemical_formula_sum   'Li1 V1 Ag1 Cl6 F1'
_cell_volume   156.55403785
_cell_formula_units_Z   1
loop_
 _symmetry_equiv_pos_site_id
 _symmetry_equiv_pos_as_xyz
  1  'x, y, z'
loop_
 _atom_site_type_symbol
 _atom_site_label
 _atom_site_symmetry_multiplicity
 _atom_site_fract_x
 _atom_site_fract_y
 _atom_site_fract_z
 _atom_site_occupancy
  Li  Li0  1  0.14232200  0.14232200  0.57303403  1
  V  V1  1  0.85767800  0.85767802  0.42696608  1
  F  F2  1  0.35695300  0.35695301  0.92914105  1
  Ag  Ag3  1  0.64304700  0.64304702  0.07085905  1
  Cl  Cl4  1  0.78269200  0.45533701  0.75029307  1
  Cl  Cl5  1  0.01167798  0.78269102  0.75029405  1
  Cl  Cl6  1  0.45533701  0.01167800  0.75029404  1
  Cl  Cl7  1  0.54466299  0.98832202  0.24970607  1
  Cl  Cl8  1  0.98832201  0.21730901  0.24970605  1
  Cl  Cl9  1  0.21730899  0.54466301  0.24970604  1
