# generated using pymatgen
data_TlSnMo4WSe7
_symmetry_space_group_name_H-M   'P 1'
_cell_length_a   4.52868605
_cell_length_b   9.23612785
_cell_length_c   9.23612881
_cell_angle_alpha   120.00000000
_cell_angle_beta   90.00000000
_cell_angle_gamma   90.00000000
_symmetry_Int_Tables_number   1
_chemical_formula_structural   TlSnMo4WSe7
_chemical_formula_sum   'Tl1 Sn1 Mo4 W1 Se7'
_cell_volume   334.56673861
_cell_formula_units_Z   1
loop_
 _symmetry_equiv_pos_site_id
 _symmetry_equiv_pos_as_xyz
  1  'x, y, z'
loop_
 _atom_site_type_symbol
 _atom_site_label
 _atom_site_symmetry_multiplicity
 _atom_site_fract_x
 _atom_site_fract_y
 _atom_site_fract_z
 _atom_site_occupancy
  Tl  Tl0  1  0.25000000  0.66666669  0.33333334  1
  Sn  Sn1  1  0.74999999  0.33333334  0.66666665  1
  Mo  Mo2  1  0.74999999  0.03163000  0.85120997  1
  Mo  Mo3  1  0.25000000  0.18042001  0.03163000  1
  W  W4  1  0.25000000  0.96837003  0.14879003  1
  Mo  Mo5  1  0.74999999  0.81958003  0.96836999  1
  Mo  Mo6  1  0.74999999  0.14879000  0.18042000  1
  Se  Se7  1  0.25000000  0.85121003  0.81958000  1
  Se  Se8  1  0.25000000  0.06414100  0.70672397  1
  Se  Se9  1  0.74999999  0.70672402  0.64258300  1
  Se  Se10  1  0.25000000  0.29327601  0.35741700  1
  Se  Se11  1  0.74999999  0.93585903  0.29327602  1
  Se  Se12  1  0.74999999  0.35741701  0.06414101  1
  Se  Se13  1  0.25000000  0.64258302  0.93585898  1
