# generated using pymatgen
data_Sr2CdIn3(CuSe3)2
_symmetry_space_group_name_H-M   'P 1'
_cell_length_a   7.44009304
_cell_length_b   7.44009304
_cell_length_c   8.19923496
_cell_angle_alpha   63.01826477
_cell_angle_beta   63.01826477
_cell_angle_gamma   60.00000763
_symmetry_Int_Tables_number   1
_chemical_formula_structural   Sr2CdIn3(CuSe3)2
_chemical_formula_sum   'Sr2 Cd1 In3 Cu2 Se6'
_cell_volume   334.80319561
_cell_formula_units_Z   1
loop_
 _symmetry_equiv_pos_site_id
 _symmetry_equiv_pos_as_xyz
  1  'x, y, z'
loop_
 _atom_site_type_symbol
 _atom_site_label
 _atom_site_symmetry_multiplicity
 _atom_site_fract_x
 _atom_site_fract_y
 _atom_site_fract_z
 _atom_site_occupancy
  Cd  Cd0  1  0.66603601  0.66603601  0.00189201  1
  Sr  Sr1  1  0.33396401  0.33396401  0.99810796  1
  Sr  Sr2  1  0.52884501  0.87151201  0.37525099  1
  In  In3  1  0.22439201  0.52884501  0.37525099  1
  In  In4  1  0.87151202  0.22439200  0.37525099  1
  In  In5  1  0.12848801  0.77560801  0.62474898  1
  Cu  Cu6  1  0.77560802  0.47115501  0.62474898  1
  Cu  Cu7  1  0.47115501  0.12848800  0.62474897  1
  Se  Se8  1  0.75925501  0.07943200  0.75584397  1
  Se  Se9  1  0.07943200  0.40546901  0.75584397  1
  Se  Se10  1  0.40546901  0.75925501  0.75584397  1
  Se  Se11  1  0.59453101  0.24074500  0.24415600  1
  Se  Se12  1  0.92056802  0.59453101  0.24415600  1
  Se  Se13  1  0.24074501  0.92056801  0.24415600  1
