# generated using pymatgen
data_Li3Mn5O8
_symmetry_space_group_name_H-M   'P 1'
_cell_length_a   5.05444098
_cell_length_b   5.77226019
_cell_length_c   5.91479826
_cell_angle_alpha   60.85830307
_cell_angle_beta   74.20783234
_cell_angle_gamma   73.42026520
_symmetry_Int_Tables_number   1
_chemical_formula_structural   Li3Mn5O8
_chemical_formula_sum   'Li3 Mn5 O8'
_cell_volume   142.61674710
_cell_formula_units_Z   1
loop_
 _symmetry_equiv_pos_site_id
 _symmetry_equiv_pos_as_xyz
  1  'x, y, z'
loop_
 _atom_site_type_symbol
 _atom_site_label
 _atom_site_symmetry_multiplicity
 _atom_site_fract_x
 _atom_site_fract_y
 _atom_site_fract_z
 _atom_site_occupancy
  Mn  Mn0  1  0.50601299  0.75321399  0.25014901  1
  Li  Li1  1  0.49072999  0.76336399  0.73872602  1
  Li  Li2  1  0.49398699  0.24678600  0.74985102  1
  Li  Li3  1  0.50926999  0.23663600  0.26127402  1
  Mn  Mn4  1  0.00000000  0.00000000  0.50000000  1
  Mn  Mn5  1  0.00000000  0.00000000  0.00000000  1
  Mn  Mn6  1  -0.00000000  0.49999999  0.50000000  1
  Mn  Mn7  1  -0.00000000  0.49999999  -0.00000001  1
  O  O8  1  0.77592799  0.86182699  0.88884703  1
  O  O9  1  0.77971599  0.86734899  0.35259302  1
  O  O10  1  0.78053799  0.39168099  0.35127603  1
  O  O11  1  0.76533299  0.35648399  0.90352203  1
  O  O12  1  0.21946199  0.60831899  0.64872401  1
  O  O13  1  0.23466699  0.64351599  0.09647800  1
  O  O14  1  0.22407200  0.13817300  0.11115301  1
  O  O15  1  0.22028400  0.13265100  0.64740701  1
