# generated using pymatgen
data_Al2V2SiO6
_symmetry_space_group_name_H-M   'P 1'
_cell_length_a   5.31109810
_cell_length_b   5.31646967
_cell_length_c   5.78489304
_cell_angle_alpha   90.00000000
_cell_angle_beta   90.00000000
_cell_angle_gamma   119.96657562
_symmetry_Int_Tables_number   1
_chemical_formula_structural   Al2V2SiO6
_chemical_formula_sum   'Al2 V2 Si1 O6'
_cell_volume   141.50761232
_cell_formula_units_Z   1
loop_
 _symmetry_equiv_pos_site_id
 _symmetry_equiv_pos_as_xyz
  1  'x, y, z'
loop_
 _atom_site_type_symbol
 _atom_site_label
 _atom_site_symmetry_multiplicity
 _atom_site_fract_x
 _atom_site_fract_y
 _atom_site_fract_z
 _atom_site_occupancy
  V  V0  1  0.00000000  0.00000000  0.61640200  1
  Al  Al1  1  0.00000000  0.00000000  0.05026500  1
  V  V2  1  0.49999997  0.50000000  0.67110300  1
  Al  Al3  1  -0.00000004  0.50000000  0.99556399  1
  Si  Si4  1  0.50000001  0.00000000  0.33333333  1
  O  O5  1  0.21524294  0.80577201  0.17147400  1
  O  O6  1  0.59052895  0.80577201  0.49519300  1
  O  O7  1  0.17643798  0.35287600  0.83333299  1
  O  O8  1  0.78475700  0.19422800  0.17147400  1
  O  O9  1  0.40947099  0.19422800  0.49519300  1
  O  O10  1  0.82356197  0.64712400  0.83333299  1
