# generated using pymatgen
data_MnV2CrSiGe(PO4)2
_symmetry_space_group_name_H-M   'P 1'
_cell_length_a   5.03054523
_cell_length_b   5.31004620
_cell_length_c   6.50364494
_cell_angle_alpha   90.00000000
_cell_angle_beta   90.00000000
_cell_angle_gamma   90.00000000
_symmetry_Int_Tables_number   1
_chemical_formula_structural   MnV2CrSiGe(PO4)2
_chemical_formula_sum   'Mn1 V2 Cr1 Si1 Ge1 P2 O8'
_cell_volume   173.72814460
_cell_formula_units_Z   1
loop_
 _symmetry_equiv_pos_site_id
 _symmetry_equiv_pos_as_xyz
  1  'x, y, z'
loop_
 _atom_site_type_symbol
 _atom_site_label
 _atom_site_symmetry_multiplicity
 _atom_site_fract_x
 _atom_site_fract_y
 _atom_site_fract_z
 _atom_site_occupancy
  V  V0  1  0.98857595  0.58466798  0.87719901  1
  Mn  Mn1  1  0.48857598  0.91533197  0.37719900  1
  Cr  Cr2  1  0.48857598  0.41533198  0.12280100  1
  V  V3  1  0.98857595  0.08466800  0.62280101  1
  Ge  Ge4  1  0.00006700  0.06983900  0.12544600  1
  Si  Si5  1  0.50006698  0.93016097  0.87455401  1
  P  P6  1  0.50006698  0.43016098  0.62544601  1
  P  P7  1  0.00006700  0.56983898  0.37455400  1
  O  O8  1  0.41079998  0.60968798  0.84418201  1
  O  O9  1  0.91079996  0.39031199  0.15581800  1
  O  O10  1  0.91079996  0.89031197  0.34418200  1
  O  O11  1  0.41079998  0.10968800  0.65581801  1
  O  O12  1  0.34657698  0.54801398  0.40488100  1
  O  O13  1  0.34657698  0.04801400  0.09511900  1
  O  O14  1  0.84657696  0.95198596  0.90488101  1
  O  O15  1  0.84657696  0.45198598  0.59511901  1
