# generated using pymatgen
data_Na3Bi4SbO12
_symmetry_space_group_name_H-M   'P 1'
_cell_length_a   5.79875517
_cell_length_b   6.93664742
_cell_length_c   7.03207874
_cell_angle_alpha   80.78058624
_cell_angle_beta   79.04789734
_cell_angle_gamma   80.80639648
_symmetry_Int_Tables_number   1
_chemical_formula_structural   Na3Bi4SbO12
_chemical_formula_sum   'Na3 Bi4 Sb1 O12'
_cell_volume   271.66647541
_cell_formula_units_Z   1
loop_
 _symmetry_equiv_pos_site_id
 _symmetry_equiv_pos_as_xyz
  1  'x, y, z'
loop_
 _atom_site_type_symbol
 _atom_site_label
 _atom_site_symmetry_multiplicity
 _atom_site_fract_x
 _atom_site_fract_y
 _atom_site_fract_z
 _atom_site_occupancy
  Na  Na0  1  0.77373398  0.19598700  0.38573000  1
  Na  Na1  1  0.22626600  0.80401301  0.61426995  1
  Na  Na2  1  0.72640198  0.09066000  0.90807500  1
  Bi  Bi3  1  0.27359800  0.90934001  0.09192495  1
  Bi  Bi4  1  0.28137999  0.38814500  0.17334498  1
  Sb  Sb5  1  0.71861998  0.61185501  0.82665497  1
  Bi  Bi6  1  0.78224398  0.70229901  0.28470697  1
  Bi  Bi7  1  0.21775600  0.29770100  0.71529298  1
  O  O8  1  0.86535997  0.34029600  0.87967699  1
  O  O9  1  0.13464000  0.65970401  0.12032296  1
  O  O10  1  0.86227697  0.01447000  0.22146802  1
  O  O11  1  0.13772301  0.98553001  0.77853194  1
  O  O12  1  0.35906499  0.19110000  0.99343098  1
  O  O13  1  0.64093499  0.80890001  0.00656897  1
  O  O14  1  0.33749500  0.90624601  0.38276895  1
  O  O15  1  0.66250498  0.09375400  0.61723100  1
  O  O16  1  0.01172500  0.31677600  0.39716298  1
  O  O17  1  0.98827497  0.68322401  0.60283697  1
  O  O18  1  0.44508399  0.61831001  0.69064496  1
  O  O19  1  0.55491599  0.38169000  0.30935499  1
