# generated using pymatgen
data_LiF
_symmetry_space_group_name_H-M   'P 1'
_cell_length_a   5.11987686
_cell_length_b   5.75123930
_cell_length_c   5.75123930
_cell_angle_alpha   119.17427063
_cell_angle_beta   90.00000000
_cell_angle_gamma   90.00000000
_symmetry_Int_Tables_number   1
_chemical_formula_structural   LiF
_chemical_formula_sum   'Li6 F6'
_cell_volume   147.86548371
_cell_formula_units_Z   6
loop_
 _symmetry_equiv_pos_site_id
 _symmetry_equiv_pos_as_xyz
  1  'x, y, z'
loop_
 _atom_site_type_symbol
 _atom_site_label
 _atom_site_symmetry_multiplicity
 _atom_site_fract_x
 _atom_site_fract_y
 _atom_site_fract_z
 _atom_site_occupancy
  Li  Li0  1  0.47866101  0.99855901  0.66879100  1
  Li  Li1  1  0.47866101  0.66879100  0.99855900  1
  Li  Li2  1  0.97866103  0.00144100  0.33120900  1
  Li  Li3  1  0.97866103  0.33120900  0.00144100  1
  Li  Li4  1  0.48230901  0.33656500  0.33656500  1
  Li  Li5  1  0.98230903  0.66343500  0.66343500  1
  F  F6  1  0.89321602  0.96495901  0.66769400  1
  F  F7  1  0.89321602  0.66769400  0.96495900  1
  F  F8  1  0.39321601  0.03504100  0.33230600  1
  F  F9  1  0.39321601  0.33230600  0.03504100  1
  F  F10  1  0.84593702  0.36350500  0.36350500  1
  F  F11  1  0.34593701  0.63649500  0.63649500  1
