# generated using pymatgen
data_K5TlHg2O11F
_symmetry_space_group_name_H-M   'P 1'
_cell_length_a   6.03267384
_cell_length_b   7.67603207
_cell_length_c   8.99600124
_cell_angle_alpha   90.00000000
_cell_angle_beta   90.00000000
_cell_angle_gamma   90.00000000
_symmetry_Int_Tables_number   1
_chemical_formula_structural   K5TlHg2O11F
_chemical_formula_sum   'K5 Tl1 Hg2 O11 F1'
_cell_volume   416.57780988
_cell_formula_units_Z   1
loop_
 _symmetry_equiv_pos_site_id
 _symmetry_equiv_pos_as_xyz
  1  'x, y, z'
loop_
 _atom_site_type_symbol
 _atom_site_label
 _atom_site_symmetry_multiplicity
 _atom_site_fract_x
 _atom_site_fract_y
 _atom_site_fract_z
 _atom_site_occupancy
  K  K0  1  0.07079600  0.88595599  0.43320499  1
  K  K1  1  0.92920403  0.11404400  0.93320497  1
  K  K2  1  0.57079602  0.61404399  0.93320497  1
  K  K3  1  0.42920401  0.38595600  0.43320499  1
  Tl  Tl4  1  0.59622102  0.85377299  0.60438698  1
  K  K5  1  0.40377901  0.14622700  0.10438700  1
  Hg  Hg6  1  0.09622100  0.64622699  0.10438700  1
  Hg  Hg7  1  0.90377902  0.35377300  0.60438698  1
  F  F8  1  0.83463502  0.82688599  0.72659298  1
  O  O9  1  0.16536500  0.17311400  0.22659299  1
  O  O10  1  0.33463501  0.67311399  0.22659299  1
  O  O11  1  0.66536502  0.32688600  0.72659298  1
  O  O12  1  0.13406300  0.20427000  0.63555898  1
  O  O13  1  0.86593702  0.79572999  0.13555900  1
  O  O14  1  0.63406302  0.29573000  0.13555900  1
  O  O15  1  0.36593701  0.70426999  0.63555898  1
  O  O16  1  0.59568802  0.99796899  0.44607599  1
  O  O17  1  0.40431201  0.00203100  0.94607597  1
  O  O18  1  0.09568800  0.50203100  0.94607597  1
  O  O19  1  0.90431202  0.49796900  0.44607599  1
