# generated using pymatgen
data_AlCuS4
_symmetry_space_group_name_H-M   'P 1'
_cell_length_a   3.24322104
_cell_length_b   4.83233595
_cell_length_c   4.83233595
_cell_angle_alpha   90.00000000
_cell_angle_beta   90.00000000
_cell_angle_gamma   90.00000000
_symmetry_Int_Tables_number   1
_chemical_formula_structural   AlCuS4
_chemical_formula_sum   'Al1 Cu1 S4'
_cell_volume   75.73398127
_cell_formula_units_Z   1
loop_
 _symmetry_equiv_pos_site_id
 _symmetry_equiv_pos_as_xyz
  1  'x, y, z'
loop_
 _atom_site_type_symbol
 _atom_site_label
 _atom_site_symmetry_multiplicity
 _atom_site_fract_x
 _atom_site_fract_y
 _atom_site_fract_z
 _atom_site_occupancy
  Al  Al0  1  0.49999999  0.50000001  0.50000001  1
  Cu  Cu1  1  0.00000000  0.00000000  0.00000000  1
  S  S2  1  0.49999999  0.80655201  0.19344800  1
  S  S3  1  0.49999999  0.19344800  0.80655201  1
  S  S4  1  0.00000000  0.30655200  0.30655200  1
  S  S5  1  0.00000000  0.69344801  0.69344801  1
