# generated using pymatgen
data_K5TlBr3Cl
_symmetry_space_group_name_H-M   'P 1'
_cell_length_a   4.56607199
_cell_length_b   4.56607199
_cell_length_c   18.85235405
_cell_angle_alpha   83.04435730
_cell_angle_beta   83.04435730
_cell_angle_gamma   60.00000000
_symmetry_Int_Tables_number   1
_chemical_formula_structural   K5TlBr3Cl
_chemical_formula_sum   'K5 Tl1 Br3 Cl1'
_cell_volume   337.04942322
_cell_formula_units_Z   1
loop_
 _symmetry_equiv_pos_site_id
 _symmetry_equiv_pos_as_xyz
  1  'x, y, z'
loop_
 _atom_site_type_symbol
 _atom_site_label
 _atom_site_symmetry_multiplicity
 _atom_site_fract_x
 _atom_site_fract_y
 _atom_site_fract_z
 _atom_site_occupancy
  K  K0  1  0.10008500  0.10008500  0.69974503  1
  K  K1  1  0.89991499  0.89991500  0.30025504  1
  K  K2  1  0.49999999  0.50000000  0.50000003  1
  K  K3  1  0.70176999  0.70177000  0.89469006  1
  K  K4  1  0.29823000  0.29823000  0.10531001  1
  Cl  Cl5  1  0.00000000  0.00000000  0.00000000  1
  Tl  Tl6  1  0.59948599  0.59948600  0.20154202  1
  Br  Br7  1  0.19999900  0.19999900  0.40000302  1
  Br  Br8  1  0.80000099  0.80000100  0.59999705  1
  Br  Br9  1  0.40051399  0.40051400  0.79845804  1
