# generated using pymatgen
data_Na2BH3O2
_symmetry_space_group_name_H-M   'P 1'
_cell_length_a   5.46080446
_cell_length_b   5.46080446
_cell_length_c   8.60693073
_cell_angle_alpha   98.73598480
_cell_angle_beta   105.16337585
_cell_angle_gamma   110.38602448
_symmetry_Int_Tables_number   1
_chemical_formula_structural   Na2BH3O2
_chemical_formula_sum   'Na4 B2 H6 O4'
_cell_volume   223.67776616
_cell_formula_units_Z   2
loop_
 _symmetry_equiv_pos_site_id
 _symmetry_equiv_pos_as_xyz
  1  'x, y, z'
loop_
 _atom_site_type_symbol
 _atom_site_label
 _atom_site_symmetry_multiplicity
 _atom_site_fract_x
 _atom_site_fract_y
 _atom_site_fract_z
 _atom_site_occupancy
  Na  Na0  1  0.00000000  0.00000000  0.00000000  1
  Na  Na1  1  0.49999999  0.49999999  0.49999999  1
  Na  Na2  1  0.00000000  0.00000000  0.49999999  1
  Na  Na3  1  0.49999998  0.00000000  0.49999998  1
  B  B4  1  0.78986698  0.44414899  0.23401598  1
  B  B5  1  0.21013300  0.55585099  0.76598399  1
  H  H6  1  0.49208499  0.34245699  0.28518299  1
  H  H7  1  0.50791499  0.65754299  0.71481699  1
  O  O8  1  0.05727400  0.20690200  0.71481699  1
  O  O9  1  0.94272597  0.79309798  0.28518298  1
  H  H10  1  0.38825499  0.15125600  0.53951099  1
  H  H11  1  0.61174499  0.84874398  0.46048899  1
  O  O12  1  0.30493799  0.66545299  0.97039099  1
  O  O13  1  0.69506198  0.33454699  0.02960899  1
  H  H14  1  0.00846600  0.33097899  0.33944500  1
  H  H15  1  0.99153397  0.66902099  0.66055498  1
