# generated using pymatgen
data_CuS
_symmetry_space_group_name_H-M   'P 1'
_cell_length_a   5.20341587
_cell_length_b   5.20341587
_cell_length_c   6.38215876
_cell_angle_alpha   114.05750275
_cell_angle_beta   114.05750275
_cell_angle_gamma   90.00000000
_symmetry_Int_Tables_number   1
_chemical_formula_structural   CuS
_chemical_formula_sum   'Cu4 S4'
_cell_volume   141.19361949
_cell_formula_units_Z   4
loop_
 _symmetry_equiv_pos_site_id
 _symmetry_equiv_pos_as_xyz
  1  'x, y, z'
loop_
 _atom_site_type_symbol
 _atom_site_label
 _atom_site_symmetry_multiplicity
 _atom_site_fract_x
 _atom_site_fract_y
 _atom_site_fract_z
 _atom_site_occupancy
  Cu  Cu0  1  0.75000001  0.25000000  0.49999999  1
  Cu  Cu1  1  0.50000001  0.50000001  -0.00000001  1
  Cu  Cu2  1  0.25000000  0.75000001  0.49999999  1
  Cu  Cu3  1  0.00000000  0.00000000  0.00000000  1
  S  S4  1  0.12312900  0.12312900  0.76269299  1
  S  S5  1  0.63956401  0.63956401  0.76269298  1
  S  S6  1  0.87687102  0.36043601  0.23730699  1
  S  S7  1  0.36043600  0.87687102  0.23730699  1
