# generated using pymatgen
data_SrCaInCuO6
_symmetry_space_group_name_H-M   'P 1'
_cell_length_a   5.50864077
_cell_length_b   5.60953712
_cell_length_c   7.83722115
_cell_angle_alpha   90.00000000
_cell_angle_beta   90.00000000
_cell_angle_gamma   90.00000000
_symmetry_Int_Tables_number   1
_chemical_formula_structural   SrCaInCuO6
_chemical_formula_sum   'Sr2 Ca2 In2 Cu2 O12'
_cell_volume   242.17738192
_cell_formula_units_Z   2
loop_
 _symmetry_equiv_pos_site_id
 _symmetry_equiv_pos_as_xyz
  1  'x, y, z'
loop_
 _atom_site_type_symbol
 _atom_site_label
 _atom_site_symmetry_multiplicity
 _atom_site_fract_x
 _atom_site_fract_y
 _atom_site_fract_z
 _atom_site_occupancy
  Sr  Sr0  1  0.01158900  0.95365398  0.74999999  1
  Ca  Ca1  1  0.51158902  0.54634599  0.25000000  1
  Sr  Sr2  1  0.48841102  0.45365399  0.74999999  1
  Ca  Ca3  1  0.98841104  0.04634600  0.25000000  1
  In  In4  1  0.50000002  0.00000000  0.49999999  1
  In  In5  1  0.00000000  0.49999999  0.49999999  1
  Cu  Cu6  1  0.00000000  0.49999999  -0.00000000  1
  Cu  Cu7  1  0.50000002  0.00000000  0.00000000  1
  O  O8  1  0.71195603  0.28944599  0.45562899  1
  O  O9  1  0.21195601  0.21055400  0.54437099  1
  O  O10  1  0.78804403  0.78944598  0.04437100  1
  O  O11  1  0.28804401  0.71055398  0.95562898  1
  O  O12  1  0.28804401  0.71055398  0.54437099  1
  O  O13  1  0.78804403  0.78944598  0.45562899  1
  O  O14  1  0.21195601  0.21055400  0.95562898  1
  O  O15  1  0.71195603  0.28944599  0.04437100  1
  O  O16  1  0.08243100  0.48047699  0.25000000  1
  O  O17  1  0.58243102  0.01952300  0.74999999  1
  O  O18  1  0.41756902  0.98047698  0.25000000  1
  O  O19  1  0.91756904  0.51952299  0.74999999  1
