# generated using pymatgen
data_Li6CoO5
_symmetry_space_group_name_H-M   'P 1'
_cell_length_a   2.89242792
_cell_length_b   5.09526110
_cell_length_c   7.72131395
_cell_angle_alpha   76.57418823
_cell_angle_beta   79.32869720
_cell_angle_gamma   73.71541595
_symmetry_Int_Tables_number   1
_chemical_formula_structural   Li6CoO5
_chemical_formula_sum   'Li6 Co1 O5'
_cell_volume   105.36161337
_cell_formula_units_Z   1
loop_
 _symmetry_equiv_pos_site_id
 _symmetry_equiv_pos_as_xyz
  1  'x, y, z'
loop_
 _atom_site_type_symbol
 _atom_site_label
 _atom_site_symmetry_multiplicity
 _atom_site_fract_x
 _atom_site_fract_y
 _atom_site_fract_z
 _atom_site_occupancy
  Li  Li0  1  0.34154294  0.50791199  0.81290201  1
  Li  Li1  1  0.99178392  0.49209699  0.52043202  1
  Li  Li2  1  0.66666660  0.50000299  0.16666800  1
  Li  Li3  1  0.66666664  0.00000400  0.66666670  1
  Li  Li4  1  0.99867697  0.01187100  0.98890505  1
  Li  Li5  1  0.33465790  0.98810799  0.34443198  1
  Co  Co6  1  0.63996491  0.78359399  0.93100901  1
  O  O7  1  0.34038692  0.75808099  0.56199499  1
  O  O8  1  0.98468990  0.78173599  0.24726700  1
  O  O9  1  0.99294795  0.24192200  0.77133804  1
  O  O10  1  0.69336896  0.21640800  0.40232102  1
  O  O11  1  0.34865097  0.21826300  0.08606500  1
