# generated using pymatgen
data_Rb2BaTl2InCu
_symmetry_space_group_name_H-M   'P 1'
_cell_length_a   6.73272610
_cell_length_b   6.84805918
_cell_length_c   6.84805918
_cell_angle_alpha   76.01605225
_cell_angle_beta   60.55557251
_cell_angle_gamma   60.55557251
_symmetry_Int_Tables_number   1
_chemical_formula_structural   Rb2BaTl2InCu
_chemical_formula_sum   'Rb2 Ba1 Tl2 In1 Cu1'
_cell_volume   239.43939810
_cell_formula_units_Z   1
loop_
 _symmetry_equiv_pos_site_id
 _symmetry_equiv_pos_as_xyz
  1  'x, y, z'
loop_
 _atom_site_type_symbol
 _atom_site_label
 _atom_site_symmetry_multiplicity
 _atom_site_fract_x
 _atom_site_fract_y
 _atom_site_fract_z
 _atom_site_occupancy
  Ba  Ba0  1  0.00000000  0.00000000  0.00000000  1
  Rb  Rb1  1  0.49999999  0.49999999  0.50000000  1
  Rb  Rb2  1  0.99999998  0.49999999  0.49999999  1
  Tl  Tl3  1  0.57808498  0.49999999  0.84382999  1
  In  In4  1  0.42191599  0.15616900  0.49999999  1
  Tl  Tl5  1  0.07808398  0.84383099  0.50000001  1
  Cu  Cu6  1  0.92191498  0.49999999  0.15617000  1
