# generated using pymatgen
data_Li2TlSiF6
_symmetry_space_group_name_H-M   'P 1'
_cell_length_a   6.05285120
_cell_length_b   6.05285120
_cell_length_c   6.05285120
_cell_angle_alpha   60.00000000
_cell_angle_beta   60.00000000
_cell_angle_gamma   60.00000000
_symmetry_Int_Tables_number   1
_chemical_formula_structural   Li2TlSiF6
_chemical_formula_sum   'Li2 Tl1 Si1 F6'
_cell_volume   156.80683712
_cell_formula_units_Z   1
loop_
 _symmetry_equiv_pos_site_id
 _symmetry_equiv_pos_as_xyz
  1  'x, y, z'
loop_
 _atom_site_type_symbol
 _atom_site_label
 _atom_site_symmetry_multiplicity
 _atom_site_fract_x
 _atom_site_fract_y
 _atom_site_fract_z
 _atom_site_occupancy
  Tl  Tl0  1  0.74999998  0.74999998  0.74999998  1
  Li  Li1  1  0.24999999  0.24999999  0.24999999  1
  Li  Li2  1  0.49999999  0.49999999  0.49999999  1
  Si  Si3  1  0.00000000  0.00000000  0.00000000  1
  F  F4  1  0.23517699  0.76482298  0.23517699  1
  F  F5  1  0.76482298  0.23517699  0.76482298  1
  F  F6  1  0.23517699  0.76482298  0.76482298  1
  F  F7  1  0.76482298  0.23517699  0.23517699  1
  F  F8  1  0.23517699  0.23517699  0.76482298  1
  F  F9  1  0.76482298  0.76482298  0.23517699  1
