# generated using pymatgen
data_CsNa2AlS5
_symmetry_space_group_name_H-M   'P 1'
_cell_length_a   4.69560099
_cell_length_b   5.97529793
_cell_length_c   5.97529793
_cell_angle_alpha   60.00000000
_cell_angle_beta   90.00000000
_cell_angle_gamma   90.00000000
_symmetry_Int_Tables_number   1
_chemical_formula_structural   CsNa2AlS5
_chemical_formula_sum   'Cs1 Na2 Al1 S5'
_cell_volume   145.19141740
_cell_formula_units_Z   1
loop_
 _symmetry_equiv_pos_site_id
 _symmetry_equiv_pos_as_xyz
  1  'x, y, z'
loop_
 _atom_site_type_symbol
 _atom_site_label
 _atom_site_symmetry_multiplicity
 _atom_site_fract_x
 _atom_site_fract_y
 _atom_site_fract_z
 _atom_site_occupancy
  Na  Na0  1  0.29526500  0.66666668  0.66666668  1
  Cs  Cs1  1  0.70473500  0.33333334  0.33333334  1
  Al  Al2  1  0.00000000  0.00000000  0.00000000  1
  Na  Na3  1  0.77339200  0.83769202  0.32461600  1
  S  S4  1  0.77339200  0.32461601  0.83769202  1
  S  S5  1  0.77339200  0.83769202  0.83769202  1
  S  S6  1  0.22660800  0.16230800  0.67538402  1
  S  S7  1  0.22660800  0.67538401  0.16230800  1
  S  S8  1  0.22660800  0.16230800  0.16230800  1
