# generated using pymatgen
data_K2O2
_symmetry_space_group_name_H-M   'P 1'
_cell_length_a   3.84154797
_cell_length_b   3.84154797
_cell_length_c   6.14232159
_cell_angle_alpha   108.22270966
_cell_angle_beta   108.22270966
_cell_angle_gamma   90.00000000
_symmetry_Int_Tables_number   1
_chemical_formula_structural   K2O2
_chemical_formula_sum   'K2 O2'
_cell_volume   81.29940108
_cell_formula_units_Z   1
loop_
 _symmetry_equiv_pos_site_id
 _symmetry_equiv_pos_as_xyz
  1  'x, y, z'
loop_
 _atom_site_type_symbol
 _atom_site_label
 _atom_site_symmetry_multiplicity
 _atom_site_fract_x
 _atom_site_fract_y
 _atom_site_fract_z
 _atom_site_occupancy
  K  K0  1  0.88294902  0.88294901  0.76589801  1
  K  K1  1  0.11705100  0.11705100  0.23410200  1
  O  O2  1  0.68606002  0.68606001  0.37212001  1
  O  O3  1  0.31394001  0.31394000  0.62788000  1
