# generated using pymatgen
data_La2Sc2CuBi2SO12
_symmetry_space_group_name_H-M   'P 1'
_cell_length_a   5.55606794
_cell_length_b   5.60151815
_cell_length_c   8.11166477
_cell_angle_alpha   90.00000000
_cell_angle_beta   90.31135559
_cell_angle_gamma   90.00000000
_symmetry_Int_Tables_number   1
_chemical_formula_structural   La2Sc2CuBi2SO12
_chemical_formula_sum   'La2 Sc2 Cu1 Bi2 S1 O12'
_cell_volume   252.45087352
_cell_formula_units_Z   1
loop_
 _symmetry_equiv_pos_site_id
 _symmetry_equiv_pos_as_xyz
  1  'x, y, z'
loop_
 _atom_site_type_symbol
 _atom_site_label
 _atom_site_symmetry_multiplicity
 _atom_site_fract_x
 _atom_site_fract_y
 _atom_site_fract_z
 _atom_site_occupancy
  Sc  Sc0  1  0.74480901  0.99266497  0.49799097  1
  La  La1  1  0.25519100  0.49266499  0.50200898  1
  Sc  Sc2  1  0.75967501  0.06225300  0.00134498  1
  La  La3  1  0.24032500  0.56225298  0.99865497  1
  Bi  Bi4  1  0.75141301  0.51789799  0.25868498  1
  Cu  Cu5  1  0.24858700  0.01789800  0.74131498  1
  Bi  Bi6  1  0.74315101  0.51229999  0.73798197  1
  S  S7  1  0.25684900  0.01230000  0.26201799  1
  O  O8  1  0.95057701  0.78427498  0.80950896  1
  O  O9  1  0.04942300  0.28427499  0.19049099  1
  O  O10  1  0.97620901  0.80787298  0.19240297  1
  O  O11  1  0.02379100  0.30787299  0.80759698  1
  O  O12  1  0.46123600  0.70185998  0.72234397  1
  O  O13  1  0.53876401  0.20185999  0.27765598  1
  O  O14  1  0.56674301  0.21967099  0.71724197  1
  O  O15  1  0.43325700  0.71967098  0.28275798  1
  O  O16  1  0.66078701  0.48747499  0.98822396  1
  O  O17  1  0.33921300  0.98747497  0.01177599  1
  O  O18  1  0.83130401  0.53853099  0.51736697  1
  O  O19  1  0.16869600  0.03853100  0.48263299  1
