# generated using pymatgen
data_Rb3BaCuPtI12
_symmetry_space_group_name_H-M   'P 1'
_cell_length_a   7.47987604
_cell_length_b   7.47987604
_cell_length_c   11.32189083
_cell_angle_alpha   90.00000000
_cell_angle_beta   90.00000000
_cell_angle_gamma   90.00000000
_symmetry_Int_Tables_number   1
_chemical_formula_structural   Rb3BaCuPtI12
_chemical_formula_sum   'Rb3 Ba1 Cu1 Pt1 I12'
_cell_volume   633.44332538
_cell_formula_units_Z   1
loop_
 _symmetry_equiv_pos_site_id
 _symmetry_equiv_pos_as_xyz
  1  'x, y, z'
loop_
 _atom_site_type_symbol
 _atom_site_label
 _atom_site_symmetry_multiplicity
 _atom_site_fract_x
 _atom_site_fract_y
 _atom_site_fract_z
 _atom_site_occupancy
  Ba  Ba0  1  0.00000000  0.50000000  0.75000001  1
  Rb  Rb1  1  0.50000000  0.00000000  0.75000001  1
  Rb  Rb2  1  0.00000000  0.50000000  0.25000000  1
  Rb  Rb3  1  0.50000000  0.00000000  0.25000000  1
  Pt  Pt4  1  0.00000000  0.00000000  0.00000000  1
  Cu  Cu5  1  0.50000000  0.50000000  0.50000001  1
  I  I6  1  0.00000000  0.00000000  0.23732700  1
  I  I7  1  0.50000000  0.50000000  0.26267300  1
  I  I8  1  0.00000000  0.00000000  0.76267301  1
  I  I9  1  0.50000000  0.50000000  0.73732701  1
  I  I10  1  0.18936700  0.70034700  -0.00000000  1
  I  I11  1  0.79965300  0.31063300  0.50000001  1
  I  I12  1  0.81063300  0.29965300  0.00000000  1
  I  I13  1  0.20034700  0.68936700  0.50000001  1
  I  I14  1  0.31063300  0.20034700  0.50000001  1
  I  I15  1  0.68936700  0.79965300  0.50000001  1
  I  I16  1  0.29965300  0.18936700  -0.00000000  1
  I  I17  1  0.70034700  0.81063300  0.00000000  1
