# generated using pymatgen
data_Na(LiSb)2
_symmetry_space_group_name_H-M   'P 1'
_cell_length_a   4.28050327
_cell_length_b   4.28050327
_cell_length_c   9.38939953
_cell_angle_alpha   76.82398987
_cell_angle_beta   76.82398987
_cell_angle_gamma   60.00001144
_symmetry_Int_Tables_number   1
_chemical_formula_structural   Na(LiSb)2
_chemical_formula_sum   'Na1 Li2 Sb2'
_cell_volume   143.73690129
_cell_formula_units_Z   1
loop_
 _symmetry_equiv_pos_site_id
 _symmetry_equiv_pos_as_xyz
  1  'x, y, z'
loop_
 _atom_site_type_symbol
 _atom_site_label
 _atom_site_symmetry_multiplicity
 _atom_site_fract_x
 _atom_site_fract_y
 _atom_site_fract_z
 _atom_site_occupancy
  Na  Na0  1  0.00000000  0.00000000  0.00000000  1
  Li  Li1  1  0.20988098  0.20988100  0.37035699  1
  Li  Li2  1  0.79011893  0.79011899  0.62964301  1
  Sb  Sb3  1  0.59382195  0.59382199  0.21853402  1
  Sb  Sb4  1  0.40617796  0.40617799  0.78146599  1
