# generated using pymatgen
data_LiAl5O8
_symmetry_space_group_name_H-M   'P 1'
_cell_length_a   5.87327623
_cell_length_b   5.87327671
_cell_length_c   5.87330198
_cell_angle_alpha   119.99984741
_cell_angle_beta   119.99985504
_cell_angle_gamma   90.00000000
_symmetry_Int_Tables_number   1
_chemical_formula_structural   LiAl5O8
_chemical_formula_sum   'Li1 Al5 O8'
_cell_volume   143.26172501
_cell_formula_units_Z   1
loop_
 _symmetry_equiv_pos_site_id
 _symmetry_equiv_pos_as_xyz
  1  'x, y, z'
loop_
 _atom_site_type_symbol
 _atom_site_label
 _atom_site_symmetry_multiplicity
 _atom_site_fract_x
 _atom_site_fract_y
 _atom_site_fract_z
 _atom_site_occupancy
  Al  Al0  1  0.74999996  0.24999999  0.49999996  1
  Li  Li1  1  0.00000000  0.00000000  0.00000000  1
  Al  Al2  1  0.37499995  0.62499997  0.74999991  1
  Al  Al3  1  0.37499998  0.12499999  0.74999996  1
  Al  Al4  1  0.87499993  0.62499997  0.24999993  1
  Al  Al5  1  0.37499995  0.62499997  0.24999992  1
  O  O6  1  0.57489293  0.85829696  0.71659188  1
  O  O7  1  0.60830196  0.39170298  0.78340793  1
  O  O8  1  0.14170497  0.42510598  0.28340794  1
  O  O9  1  0.14170495  0.85830096  0.28340790  1
  O  O10  1  0.17510697  0.39170298  0.78340793  1
  O  O11  1  0.14169795  0.85829696  0.71659188  1
  O  O12  1  0.60829496  0.39169898  0.21659195  1
  O  O13  1  0.60829493  0.82489396  0.21659190  1
