# generated using pymatgen
data_K6Ba2MnO11
_symmetry_space_group_name_H-M   'P 1'
_cell_length_a   6.19140100
_cell_length_b   6.22773123
_cell_length_c   8.74402237
_cell_angle_alpha   89.83029938
_cell_angle_beta   90.00000000
_cell_angle_gamma   90.00000000
_symmetry_Int_Tables_number   1
_chemical_formula_structural   K6Ba2MnO11
_chemical_formula_sum   'K6 Ba2 Mn1 O11'
_cell_volume   337.15387049
_cell_formula_units_Z   1
loop_
 _symmetry_equiv_pos_site_id
 _symmetry_equiv_pos_as_xyz
  1  'x, y, z'
loop_
 _atom_site_type_symbol
 _atom_site_label
 _atom_site_symmetry_multiplicity
 _atom_site_fract_x
 _atom_site_fract_y
 _atom_site_fract_z
 _atom_site_occupancy
  K  K0  1  0.98465100  0.00519400  0.74989900  1
  K  K1  1  0.48465100  0.49480598  0.75010099  1
  K  K2  1  0.01534900  0.99480596  0.25010097  1
  K  K3  1  0.51534900  0.50519398  0.24989899  1
  Ba  Ba4  1  1.00000000  0.49999998  -0.00000001  1
  K  K5  1  0.50000000  0.00000000  0.50000000  1
  Ba  Ba6  1  0.00000000  0.49999998  0.49999999  1
  K  K7  1  0.50000000  0.00000000  -0.00000000  1
  O  O8  1  0.21632600  0.24531899  0.53571199  1
  Mn  Mn9  1  0.48793100  0.06942700  0.23485300  1
  O  O10  1  0.74316900  0.28569599  0.53913799  1
  O  O11  1  0.78367400  0.75468097  0.46428798  1
  O  O12  1  0.01206900  0.56942698  0.73485298  1
  O  O13  1  0.24316900  0.21430399  0.96086199  1
  O  O14  1  0.28367400  0.74531897  0.03571198  1
  O  O15  1  0.71632600  0.25468099  0.96428799  1
  O  O16  1  0.98793100  0.43057298  0.26514699  1
  O  O17  1  0.51206900  0.93057297  0.76514697  1
  O  O18  1  0.75683100  0.78569597  0.03913798  1
  O  O19  1  0.25683100  0.71430397  0.46086198  1
