# generated using pymatgen
data_LiMgFe3PN4
_symmetry_space_group_name_H-M   'P 1'
_cell_length_a   3.43128610
_cell_length_b   3.43128610
_cell_length_c   11.45834446
_cell_angle_alpha   90.00000000
_cell_angle_beta   90.00000000
_cell_angle_gamma   120.00000000
_symmetry_Int_Tables_number   1
_chemical_formula_structural   LiMgFe3PN4
_chemical_formula_sum   'Li1 Mg1 Fe3 P1 N4'
_cell_volume   116.83322545
_cell_formula_units_Z   1
loop_
 _symmetry_equiv_pos_site_id
 _symmetry_equiv_pos_as_xyz
  1  'x, y, z'
loop_
 _atom_site_type_symbol
 _atom_site_label
 _atom_site_symmetry_multiplicity
 _atom_site_fract_x
 _atom_site_fract_y
 _atom_site_fract_z
 _atom_site_occupancy
  Li  Li0  1  0.00000000  0.00000000  0.00000000  1
  Mg  Mg1  1  0.00000000  0.00000000  0.49999998  1
  Fe  Fe2  1  0.66666666  0.33333334  0.74999997  1
  Fe  Fe3  1  0.33333334  0.66666668  0.24999999  1
  N  N4  1  0.66666666  0.33333334  0.90974996  1
  Fe  Fe5  1  0.66666666  0.33333334  0.59024998  1
  P  P6  1  0.00000000  0.00000000  0.74999997  1
  N  N7  1  0.00000000  0.00000000  0.24999999  1
  N  N8  1  0.33333334  0.66666668  0.09025000  1
  N  N9  1  0.33333334  0.66666668  0.40974998  1
