# generated using pymatgen
data_Na5SO3
_symmetry_space_group_name_H-M   'P 1'
_cell_length_a   4.41049004
_cell_length_b   4.41048956
_cell_length_c   6.37076187
_cell_angle_alpha   90.00000000
_cell_angle_beta   90.00000000
_cell_angle_gamma   120.00000000
_symmetry_Int_Tables_number   1
_chemical_formula_structural   Na5SO3
_chemical_formula_sum   'Na5 S1 O3'
_cell_volume   107.32370268
_cell_formula_units_Z   1
loop_
 _symmetry_equiv_pos_site_id
 _symmetry_equiv_pos_as_xyz
  1  'x, y, z'
loop_
 _atom_site_type_symbol
 _atom_site_label
 _atom_site_symmetry_multiplicity
 _atom_site_fract_x
 _atom_site_fract_y
 _atom_site_fract_z
 _atom_site_occupancy
  Na  Na0  1  0.49999997  0.50000000  0.50000001  1
  Na  Na1  1  -0.00000003  0.50000000  0.83333302  1
  Na  Na2  1  0.50000000  0.00000000  0.16666700  1
  Na  Na3  1  0.83383596  0.66767200  0.16666700  1
  O  O4  1  0.66767095  0.83383500  0.83333302  1
  Na  Na5  1  0.16616396  0.83383500  0.50000001  1
  O  O6  1  0.16616398  0.33232800  0.16666700  1
  O  O7  1  0.33232899  0.16616500  0.83333302  1
  S  S8  1  0.83383599  0.16616500  0.50000001  1
