# generated using pymatgen
data_Cs2NbTl(WO6)2
_symmetry_space_group_name_H-M   'P 1'
_cell_length_a   7.43840408
_cell_length_b   7.43840408
_cell_length_c   7.51180553
_cell_angle_alpha   60.32333755
_cell_angle_beta   60.32333755
_cell_angle_gamma   60.00020218
_symmetry_Int_Tables_number   1
_chemical_formula_structural   Cs2NbTl(WO6)2
_chemical_formula_sum   'Cs2 Nb1 Tl1 W2 O12'
_cell_volume   295.32135165
_cell_formula_units_Z   1
loop_
 _symmetry_equiv_pos_site_id
 _symmetry_equiv_pos_as_xyz
  1  'x, y, z'
loop_
 _atom_site_type_symbol
 _atom_site_label
 _atom_site_symmetry_multiplicity
 _atom_site_fract_x
 _atom_site_fract_y
 _atom_site_fract_z
 _atom_site_occupancy
  Cs  Cs0  1  0.86864899  0.87658599  0.88230706  1
  Cs  Cs1  1  0.12341400  0.13135100  0.11769301  1
  Nb  Nb2  1  0.49629999  0.50370000  1.00000003  1
  Tl  Tl3  1  0.99611199  0.50388000  0.49993305  1
  W  W4  1  0.49611999  0.00388800  0.50006702  1
  W  W5  1  0.49613299  0.50386700  0.50000003  1
  O  O6  1  0.18760700  0.19512200  0.55552201  1
  O  O7  1  0.55965099  0.56705499  0.19957004  1
  O  O8  1  0.17002499  0.56704299  0.19955903  1
  O  O9  1  0.55798899  0.19511700  0.55555002  1
  O  O10  1  0.55966399  0.17741700  0.19957303  1
  O  O11  1  0.18760699  0.56551799  0.55549303  1
  O  O12  1  0.80487799  0.81239299  0.44447806  1
  O  O13  1  0.43294499  0.44034900  0.80043003  1
  O  O14  1  0.82258399  0.44033500  0.80042704  1
  O  O15  1  0.43448199  0.81239299  0.44450704  1
  O  O16  1  0.43295699  0.82997499  0.80044104  1
  O  O17  1  0.80488399  0.44201000  0.44445004  1
