# generated using pymatgen
data_RbTlInCl5
_symmetry_space_group_name_H-M   'P 1'
_cell_length_a   3.80427194
_cell_length_b   3.80427194
_cell_length_c   15.01506805
_cell_angle_alpha   90.00000000
_cell_angle_beta   90.00000000
_cell_angle_gamma   120.00000000
_symmetry_Int_Tables_number   1
_chemical_formula_structural   RbTlInCl5
_chemical_formula_sum   'Rb1 Tl1 In1 Cl5'
_cell_volume   188.19195060
_cell_formula_units_Z   1
loop_
 _symmetry_equiv_pos_site_id
 _symmetry_equiv_pos_as_xyz
  1  'x, y, z'
loop_
 _atom_site_type_symbol
 _atom_site_label
 _atom_site_symmetry_multiplicity
 _atom_site_fract_x
 _atom_site_fract_y
 _atom_site_fract_z
 _atom_site_occupancy
  Rb  Rb0  1  0.00000000  0.00000000  0.50000000  1
  In  In1  1  0.00000000  0.00000000  0.00000000  1
  Tl  Tl2  1  0.33333332  0.66666664  0.25000000  1
  Cl  Cl3  1  0.66666667  0.33333332  0.75000000  1
  Cl  Cl4  1  0.66666667  0.33333332  0.09424400  1
  Cl  Cl5  1  0.33333332  0.66666664  0.59424400  1
  Cl  Cl6  1  0.66666667  0.33333332  0.40575600  1
  Cl  Cl7  1  0.33333332  0.66666664  0.90575600  1
