# generated using pymatgen
data_Li2O2
_symmetry_space_group_name_H-M   'P 1'
_cell_length_a   3.15020800
_cell_length_b   3.15020800
_cell_length_c   6.00045919
_cell_angle_alpha   74.78170013
_cell_angle_beta   74.78170013
_cell_angle_gamma   60.00000000
_symmetry_Int_Tables_number   1
_chemical_formula_structural   Li2O2
_chemical_formula_sum   'Li2 O2'
_cell_volume   49.14358457
_cell_formula_units_Z   1
loop_
 _symmetry_equiv_pos_site_id
 _symmetry_equiv_pos_as_xyz
  1  'x, y, z'
loop_
 _atom_site_type_symbol
 _atom_site_label
 _atom_site_symmetry_multiplicity
 _atom_site_fract_x
 _atom_site_fract_y
 _atom_site_fract_z
 _atom_site_occupancy
  Li  Li0  1  0.50000002  0.50000000  0.49999997  1
  Li  Li1  1  0.00000000  0.00000000  0.00000000  1
  O  O2  1  0.73162804  0.73162801  0.80511596  1
  O  O3  1  0.26837201  0.26837200  0.19488399  1
