# generated using pymatgen
data_Li5Mn3SO11
_symmetry_space_group_name_H-M   'P 1'
_cell_length_a   5.08446169
_cell_length_b   5.23191404
_cell_length_c   7.63185024
_cell_angle_alpha   110.01716614
_cell_angle_beta   102.80913544
_cell_angle_gamma   97.63337708
_symmetry_Int_Tables_number   1
_chemical_formula_structural   Li5Mn3SO11
_chemical_formula_sum   'Li5 Mn3 S1 O11'
_cell_volume   181.11593956
_cell_formula_units_Z   1
loop_
 _symmetry_equiv_pos_site_id
 _symmetry_equiv_pos_as_xyz
  1  'x, y, z'
loop_
 _atom_site_type_symbol
 _atom_site_label
 _atom_site_symmetry_multiplicity
 _atom_site_fract_x
 _atom_site_fract_y
 _atom_site_fract_z
 _atom_site_occupancy
  Li  Li0  1  0.49998998  0.59996903  0.69997898  1
  Li  Li1  1  0.99998496  0.59999703  0.20001198  1
  Li  Li2  1  0.49997898  0.19530501  0.90486797  1
  Li  Li3  1  0.49999698  0.00467000  0.49510797  1
  Mn  Mn4  1  0.51489598  0.80166704  0.10517900  1
  Li  Li5  1  0.48510598  0.39833802  0.29481799  1
  Mn  Mn6  1  0.99993296  0.20005101  0.39849696  1
  Mn  Mn7  1  0.99877596  0.79860104  0.59734297  1
  S  S8  1  0.00007700  0.99993405  0.00149602  1
  O  O9  1  0.00121600  0.40140502  0.80267299  1
  O  O10  1  0.23104199  0.81902204  0.85127199  1
  O  O11  1  0.76895197  0.38096602  0.54872697  1
  O  O12  1  0.21947499  0.36536302  0.03343700  1
  O  O13  1  0.78055197  0.83465904  0.36658398  1
  O  O14  1  0.23411099  0.21389901  0.64219698  1
  O  O15  1  0.76589497  0.98612205  0.75781298  1
  O  O16  1  0.21552799  0.57407103  0.45301599  1
  O  O17  1  0.78445497  0.62596803  0.94699197  1
  O  O18  1  0.22850399  0.01926800  0.24576299  1
  O  O19  1  0.77152997  0.18072701  0.15422698  1
