# generated using pymatgen
data_Li3VCo3P
_symmetry_space_group_name_H-M   'P 1'
_cell_length_a   5.41068029
_cell_length_b   5.41068029
_cell_length_c   5.54703951
_cell_angle_alpha   60.80989075
_cell_angle_beta   60.80989075
_cell_angle_gamma   59.99999619
_symmetry_Int_Tables_number   1
_chemical_formula_structural   Li3VCo3P
_chemical_formula_sum   'Li3 V1 Co3 P1'
_cell_volume   116.21423492
_cell_formula_units_Z   1
loop_
 _symmetry_equiv_pos_site_id
 _symmetry_equiv_pos_as_xyz
  1  'x, y, z'
loop_
 _atom_site_type_symbol
 _atom_site_label
 _atom_site_symmetry_multiplicity
 _atom_site_fract_x
 _atom_site_fract_y
 _atom_site_fract_z
 _atom_site_occupancy
  V  V0  1  0.50000002  0.50000000  0.49999996  1
  Li  Li1  1  0.00000000  0.00000000  0.00000000  1
  Li  Li2  1  0.67077403  0.84303101  0.24404995  1
  Li  Li3  1  0.24214502  0.67077401  0.24404997  1
  Co  Co4  1  0.84303102  0.24214500  0.24404997  1
  Co  Co5  1  0.32922601  0.15696900  0.75594996  1
  P  P6  1  0.75785502  0.32922600  0.75594995  1
  Co  Co7  1  0.15696902  0.75785501  0.75594995  1
