# generated using pymatgen
data_LiCu2S3
_symmetry_space_group_name_H-M   'P 1'
_cell_length_a   3.39030910
_cell_length_b   4.43831587
_cell_length_c   5.41102219
_cell_angle_alpha   90.00000000
_cell_angle_beta   90.00000000
_cell_angle_gamma   90.00000000
_symmetry_Int_Tables_number   1
_chemical_formula_structural   LiCu2S3
_chemical_formula_sum   'Li1 Cu2 S3'
_cell_volume   81.42107208
_cell_formula_units_Z   1
loop_
 _symmetry_equiv_pos_site_id
 _symmetry_equiv_pos_as_xyz
  1  'x, y, z'
loop_
 _atom_site_type_symbol
 _atom_site_label
 _atom_site_symmetry_multiplicity
 _atom_site_fract_x
 _atom_site_fract_y
 _atom_site_fract_z
 _atom_site_occupancy
  Li  Li0  1  0.49999999  0.50000001  0.49999998  1
  Cu  Cu1  1  0.00000000  0.00000000  0.00000000  1
  S  S2  1  0.49999999  0.29399901  0.87532997  1
  Cu  Cu3  1  0.49999999  0.70600102  0.12467000  1
  S  S4  1  0.00000000  0.20600101  0.37532999  1
  S  S5  1  0.00000000  0.79399902  0.62466998  1
