# generated using pymatgen
data_VSi(PS5)2
_symmetry_space_group_name_H-M   'P 1'
_cell_length_a   6.53693771
_cell_length_b   6.53693771
_cell_length_c   6.53693771
_cell_angle_alpha   60.00000000
_cell_angle_beta   60.00000000
_cell_angle_gamma   60.00000000
_symmetry_Int_Tables_number   1
_chemical_formula_structural   VSi(PS5)2
_chemical_formula_sum   'V1 Si1 P2 S10'
_cell_volume   197.51862005
_cell_formula_units_Z   1
loop_
 _symmetry_equiv_pos_site_id
 _symmetry_equiv_pos_as_xyz
  1  'x, y, z'
loop_
 _atom_site_type_symbol
 _atom_site_label
 _atom_site_symmetry_multiplicity
 _atom_site_fract_x
 _atom_site_fract_y
 _atom_site_fract_z
 _atom_site_occupancy
  V  V0  1  0.87500000  0.37500000  0.37500000  1
  Si  Si1  1  0.37500000  0.37500000  0.87500000  1
  P  P2  1  0.37500000  0.87500000  0.37500000  1
  P  P3  1  0.37500000  0.37500000  0.37500000  1
  S  S4  1  0.00000000  0.00000000  0.00000000  1
  S  S5  1  0.75000000  0.75000000  0.75000000  1
  S  S6  1  0.08814200  0.63728600  0.63728600  1
  S  S7  1  0.11271500  0.11271400  0.66185700  1
  S  S8  1  0.11271500  0.66185700  0.11271400  1
  S  S9  1  0.11271500  0.11271400  0.11271400  1
  S  S10  1  0.63728500  0.08814300  0.63728600  1
  S  S11  1  0.63728500  0.63728600  0.63728600  1
  S  S12  1  0.66185800  0.11271400  0.11271400  1
  S  S13  1  0.63728500  0.63728600  0.08814300  1
