# generated using pymatgen
data_Cs5AlBMoO8
_symmetry_space_group_name_H-M   'P 1'
_cell_length_a   6.49269724
_cell_length_b   6.51227283
_cell_length_c   6.92327499
_cell_angle_alpha   103.62409210
_cell_angle_beta   106.61177826
_cell_angle_gamma   104.05179596
_symmetry_Int_Tables_number   1
_chemical_formula_structural   Cs5AlBMoO8
_chemical_formula_sum   'Cs5 Al1 B1 Mo1 O8'
_cell_volume   257.05978783
_cell_formula_units_Z   1
loop_
 _symmetry_equiv_pos_site_id
 _symmetry_equiv_pos_as_xyz
  1  'x, y, z'
loop_
 _atom_site_type_symbol
 _atom_site_label
 _atom_site_symmetry_multiplicity
 _atom_site_fract_x
 _atom_site_fract_y
 _atom_site_fract_z
 _atom_site_occupancy
  Cs  Cs0  1  0.65236893  0.73219097  0.26871095  1
  Cs  Cs1  1  0.65246898  0.23224299  0.26875497  1
  Cs  Cs2  1  0.34754398  0.26776099  0.73124598  1
  Cs  Cs3  1  0.34763493  0.76781196  0.73128696  1
  Cs  Cs4  1  0.89233992  0.92236096  0.79308893  1
  Al  Al5  1  0.10765895  0.57763797  0.20690998  1
  B  B6  1  0.89247596  0.42240698  0.79311695  1
  Mo  Mo7  1  0.10752299  0.07759300  0.20688399  1
  O  O8  1  0.20617100  0.04365700  0.97186999  1
  O  O9  1  0.20609295  0.54364297  0.97188298  1
  O  O10  1  0.79390691  0.95635595  0.02811593  1
  O  O11  1  0.79382896  0.45634298  0.02812995  1
  O  O12  1  0.18136292  0.88130396  0.34992896  1
  O  O13  1  0.18138097  0.38141098  0.34992298  1
  O  O14  1  0.81860699  0.11858499  0.65007796  1
  O  O15  1  0.81863494  0.61869497  0.65007095  1
