# generated using pymatgen
data_Rb2Na2AlBrO9
_symmetry_space_group_name_H-M   'P 1'
_cell_length_a   4.64859676
_cell_length_b   6.15621996
_cell_length_c   7.97397661
_cell_angle_alpha   105.07463074
_cell_angle_beta   97.14285278
_cell_angle_gamma   105.93519592
_symmetry_Int_Tables_number   1
_chemical_formula_structural   Rb2Na2AlBrO9
_chemical_formula_sum   'Rb2 Na2 Al1 Br1 O9'
_cell_volume   207.11534334
_cell_formula_units_Z   1
loop_
 _symmetry_equiv_pos_site_id
 _symmetry_equiv_pos_as_xyz
  1  'x, y, z'
loop_
 _atom_site_type_symbol
 _atom_site_label
 _atom_site_symmetry_multiplicity
 _atom_site_fract_x
 _atom_site_fract_y
 _atom_site_fract_z
 _atom_site_occupancy
  Na  Na0  1  0.84922899  0.11582500  0.33813197  1
  Na  Na1  1  0.24930094  0.82949698  0.92701196  1
  Rb  Rb2  1  0.55536697  0.48029999  0.15403697  1
  Rb  Rb3  1  0.91625998  0.24390399  0.87926395  1
  Al  Al4  1  0.19615995  0.71427298  0.43986197  1
  Br  Br5  1  0.21349797  0.45582699  0.97177697  1
  O  O6  1  0.66917298  0.23452499  0.99491396  1
  O  O7  1  0.44513395  0.72076098  0.32394096  1
  O  O8  1  0.29692595  0.66927598  0.61342697  1
  O  O9  1  0.89197996  0.50848999  0.33664595  1
  O  O10  1  0.94589400  0.00512900  0.80969596  1
  O  O11  1  0.16475893  0.96281897  0.48160697  1
  O  O12  1  0.31919698  0.22810799  0.21656698  1
  O  O13  1  0.78627795  0.73275198  0.09093396  1
  O  O14  1  0.79004298  0.32611499  0.72078296  1
