# generated using pymatgen
data_K3Ba5CaTe7
_symmetry_space_group_name_H-M   'P 1'
_cell_length_a   5.70624208
_cell_length_b   5.70624256
_cell_length_c   18.90472412
_cell_angle_alpha   90.00000000
_cell_angle_beta   90.00000000
_cell_angle_gamma   120.00000000
_symmetry_Int_Tables_number   1
_chemical_formula_structural   K3Ba5CaTe7
_chemical_formula_sum   'K3 Ba5 Ca1 Te7'
_cell_volume   533.09105691
_cell_formula_units_Z   1
loop_
 _symmetry_equiv_pos_site_id
 _symmetry_equiv_pos_as_xyz
  1  'x, y, z'
loop_
 _atom_site_type_symbol
 _atom_site_label
 _atom_site_symmetry_multiplicity
 _atom_site_fract_x
 _atom_site_fract_y
 _atom_site_fract_z
 _atom_site_occupancy
  K  K0  1  0.00000000  0.00000000  0.14395900  1
  Ba  Ba1  1  0.00000000  0.00000000  0.35604100  1
  Ba  Ba2  1  0.66666667  0.33333333  0.25000000  1
  Ba  Ba3  1  0.00000000  0.00000000  0.64395900  1
  K  K4  1  0.66666667  0.33333333  0.45201300  1
  Ba  Ba5  1  0.33333336  0.66666666  0.75000000  1
  Ba  Ba6  1  0.33333336  0.66666666  0.54798700  1
  K  K7  1  0.33333336  0.66666666  0.95201299  1
  Te  Te8  1  0.66666667  0.33333333  0.04798700  1
  Ca  Ca9  1  0.00000000  0.00000000  0.85604099  1
  Te  Te10  1  0.66666667  0.33333333  0.87760399  1
  Te  Te11  1  0.33333336  0.66666666  0.37760400  1
  Te  Te12  1  0.33333336  0.66666666  0.12239600  1
  Te  Te13  1  0.66666667  0.33333333  0.62239600  1
  Te  Te14  1  0.33333336  0.66666666  0.25000000  1
  Te  Te15  1  0.66666667  0.33333333  0.75000000  1
