# generated using pymatgen
data_GdLuTl2BrO3
_symmetry_space_group_name_H-M   'P 1'
_cell_length_a   3.47276211
_cell_length_b   3.47276115
_cell_length_c   13.47895145
_cell_angle_alpha   90.00000000
_cell_angle_beta   90.00000000
_cell_angle_gamma   120.00000763
_symmetry_Int_Tables_number   1
_chemical_formula_structural   GdLuTl2BrO3
_chemical_formula_sum   'Gd1 Lu1 Tl2 Br1 O3'
_cell_volume   140.77860472
_cell_formula_units_Z   1
loop_
 _symmetry_equiv_pos_site_id
 _symmetry_equiv_pos_as_xyz
  1  'x, y, z'
loop_
 _atom_site_type_symbol
 _atom_site_label
 _atom_site_symmetry_multiplicity
 _atom_site_fract_x
 _atom_site_fract_y
 _atom_site_fract_z
 _atom_site_occupancy
  Tl  Tl0  1  0.33333330  0.66666663  0.24999999  1
  Tl  Tl1  1  0.66666664  0.33333332  0.74999997  1
  Lu  Lu2  1  0.00000000  0.00000000  0.00000000  1
  Gd  Gd3  1  0.00000000  0.00000000  0.49999998  1
  O  O4  1  0.33333330  0.66666663  0.91745197  1
  Br  Br5  1  0.33333330  0.66666663  0.58254798  1
  O  O6  1  0.66666664  0.33333332  0.41745199  1
  O  O7  1  0.66666664  0.33333332  0.08254800  1
