# generated using pymatgen
data_Mn3Cd4CuS6
_symmetry_space_group_name_H-M   'P 1'
_cell_length_a   3.65827394
_cell_length_b   6.31597281
_cell_length_c   11.92853642
_cell_angle_alpha   90.00000000
_cell_angle_beta   90.00000000
_cell_angle_gamma   106.83430481
_symmetry_Int_Tables_number   1
_chemical_formula_structural   Mn3Cd4CuS6
_chemical_formula_sum   'Mn3 Cd4 Cu1 S6'
_cell_volume   263.80434700
_cell_formula_units_Z   1
loop_
 _symmetry_equiv_pos_site_id
 _symmetry_equiv_pos_as_xyz
  1  'x, y, z'
loop_
 _atom_site_type_symbol
 _atom_site_label
 _atom_site_symmetry_multiplicity
 _atom_site_fract_x
 _atom_site_fract_y
 _atom_site_fract_z
 _atom_site_occupancy
  Cd  Cd0  1  0.11008499  0.22017001  0.74999997  1
  Mn  Mn1  1  0.88991499  0.77983002  0.24999999  1
  Mn  Mn2  1  0.36620298  0.73240602  0.57252898  1
  Mn  Mn3  1  0.36620298  0.73240602  0.92747097  1
  Cd  Cd4  1  0.63379700  0.26759401  0.42747099  1
  Cd  Cd5  1  0.63379700  0.26759401  0.07252900  1
  Cu  Cu6  1  0.00000000  0.00000000  0.00000000  1
  Cd  Cd7  1  0.00000000  0.00000000  0.49999998  1
  S  S8  1  0.45406498  0.90813003  0.74999997  1
  S  S9  1  0.26288499  0.52577001  0.39595499  1
  S  S10  1  0.26288499  0.52577001  0.10404500  1
  S  S11  1  0.54593501  0.09187000  0.24999999  1
  S  S12  1  0.73711500  0.47423001  0.60404498  1
  S  S13  1  0.73711500  0.47423001  0.89595497  1
