# generated using pymatgen
data_Si3P4N13
_symmetry_space_group_name_H-M   'P 1'
_cell_length_a   4.98788595
_cell_length_b   7.06614494
_cell_length_c   8.40338039
_cell_angle_alpha   90.00000000
_cell_angle_beta   90.00000000
_cell_angle_gamma   106.14234161
_symmetry_Int_Tables_number   1
_chemical_formula_structural   Si3P4N13
_chemical_formula_sum   'Si3 P4 N13'
_cell_volume   284.50105879
_cell_formula_units_Z   1
loop_
 _symmetry_equiv_pos_site_id
 _symmetry_equiv_pos_as_xyz
  1  'x, y, z'
loop_
 _atom_site_type_symbol
 _atom_site_label
 _atom_site_symmetry_multiplicity
 _atom_site_fract_x
 _atom_site_fract_y
 _atom_site_fract_z
 _atom_site_occupancy
  P  P0  1  0.21229602  0.72591802  0.94763796  1
  Si  Si1  1  0.78770402  0.27408201  0.44763798  1
  Si  Si2  1  0.38609702  0.51009901  0.63284797  1
  Si  Si3  1  0.75404703  0.89392303  0.71505597  1
  P  P4  1  0.61390302  0.48990101  0.13284799  1
  P  P5  1  0.24595301  0.10607700  0.21505599  1
  N  N6  1  0.55963603  0.91320703  0.85392196  1
  P  P7  1  0.99661003  0.82059502  0.77529096  1
  N  N8  1  0.00339000  0.17940501  0.27529099  1
  N  N9  1  0.85566501  0.07837700  0.61608097  1
  N  N10  1  0.85117202  0.53012102  0.01114500  1
  N  N11  1  0.71618502  0.49044801  0.30389599  1
  N  N12  1  0.56962502  0.36875001  0.61562997  1
  N  N13  1  0.44036401  0.08679300  0.35392198  1
  N  N14  1  0.14882801  0.46987901  0.51114498  1
  N  N15  1  0.57475103  0.72965502  0.59244697  1
  N  N16  1  0.42524901  0.27034501  0.09244700  1
  N  N17  1  0.43037502  0.63125002  0.11562999  1
  N  N18  1  0.28381502  0.50955201  0.80389596  1
  N  N19  1  0.14433503  0.92162303  0.11608099  1
