# generated using pymatgen
data_BaLa4Nd2Bi4AsS3
_symmetry_space_group_name_H-M   'P 1'
_cell_length_a   5.04937696
_cell_length_b   5.04937696
_cell_length_c   20.76512337
_cell_angle_alpha   83.01652527
_cell_angle_beta   83.01652527
_cell_angle_gamma   59.99998856
_symmetry_Int_Tables_number   1
_chemical_formula_structural   BaLa4Nd2Bi4AsS3
_chemical_formula_sum   'Ba1 La4 Nd2 Bi4 As1 S3'
_cell_volume   453.96042074
_cell_formula_units_Z   1
loop_
 _symmetry_equiv_pos_site_id
 _symmetry_equiv_pos_as_xyz
  1  'x, y, z'
loop_
 _atom_site_type_symbol
 _atom_site_label
 _atom_site_symmetry_multiplicity
 _atom_site_fract_x
 _atom_site_fract_y
 _atom_site_fract_z
 _atom_site_occupancy
  Ba  Ba0  1  0.00000000  0.00000000  0.00000000  1
  La  La1  1  0.59849702  0.59849699  0.20450901  1
  La  La2  1  0.19995001  0.19995000  0.40015000  1
  La  La3  1  0.80005003  0.80004999  0.59985000  1
  La  La4  1  0.40150301  0.40150300  0.79549099  1
  Nd  Nd5  1  0.05221600  0.05221600  0.84335199  1
  Bi  Bi6  1  0.85003503  0.85003499  0.44989501  1
  Bi  Bi7  1  0.45047801  0.45047800  0.64856600  1
  Nd  Nd8  1  0.64789802  0.64789799  0.05630601  1
  Bi  Bi9  1  0.24934201  0.24934200  0.25197400  1
  As  As10  1  0.35210201  0.35210200  0.94369399  1
  S  S11  1  0.14996500  0.14996500  0.55010499  1
  S  S12  1  0.75065802  0.75065799  0.74802600  1
  Bi  Bi13  1  0.94778403  0.94778399  0.15664801  1
  S  S14  1  0.54952202  0.54952199  0.35143400  1
