# generated using pymatgen
data_Cs2Rb3BaCuI11
_symmetry_space_group_name_H-M   'P 1'
_cell_length_a   7.93205118
_cell_length_b   7.93205118
_cell_length_c   11.24690533
_cell_angle_alpha   90.00000000
_cell_angle_beta   90.00000000
_cell_angle_gamma   90.00000000
_symmetry_Int_Tables_number   1
_chemical_formula_structural   Cs2Rb3BaCuI11
_chemical_formula_sum   'Cs2 Rb3 Ba1 Cu1 I11'
_cell_volume   707.62644554
_cell_formula_units_Z   1
loop_
 _symmetry_equiv_pos_site_id
 _symmetry_equiv_pos_as_xyz
  1  'x, y, z'
loop_
 _atom_site_type_symbol
 _atom_site_label
 _atom_site_symmetry_multiplicity
 _atom_site_fract_x
 _atom_site_fract_y
 _atom_site_fract_z
 _atom_site_occupancy
  Ba  Ba0  1  0.49999999  0.00000000  0.74999998  1
  Rb  Rb1  1  0.49999999  0.00000000  0.24999999  1
  Rb  Rb2  1  0.00000000  0.49999999  0.24999999  1
  Rb  Rb3  1  0.00000000  0.49999999  0.74999998  1
  Cs  Cs4  1  0.00000000  0.00000000  0.00000000  1
  Cu  Cu5  1  0.49999999  0.49999999  0.49999999  1
  Cs  Cs6  1  0.78567698  0.27846899  -0.00000000  1
  I  I7  1  0.21432300  0.72153098  -0.00000000  1
  I  I8  1  0.49999999  0.49999999  0.25340899  1
  I  I9  1  0.28567699  0.22153099  0.49999999  1
  I  I10  1  0.27846899  0.21432300  -0.00000000  1
  I  I11  1  0.77846898  0.28567699  0.49999999  1
  I  I12  1  0.00000000  0.00000000  0.24659099  1
  I  I13  1  0.71432298  0.77846898  0.49999999  1
  I  I14  1  0.22153099  0.71432298  0.49999999  1
  I  I15  1  0.49999999  0.49999999  0.74659098  1
  I  I16  1  0.72153098  0.78567698  0.00000000  1
  I  I17  1  0.00000000  0.00000000  0.75340898  1
