# generated using pymatgen
data_BaTlCdAgS4
_symmetry_space_group_name_H-M   'P 1'
_cell_length_a   3.56759405
_cell_length_b   3.56759405
_cell_length_c   13.75331497
_cell_angle_alpha   90.00000000
_cell_angle_beta   90.00000000
_cell_angle_gamma   120.00000000
_symmetry_Int_Tables_number   1
_chemical_formula_structural   BaTlCdAgS4
_chemical_formula_sum   'Ba1 Tl1 Cd1 Ag1 S4'
_cell_volume   151.59639822
_cell_formula_units_Z   1
loop_
 _symmetry_equiv_pos_site_id
 _symmetry_equiv_pos_as_xyz
  1  'x, y, z'
loop_
 _atom_site_type_symbol
 _atom_site_label
 _atom_site_symmetry_multiplicity
 _atom_site_fract_x
 _atom_site_fract_y
 _atom_site_fract_z
 _atom_site_occupancy
  Ba  Ba0  1  0.66666666  0.33333332  0.75000000  1
  Tl  Tl1  1  0.33333332  0.66666665  0.25000000  1
  Cd  Cd2  1  0.00000000  0.00000000  0.00000000  1
  Ag  Ag3  1  0.00000000  0.00000000  0.50000000  1
  S  S4  1  0.66666666  0.33333332  0.08294000  1
  S  S5  1  0.66666666  0.33333332  0.41706000  1
  S  S6  1  0.33333332  0.66666665  0.91706000  1
  S  S7  1  0.33333332  0.66666665  0.58294000  1
