# generated using pymatgen
data_Li7O6F
_symmetry_space_group_name_H-M   'P 1'
_cell_length_a   3.13713408
_cell_length_b   5.19421101
_cell_length_c   9.80939007
_cell_angle_alpha   94.69559479
_cell_angle_beta   90.00000000
_cell_angle_gamma   90.00000000
_symmetry_Int_Tables_number   1
_chemical_formula_structural   Li7O6F
_chemical_formula_sum   'Li7 O6 F1'
_cell_volume   159.30690175
_cell_formula_units_Z   1
loop_
 _symmetry_equiv_pos_site_id
 _symmetry_equiv_pos_as_xyz
  1  'x, y, z'
loop_
 _atom_site_type_symbol
 _atom_site_label
 _atom_site_symmetry_multiplicity
 _atom_site_fract_x
 _atom_site_fract_y
 _atom_site_fract_z
 _atom_site_occupancy
  Li  Li0  1  0.11090100  0.75734200  0.93252004  1
  Li  Li1  1  0.11090100  0.74265800  0.56748003  1
  Li  Li2  1  0.88909898  0.24265800  0.06748000  1
  Li  Li3  1  0.88909898  0.25734200  0.43252002  1
  Li  Li4  1  0.40285599  0.75000000  0.25000001  1
  Li  Li5  1  0.59714399  0.25000000  0.75000003  1
  F  F6  1  0.61661199  0.58281500  0.86912103  1
  Li  Li7  1  0.90269198  0.61210700  0.37936502  1
  O  O8  1  0.61661199  0.91718500  0.63087903  1
  O  O9  1  0.09730800  0.11210700  0.87936503  1
  O  O10  1  0.90269198  0.88789300  0.12063501  1
  O  O11  1  0.38338799  0.08281500  0.36912101  1
  O  O12  1  0.09730800  0.38789300  0.62063502  1
  O  O13  1  0.38338799  0.41718500  0.13087901  1
