# generated using pymatgen
data_Ba4CaLuZrS7
_symmetry_space_group_name_H-M   'P 1'
_cell_length_a   7.23608303
_cell_length_b   7.23635578
_cell_length_c   8.84202862
_cell_angle_alpha   114.15473175
_cell_angle_beta   90.00000000
_cell_angle_gamma   90.00000000
_symmetry_Int_Tables_number   1
_chemical_formula_structural   Ba4CaLuZrS7
_chemical_formula_sum   'Ba4 Ca1 Lu1 Zr1 S7'
_cell_volume   422.45596581
_cell_formula_units_Z   1
loop_
 _symmetry_equiv_pos_site_id
 _symmetry_equiv_pos_as_xyz
  1  'x, y, z'
loop_
 _atom_site_type_symbol
 _atom_site_label
 _atom_site_symmetry_multiplicity
 _atom_site_fract_x
 _atom_site_fract_y
 _atom_site_fract_z
 _atom_site_occupancy
  Ba  Ba0  1  0.50000000  0.13948000  0.27895999  1
  Ba  Ba1  1  0.00000000  0.36052001  0.72103997  1
  Ba  Ba2  1  0.00000000  0.63948002  0.27895998  1
  Ba  Ba3  1  0.50000000  0.86052002  0.72103997  1
  Ca  Ca4  1  0.00000000  0.00000000  0.00000000  1
  Zr  Zr5  1  0.50000000  0.50000001  0.99999996  1
  S  S6  1  0.50000000  0.34847201  0.69694397  1
  Lu  Lu7  1  0.26152800  0.73846602  -0.00000001  1
  S  S8  1  0.00000000  0.15152800  0.30305599  1
  S  S9  1  1.00000000  0.84847202  0.69694397  1
  S  S10  1  0.23847200  0.23846601  0.99999996  1
  S  S11  1  0.73847200  0.26153401  -0.00000000  1
  S  S12  1  0.50000000  0.65152802  0.30305598  1
  S  S13  1  0.76152800  0.76153402  0.99999996  1
