# generated using pymatgen
data_Si(PO2)2
_symmetry_space_group_name_H-M   'P 1'
_cell_length_a   4.56149387
_cell_length_b   4.75614452
_cell_length_c   4.56149387
_cell_angle_alpha   118.65516663
_cell_angle_beta   90.00000000
_cell_angle_gamma   118.65516663
_symmetry_Int_Tables_number   1
_chemical_formula_structural   Si(PO2)2
_chemical_formula_sum   'Si1 P2 O4'
_cell_volume   72.72801230
_cell_formula_units_Z   1
loop_
 _symmetry_equiv_pos_site_id
 _symmetry_equiv_pos_as_xyz
  1  'x, y, z'
loop_
 _atom_site_type_symbol
 _atom_site_label
 _atom_site_symmetry_multiplicity
 _atom_site_fract_x
 _atom_site_fract_y
 _atom_site_fract_z
 _atom_site_occupancy
  Si  Si0  1  0.50000001  0.00000000  0.50000001  1
  P  P1  1  0.00000000  0.00000000  0.00000000  1
  P  P2  1  0.75000007  0.50000004  0.25000005  1
  O  O3  1  0.69933609  0.73480406  0.15442107  1
  O  O4  1  0.03546807  0.73480406  0.58038309  1
  O  O5  1  0.84557905  0.26519602  0.96453205  1
  O  O6  1  0.41961704  0.26519602  0.30066403  1
