# generated using pymatgen
data_Li4ScNbBiO11
_symmetry_space_group_name_H-M   'P 1'
_cell_length_a   4.77263069
_cell_length_b   4.77263069
_cell_length_c   9.21770000
_cell_angle_alpha   90.27393341
_cell_angle_beta   90.27397919
_cell_angle_gamma   89.76113892
_symmetry_Int_Tables_number   1
_chemical_formula_structural   Li4ScNbBiO11
_chemical_formula_sum   'Li4 Sc1 Nb1 Bi1 O11'
_cell_volume   209.95420023
_cell_formula_units_Z   1
loop_
 _symmetry_equiv_pos_site_id
 _symmetry_equiv_pos_as_xyz
  1  'x, y, z'
loop_
 _atom_site_type_symbol
 _atom_site_label
 _atom_site_symmetry_multiplicity
 _atom_site_fract_x
 _atom_site_fract_y
 _atom_site_fract_z
 _atom_site_occupancy
  Li  Li0  1  0.00844200  0.00844200  0.32620001  1
  Li  Li1  1  0.99155806  0.99155802  0.67380002  1
  Li  Li2  1  0.48561203  0.48561301  0.16867501  1
  Li  Li3  1  0.51438703  0.51438701  0.83132502  1
  Sc  Sc4  1  0.50000403  0.50000501  0.50000001  1
  Nb  Nb5  1  0.00000304  0.99999902  0.99999801  1
  O  O6  1  0.19877101  0.19877100  0.16919200  1
  Bi  Bi7  1  0.80122805  0.80122802  0.83080802  1
  O  O8  1  0.19485801  0.19485800  0.49785801  1
  O  O9  1  0.80514105  0.80514102  0.50214201  1
  O  O10  1  0.19614301  0.19614300  0.82919602  1
  O  O11  1  0.80385605  0.80385602  0.17080401  1
  O  O12  1  0.69215103  0.30784801  1.00000003  1
  O  O13  1  0.30784703  0.69215201  -0.00000000  1
  O  O14  1  0.69922903  0.30727801  0.33250401  1
  O  O15  1  0.69272103  0.30077001  0.66749602  1
  O  O16  1  0.30727803  0.69922901  0.33250400  1
  O  O17  1  0.30077003  0.69272101  0.66749601  1
