# generated using pymatgen
data_Sr2CaIn(SCl3)2
_symmetry_space_group_name_H-M   'P 1'
_cell_length_a   4.11046124
_cell_length_b   6.79956293
_cell_length_c   8.04557705
_cell_angle_alpha   90.00000000
_cell_angle_beta   90.00000000
_cell_angle_gamma   90.00000000
_symmetry_Int_Tables_number   1
_chemical_formula_structural   Sr2CaIn(SCl3)2
_chemical_formula_sum   'Sr2 Ca1 In1 S2 Cl6'
_cell_volume   224.86856719
_cell_formula_units_Z   1
loop_
 _symmetry_equiv_pos_site_id
 _symmetry_equiv_pos_as_xyz
  1  'x, y, z'
loop_
 _atom_site_type_symbol
 _atom_site_label
 _atom_site_symmetry_multiplicity
 _atom_site_fract_x
 _atom_site_fract_y
 _atom_site_fract_z
 _atom_site_occupancy
  Sr  Sr0  1  0.74999996  0.74949801  0.38615700  1
  Sr  Sr1  1  0.24999999  0.75050201  0.88615699  1
  In  In2  1  0.24999999  0.25050200  0.61384300  1
  Ca  Ca3  1  0.74999996  0.24949800  0.11384300  1
  Cl  Cl4  1  0.24999999  0.52755701  0.16732900  1
  S  S5  1  0.24999999  0.14272800  0.92938899  1
  S  S6  1  0.74999996  0.47244300  0.83267099  1
  Cl  Cl7  1  0.74999996  0.85727201  0.07061100  1
  Cl  Cl8  1  0.74999996  0.97244301  0.66732900  1
  Cl  Cl9  1  0.74999996  0.35727200  0.42938900  1
  Cl  Cl10  1  0.24999999  0.64272801  0.57061100  1
  Cl  Cl11  1  0.24999999  0.02755700  0.33267100  1
