# generated using pymatgen
data_Li2Mn2CrCo2GeO11
_symmetry_space_group_name_H-M   'P 1'
_cell_length_a   5.20824003
_cell_length_b   5.50854301
_cell_length_c   7.64053822
_cell_angle_alpha   94.67705536
_cell_angle_beta   89.77204895
_cell_angle_gamma   89.99100494
_symmetry_Int_Tables_number   1
_chemical_formula_structural   Li2Mn2CrCo2GeO11
_chemical_formula_sum   'Li2 Mn2 Cr1 Co2 Ge1 O11'
_cell_volume   218.47393918
_cell_formula_units_Z   1
loop_
 _symmetry_equiv_pos_site_id
 _symmetry_equiv_pos_as_xyz
  1  'x, y, z'
loop_
 _atom_site_type_symbol
 _atom_site_label
 _atom_site_symmetry_multiplicity
 _atom_site_fract_x
 _atom_site_fract_y
 _atom_site_fract_z
 _atom_site_occupancy
  Li  Li0  1  0.49829504  0.99249501  0.75065997  1
  Li  Li1  1  0.00040902  0.49144800  0.25458298  1
  Mn  Mn2  1  0.99798301  0.50045200  0.74850700  1
  Mn  Mn3  1  0.50867501  0.41751800  0.03296299  1
  Co  Co4  1  0.49646701  0.43271100  0.52518199  1
  Co  Co5  1  0.99924303  0.93494901  0.53431098  1
  Ge  Ge6  1  0.00113704  0.91828501  0.04108296  1
  Cr  Cr7  1  0.81719600  0.21443200  0.11288701  1
  O  O8  1  0.68418200  0.09315000  0.50924701  1
  O  O9  1  0.61857001  0.39521800  0.79876999  1
  O  O10  1  0.30655303  0.71527300  0.61619097  1
  O  O11  1  0.82340002  0.58642000  0.49393999  1
  O  O12  1  0.87026603  0.89060301  0.80395198  1
  O  O13  1  0.18440002  0.60530800  0.98824497  1
  O  O14  1  0.71450802  0.70566000  0.10898799  1
  O  O15  1  0.10848904  0.89861401  0.28753997  1
  O  O16  1  0.30527600  0.09416900  0.97937800  1
  O  O17  1  0.37146201  0.40996500  0.29348899  1
  O  O18  1  0.19349101  0.21653300  0.61347999  1
