# generated using pymatgen
data_Al2Si2P3
_symmetry_space_group_name_H-M   'P 1'
_cell_length_a   5.99513292
_cell_length_b   5.99513292
_cell_length_c   5.99513292
_cell_angle_alpha   60.00000000
_cell_angle_beta   60.00000000
_cell_angle_gamma   60.00000000
_symmetry_Int_Tables_number   1
_chemical_formula_structural   Al2Si2P3
_chemical_formula_sum   'Al4 Si4 P6'
_cell_volume   152.36367951
_cell_formula_units_Z   2
loop_
 _symmetry_equiv_pos_site_id
 _symmetry_equiv_pos_as_xyz
  1  'x, y, z'
loop_
 _atom_site_type_symbol
 _atom_site_label
 _atom_site_symmetry_multiplicity
 _atom_site_fract_x
 _atom_site_fract_y
 _atom_site_fract_z
 _atom_site_occupancy
  Al  Al0  1  0.74999997  0.74999997  0.74999997  1
  Al  Al1  1  0.00000000  0.00000000  0.00000000  1
  Al  Al2  1  0.87499997  0.37499999  0.37499999  1
  Si  Si3  1  0.37499999  0.37499999  0.87499997  1
  Si  Si4  1  0.37499999  0.87499997  0.37499999  1
  Si  Si5  1  0.37499999  0.37499999  0.37499999  1
  Si  Si6  1  0.60377798  0.60377898  0.60377898  1
  P  P7  1  0.14622200  0.56133598  0.14622100  1
  P  P8  1  0.56133698  0.14622100  0.14622100  1
  P  P9  1  0.14622200  0.14622100  0.56133598  1
  Al  Al10  1  0.18866299  0.60377898  0.60377898  1
  P  P11  1  0.60377798  0.60377898  0.18866399  1
  P  P12  1  0.14622200  0.14622100  0.14622100  1
  P  P13  1  0.60377798  0.18866399  0.60377898  1
