# generated using pymatgen
data_SrLi3BiSb3S2
_symmetry_space_group_name_H-M   'P 1'
_cell_length_a   7.31291914
_cell_length_b   7.31432056
_cell_length_c   7.31655073
_cell_angle_alpha   102.79875183
_cell_angle_beta   104.51049805
_cell_angle_gamma   102.19028473
_symmetry_Int_Tables_number   1
_chemical_formula_structural   SrLi3BiSb3S2
_chemical_formula_sum   'Sr1 Li3 Bi1 Sb3 S2'
_cell_volume   354.41265793
_cell_formula_units_Z   1
loop_
 _symmetry_equiv_pos_site_id
 _symmetry_equiv_pos_as_xyz
  1  'x, y, z'
loop_
 _atom_site_type_symbol
 _atom_site_label
 _atom_site_symmetry_multiplicity
 _atom_site_fract_x
 _atom_site_fract_y
 _atom_site_fract_z
 _atom_site_occupancy
  Sr  Sr0  1  0.50000000  0.00000000  0.00000002  1
  Li  Li1  1  -0.00000001  0.49999999  0.00000002  1
  Li  Li2  1  -0.00000000  0.00000000  0.50000002  1
  Li  Li3  1  0.00000000  0.00000000  0.00000000  1
  Sb  Sb4  1  0.22593699  0.92863299  0.22997206  1
  Bi  Bi5  1  0.77406301  0.07136700  0.77002905  1
  S  S6  1  0.22487900  0.21722400  0.92796305  1
  S  S7  1  0.77512100  0.78277599  0.07203707  1
  Sb  Sb8  1  0.93513301  0.22804300  0.22322605  1
  Sb  Sb9  1  0.06486699  0.77195699  0.77677407  1
