# generated using pymatgen
data_Sr3La2Bi(SbO6)2
_symmetry_space_group_name_H-M   'P 1'
_cell_length_a   5.64323902
_cell_length_b   5.69236803
_cell_length_c   7.64812660
_cell_angle_alpha   90.00000000
_cell_angle_beta   89.38691711
_cell_angle_gamma   90.00000000
_symmetry_Int_Tables_number   1
_chemical_formula_structural   Sr3La2Bi(SbO6)2
_chemical_formula_sum   'Sr3 La2 Bi1 Sb2 O12'
_cell_volume   245.66971470
_cell_formula_units_Z   1
loop_
 _symmetry_equiv_pos_site_id
 _symmetry_equiv_pos_as_xyz
  1  'x, y, z'
loop_
 _atom_site_type_symbol
 _atom_site_label
 _atom_site_symmetry_multiplicity
 _atom_site_fract_x
 _atom_site_fract_y
 _atom_site_fract_z
 _atom_site_occupancy
  La  La0  1  0.74590700  0.03341400  0.49986403  1
  Sr  Sr1  1  0.25409300  0.53341400  0.50013602  1
  Sr  Sr2  1  0.75503700  0.95515599  0.00063701  1
  Sr  Sr3  1  0.24496300  0.45515600  0.99936304  1
  Bi  Bi4  1  0.25159200  0.99842599  0.24643001  1
  La  La5  1  0.74840800  0.49842600  0.75357004  1
  Sb  Sb6  1  0.25116100  0.99904199  0.75557003  1
  Sb  Sb7  1  0.74883900  0.49904200  0.24443002  1
  O  O8  1  0.66207100  0.52892200  0.99467204  1
  O  O9  1  0.33792900  0.02892200  0.00532801  1
  O  O10  1  0.81809000  0.48810900  0.50273503  1
  O  O11  1  0.18191000  0.98810899  0.49726502  1
  O  O12  1  0.95260400  0.21955200  0.20343502  1
  O  O13  1  0.04739600  0.71955200  0.79656503  1
  O  O14  1  0.52722500  0.79497800  0.72070603  1
  O  O15  1  0.47277500  0.29497800  0.27929402  1
  O  O16  1  0.54776700  0.78056100  0.28027502  1
  O  O17  1  0.45223300  0.28056100  0.71972503  1
  O  O18  1  0.96900100  0.20183800  0.79597404  1
  O  O19  1  0.03099900  0.70183800  0.20402601  1
