# generated using pymatgen
data_LiMnO2
_symmetry_space_group_name_H-M   'P 1'
_cell_length_a   5.57439804
_cell_length_b   5.72596502
_cell_length_c   5.95107508
_cell_angle_alpha   118.09352875
_cell_angle_beta   117.93041992
_cell_angle_gamma   89.99880219
_symmetry_Int_Tables_number   1
_chemical_formula_structural   LiMnO2
_chemical_formula_sum   'Li4 Mn4 O8'
_cell_volume   142.00086890
_cell_formula_units_Z   4
loop_
 _symmetry_equiv_pos_site_id
 _symmetry_equiv_pos_as_xyz
  1  'x, y, z'
loop_
 _atom_site_type_symbol
 _atom_site_label
 _atom_site_symmetry_multiplicity
 _atom_site_fract_x
 _atom_site_fract_y
 _atom_site_fract_z
 _atom_site_occupancy
  Li  Li0  1  0.49997996  0.49999098  0.99999502  1
  Li  Li1  1  0.99998294  0.49998798  0.99998801  1
  Li  Li2  1  0.99994191  0.99995397  0.49991100  1
  Li  Li3  1  0.50001499  0.00002600  0.50006701  1
  Mn  Mn4  1  0.00011200  0.00001200  0.99999903  1
  Mn  Mn5  1  0.00001697  0.50000998  0.50001502  1
  Mn  Mn6  1  0.49999696  0.49998098  0.49998401  1
  Mn  Mn7  1  0.49994999  0.00000000  -0.00000001  1
  O  O8  1  0.27393097  0.30031499  0.54784101  1
  O  O9  1  0.72605494  0.69968098  0.45215600  1
  O  O10  1  0.74694696  0.26715199  0.49387200  1
  O  O11  1  0.25304995  0.73284397  0.50612801  1
  O  O12  1  0.75148493  0.77354197  0.99293602  1
  O  O13  1  0.24149995  0.77356997  0.99295603  1
  O  O14  1  0.75850997  0.22644999  0.00703599  1
  O  O15  1  0.24852398  0.22640799  0.00707300  1
