# generated using pymatgen
data_Cs2KCuAg2I11
_symmetry_space_group_name_H-M   'P 1'
_cell_length_a   7.72362709
_cell_length_b   9.73114204
_cell_length_c   9.76245308
_cell_angle_alpha   107.42361450
_cell_angle_beta   97.01771545
_cell_angle_gamma   104.89315796
_symmetry_Int_Tables_number   1
_chemical_formula_structural   Cs2KCuAg2I11
_chemical_formula_sum   'Cs2 K1 Cu1 Ag2 I11'
_cell_volume   660.59258987
_cell_formula_units_Z   1
loop_
 _symmetry_equiv_pos_site_id
 _symmetry_equiv_pos_as_xyz
  1  'x, y, z'
loop_
 _atom_site_type_symbol
 _atom_site_label
 _atom_site_symmetry_multiplicity
 _atom_site_fract_x
 _atom_site_fract_y
 _atom_site_fract_z
 _atom_site_occupancy
  Cu  Cu0  1  0.88556994  0.96069202  0.24356394  1
  Cs  Cs1  1  0.11443000  0.03930800  0.75643600  1
  Cs  Cs2  1  0.35187199  0.12764000  0.16703299  1
  K  K3  1  0.64812795  0.87236002  0.83296695  1
  Ag  Ag4  1  0.97271697  0.28883601  0.08757696  1
  Ag  Ag5  1  0.02728297  0.71116401  0.91242298  1
  I  I6  1  0.00000000  0.00000000  0.00000000  1
  I  I7  1  0.35881797  0.45627101  0.27406497  1
  I  I8  1  0.64118196  0.54372901  0.72593497  1
  I  I9  1  0.91375696  0.62755201  0.18041495  1
  I  I10  1  0.08624298  0.37244801  0.81958499  1
  I  I11  1  0.45278995  0.81682702  0.09241995  1
  I  I12  1  0.54720998  0.18317300  0.90757999  1
  I  I13  1  0.26233399  0.08870300  0.46476499  1
  I  I14  1  0.73766594  0.91129702  0.53523495  1
  I  I15  1  0.78357898  0.26181801  0.35058997  1
  I  I16  1  0.21642096  0.73818202  0.64940997  1
