# generated using pymatgen
data_Tb2YScZnSbAs2
_symmetry_space_group_name_H-M   'P 1'
_cell_length_a   4.54480886
_cell_length_b   4.54480886
_cell_length_c   12.78499317
_cell_angle_alpha   90.00000000
_cell_angle_beta   90.00000000
_cell_angle_gamma   90.00000000
_symmetry_Int_Tables_number   1
_chemical_formula_structural   Tb2YScZnSbAs2
_chemical_formula_sum   'Tb2 Y1 Sc1 Zn1 Sb1 As2'
_cell_volume   264.07771113
_cell_formula_units_Z   1
loop_
 _symmetry_equiv_pos_site_id
 _symmetry_equiv_pos_as_xyz
  1  'x, y, z'
loop_
 _atom_site_type_symbol
 _atom_site_label
 _atom_site_symmetry_multiplicity
 _atom_site_fract_x
 _atom_site_fract_y
 _atom_site_fract_z
 _atom_site_occupancy
  Y  Y0  1  0.00000000  0.00000000  0.00000000  1
  Sc  Sc1  1  0.50000001  0.50000001  0.74975099  1
  Tb  Tb2  1  0.00000000  0.00000000  0.49999999  1
  Sb  Sb3  1  0.50000001  0.50000001  0.25024900  1
  Tb  Tb4  1  0.00000000  0.50000001  0.62523399  1
  Zn  Zn5  1  0.50000001  0.00000000  0.37476599  1
  As  As6  1  0.00000000  0.50000001  0.12981000  1
  As  As7  1  0.50000001  0.00000000  0.87018999  1
