# generated using pymatgen
data_AlGePAuS13
_symmetry_space_group_name_H-M   'P 1'
_cell_length_a   7.39211988
_cell_length_b   7.39211988
_cell_length_c   7.39211988
_cell_angle_alpha   60.00000000
_cell_angle_beta   60.00000000
_cell_angle_gamma   60.00000000
_symmetry_Int_Tables_number   1
_chemical_formula_structural   AlGePAuS13
_chemical_formula_sum   'Al1 Ge1 P1 Au1 S13'
_cell_volume   285.62223091
_cell_formula_units_Z   1
loop_
 _symmetry_equiv_pos_site_id
 _symmetry_equiv_pos_as_xyz
  1  'x, y, z'
loop_
 _atom_site_type_symbol
 _atom_site_label
 _atom_site_symmetry_multiplicity
 _atom_site_fract_x
 _atom_site_fract_y
 _atom_site_fract_z
 _atom_site_occupancy
  Au  Au0  1  0.00000000  0.00000000  0.00000000  1
  Al  Al1  1  0.69289199  0.69289199  0.92132398  1
  Ge  Ge2  1  0.30710799  0.07867600  0.30710799  1
  P  P3  1  0.07867600  0.30710799  0.30710799  1
  S  S4  1  0.30710799  0.30710799  0.30710799  1
  S  S5  1  0.69289199  0.69289199  0.69289199  1
  S  S6  1  0.69289199  0.92132398  0.69289199  1
  S  S7  1  0.92132398  0.69289199  0.69289199  1
  S  S8  1  0.30710799  0.30710799  0.07867600  1
  S  S9  1  0.75900499  0.75900499  0.24099500  1
  S  S10  1  0.75900499  0.24099500  0.75900499  1
  S  S11  1  0.24099500  0.75900499  0.24099500  1
  S  S12  1  0.75900499  0.24099500  0.24099500  1
  S  S13  1  0.24099500  0.75900499  0.75900499  1
  S  S14  1  0.24099500  0.24099500  0.75900499  1
  S  S15  1  0.74999999  0.74999999  0.74999999  1
  S  S16  1  0.25000000  0.25000000  0.25000000  1
