# generated using pymatgen
data_CaTlIn5GaCuAsSe10
_symmetry_space_group_name_H-M   'P 1'
_cell_length_a   3.99955010
_cell_length_b   11.12653828
_cell_length_c   11.34608364
_cell_angle_alpha   108.87779236
_cell_angle_beta   90.00000000
_cell_angle_gamma   90.00000000
_symmetry_Int_Tables_number   1
_chemical_formula_structural   CaTlIn5GaCuAsSe10
_chemical_formula_sum   'Ca1 Tl1 In5 Ga1 Cu1 As1 Se10'
_cell_volume   477.75485221
_cell_formula_units_Z   1
loop_
 _symmetry_equiv_pos_site_id
 _symmetry_equiv_pos_as_xyz
  1  'x, y, z'
loop_
 _atom_site_type_symbol
 _atom_site_label
 _atom_site_symmetry_multiplicity
 _atom_site_fract_x
 _atom_site_fract_y
 _atom_site_fract_z
 _atom_site_occupancy
  Cu  Cu0  1  0.24999999  0.45162599  0.80662298  1
  Ca  Ca1  1  0.74999998  0.54837399  0.19337700  1
  In  In2  1  0.24999999  0.81957898  0.99879898  1
  Tl  Tl3  1  0.74999998  0.18042100  0.00120100  1
  In  In4  1  0.24999999  0.06017000  0.66697198  1
  In  In5  1  0.74999998  0.93982998  0.33302800  1
  In  In6  1  0.24999999  0.33919099  0.41414699  1
  In  In7  1  0.74999998  0.66080899  0.58585299  1
  As  As8  1  0.24999999  0.02163800  0.88804097  1
  Ga  Ga9  1  0.74999998  0.97836198  0.11195901  1
  Se  Se10  1  0.24999999  0.69384699  0.74892598  1
  Se  Se11  1  0.74999998  0.30615299  0.25107400  1
  Se  Se12  1  0.24999999  0.10528600  0.44052699  1
  Se  Se13  1  0.74999998  0.89471398  0.55947299  1
  Se  Se14  1  0.24999999  0.58111999  0.40396399  1
  Se  Se15  1  0.74999998  0.41887999  0.59603599  1
  Se  Se16  1  0.24999999  0.76378498  0.22815300  1
  Se  Se17  1  0.74999998  0.23621500  0.77184698  1
  Se  Se18  1  0.24999999  0.38369299  0.03679100  1
  Se  Se19  1  0.74999998  0.61630699  0.96320898  1
