# generated using pymatgen
data_Li5Co(OF2)2
_symmetry_space_group_name_H-M   'P 1'
_cell_length_a   3.85797191
_cell_length_b   6.56729698
_cell_length_c   6.61842060
_cell_angle_alpha   105.88562775
_cell_angle_beta   90.00000000
_cell_angle_gamma   107.08116150
_symmetry_Int_Tables_number   1
_chemical_formula_structural   Li5Co(OF2)2
_chemical_formula_sum   'Li5 Co1 O2 F4'
_cell_volume   153.57841911
_cell_formula_units_Z   1
loop_
 _symmetry_equiv_pos_site_id
 _symmetry_equiv_pos_as_xyz
  1  'x, y, z'
loop_
 _atom_site_type_symbol
 _atom_site_label
 _atom_site_symmetry_multiplicity
 _atom_site_fract_x
 _atom_site_fract_y
 _atom_site_fract_z
 _atom_site_occupancy
  Li  Li0  1  0.40388404  0.80776797  0.31869996  1
  Li  Li1  1  0.60516002  0.21031999  0.71174401  1
  Li  Li2  1  0.30068203  0.60136397  0.72701098  1
  Li  Li3  1  0.69794303  0.39588598  0.29280398  1
  Li  Li4  1  0.13911201  0.27822399  0.69585400  1
  Co  Co5  1  0.24247902  0.48495798  0.35181698  1
  O  O6  1  0.36309903  0.72619797  0.98815498  1
  F  F7  1  0.43969504  0.87938996  0.61721997  1
  F  F8  1  0.55732702  0.11465400  0.37822400  1
  F  F9  1  0.62520002  0.25039999  0.98309701  1
  O  O10  1  0.75847403  0.51694798  0.64899099  1
  F  F11  1  0.86694504  0.73388997  0.28638596  1
