# generated using pymatgen
data_LaCeMgZnSbAsPSe7N2
_symmetry_space_group_name_H-M   'P 1'
_cell_length_a   6.24972820
_cell_length_b   7.62867117
_cell_length_c   7.64527273
_cell_angle_alpha   119.89191437
_cell_angle_beta   90.00000000
_cell_angle_gamma   90.00000000
_symmetry_Int_Tables_number   1
_chemical_formula_structural   LaCeMgZnSbAsPSe7N2
_chemical_formula_sum   'La1 Ce1 Mg1 Zn1 Sb1 As1 P1 Se7 N2'
_cell_volume   316.01348778
_cell_formula_units_Z   1
loop_
 _symmetry_equiv_pos_site_id
 _symmetry_equiv_pos_as_xyz
  1  'x, y, z'
loop_
 _atom_site_type_symbol
 _atom_site_label
 _atom_site_symmetry_multiplicity
 _atom_site_fract_x
 _atom_site_fract_y
 _atom_site_fract_z
 _atom_site_occupancy
  Mg  Mg0  1  0.74999998  0.66568301  0.41693404  1
  La  La1  1  0.24999999  0.91545901  0.75072505  1
  Sb  Sb2  1  0.24999999  0.33431700  0.58306602  1
  Zn  Zn3  1  0.74999998  0.08454100  0.24927500  1
  P  P4  1  0.74999998  0.25336400  0.83358701  1
  Se  Se5  1  0.24999999  0.74663601  0.16641305  1
  As  As6  1  0.74999998  0.67122201  0.83309904  1
  Se  Se7  1  0.24999999  0.32877800  0.16690102  1
  Se  Se8  1  0.74999998  0.69371801  0.01383104  1
  N  N9  1  0.74999998  0.82970701  0.81014505  1
  Se  Se10  1  0.74999998  0.49030800  0.67516403  1
  Se  Se11  1  0.24999999  0.30628200  0.98616901  1
  Se  Se12  1  0.24999999  0.17029300  0.18985501  1
  Se  Se13  1  0.24999999  0.50969200  0.32483603  1
  N  N14  1  0.00000000  0.00000000  0.50000000  1
  Ce  Ce15  1  0.49999998  0.00000000  0.50000000  1
