# generated using pymatgen
data_KNa6NpO12
_symmetry_space_group_name_H-M   'P 1'
_cell_length_a   5.44956827
_cell_length_b   5.72286797
_cell_length_c   9.19480038
_cell_angle_alpha   74.25518799
_cell_angle_beta   88.95925140
_cell_angle_gamma   62.38379288
_symmetry_Int_Tables_number   1
_chemical_formula_structural   KNa6NpO12
_chemical_formula_sum   'K1 Na6 Np1 O12'
_cell_volume   242.60130944
_cell_formula_units_Z   1
loop_
 _symmetry_equiv_pos_site_id
 _symmetry_equiv_pos_as_xyz
  1  'x, y, z'
loop_
 _atom_site_type_symbol
 _atom_site_label
 _atom_site_symmetry_multiplicity
 _atom_site_fract_x
 _atom_site_fract_y
 _atom_site_fract_z
 _atom_site_occupancy
  K  K0  1  0.21086001  0.56546898  0.06810900  1
  Na  Na1  1  0.78384301  0.42484499  0.92009599  1
  Na  Na2  1  0.23931101  0.48005898  0.42380499  1
  Na  Na3  1  0.50535300  0.06158400  0.82846799  1
  Na  Na4  1  0.04188002  0.95281097  0.67539598  1
  Na  Na5  1  0.97506700  0.03110200  0.33462501  1
  Np  Np6  1  0.68494101  0.57465598  0.56423900  1
  Na  Na7  1  0.53564602  0.93228997  0.19123600  1
  O  O8  1  0.74691601  0.24532399  0.76677500  1
  O  O9  1  0.25615102  0.76615797  0.52733799  1
  O  O10  1  0.81377802  0.74194097  0.37376900  1
  O  O11  1  0.21118301  0.25114699  0.27733300  1
  O  O12  1  0.20634201  0.24488099  0.63790799  1
  O  O13  1  0.34261202  0.75165597  0.88359098  1
  O  O14  1  0.78349502  0.73000298  0.02698901  1
  O  O15  1  0.23949801  0.23898699  0.98473198  1
  O  O16  1  0.67840101  0.26805999  0.45686500  1
  O  O17  1  0.69234101  0.23844999  0.12759201  1
  O  O18  1  0.27035802  0.75297997  0.20459299  1
  O  O19  1  0.78202102  0.74759897  0.72653799  1
