# generated using pymatgen
data_Cs2KUHgO5
_symmetry_space_group_name_H-M   'P 1'
_cell_length_a   5.57565689
_cell_length_b   5.57565689
_cell_length_c   5.65097570
_cell_angle_alpha   60.43992233
_cell_angle_beta   60.43992233
_cell_angle_gamma   59.99998856
_symmetry_Int_Tables_number   1
_chemical_formula_structural   Cs2KUHgO5
_chemical_formula_sum   'Cs2 K1 U1 Hg1 O5'
_cell_volume   125.04217360
_cell_formula_units_Z   1
loop_
 _symmetry_equiv_pos_site_id
 _symmetry_equiv_pos_as_xyz
  1  'x, y, z'
loop_
 _atom_site_type_symbol
 _atom_site_label
 _atom_site_symmetry_multiplicity
 _atom_site_fract_x
 _atom_site_fract_y
 _atom_site_fract_z
 _atom_site_occupancy
  U  U0  1  0.00000000  0.00000000  0.00000000  1
  K  K1  1  0.49999998  0.50000000  0.50000003  1
  Cs  Cs2  1  0.24999999  0.25000000  0.25000001  1
  Cs  Cs3  1  0.74999998  0.75000000  0.75000004  1
  O  O4  1  0.30652598  0.75000000  0.75000003  1
  Hg  Hg5  1  0.74999999  0.19347400  0.75000002  1
  O  O6  1  0.19347399  0.30652600  0.75000000  1
  O  O7  1  0.69347399  0.25000000  0.25000003  1
  O  O8  1  0.80652598  0.69347400  0.25000006  1
  O  O9  1  0.24999998  0.80652600  0.25000004  1
