# generated using pymatgen
data_Te
_symmetry_space_group_name_H-M   'P 1'
_cell_length_a   7.52414274
_cell_length_b   7.52414274
_cell_length_c   7.52414274
_cell_angle_alpha   107.25530243
_cell_angle_beta   107.25530243
_cell_angle_gamma   114.00021362
_symmetry_Int_Tables_number   1
_chemical_formula_structural   Te
_chemical_formula_sum   Te10
_cell_volume   326.35664501
_cell_formula_units_Z   10
loop_
 _symmetry_equiv_pos_site_id
 _symmetry_equiv_pos_as_xyz
  1  'x, y, z'
loop_
 _atom_site_type_symbol
 _atom_site_label
 _atom_site_symmetry_multiplicity
 _atom_site_fract_x
 _atom_site_fract_y
 _atom_site_fract_z
 _atom_site_occupancy
  Te  Te0  1  0.00000000  0.00000000  0.00000000  1
  Te  Te1  1  0.74999997  0.24999999  0.49999996  1
  Te  Te2  1  0.61719096  0.92842296  0.68876794  1
  Te  Te3  1  0.67842296  0.86719096  0.18876795  1
  Te  Te4  1  0.67842297  0.48965498  0.81123195  1
  Te  Te5  1  0.23965497  0.92842296  0.31123195  1
  Te  Te6  1  0.07157698  0.76034497  0.68876796  1
  Te  Te7  1  0.51034498  0.32157699  0.18876797  1
  Te  Te8  1  0.13280899  0.32157699  0.81123197  1
  Te  Te9  1  0.07157699  0.38280898  0.31123198  1
