# generated using pymatgen
data_SrSmDyLuCdS11
_symmetry_space_group_name_H-M   'P 1'
_cell_length_a   7.09215403
_cell_length_b   7.09215403
_cell_length_c   7.35549688
_cell_angle_alpha   90.00000000
_cell_angle_beta   90.00000000
_cell_angle_gamma   90.00000000
_symmetry_Int_Tables_number   1
_chemical_formula_structural   SrSmDyLuCdS11
_chemical_formula_sum   'Sr1 Sm1 Dy1 Lu1 Cd1 S11'
_cell_volume   369.97155396
_cell_formula_units_Z   1
loop_
 _symmetry_equiv_pos_site_id
 _symmetry_equiv_pos_as_xyz
  1  'x, y, z'
loop_
 _atom_site_type_symbol
 _atom_site_label
 _atom_site_symmetry_multiplicity
 _atom_site_fract_x
 _atom_site_fract_y
 _atom_site_fract_z
 _atom_site_occupancy
  Sr  Sr0  1  0.50000000  0.50000000  0.25688700  1
  Sm  Sm1  1  0.00000000  0.00000000  0.75688701  1
  Dy  Dy2  1  0.84091900  0.65219400  0.98866102  1
  Lu  Lu3  1  0.00000000  0.00000000  0.24311300  1
  S  S4  1  0.65908100  0.15219400  0.48866101  1
  S  S5  1  0.34091900  0.84780600  0.48866101  1
  Cd  Cd6  1  0.15908100  0.34780600  0.98866102  1
  S  S7  1  0.34780600  0.84091900  0.01133900  1
  S  S8  1  0.84780600  0.65908100  0.51133901  1
  S  S9  1  0.65219400  0.15908100  0.01133900  1
  S  S10  1  0.15219400  0.34091900  0.51133901  1
  S  S11  1  0.50000000  0.50000000  0.74311301  1
  S  S12  1  0.34581900  0.15418100  0.25000000  1
  S  S13  1  0.65418100  0.84581900  0.25000000  1
  S  S14  1  0.15418100  0.65418100  0.75000001  1
  S  S15  1  0.84581900  0.34581900  0.75000001  1
