# generated using pymatgen
data_Sr4LiLuNbO7
_symmetry_space_group_name_H-M   'P 1'
_cell_length_a   5.41557598
_cell_length_b   5.53565884
_cell_length_c   6.61321306
_cell_angle_alpha   90.00000000
_cell_angle_beta   114.17036438
_cell_angle_gamma   90.00000000
_symmetry_Int_Tables_number   1
_chemical_formula_structural   Sr4LiLuNbO7
_chemical_formula_sum   'Sr4 Li1 Lu1 Nb1 O7'
_cell_volume   180.87535794
_cell_formula_units_Z   1
loop_
 _symmetry_equiv_pos_site_id
 _symmetry_equiv_pos_as_xyz
  1  'x, y, z'
loop_
 _atom_site_type_symbol
 _atom_site_label
 _atom_site_symmetry_multiplicity
 _atom_site_fract_x
 _atom_site_fract_y
 _atom_site_fract_z
 _atom_site_occupancy
  Sr  Sr0  1  0.60431300  0.51526202  0.20862600  1
  Sr  Sr1  1  0.39568700  0.01526200  0.79137399  1
  Sr  Sr2  1  0.88941900  0.48244401  0.77883799  1
  Sr  Sr3  1  0.11058100  0.98244403  0.22116200  1
  Li  Li4  1  0.74593700  0.99797603  0.49187399  1
  Lu  Lu5  1  0.25406300  0.49797601  0.50812600  1
  O  O6  1  0.58045300  0.94746303  0.16090600  1
  Nb  Nb7  1  0.92297900  0.05396400  0.84595799  1
  O  O8  1  0.41954700  0.44746301  0.83909399  1
  O  O9  1  0.07702100  0.55396402  0.15404200  1
  O  O10  1  0.98231800  0.25144501  0.46734599  1
  O  O11  1  0.01768200  0.75144502  0.53265400  1
  O  O12  1  0.51497200  0.75144502  0.53265399  1
  O  O13  1  0.48502800  0.25144501  0.46734600  1
