# generated using pymatgen
data_SrLi3SbAs2PO9
_symmetry_space_group_name_H-M   'P 1'
_cell_length_a   4.95244312
_cell_length_b   5.25360966
_cell_length_c   8.50281143
_cell_angle_alpha   90.00000000
_cell_angle_beta   90.00000000
_cell_angle_gamma   89.52745056
_symmetry_Int_Tables_number   1
_chemical_formula_structural   SrLi3SbAs2PO9
_chemical_formula_sum   'Sr1 Li3 Sb1 As2 P1 O9'
_cell_volume   221.22034992
_cell_formula_units_Z   1
loop_
 _symmetry_equiv_pos_site_id
 _symmetry_equiv_pos_as_xyz
  1  'x, y, z'
loop_
 _atom_site_type_symbol
 _atom_site_label
 _atom_site_symmetry_multiplicity
 _atom_site_fract_x
 _atom_site_fract_y
 _atom_site_fract_z
 _atom_site_occupancy
  Sr  Sr0  1  0.50000000  0.50000000  0.80105996  1
  Li  Li1  1  0.00000002  1.00000000  0.90133795  1
  Li  Li2  1  0.49999999  0.00000000  0.58340497  1
  Li  Li3  1  0.50000000  0.50000000  0.39776198  1
  As  As4  1  0.00000001  0.50000000  0.08691100  1
  Sb  Sb5  1  0.29261401  0.81788700  0.41697898  1
  P  P6  1  0.26195001  0.85710900  0.74141896  1
  As  As7  1  0.21017201  0.80531500  0.06920400  1
  O  O8  1  0.75287400  0.63917400  0.24814099  1
  O  O9  1  0.78377500  0.67822300  0.92236895  1
  O  O10  1  0.70424400  0.67758000  0.57300897  1
  O  O11  1  0.29575600  0.32242000  0.57300897  1
  O  O12  1  0.21622500  0.32177700  0.92236895  1
  O  O13  1  0.24712600  0.36082600  0.24814099  1
  O  O14  1  0.78982798  0.19468500  0.06920400  1
  O  O15  1  0.73804999  0.14289100  0.74141896  1
  O  O16  1  0.70738599  0.18211300  0.41697898  1
