# generated using pymatgen
data_Cu2Mo3Se7
_symmetry_space_group_name_H-M   'P 1'
_cell_length_a   6.10150623
_cell_length_b   6.10150623
_cell_length_c   6.10150623
_cell_angle_alpha   90.00000000
_cell_angle_beta   90.00000000
_cell_angle_gamma   90.00000000
_symmetry_Int_Tables_number   1
_chemical_formula_structural   Cu2Mo3Se7
_chemical_formula_sum   'Cu2 Mo3 Se7'
_cell_volume   227.14918234
_cell_formula_units_Z   1
loop_
 _symmetry_equiv_pos_site_id
 _symmetry_equiv_pos_as_xyz
  1  'x, y, z'
loop_
 _atom_site_type_symbol
 _atom_site_label
 _atom_site_symmetry_multiplicity
 _atom_site_fract_x
 _atom_site_fract_y
 _atom_site_fract_z
 _atom_site_occupancy
  Cu  Cu0  1  0.87867797  0.37867799  0.12132200  1
  Mo  Mo1  1  0.37867799  0.12132200  0.87867797  1
  Mo  Mo2  1  0.12132200  0.87867797  0.37867799  1
  Cu  Cu3  1  0.62132198  0.62132198  0.62132198  1
  Mo  Mo4  1  0.51273198  0.01273200  0.48726798  1
  Se  Se5  1  0.01273200  0.48726798  0.51273198  1
  Se  Se6  1  0.48726798  0.51273198  0.01273200  1
  Se  Se7  1  0.98726796  0.98726796  0.98726796  1
  Se  Se8  1  0.11765200  0.61765198  0.88234797  1
  Se  Se9  1  0.61765198  0.88234797  0.11765200  1
  Se  Se10  1  0.88234797  0.11765200  0.61765198  1
  Se  Se11  1  0.38234799  0.38234799  0.38234799  1
