# generated using pymatgen
data_BaSrCl3F
_symmetry_space_group_name_H-M   'P 1'
_cell_length_a   4.09562397
_cell_length_b   4.09562397
_cell_length_c   7.04567385
_cell_angle_alpha   90.00000000
_cell_angle_beta   90.00000000
_cell_angle_gamma   90.00000000
_symmetry_Int_Tables_number   1
_chemical_formula_structural   BaSrCl3F
_chemical_formula_sum   'Ba1 Sr1 Cl3 F1'
_cell_volume   118.18508924
_cell_formula_units_Z   1
loop_
 _symmetry_equiv_pos_site_id
 _symmetry_equiv_pos_as_xyz
  1  'x, y, z'
loop_
 _atom_site_type_symbol
 _atom_site_label
 _atom_site_symmetry_multiplicity
 _atom_site_fract_x
 _atom_site_fract_y
 _atom_site_fract_z
 _atom_site_occupancy
  Ba  Ba0  1  0.00000000  0.50000000  0.83594602  1
  Sr  Sr1  1  0.50000000  0.00000000  0.16405400  1
  Cl  Cl2  1  0.00000000  0.00000000  0.00000000  1
  F  F3  1  0.50000000  0.50000000  -0.00000000  1
  Cl  Cl4  1  0.50000000  0.00000000  0.62324501  1
  Cl  Cl5  1  0.00000000  0.50000000  0.37675501  1
