# generated using pymatgen
data_Rb4B2H3O5
_symmetry_space_group_name_H-M   'P 1'
_cell_length_a   5.60325193
_cell_length_b   5.94645786
_cell_length_c   7.29717493
_cell_angle_alpha   90.00000000
_cell_angle_beta   79.84401703
_cell_angle_gamma   90.00000000
_symmetry_Int_Tables_number   1
_chemical_formula_structural   Rb4B2H3O5
_chemical_formula_sum   'Rb4 B2 H3 O5'
_cell_volume   239.32858614
_cell_formula_units_Z   1
loop_
 _symmetry_equiv_pos_site_id
 _symmetry_equiv_pos_as_xyz
  1  'x, y, z'
loop_
 _atom_site_type_symbol
 _atom_site_label
 _atom_site_symmetry_multiplicity
 _atom_site_fract_x
 _atom_site_fract_y
 _atom_site_fract_z
 _atom_site_occupancy
  Rb  Rb0  1  0.01385000  0.75000002  0.28471500  1
  Rb  Rb1  1  0.98615000  0.25000001  0.71528504  1
  Rb  Rb2  1  0.50000000  0.50000001  0.00000002  1
  Rb  Rb3  1  0.50000000  0.00000000  0.00000002  1
  B  B4  1  0.54563700  0.25000001  0.24065903  1
  B  B5  1  0.45436300  0.75000002  0.75934102  1
  H  H6  1  0.37766500  0.54326401  0.88315001  1
  H  H7  1  0.62233500  0.45673601  0.11685003  1
  O  O8  1  0.68740200  0.25000001  0.38922203  1
  H  H9  1  0.37766500  0.95673602  0.88315001  1
  O  O10  1  0.62233500  0.04326400  0.11685003  1
  O  O11  1  0.71801500  0.75000002  0.70129203  1
  O  O12  1  0.31259800  0.75000002  0.61077801  1
  O  O13  1  0.28198500  0.25000001  0.29870801  1
