# generated using pymatgen
data_K7Ag(ClO)3
_symmetry_space_group_name_H-M   'P 1'
_cell_length_a   3.99593210
_cell_length_b   6.12964773
_cell_length_c   12.61005402
_cell_angle_alpha   94.45099640
_cell_angle_beta   99.11336517
_cell_angle_gamma   109.02046967
_symmetry_Int_Tables_number   1
_chemical_formula_structural   K7Ag(ClO)3
_chemical_formula_sum   'K7 Ag1 Cl3 O3'
_cell_volume   285.54080349
_cell_formula_units_Z   1
loop_
 _symmetry_equiv_pos_site_id
 _symmetry_equiv_pos_as_xyz
  1  'x, y, z'
loop_
 _atom_site_type_symbol
 _atom_site_label
 _atom_site_symmetry_multiplicity
 _atom_site_fract_x
 _atom_site_fract_y
 _atom_site_fract_z
 _atom_site_occupancy
  K  K0  1  0.19312299  0.01411300  0.37212700  1
  K  K1  1  0.19312796  0.51411901  0.87213398  1
  K  K2  1  0.80687395  0.48588101  0.12786599  1
  K  K3  1  0.80687692  0.98588602  0.62787298  1
  K  K4  1  0.99999895  0.50000001  0.49999999  1
  K  K5  1  0.99999898  0.00000100  0.00000001  1
  K  K6  1  0.44256996  0.54317301  0.34193099  1
  Ag  Ag7  1  0.44257399  0.04317300  0.84193400  1
  Cl  Cl8  1  0.55742593  0.95682602  0.15806598  1
  Cl  Cl9  1  0.55742996  0.45682701  0.65806899  1
  O  O10  1  0.80412597  0.14880900  0.45944100  1
  Cl  Cl11  1  0.80413994  0.64882501  0.95944998  1
  O  O12  1  0.19586097  0.35117601  0.04055099  1
  O  O13  1  0.19587394  0.85119101  0.54055898  1
