# generated using pymatgen
data_Rb2Al2Tl3Cl11
_symmetry_space_group_name_H-M   'P 1'
_cell_length_a   5.92120600
_cell_length_b   9.58083916
_cell_length_c   9.58083916
_cell_angle_alpha   73.87347412
_cell_angle_beta   72.00024414
_cell_angle_gamma   72.00024414
_symmetry_Int_Tables_number   1
_chemical_formula_structural   Rb2Al2Tl3Cl11
_chemical_formula_sum   'Rb2 Al2 Tl3 Cl11'
_cell_volume   481.53661358
_cell_formula_units_Z   1
loop_
 _symmetry_equiv_pos_site_id
 _symmetry_equiv_pos_as_xyz
  1  'x, y, z'
loop_
 _atom_site_type_symbol
 _atom_site_label
 _atom_site_symmetry_multiplicity
 _atom_site_fract_x
 _atom_site_fract_y
 _atom_site_fract_z
 _atom_site_occupancy
  Rb  Rb0  1  0.23428193  0.87909403  0.12090604  1
  Rb  Rb1  1  0.73428196  0.62090602  0.37909403  1
  Tl  Tl2  1  0.26571797  0.37909401  0.62090604  1
  Tl  Tl3  1  0.76571800  0.12090600  0.87909402  1
  Al  Al4  1  0.74999995  0.75000003  0.75000005  1
  Tl  Tl5  1  0.24999998  0.25000001  0.25000002  1
  Cl  Cl6  1  0.24999996  0.52449902  0.97550106  1
  Al  Al7  1  0.24999992  0.97550104  0.52449906  1
  Cl  Cl8  1  0.74999997  0.47550102  0.02449900  1
  Cl  Cl9  1  0.75000001  0.02449900  0.47550100  1
  Cl  Cl10  1  0.37652597  0.47633002  0.20766602  1
  Cl  Cl11  1  0.56052201  0.02367000  0.29233400  1
  Cl  Cl12  1  0.12347398  0.29233401  0.02367001  1
  Cl  Cl13  1  0.93947800  0.20766601  0.47633000  1
  Cl  Cl14  1  0.62347397  0.52367002  0.79233404  1
  Cl  Cl15  1  0.43947793  0.97633004  0.70766607  1
  Cl  Cl16  1  0.87652596  0.70766603  0.97633005  1
  Cl  Cl17  1  0.06052194  0.79233403  0.52367006  1
