# generated using pymatgen
data_TlInCl3
_symmetry_space_group_name_H-M   'P 1'
_cell_length_a   3.83451009
_cell_length_b   5.42228794
_cell_length_c   6.81589174
_cell_angle_alpha   113.43872070
_cell_angle_beta   106.33732605
_cell_angle_gamma   90.00000000
_symmetry_Int_Tables_number   1
_chemical_formula_structural   TlInCl3
_chemical_formula_sum   'Tl1 In1 Cl3'
_cell_volume   123.75972473
_cell_formula_units_Z   1
loop_
 _symmetry_equiv_pos_site_id
 _symmetry_equiv_pos_as_xyz
  1  'x, y, z'
loop_
 _atom_site_type_symbol
 _atom_site_label
 _atom_site_symmetry_multiplicity
 _atom_site_fract_x
 _atom_site_fract_y
 _atom_site_fract_z
 _atom_site_occupancy
  Tl  Tl0  1  0.83801099  0.33801100  0.67602198  1
  In  In1  1  0.16198900  0.66198899  0.32397796  1
  Cl  Cl2  1  0.49999999  0.49999999  -0.00000001  1
  Cl  Cl3  1  0.82134199  0.82134199  0.64268396  1
  Cl  Cl4  1  0.17865800  0.17865800  0.35731598  1
