# generated using pymatgen
data_Tl4HgBr13
_symmetry_space_group_name_H-M   'P 1'
_cell_length_a   6.90994453
_cell_length_b   6.90994453
_cell_length_c   11.71380234
_cell_angle_alpha   75.31963348
_cell_angle_beta   75.31963348
_cell_angle_gamma   70.79874420
_symmetry_Int_Tables_number   1
_chemical_formula_structural   Tl4HgBr13
_chemical_formula_sum   'Tl4 Hg1 Br13'
_cell_volume   502.01244601
_cell_formula_units_Z   1
loop_
 _symmetry_equiv_pos_site_id
 _symmetry_equiv_pos_as_xyz
  1  'x, y, z'
loop_
 _atom_site_type_symbol
 _atom_site_label
 _atom_site_symmetry_multiplicity
 _atom_site_fract_x
 _atom_site_fract_y
 _atom_site_fract_z
 _atom_site_occupancy
  Tl  Tl0  1  0.44881401  0.11386500  0.81630102  1
  Tl  Tl1  1  0.88613504  0.55118600  0.68369904  1
  Tl  Tl2  1  0.55118605  0.88613500  0.18369904  1
  Tl  Tl3  1  0.11386502  0.44881400  0.31630102  1
  Br  Br4  1  0.06046903  0.75073800  0.94277503  1
  Hg  Hg5  1  0.24926205  0.93953100  0.55722503  1
  Br  Br6  1  0.93953103  0.24926200  0.05722503  1
  Br  Br7  1  0.75073802  0.06046900  0.44277503  1
  Br  Br8  1  0.74980904  0.64252700  0.96339304  1
  Br  Br9  1  0.35747302  0.25019100  0.53660702  1
  Br  Br10  1  0.25019102  0.35747300  0.03660702  1
  Br  Br11  1  0.64252704  0.74980900  0.46339304  1
  Br  Br12  1  0.31254704  0.68745300  0.75000003  1
  Br  Br13  1  0.68745303  0.31254700  0.25000003  1
  Br  Br14  1  0.11728304  0.85208900  0.11641302  1
  Br  Br15  1  0.14791104  0.88271700  0.38358703  1
  Br  Br16  1  0.85208902  0.11728300  0.61641303  1
  Br  Br17  1  0.88271702  0.14791100  0.88358703  1
