# generated using pymatgen
data_Al2CdGa4SnP4
_symmetry_space_group_name_H-M   'P 1'
_cell_length_a   4.38896799
_cell_length_b   6.97006226
_cell_length_c   12.01514912
_cell_angle_alpha   83.65144348
_cell_angle_beta   79.47624969
_cell_angle_gamma   71.64859009
_symmetry_Int_Tables_number   1
_chemical_formula_structural   Al2CdGa4SnP4
_chemical_formula_sum   'Al2 Cd1 Ga4 Sn1 P4'
_cell_volume   342.44376387
_cell_formula_units_Z   1
loop_
 _symmetry_equiv_pos_site_id
 _symmetry_equiv_pos_as_xyz
  1  'x, y, z'
loop_
 _atom_site_type_symbol
 _atom_site_label
 _atom_site_symmetry_multiplicity
 _atom_site_fract_x
 _atom_site_fract_y
 _atom_site_fract_z
 _atom_site_occupancy
  Cd  Cd0  1  0.49174202  0.24999999  0.74999997  1
  Ga  Ga1  1  0.50825805  0.74999997  0.24999997  1
  Al  Al2  1  0.00000000  0.00000000  0.00000000  1
  Al  Al3  1  0.00000004  0.49999998  0.49999997  1
  Ga  Ga4  1  0.16808005  0.68375597  0.09475898  1
  Ga  Ga5  1  0.94659506  0.81624396  0.40524097  1
  Ga  Ga6  1  0.81153603  0.39898898  0.35354298  1
  Sn  Sn7  1  0.56406801  0.10101100  0.14645699  1
  P  P8  1  0.18846404  0.60101097  0.64645696  1
  P  P9  1  0.83192002  0.31624399  0.90524096  1
  P  P10  1  0.05340501  0.18375599  0.59475897  1
  P  P11  1  0.43593207  0.89898896  0.85354294  1
