# generated using pymatgen
data_KAg4PS3Cl7
_symmetry_space_group_name_H-M   'P 1'
_cell_length_a   5.91338015
_cell_length_b   5.91338015
_cell_length_c   13.10369110
_cell_angle_alpha   89.83576202
_cell_angle_beta   89.83576202
_cell_angle_gamma   116.02637482
_symmetry_Int_Tables_number   1
_chemical_formula_structural   KAg4PS3Cl7
_chemical_formula_sum   'K1 Ag4 P1 S3 Cl7'
_cell_volume   411.73852978
_cell_formula_units_Z   1
loop_
 _symmetry_equiv_pos_site_id
 _symmetry_equiv_pos_as_xyz
  1  'x, y, z'
loop_
 _atom_site_type_symbol
 _atom_site_label
 _atom_site_symmetry_multiplicity
 _atom_site_fract_x
 _atom_site_fract_y
 _atom_site_fract_z
 _atom_site_occupancy
  K  K0  1  0.97949404  0.02050600  0.24999998  1
  Ag  Ag1  1  0.02050606  0.97949406  0.74999997  1
  Ag  Ag2  1  0.31299905  0.68700105  0.74999997  1
  Ag  Ag3  1  0.68700105  0.31299902  0.24999998  1
  Cl  Cl4  1  0.33408203  0.32738702  0.14923199  1
  P  P5  1  0.33241401  0.00631800  0.35068699  1
  Ag  Ag6  1  0.01857104  0.68508805  0.62392498  1
  Cl  Cl7  1  0.31491207  0.98142906  0.87607496  1
  S  S8  1  0.32738703  0.33408202  0.64923198  1
  S  S9  1  0.00631802  0.33241402  0.85068698  1
  Cl  Cl10  1  0.67261307  0.66591804  0.35076797  1
  Cl  Cl11  1  0.68508803  0.01857100  0.12392499  1
  Cl  Cl12  1  0.99368208  0.66758604  0.14931297  1
  S  S13  1  0.66758609  0.99368207  0.64931296  1
  Cl  Cl14  1  0.98142906  0.31491202  0.37607497  1
  Cl  Cl15  1  0.66591807  0.67261304  0.85076796  1
