# generated using pymatgen
data_Ba4In3AuSe8
_symmetry_space_group_name_H-M   'P 1'
_cell_length_a   6.16439009
_cell_length_b   8.37579918
_cell_length_c   10.42076588
_cell_angle_alpha   90.00000000
_cell_angle_beta   107.20397949
_cell_angle_gamma   90.00000000
_symmetry_Int_Tables_number   1
_chemical_formula_structural   Ba4In3AuSe8
_chemical_formula_sum   'Ba4 In3 Au1 Se8'
_cell_volume   513.96862722
_cell_formula_units_Z   1
loop_
 _symmetry_equiv_pos_site_id
 _symmetry_equiv_pos_as_xyz
  1  'x, y, z'
loop_
 _atom_site_type_symbol
 _atom_site_label
 _atom_site_symmetry_multiplicity
 _atom_site_fract_x
 _atom_site_fract_y
 _atom_site_fract_z
 _atom_site_occupancy
  Ba  Ba0  1  0.45354100  0.74999998  0.63158200  1
  Ba  Ba1  1  0.82195901  0.24999999  0.36841802  1
  Ba  Ba2  1  0.52260100  0.74999998  0.22544701  1
  Ba  Ba3  1  0.29715400  0.24999999  0.77455299  1
  In  In4  1  0.37357100  0.00000000  0.00000002  1
  In  In5  1  0.37357100  0.49999999  0.00000002  1
  Au  Au6  1  0.02463800  0.74999998  0.22912199  1
  In  In7  1  0.79551601  0.24999999  0.77087801  1
  Se  Se8  1  0.65082400  0.74999998  0.01991203  1
  Se  Se9  1  0.63091200  0.24999999  0.98008800  1
  Se  Se10  1  0.30665800  0.99356098  0.23872501  1
  Se  Se11  1  0.06793300  0.49356099  0.76127498  1
  Se  Se12  1  0.41057800  0.24999999  0.57120600  1
  Se  Se13  1  0.06793300  0.00643900  0.76127498  1
  Se  Se14  1  0.30665800  0.50643899  0.23872501  1
  Se  Se15  1  0.83937201  0.74999998  0.42879402  1
