# generated using pymatgen
data_LiNi7O8
_symmetry_space_group_name_H-M   'P 1'
_cell_length_a   5.14389563
_cell_length_b   5.95589495
_cell_length_c   5.95589495
_cell_angle_alpha   60.13744354
_cell_angle_beta   73.25350952
_cell_angle_gamma   73.25350952
_symmetry_Int_Tables_number   1
_chemical_formula_structural   LiNi7O8
_chemical_formula_sum   'Li1 Ni7 O8'
_cell_volume   149.21203260
_cell_formula_units_Z   1
loop_
 _symmetry_equiv_pos_site_id
 _symmetry_equiv_pos_as_xyz
  1  'x, y, z'
loop_
 _atom_site_type_symbol
 _atom_site_label
 _atom_site_symmetry_multiplicity
 _atom_site_fract_x
 _atom_site_fract_y
 _atom_site_fract_z
 _atom_site_occupancy
  Ni  Ni0  1  0.50210700  0.24921001  0.24920998  1
  Li  Li1  1  0.49789297  0.75079003  0.75079001  1
  Ni  Ni2  1  0.50000000  0.24796201  0.75203800  1
  Ni  Ni3  1  0.49999997  0.75203803  0.24796199  1
  Ni  Ni4  1  -0.00000002  0.50000002  0.50000002  1
  Ni  Ni5  1  -0.00000002  0.50000002  0.00000000  1
  Ni  Ni6  1  0.00000000  0.00000000  0.50000002  1
  Ni  Ni7  1  0.00000000  0.00000000  0.00000000  1
  O  O8  1  0.77430899  0.37000402  0.37000397  1
  O  O9  1  0.22534397  0.63110903  0.12801600  1
  O  O10  1  0.77571097  0.87035404  0.87035399  1
  O  O11  1  0.22534400  0.12801601  0.63110901  1
  O  O12  1  0.77465599  0.36889102  0.87198399  1
  O  O13  1  0.22569097  0.62999603  0.62999602  1
  O  O14  1  0.77465597  0.87198404  0.36889098  1
  O  O15  1  0.22428900  0.12964601  0.12964599  1
