# generated using pymatgen
data_K3Sb
_symmetry_space_group_name_H-M   'P 1'
_cell_length_a   4.62498617
_cell_length_b   4.62498617
_cell_length_c   8.03565407
_cell_angle_alpha   73.27496338
_cell_angle_beta   73.27496338
_cell_angle_gamma   59.99999619
_symmetry_Int_Tables_number   1
_chemical_formula_structural   K3Sb
_chemical_formula_sum   'K3 Sb1'
_cell_volume   140.39920668
_cell_formula_units_Z   1
loop_
 _symmetry_equiv_pos_site_id
 _symmetry_equiv_pos_as_xyz
  1  'x, y, z'
loop_
 _atom_site_type_symbol
 _atom_site_label
 _atom_site_symmetry_multiplicity
 _atom_site_fract_x
 _atom_site_fract_y
 _atom_site_fract_z
 _atom_site_occupancy
  K  K0  1  0.00000000  0.00000000  0.00000000  1
  K  K1  1  0.49999999  0.50000001  0.50000003  1
  K  K2  1  0.25395300  0.25395300  0.23814102  1
  Sb  Sb3  1  0.74604699  0.74604701  0.76185905  1
