# generated using pymatgen
data_YbCu5S12
_symmetry_space_group_name_H-M   'P 1'
_cell_length_a   5.42258692
_cell_length_b   5.65900087
_cell_length_c   8.26117325
_cell_angle_alpha   95.39128113
_cell_angle_beta   90.00000000
_cell_angle_gamma   90.00000000
_symmetry_Int_Tables_number   1
_chemical_formula_structural   YbCu5S12
_chemical_formula_sum   'Yb1 Cu5 S12'
_cell_volume   252.38442537
_cell_formula_units_Z   1
loop_
 _symmetry_equiv_pos_site_id
 _symmetry_equiv_pos_as_xyz
  1  'x, y, z'
loop_
 _atom_site_type_symbol
 _atom_site_label
 _atom_site_symmetry_multiplicity
 _atom_site_fract_x
 _atom_site_fract_y
 _atom_site_fract_z
 _atom_site_occupancy
  Yb  Yb0  1  0.53482101  0.98439803  0.36538804  1
  Cu  Cu1  1  0.03482100  0.01560200  0.63461199  1
  Cu  Cu2  1  0.97739001  0.48682801  0.36486502  1
  Cu  Cu3  1  0.47739001  0.51317201  0.63513501  1
  Cu  Cu4  1  0.93563201  0.73997002  0.97771802  1
  Cu  Cu5  1  0.43563201  0.26003001  0.02228201  1
  S  S6  1  0.84450301  0.78900502  0.19594803  1
  S  S7  1  0.79151701  0.00035200  0.90068399  1
  S  S8  1  0.25972000  0.75067902  0.47630002  1
  S  S9  1  0.75972001  0.24932101  0.52370000  1
  S  S10  1  0.29151700  0.99964803  0.09931604  1
  S  S11  1  0.34450301  0.21099501  0.80405200  1
  S  S12  1  0.67027101  0.29350001  0.18850901  1
  S  S13  1  0.69788701  0.51313601  0.90544101  1
  S  S14  1  0.25455400  0.25070601  0.47298400  1
  S  S15  1  0.19788700  0.48686401  0.09455902  1
  S  S16  1  0.75455401  0.74929402  0.52701602  1
  S  S17  1  0.17027100  0.70650002  0.81149102  1
