# generated using pymatgen
data_Na2MgBeB3PCO3
_symmetry_space_group_name_H-M   'P 1'
_cell_length_a   4.95078135
_cell_length_b   4.95078135
_cell_length_c   8.03237343
_cell_angle_alpha   86.39405823
_cell_angle_beta   86.39405823
_cell_angle_gamma   64.77631378
_symmetry_Int_Tables_number   1
_chemical_formula_structural   Na2MgBeB3PCO3
_chemical_formula_sum   'Na2 Mg1 Be1 B3 P1 C1 O3'
_cell_volume   177.60880522
_cell_formula_units_Z   1
loop_
 _symmetry_equiv_pos_site_id
 _symmetry_equiv_pos_as_xyz
  1  'x, y, z'
loop_
 _atom_site_type_symbol
 _atom_site_label
 _atom_site_symmetry_multiplicity
 _atom_site_fract_x
 _atom_site_fract_y
 _atom_site_fract_z
 _atom_site_occupancy
  Na  Na0  1  0.00000000  0.00000000  0.00000000  1
  Na  Na1  1  0.00000000  0.00000000  0.50000000  1
  Mg  Mg2  1  0.63154001  0.63153996  0.70836902  1
  Be  Be3  1  0.36846000  0.36845998  0.29163101  1
  B  B4  1  0.76371098  0.28348598  0.69072502  1
  P  P5  1  0.28348603  0.76371095  0.69072502  1
  B  B6  1  0.23628903  0.71651395  0.30927501  1
  B  B7  1  0.71651398  0.23628898  0.30927501  1
  C  C8  1  0.75991901  0.75991895  0.56091202  1
  O  O9  1  0.24008100  0.24008098  0.43908801  1
  O  O10  1  0.68892101  0.68892095  0.88418102  1
  O  O11  1  0.31107900  0.31107898  0.11581901  1
