# generated using pymatgen
data_UTi3NiSb6
_symmetry_space_group_name_H-M   'P 1'
_cell_length_a   7.78511477
_cell_length_b   7.78511477
_cell_length_c   7.78511477
_cell_angle_alpha   109.47122192
_cell_angle_beta   109.47122192
_cell_angle_gamma   109.47122192
_symmetry_Int_Tables_number   1
_chemical_formula_structural   UTi3NiSb6
_chemical_formula_sum   'U1 Ti3 Ni1 Sb6'
_cell_volume   363.22283680
_cell_formula_units_Z   1
loop_
 _symmetry_equiv_pos_site_id
 _symmetry_equiv_pos_as_xyz
  1  'x, y, z'
loop_
 _atom_site_type_symbol
 _atom_site_label
 _atom_site_symmetry_multiplicity
 _atom_site_fract_x
 _atom_site_fract_y
 _atom_site_fract_z
 _atom_site_occupancy
  U  U0  1  0.00000003  0.50000001  0.00000003  1
  Ti  Ti1  1  1.00000005  1.00000002  0.50000007  1
  Ti  Ti2  1  0.50000002  0.50000001  0.50000003  1
  Ti  Ti3  1  0.49999999  0.00000000  0.00000001  1
  Ni  Ni4  1  0.00000000  0.00000000  0.00000000  1
  Sb  Sb5  1  1.00000003  0.71399001  0.71399005  1
  Sb  Sb6  1  0.28601001  0.28601000  0.00000002  1
  Sb  Sb7  1  0.28601000  0.00000000  0.28601000  1
  Sb  Sb8  1  0.71398999  0.00000000  0.71399000  1
  Sb  Sb9  1  1.00000000  0.28601000  0.28601003  1
  Sb  Sb10  1  0.71399003  0.71399001  0.00000006  1
