# generated using pymatgen
data_TlAg4Hg3O8
_symmetry_space_group_name_H-M   'P 1'
_cell_length_a   5.10270405
_cell_length_b   5.84125614
_cell_length_c   9.59821129
_cell_angle_alpha   79.61183167
_cell_angle_beta   74.58459473
_cell_angle_gamma   64.10129547
_symmetry_Int_Tables_number   1
_chemical_formula_structural   TlAg4Hg3O8
_chemical_formula_sum   'Tl1 Ag4 Hg3 O8'
_cell_volume   247.41427623
_cell_formula_units_Z   1
loop_
 _symmetry_equiv_pos_site_id
 _symmetry_equiv_pos_as_xyz
  1  'x, y, z'
loop_
 _atom_site_type_symbol
 _atom_site_label
 _atom_site_symmetry_multiplicity
 _atom_site_fract_x
 _atom_site_fract_y
 _atom_site_fract_z
 _atom_site_occupancy
  Tl  Tl0  1  0.55191698  0.25000000  0.75000001  1
  Ag  Ag1  1  0.44808295  0.74999999  0.25000000  1
  Ag  Ag2  1  0.69929395  0.61324799  0.90262501  1
  Hg  Hg3  1  0.78483298  0.11324800  0.40262501  1
  Ag  Ag4  1  0.30070597  0.38675199  0.09737500  1
  Hg  Hg5  1  0.21516695  0.88675199  0.59737499  1
  Ag  Ag6  1  0.00000000  0.00000000  0.00000000  1
  Hg  Hg7  1  -0.00000003  0.49999999  0.49999999  1
  O  O8  1  0.13520600  0.02459500  0.20652200  1
  O  O9  1  0.36632297  0.47540499  0.29347800  1
  O  O10  1  0.86479393  0.97540499  0.79347800  1
  O  O11  1  0.63367696  0.52459499  0.70652201  1
  O  O12  1  0.25104298  0.29656100  0.89711000  1
  O  O13  1  0.74895695  0.70343899  0.10289001  1
  O  O14  1  0.44471398  0.20343900  0.60289001  1
  O  O15  1  0.55528595  0.79656099  0.39711000  1
