# generated using pymatgen
data_LiLaO2
_symmetry_space_group_name_H-M   'P 1'
_cell_length_a   4.50693703
_cell_length_b   6.27944422
_cell_length_c   6.27944422
_cell_angle_alpha   120.00000000
_cell_angle_beta   90.00000000
_cell_angle_gamma   90.00000000
_symmetry_Int_Tables_number   1
_chemical_formula_structural   LiLaO2
_chemical_formula_sum   'Li3 La3 O6'
_cell_volume   153.90564002
_cell_formula_units_Z   3
loop_
 _symmetry_equiv_pos_site_id
 _symmetry_equiv_pos_as_xyz
  1  'x, y, z'
loop_
 _atom_site_type_symbol
 _atom_site_label
 _atom_site_symmetry_multiplicity
 _atom_site_fract_x
 _atom_site_fract_y
 _atom_site_fract_z
 _atom_site_occupancy
  Li  Li0  1  0.50000000  0.00000000  0.69980097  1
  Li  Li1  1  0.50000000  0.69980098  -0.00000000  1
  Li  Li2  1  0.50000000  0.30019899  0.30019899  1
  La  La3  1  0.99999999  0.00000000  0.36555599  1
  La  La4  1  0.00000000  0.36555599  -0.00000000  1
  La  La5  1  0.00000000  0.63444398  0.63444397  1
  O  O6  1  0.67241400  0.33333332  0.66666664  1
  O  O7  1  0.32758600  0.33333332  0.66666664  1
  O  O8  1  0.32758600  0.66666664  0.33333332  1
  O  O9  1  0.67241400  0.66666664  0.33333332  1
  O  O10  1  0.17054400  0.00000000  -0.00000000  1
  O  O11  1  0.82945600  0.00000000  -0.00000000  1
