# generated using pymatgen
data_Rb4O3F
_symmetry_space_group_name_H-M   'P 1'
_cell_length_a   5.98892450
_cell_length_b   5.98892450
_cell_length_c   5.98892450
_cell_angle_alpha   80.37053680
_cell_angle_beta   65.39487457
_cell_angle_gamma   114.60512543
_symmetry_Int_Tables_number   1
_chemical_formula_structural   Rb4O3F
_chemical_formula_sum   'Rb4 O3 F1'
_cell_volume   161.79145638
_cell_formula_units_Z   1
loop_
 _symmetry_equiv_pos_site_id
 _symmetry_equiv_pos_as_xyz
  1  'x, y, z'
loop_
 _atom_site_type_symbol
 _atom_site_label
 _atom_site_symmetry_multiplicity
 _atom_site_fract_x
 _atom_site_fract_y
 _atom_site_fract_z
 _atom_site_occupancy
  Rb  Rb0  1  0.49999999  0.74999998  0.74999998  1
  Rb  Rb1  1  0.49999999  0.24999999  0.24999999  1
  Rb  Rb2  1  0.99999998  0.49999999  0.49999998  1
  Rb  Rb3  1  0.00000000  0.00000000  0.00000000  1
  F  F4  1  0.61601699  0.14970600  0.85029397  1
  O  O5  1  0.00000001  0.85029398  0.53368898  1
  O  O6  1  0.99999998  0.46631099  0.14970599  1
  O  O7  1  0.38398300  0.53368899  0.46631098  1
