# generated using pymatgen
data_Sr5Ga2Si2Ge4P7
_symmetry_space_group_name_H-M   'P 1'
_cell_length_a   4.29811621
_cell_length_b   10.14279461
_cell_length_c   11.01366520
_cell_angle_alpha   90.00000000
_cell_angle_beta   90.00000000
_cell_angle_gamma   90.00000000
_symmetry_Int_Tables_number   1
_chemical_formula_structural   Sr5Ga2Si2Ge4P7
_chemical_formula_sum   'Sr5 Ga2 Si2 Ge4 P7'
_cell_volume   480.13974197
_cell_formula_units_Z   1
loop_
 _symmetry_equiv_pos_site_id
 _symmetry_equiv_pos_as_xyz
  1  'x, y, z'
loop_
 _atom_site_type_symbol
 _atom_site_label
 _atom_site_symmetry_multiplicity
 _atom_site_fract_x
 _atom_site_fract_y
 _atom_site_fract_z
 _atom_site_occupancy
  Sr  Sr0  1  0.24999999  0.74771003  0.32531999  1
  Sr  Sr1  1  0.74999996  0.25229001  0.67467999  1
  Sr  Sr2  1  0.24999999  0.24771001  0.17468000  1
  Sr  Sr3  1  0.74999996  0.75229003  0.82531999  1
  Si  Si4  1  0.74999996  0.40141502  0.95054998  1
  Ge  Ge5  1  0.24999999  0.59858502  0.04945000  1
  Sr  Sr6  1  0.24999999  0.09858500  0.45054999  1
  Ge  Ge7  1  0.74999996  0.90141503  0.54944999  1
  Ga  Ga8  1  0.74999996  0.95091504  0.11733900  1
  Ge  Ge9  1  0.24999999  0.04908500  0.88266098  1
  Ge  Ge10  1  0.74999996  0.45091502  0.38266099  1
  Ga  Ga11  1  0.24999999  0.54908502  0.61733899  1
  P  P12  1  0.74999996  0.64970703  0.53894299  1
  Si  Si13  1  0.24999999  0.35029301  0.46105699  1
  P  P14  1  0.24999999  0.85029303  0.03894300  1
  P  P15  1  0.74999996  0.14970701  0.96105698  1
  P  P16  1  0.74999996  0.52240402  0.16012500  1
  P  P17  1  0.24999999  0.47759602  0.83987498  1
  P  P18  1  0.74999996  0.02240400  0.33987499  1
  P  P19  1  0.24999999  0.97759604  0.66012499  1
