# generated using pymatgen
data_LaBi2Sb2AuNCl13
_symmetry_space_group_name_H-M   'P 1'
_cell_length_a   6.27188110
_cell_length_b   6.38385391
_cell_length_c   9.05408859
_cell_angle_alpha   90.00000000
_cell_angle_beta   89.65460205
_cell_angle_gamma   90.00000000
_symmetry_Int_Tables_number   1
_chemical_formula_structural   LaBi2Sb2AuNCl13
_chemical_formula_sum   'La1 Bi2 Sb2 Au1 N1 Cl13'
_cell_volume   362.50800834
_cell_formula_units_Z   1
loop_
 _symmetry_equiv_pos_site_id
 _symmetry_equiv_pos_as_xyz
  1  'x, y, z'
loop_
 _atom_site_type_symbol
 _atom_site_label
 _atom_site_symmetry_multiplicity
 _atom_site_fract_x
 _atom_site_fract_y
 _atom_site_fract_z
 _atom_site_occupancy
  La  La0  1  0.59792399  0.43763301  0.69986201  1
  Sb  Sb1  1  0.25102000  0.82931301  0.96476800  1
  Sb  Sb2  1  0.74897999  0.17068700  0.03523202  1
  Bi  Bi3  1  0.75101999  0.67068701  0.46476801  1
  Bi  Bi4  1  0.24898000  0.32931300  0.53523200  1
  Au  Au5  1  0.83270299  0.76400201  0.07437902  1
  Cl  Cl6  1  0.90207598  0.93763301  0.80013801  1
  Cl  Cl7  1  0.33270299  0.73599801  0.57437900  1
  Cl  Cl8  1  0.40207599  0.56236701  0.30013801  1
  Cl  Cl9  1  0.09792400  0.06236700  0.19986200  1
  Cl  Cl10  1  0.16729700  0.23599800  0.92562100  1
  Cl  Cl11  1  0.66729699  0.26400200  0.42562101  1
  Cl  Cl12  1  0.99224698  0.48179001  0.25714502  1
  Cl  Cl13  1  0.00775300  0.51821001  0.74285499  1
  Cl  Cl14  1  0.49224699  0.01821000  0.75714500  1
  Cl  Cl15  1  0.50775299  0.98179001  0.24285501  1
  Cl  Cl16  1  0.49999999  0.50000001  0.00000001  1
  Cl  Cl17  1  0.00000000  0.00000000  0.50000000  1
  N  N18  1  0.49999999  0.50000001  0.50000001  1
  Cl  Cl19  1  0.00000000  0.00000000  0.00000000  1
