# generated using pymatgen
data_InCuHgSe2Br11
_symmetry_space_group_name_H-M   'P 1'
_cell_length_a   7.08468103
_cell_length_b   7.21020317
_cell_length_c   8.51179504
_cell_angle_alpha   90.00000000
_cell_angle_beta   90.00000000
_cell_angle_gamma   90.00000000
_symmetry_Int_Tables_number   1
_chemical_formula_structural   InCuHgSe2Br11
_chemical_formula_sum   'In1 Cu1 Hg1 Se2 Br11'
_cell_volume   434.79942639
_cell_formula_units_Z   1
loop_
 _symmetry_equiv_pos_site_id
 _symmetry_equiv_pos_as_xyz
  1  'x, y, z'
loop_
 _atom_site_type_symbol
 _atom_site_label
 _atom_site_symmetry_multiplicity
 _atom_site_fract_x
 _atom_site_fract_y
 _atom_site_fract_z
 _atom_site_occupancy
  Cu  Cu0  1  0.29611600  0.08136200  0.36027900  1
  Hg  Hg1  1  0.79611600  0.91863798  0.63972100  1
  Br  Br2  1  0.79611600  0.41863799  0.86027900  1
  In  In3  1  0.29611600  0.58136199  0.13972100  1
  Br  Br4  1  0.18461300  0.03201600  0.95179300  1
  Br  Br5  1  0.68461300  0.96798398  0.04820700  1
  Se  Se6  1  0.68461300  0.46798399  0.45179300  1
  Br  Br7  1  0.18461300  0.53201599  0.54820700  1
  Br  Br8  1  0.87564300  0.11301500  0.84079600  1
  Br  Br9  1  0.37564300  0.88698498  0.15920400  1
  Se  Se10  1  0.37564300  0.38698499  0.34079600  1
  Br  Br11  1  0.87564300  0.61301499  0.65920400  1
  Br  Br12  1  0.41009800  0.91388298  0.62225400  1
  Br  Br13  1  0.91009800  0.08611700  0.37774600  1
  Br  Br14  1  0.91009800  0.58611699  0.12225400  1
  Br  Br15  1  0.41009800  0.41388299  0.87774600  1
