# generated using pymatgen
data_Al3Si3GeO7
_symmetry_space_group_name_H-M   'P 1'
_cell_length_a   5.06825018
_cell_length_b   5.36152792
_cell_length_c   6.65923309
_cell_angle_alpha   90.00000000
_cell_angle_beta   90.00000000
_cell_angle_gamma   90.00000000
_symmetry_Int_Tables_number   1
_chemical_formula_structural   Al3Si3GeO7
_chemical_formula_sum   'Al3 Si3 Ge1 O7'
_cell_volume   180.95510225
_cell_formula_units_Z   1
loop_
 _symmetry_equiv_pos_site_id
 _symmetry_equiv_pos_as_xyz
  1  'x, y, z'
loop_
 _atom_site_type_symbol
 _atom_site_label
 _atom_site_symmetry_multiplicity
 _atom_site_fract_x
 _atom_site_fract_y
 _atom_site_fract_z
 _atom_site_occupancy
  Al  Al0  1  0.99252596  0.32204100  0.24640400  1
  Al  Al1  1  0.49252598  0.67795901  0.25359600  1
  Al  Al2  1  0.49252598  0.67795901  0.74640399  1
  Si  Si3  1  0.99252596  0.32204100  0.75359599  1
  Si  Si4  1  0.00170600  0.82188001  -0.00000000  1
  Si  Si5  1  0.50170598  0.17812000  0.49999999  1
  O  O6  1  0.91588997  0.12110600  -0.00000000  1
  Ge  Ge7  1  0.32859399  0.79610101  0.00000000  1
  O  O8  1  0.88432997  0.67833101  0.20324800  1
  O  O9  1  0.38432999  0.32166900  0.29675200  1
  O  O10  1  0.82859397  0.20389900  0.49999999  1
  O  O11  1  0.41588999  0.87889401  0.49999999  1
  O  O12  1  0.38432999  0.32166900  0.70324799  1
  O  O13  1  0.88432997  0.67833101  0.79675199  1
