# generated using pymatgen
data_RbTlBr2
_symmetry_space_group_name_H-M   'P 1'
_cell_length_a   4.76388311
_cell_length_b   10.80214405
_cell_length_c   18.11884689
_cell_angle_alpha   90.00000000
_cell_angle_beta   90.00000000
_cell_angle_gamma   90.00000000
_symmetry_Int_Tables_number   1
_chemical_formula_structural   RbTlBr2
_chemical_formula_sum   'Rb5 Tl5 Br10'
_cell_volume   932.39860860
_cell_formula_units_Z   5
loop_
 _symmetry_equiv_pos_site_id
 _symmetry_equiv_pos_as_xyz
  1  'x, y, z'
loop_
 _atom_site_type_symbol
 _atom_site_label
 _atom_site_symmetry_multiplicity
 _atom_site_fract_x
 _atom_site_fract_y
 _atom_site_fract_z
 _atom_site_occupancy
  Rb  Rb0  1  0.74999998  0.57146700  0.17524200  1
  Rb  Rb1  1  0.24999999  0.42853300  0.82475800  1
  Rb  Rb2  1  0.74999998  0.07146700  0.32475800  1
  Rb  Rb3  1  0.24999999  0.92853300  0.67524200  1
  Tl  Tl4  1  0.24999999  0.66258300  0.44413100  1
  Rb  Rb5  1  0.74999998  0.33741700  0.55586900  1
  Tl  Tl6  1  0.24999999  0.16258300  0.05586900  1
  Tl  Tl7  1  0.74999998  0.83741700  0.94413101  1
  Tl  Tl8  1  0.74999998  0.82918800  0.50342200  1
  Tl  Tl9  1  0.24999999  0.17081200  0.49657800  1
  Br  Br10  1  0.74999998  0.32918800  0.99657801  1
  Br  Br11  1  0.24999999  0.67081200  0.00342200  1
  Br  Br12  1  0.24999999  0.52408700  0.60053900  1
  Br  Br13  1  0.74999998  0.47591300  0.39946100  1
  Br  Br14  1  0.24999999  0.02408700  0.89946101  1
  Br  Br15  1  0.74999998  0.97591300  0.10053900  1
  Br  Br16  1  0.24999999  0.78525400  0.29147600  1
  Br  Br17  1  0.74999998  0.21474600  0.70852400  1
  Br  Br18  1  0.24999999  0.28525400  0.20852400  1
  Br  Br19  1  0.74999998  0.71474600  0.79147600  1
