# generated using pymatgen
data_Li4FeSbO6
_symmetry_space_group_name_H-M   'P 1'
_cell_length_a   5.24097013
_cell_length_b   5.24138212
_cell_length_c   5.62082529
_cell_angle_alpha   99.22366333
_cell_angle_beta   108.69938660
_cell_angle_gamma   60.00259781
_symmetry_Int_Tables_number   1
_chemical_formula_structural   Li4FeSbO6
_chemical_formula_sum   'Li4 Fe1 Sb1 O6'
_cell_volume   126.66235827
_cell_formula_units_Z   1
loop_
 _symmetry_equiv_pos_site_id
 _symmetry_equiv_pos_as_xyz
  1  'x, y, z'
loop_
 _atom_site_type_symbol
 _atom_site_label
 _atom_site_symmetry_multiplicity
 _atom_site_fract_x
 _atom_site_fract_y
 _atom_site_fract_z
 _atom_site_occupancy
  Li  Li0  1  0.84260704  0.31478601  0.50000003  1
  Li  Li1  1  0.15739300  0.68521402  0.50000002  1
  Li  Li2  1  0.50000003  0.00000000  0.50000000  1
  Li  Li3  1  0.00000000  0.00000000  0.00000000  1
  Fe  Fe4  1  0.33307001  0.33386001  0.00000002  1
  Sb  Sb5  1  0.66693003  0.66614002  0.00000005  1
  O  O6  1  0.30820302  0.00000000  0.80125899  1
  O  O7  1  0.44496502  0.62206902  0.19766904  1
  O  O8  1  0.06703400  0.37793101  0.19766901  1
  O  O9  1  0.55503503  0.37793101  0.80233101  1
  O  O10  1  0.93296604  0.62206902  0.80233103  1
  O  O11  1  0.69179704  0.00000000  0.19874102  1
