# generated using pymatgen
data_ScMnCdCu2As3PSe11
_symmetry_space_group_name_H-M   'P 1'
_cell_length_a   6.08492756
_cell_length_b   6.22193193
_cell_length_c   8.74403763
_cell_angle_alpha   89.51012421
_cell_angle_beta   90.53746033
_cell_angle_gamma   89.85308838
_symmetry_Int_Tables_number   1
_chemical_formula_structural   ScMnCdCu2As3PSe11
_chemical_formula_sum   'Sc1 Mn1 Cd1 Cu2 As3 P1 Se11'
_cell_volume   331.02148729
_cell_formula_units_Z   1
loop_
 _symmetry_equiv_pos_site_id
 _symmetry_equiv_pos_as_xyz
  1  'x, y, z'
loop_
 _atom_site_type_symbol
 _atom_site_label
 _atom_site_symmetry_multiplicity
 _atom_site_fract_x
 _atom_site_fract_y
 _atom_site_fract_z
 _atom_site_occupancy
  Cu  Cu0  1  0.00748465  0.95772399  0.25060495  1
  Sc  Sc1  1  0.99251531  0.04227600  0.74939506  1
  Cd  Cd2  1  0.48898532  0.45299938  0.25276694  1
  Mn  Mn3  1  0.51101464  0.54700062  0.74723308  1
  As  As4  1  0.49999998  0.00000000  -0.00000002  1
  Cu  Cu5  1  -0.00000000  0.50000000  0.50000003  1
  As  As6  1  -0.00000000  0.50000000  0.00000001  1
  P  P7  1  0.49999998  0.00000000  0.49999999  1
  Se  Se8  1  0.80977688  0.78211973  0.95095232  1
  Se  Se9  1  0.67799892  0.29040007  0.56170518  1
  As  As10  1  0.19022308  0.21788026  0.04904770  1
  Se  Se11  1  0.32200103  0.70959992  0.43829484  1
  Se  Se12  1  0.71407855  0.31595544  0.93086197  1
  Se  Se13  1  0.78346890  0.80360537  0.54114263  1
  Se  Se14  1  0.28592140  0.68404455  0.06913805  1
  Se  Se15  1  0.21653106  0.19639462  0.45885739  1
  Se  Se16  1  0.57861637  0.06822102  0.26366615  1
  Se  Se17  1  0.87367920  0.51629140  0.23353450  1
  Se  Se18  1  0.42138359  0.93177897  0.73633387  1
  Se  Se19  1  0.12632076  0.48370860  0.76646551  1
