# generated using pymatgen
data_Ba2Sr2CdSnS2
_symmetry_space_group_name_H-M   'P 1'
_cell_length_a   7.41976547
_cell_length_b   7.41976547
_cell_length_c   7.41976547
_cell_angle_alpha   98.18283844
_cell_angle_beta   115.39356995
_cell_angle_gamma   115.39356995
_symmetry_Int_Tables_number   1
_chemical_formula_structural   Ba2Sr2CdSnS2
_chemical_formula_sum   'Ba2 Sr2 Cd1 Sn1 S2'
_cell_volume   305.56777558
_cell_formula_units_Z   1
loop_
 _symmetry_equiv_pos_site_id
 _symmetry_equiv_pos_as_xyz
  1  'x, y, z'
loop_
 _atom_site_type_symbol
 _atom_site_label
 _atom_site_symmetry_multiplicity
 _atom_site_fract_x
 _atom_site_fract_y
 _atom_site_fract_z
 _atom_site_occupancy
  Ba  Ba0  1  0.49999998  0.74999998  0.24999996  1
  Ba  Ba1  1  0.00000000  0.00000000  0.00000000  1
  Sr  Sr2  1  0.49999999  0.24999999  0.74999998  1
  Sr  Sr3  1  -0.00000001  0.49999999  0.49999997  1
  S  S4  1  0.41319498  0.87499998  0.78819495  1
  Cd  Cd5  1  0.08680499  0.21180499  0.62499999  1
  Sn  Sn6  1  0.91319498  0.53819499  0.12499998  1
  S  S7  1  0.58680499  0.37499999  0.46180498  1
