# generated using pymatgen
data_Rb5Al3O8
_symmetry_space_group_name_H-M   'P 1'
_cell_length_a   5.90048790
_cell_length_b   5.90050220
_cell_length_c   8.24989700
_cell_angle_alpha   90.00009155
_cell_angle_beta   89.99977112
_cell_angle_gamma   89.99986267
_symmetry_Int_Tables_number   1
_chemical_formula_structural   Rb5Al3O8
_chemical_formula_sum   'Rb5 Al3 O8'
_cell_volume   287.22710944
_cell_formula_units_Z   1
loop_
 _symmetry_equiv_pos_site_id
 _symmetry_equiv_pos_as_xyz
  1  'x, y, z'
loop_
 _atom_site_type_symbol
 _atom_site_label
 _atom_site_symmetry_multiplicity
 _atom_site_fract_x
 _atom_site_fract_y
 _atom_site_fract_z
 _atom_site_occupancy
  Rb  Rb0  1  0.22278300  0.22277499  0.50000401  1
  Rb  Rb1  1  0.72281801  0.27723699  0.25000403  1
  Rb  Rb2  1  0.27717899  0.72277297  0.75000601  1
  Rb  Rb3  1  0.77718299  0.77726897  0.99999003  1
  Rb  Rb4  1  0.71093901  0.28906599  0.75000103  1
  Al  Al5  1  0.28905199  0.71093798  0.25000001  1
  Al  Al6  1  0.21094700  0.21094299  0.00000301  1
  Al  Al7  1  0.78904199  0.78906297  0.49999903  1
  O  O8  1  0.75624101  0.09244700  0.57217803  1
  O  O9  1  0.90756701  0.24377899  0.92782203  1
  O  O10  1  0.40756000  0.25623499  0.82217901  1
  O  O11  1  0.25628399  0.40754899  0.17782501  1
  O  O12  1  0.74371700  0.59244998  0.67782003  1
  O  O13  1  0.59243899  0.74376697  0.32217002  1
  O  O14  1  0.09242898  0.75625297  0.42782200  1
  O  O15  1  0.24371998  0.90755397  0.07217801  1
