# generated using pymatgen
data_AlCu2PS16
_symmetry_space_group_name_H-M   'P 1'
_cell_length_a   7.33924770
_cell_length_b   7.33924770
_cell_length_c   7.34017563
_cell_angle_alpha   117.55942535
_cell_angle_beta   117.55942535
_cell_angle_gamma   94.27515411
_symmetry_Int_Tables_number   1
_chemical_formula_structural   AlCu2PS16
_chemical_formula_sum   'Al1 Cu2 P1 S16'
_cell_volume   289.03092347
_cell_formula_units_Z   1
loop_
 _symmetry_equiv_pos_site_id
 _symmetry_equiv_pos_as_xyz
  1  'x, y, z'
loop_
 _atom_site_type_symbol
 _atom_site_label
 _atom_site_symmetry_multiplicity
 _atom_site_fract_x
 _atom_site_fract_y
 _atom_site_fract_z
 _atom_site_occupancy
  Al  Al0  1  0.25303199  0.00360200  0.50842999  1
  Cu  Cu1  1  0.75482797  0.00539800  0.00842997  1
  P  P2  1  0.25539800  0.50482799  0.50842998  1
  Cu  Cu3  1  0.25360199  0.00303200  0.00842999  1
  S  S4  1  0.51196799  0.41431499  0.34950597  1
  S  S5  1  0.83753798  0.93518997  0.34950595  1
  S  S6  1  0.18519000  0.58753798  0.84950497  1
  S  S7  1  0.66431498  0.26196799  0.84950497  1
  S  S8  1  0.35205699  0.34307399  0.26469498  1
  S  S9  1  0.91263798  0.92162097  0.26469494  1
  S  S10  1  0.94251098  0.94251097  0.88502194  1
  S  S11  1  0.32068699  0.32068699  0.64137398  1
  S  S12  1  0.31049800  0.93210097  0.25254897  1
  S  S13  1  0.94205097  0.32044799  0.25254896  1
  S  S14  1  0.17162100  0.66263798  0.76469497  1
  S  S15  1  0.59307398  0.10205700  0.76469497  1
  S  S16  1  0.57068698  0.07068700  0.14137398  1
  S  S17  1  0.19251100  0.69251098  0.38502197  1
  S  S18  1  0.18210099  0.06049800  0.75254899  1
  S  S19  1  0.57044799  0.69205098  0.75254896  1
