# generated using pymatgen
data_LaCeH6O
_symmetry_space_group_name_H-M   'P 1'
_cell_length_a   3.72111726
_cell_length_b   5.71436691
_cell_length_c   5.71436691
_cell_angle_alpha   97.14894867
_cell_angle_beta   97.51303864
_cell_angle_gamma   97.51303864
_symmetry_Int_Tables_number   1
_chemical_formula_structural   LaCeH6O
_chemical_formula_sum   'La1 Ce1 H6 O1'
_cell_volume   118.18711271
_cell_formula_units_Z   1
loop_
 _symmetry_equiv_pos_site_id
 _symmetry_equiv_pos_as_xyz
  1  'x, y, z'
loop_
 _atom_site_type_symbol
 _atom_site_label
 _atom_site_symmetry_multiplicity
 _atom_site_fract_x
 _atom_site_fract_y
 _atom_site_fract_z
 _atom_site_occupancy
  Ce  Ce0  1  0.00000000  0.00000000  0.00000000  1
  La  La1  1  0.84143402  0.60125002  0.22322803  1
  H  H2  1  0.15856604  0.77677203  0.39875002  1
  H  H3  1  0.84143400  0.22322801  0.60125003  1
  H  H4  1  0.15856602  0.39875001  0.77677203  1
  H  H5  1  0.57946101  0.23624201  0.23624202  1
  H  H6  1  0.42053904  0.76375803  0.76375804  1
  H  H7  1  1.00000000  0.24296101  0.75703904  1
  O  O8  1  1.00000003  0.75703903  0.24296103  1
