# generated using pymatgen
data_Ba2SrLa2Cl9
_symmetry_space_group_name_H-M   'P 1'
_cell_length_a   4.27053499
_cell_length_b   7.45478487
_cell_length_c   13.14124966
_cell_angle_alpha   94.28332520
_cell_angle_beta   90.00000000
_cell_angle_gamma   90.00000000
_symmetry_Int_Tables_number   1
_chemical_formula_structural   Ba2SrLa2Cl9
_chemical_formula_sum   'Ba2 Sr1 La2 Cl9'
_cell_volume   417.19524147
_cell_formula_units_Z   1
loop_
 _symmetry_equiv_pos_site_id
 _symmetry_equiv_pos_as_xyz
  1  'x, y, z'
loop_
 _atom_site_type_symbol
 _atom_site_label
 _atom_site_symmetry_multiplicity
 _atom_site_fract_x
 _atom_site_fract_y
 _atom_site_fract_z
 _atom_site_occupancy
  Ba  Ba0  1  0.25000000  0.45799401  0.64736001  1
  Ba  Ba1  1  0.75000000  0.54200601  0.35264001  1
  La  La2  1  0.75000000  0.04913500  0.83939500  1
  Sr  Sr3  1  0.25000000  0.95086502  0.16060502  1
  Cl  Cl4  1  0.25000000  0.04594200  0.68606400  1
  La  La5  1  0.75000000  0.14295900  0.06565700  1
  Cl  Cl6  1  0.75000000  0.30848401  0.52346100  1
  Cl  Cl7  1  0.25000000  0.32429901  0.87871700  1
  Cl  Cl8  1  0.25000000  0.31605701  0.26008400  1
  Cl  Cl9  1  0.75000000  0.68394301  0.73991601  1
  Cl  Cl10  1  0.75000000  0.67570101  0.12128301  1
  Cl  Cl11  1  0.25000000  0.69151601  0.47653901  1
  Cl  Cl12  1  0.25000000  0.85704102  0.93434301  1
  Cl  Cl13  1  0.75000000  0.95405802  0.31393602  1
