# generated using pymatgen
data_KLiO2
_symmetry_space_group_name_H-M   'P 1'
_cell_length_a   5.91096592
_cell_length_b   6.69776392
_cell_length_c   8.00859356
_cell_angle_alpha   90.00000000
_cell_angle_beta   90.00000000
_cell_angle_gamma   116.18456268
_symmetry_Int_Tables_number   1
_chemical_formula_structural   KLiO2
_chemical_formula_sum   'K4 Li4 O8'
_cell_volume   284.52446837
_cell_formula_units_Z   4
loop_
 _symmetry_equiv_pos_site_id
 _symmetry_equiv_pos_as_xyz
  1  'x, y, z'
loop_
 _atom_site_type_symbol
 _atom_site_label
 _atom_site_symmetry_multiplicity
 _atom_site_fract_x
 _atom_site_fract_y
 _atom_site_fract_z
 _atom_site_occupancy
  K  K0  1  0.06076799  0.12153599  0.15062301  1
  K  K1  1  0.93923195  0.87846396  0.65062304  1
  K  K2  1  0.60300199  0.20600399  0.50304903  1
  K  K3  1  0.39699795  0.79399597  0.00304900  1
  Li  Li4  1  0.79598397  0.59196797  0.23057201  1
  Li  Li5  1  0.20401597  0.40803198  0.73057204  1
  Li  Li6  1  0.68933898  0.37867798  0.94463505  1
  Li  Li7  1  0.31066096  0.62132197  0.44463502  1
  O  O8  1  0.88160499  0.28853199  0.83964805  1
  O  O9  1  0.11839495  0.71146797  0.33964802  1
  O  O10  1  0.63401399  0.26802799  0.14479601  1
  O  O11  1  0.36598595  0.73197197  0.64479604  1
  O  O12  1  0.40692698  0.28853199  0.83964805  1
  O  O13  1  0.59307295  0.71146797  0.33964802  1
  O  O14  1  0.16763198  0.33526399  0.47612903  1
  O  O15  1  0.83236796  0.66473597  0.97612905  1
