# generated using pymatgen
data_NaCa2Mg(InS3)2
_symmetry_space_group_name_H-M   'P 1'
_cell_length_a   4.02307987
_cell_length_b   4.02308035
_cell_length_c   17.54495621
_cell_angle_alpha   90.00000000
_cell_angle_beta   90.00000000
_cell_angle_gamma   120.00000000
_symmetry_Int_Tables_number   1
_chemical_formula_structural   NaCa2Mg(InS3)2
_chemical_formula_sum   'Na1 Ca2 Mg1 In2 S6'
_cell_volume   245.92364181
_cell_formula_units_Z   1
loop_
 _symmetry_equiv_pos_site_id
 _symmetry_equiv_pos_as_xyz
  1  'x, y, z'
loop_
 _atom_site_type_symbol
 _atom_site_label
 _atom_site_symmetry_multiplicity
 _atom_site_fract_x
 _atom_site_fract_y
 _atom_site_fract_z
 _atom_site_occupancy
  Mg  Mg0  1  0.66666671  0.33333335  0.75000003  1
  Na  Na1  1  0.33333339  0.66666671  0.25000001  1
  Ca  Ca2  1  0.00000000  0.00000000  0.00000000  1
  Ca  Ca3  1  0.00000000  0.00000000  0.50000002  1
  In  In4  1  0.66666671  0.33333335  0.91115304  1
  In  In5  1  0.33333339  0.66666671  0.08884700  1
  S  S6  1  0.33333339  0.66666671  0.41115302  1
  S  S7  1  0.66666671  0.33333335  0.58884703  1
  S  S8  1  0.66666671  0.33333335  0.25000001  1
  S  S9  1  0.33333339  0.66666671  0.75000003  1
  S  S10  1  0.00000000  0.00000000  0.75000003  1
  S  S11  1  0.00000000  0.00000000  0.25000001  1
