# generated using pymatgen
data_BaCu2SbMoHI12
_symmetry_space_group_name_H-M   'P 1'
_cell_length_a   8.02472782
_cell_length_b   8.37660027
_cell_length_c   8.02472782
_cell_angle_alpha   118.61989594
_cell_angle_beta   90.00000000
_cell_angle_gamma   118.61989594
_symmetry_Int_Tables_number   1
_chemical_formula_structural   BaCu2SbMoHI12
_chemical_formula_sum   'Ba1 Cu2 Sb1 Mo1 H1 I12'
_cell_volume   396.80481626
_cell_formula_units_Z   1
loop_
 _symmetry_equiv_pos_site_id
 _symmetry_equiv_pos_as_xyz
  1  'x, y, z'
loop_
 _atom_site_type_symbol
 _atom_site_label
 _atom_site_symmetry_multiplicity
 _atom_site_fract_x
 _atom_site_fract_y
 _atom_site_fract_z
 _atom_site_occupancy
  Ba  Ba0  1  0.81443896  0.99999989  0.68556096  1
  Sb  Sb1  1  0.18556100  0.00000000  0.31443901  1
  Cu  Cu2  1  0.31443901  0.00000000  0.81443902  1
  Cu  Cu3  1  0.68556101  0.00000000  0.18556100  1
  I  I4  1  0.74999999  0.49999995  0.74999999  1
  Mo  Mo5  1  0.24999998  0.49999995  0.24999998  1
  I  I6  1  0.74999999  0.49999995  0.24999998  1
  I  I7  1  0.24999998  0.49999995  0.74999999  1
  I  I8  1  0.52898799  0.31621597  0.28722799  1
  I  I9  1  0.78722800  0.31621597  0.02898798  1
  I  I10  1  0.02898798  0.31621597  0.52898799  1
  I  I11  1  0.28722799  0.31621597  0.78722800  1
  H  H12  1  0.47101197  0.68378393  0.71277198  1
  I  I13  1  0.21277196  0.68378393  0.97101198  1
  I  I14  1  0.97101198  0.68378393  0.47101197  1
  I  I15  1  0.71277198  0.68378393  0.21277197  1
  I  I16  1  0.50000001  0.00000000  0.50000001  1
  I  I17  1  0.00000000  0.00000000  0.00000000  1
