# generated using pymatgen
data_NiP6O13
_symmetry_space_group_name_H-M   'P 1'
_cell_length_a   5.20155621
_cell_length_b   6.73439741
_cell_length_c   8.20841217
_cell_angle_alpha   69.97316742
_cell_angle_beta   88.44026184
_cell_angle_gamma   88.92804718
_symmetry_Int_Tables_number   1
_chemical_formula_structural   NiP6O13
_chemical_formula_sum   'Ni1 P6 O13'
_cell_volume   270.03514819
_cell_formula_units_Z   1
loop_
 _symmetry_equiv_pos_site_id
 _symmetry_equiv_pos_as_xyz
  1  'x, y, z'
loop_
 _atom_site_type_symbol
 _atom_site_label
 _atom_site_symmetry_multiplicity
 _atom_site_fract_x
 _atom_site_fract_y
 _atom_site_fract_z
 _atom_site_occupancy
  P  P0  1  0.24180199  0.20787900  0.73099203  1
  Ni  Ni1  1  0.75819796  0.79212102  0.26900799  1
  P  P2  1  0.24297299  0.10758000  0.16619400  1
  P  P3  1  0.27549098  0.45620201  0.31240101  1
  P  P4  1  0.72450896  0.54379801  0.68759901  1
  P  P5  1  0.75702696  0.89242002  0.83380602  1
  P  P6  1  0.02977998  0.95819202  0.76501905  1
  O  O7  1  0.07016499  0.62637801  0.25777502  1
  O  O8  1  0.21145699  0.28240601  0.48808002  1
  O  O9  1  0.27787898  0.34203901  0.16961600  1
  O  O10  1  0.27473699  0.13707900  0.97278204  1
  O  O11  1  0.45193097  0.96597202  0.27288701  1
  O  O12  1  0.45334498  0.46122801  0.69267102  1
  O  O13  1  0.54665497  0.53877201  0.30732900  1
  O  O14  1  0.54806898  0.03402800  0.72711302  1
  O  O15  1  0.72526296  0.86292102  0.02721798  1
  O  O16  1  0.97021996  0.04180800  0.23498098  1
  O  O17  1  0.78854296  0.71759402  0.51192000  1
  O  O18  1  0.92983496  0.37362201  0.74222501  1
  O  O19  1  0.72212096  0.65796101  0.83038402  1
