# generated using pymatgen
data_Na3Bi2P(PbO5)2
_symmetry_space_group_name_H-M   'P 1'
_cell_length_a   4.49722815
_cell_length_b   7.61560345
_cell_length_c   8.75000381
_cell_angle_alpha   107.16477966
_cell_angle_beta   90.00000000
_cell_angle_gamma   107.17337036
_symmetry_Int_Tables_number   1
_chemical_formula_structural   Na3Bi2P(PbO5)2
_chemical_formula_sum   'Na3 Bi2 P1 Pb2 O10'
_cell_volume   272.31693101
_cell_formula_units_Z   1
loop_
 _symmetry_equiv_pos_site_id
 _symmetry_equiv_pos_as_xyz
  1  'x, y, z'
loop_
 _atom_site_type_symbol
 _atom_site_label
 _atom_site_symmetry_multiplicity
 _atom_site_fract_x
 _atom_site_fract_y
 _atom_site_fract_z
 _atom_site_occupancy
  Na  Na0  1  0.35029595  0.69147099  0.92399900  1
  Na  Na1  1  0.64970396  0.30852900  0.07600100  1
  Na  Na2  1  0.65882496  0.30852900  0.57600100  1
  Pb  Pb3  1  0.34117495  0.69147099  0.42399900  1
  Pb  Pb4  1  0.95130797  0.00000000  0.75000001  1
  Bi  Bi5  1  0.04869200  0.00000000  0.25000000  1
  Bi  Bi6  1  0.77612292  0.82144799  0.20631799  1
  P  P7  1  0.24669299  0.00281000  0.39003801  1
  O  O8  1  0.24388293  0.99718999  0.10996199  1
  O  O9  1  0.95467496  0.17855200  0.29368200  1
  O  O10  1  0.22387698  0.17855200  0.79368201  1
  O  O11  1  0.04532495  0.82144799  0.70631800  1
  O  O12  1  0.75611698  0.00281000  0.89003801  1
  O  O13  1  0.75330691  0.99718999  0.60996200  1
  O  O14  1  0.22409996  0.49412199  0.12331300  1
  O  O15  1  0.72997795  0.50587799  0.37668700  1
  O  O16  1  0.77589994  0.50587799  0.87668701  1
  O  O17  1  0.27002196  0.49412199  0.62331300  1
