# generated using pymatgen
data_RbAl2Tl2SiHgO9
_symmetry_space_group_name_H-M   'P 1'
_cell_length_a   3.71284389
_cell_length_b   6.52949715
_cell_length_c   11.32931995
_cell_angle_alpha   90.00000000
_cell_angle_beta   90.00000000
_cell_angle_gamma   90.00000000
_symmetry_Int_Tables_number   1
_chemical_formula_structural   RbAl2Tl2SiHgO9
_chemical_formula_sum   'Rb1 Al2 Tl2 Si1 Hg1 O9'
_cell_volume   274.65674463
_cell_formula_units_Z   1
loop_
 _symmetry_equiv_pos_site_id
 _symmetry_equiv_pos_as_xyz
  1  'x, y, z'
loop_
 _atom_site_type_symbol
 _atom_site_label
 _atom_site_symmetry_multiplicity
 _atom_site_fract_x
 _atom_site_fract_y
 _atom_site_fract_z
 _atom_site_occupancy
  Rb  Rb0  1  0.50000001  0.40696199  -0.00000000  1
  Tl  Tl1  1  0.00000000  0.59303799  0.50000000  1
  Al  Al2  1  0.00000000  0.07996300  0.15122000  1
  Tl  Tl3  1  0.50000001  0.92003698  0.34878000  1
  Hg  Hg4  1  0.50000001  0.92003698  0.65122000  1
  Al  Al5  1  0.00000000  0.07996300  0.84878000  1
  Si  Si6  1  0.00000000  0.98469598  -0.00000000  1
  O  O7  1  0.00000000  0.33354699  0.13427900  1
  O  O8  1  0.50000001  0.00829500  0.18113300  1
  O  O9  1  0.00000000  0.99170498  0.31886700  1
  O  O10  1  0.50000001  0.66645299  0.36572100  1
  O  O11  1  0.50000001  0.01530400  0.50000000  1
  O  O12  1  0.50000001  0.66645299  0.63427900  1
  O  O13  1  0.00000000  0.99170498  0.68113300  1
  O  O14  1  0.50000001  0.00829500  0.81886700  1
  O  O15  1  0.00000000  0.33354699  0.86572100  1
