# generated using pymatgen
data_Cs3TlAuBr8
_symmetry_space_group_name_H-M   'P 1'
_cell_length_a   7.17313337
_cell_length_b   7.17313337
_cell_length_c   10.78974628
_cell_angle_alpha   73.26627350
_cell_angle_beta   73.26627350
_cell_angle_gamma   62.64659882
_symmetry_Int_Tables_number   1
_chemical_formula_structural   Cs3TlAuBr8
_chemical_formula_sum   'Cs3 Tl1 Au1 Br8'
_cell_volume   464.24667016
_cell_formula_units_Z   1
loop_
 _symmetry_equiv_pos_site_id
 _symmetry_equiv_pos_as_xyz
  1  'x, y, z'
loop_
 _atom_site_type_symbol
 _atom_site_label
 _atom_site_symmetry_multiplicity
 _atom_site_fract_x
 _atom_site_fract_y
 _atom_site_fract_z
 _atom_site_occupancy
  Cs  Cs0  1  0.39703597  0.39703600  0.83338197  1
  Cs  Cs1  1  0.60296396  0.60296399  0.16661800  1
  Cs  Cs2  1  0.13237199  0.13237200  0.60820998  1
  Tl  Tl3  1  0.86762794  0.86762799  0.39179000  1
  Au  Au4  1  0.00000000  0.00000000  0.00000000  1
  Br  Br5  1  0.34722198  0.34722200  0.50058699  1
  Br  Br6  1  0.36624095  0.89806399  0.86761598  1
  Br  Br7  1  0.08352299  0.08352300  0.30692499  1
  Br  Br8  1  0.91647694  0.91647699  0.69307498  1
  Br  Br9  1  0.65277795  0.65277799  0.49941299  1
  Br  Br10  1  0.63375898  0.10193600  0.13238400  1
  Br  Br11  1  0.10193597  0.63375899  0.13238400  1
  Br  Br12  1  0.89806396  0.36624100  0.86761597  1
