# generated using pymatgen
data_RbMoO4
_symmetry_space_group_name_H-M   'P 1'
_cell_length_a   5.64307022
_cell_length_b   5.64307022
_cell_length_c   7.64753389
_cell_angle_alpha   90.00000000
_cell_angle_beta   90.00000000
_cell_angle_gamma   120.00000000
_symmetry_Int_Tables_number   1
_chemical_formula_structural   RbMoO4
_chemical_formula_sum   'Rb2 Mo2 O8'
_cell_volume   210.90309412
_cell_formula_units_Z   2
loop_
 _symmetry_equiv_pos_site_id
 _symmetry_equiv_pos_as_xyz
  1  'x, y, z'
loop_
 _atom_site_type_symbol
 _atom_site_label
 _atom_site_symmetry_multiplicity
 _atom_site_fract_x
 _atom_site_fract_y
 _atom_site_fract_z
 _atom_site_occupancy
  Rb  Rb0  1  0.00000000  0.00000000  0.00000000  1
  Rb  Rb1  1  0.00000000  0.00000000  0.50000001  1
  Mo  Mo2  1  0.33333332  0.66666664  0.78039601  1
  Mo  Mo3  1  0.66666664  0.33333332  0.21960400  1
  O  O4  1  0.15737699  0.31475399  0.85295501  1
  O  O5  1  0.15737700  0.84262297  0.85295501  1
  O  O6  1  0.68524598  0.84262297  0.85295501  1
  O  O7  1  0.31475399  0.15737699  0.14704500  1
  O  O8  1  0.66666664  0.33333332  0.44896801  1
  O  O9  1  0.33333332  0.66666664  0.55103201  1
  O  O10  1  0.84262297  0.68524598  0.14704500  1
  O  O11  1  0.84262297  0.15737699  0.14704500  1
