# generated using pymatgen
data_Rb2Ba3Tl2WO10
_symmetry_space_group_name_H-M   'P 1'
_cell_length_a   5.91083622
_cell_length_b   6.36407709
_cell_length_c   8.56427860
_cell_angle_alpha   102.36499786
_cell_angle_beta   90.00000000
_cell_angle_gamma   90.00000000
_symmetry_Int_Tables_number   1
_chemical_formula_structural   Rb2Ba3Tl2WO10
_chemical_formula_sum   'Rb2 Ba3 Tl2 W1 O10'
_cell_volume   314.68950048
_cell_formula_units_Z   1
loop_
 _symmetry_equiv_pos_site_id
 _symmetry_equiv_pos_as_xyz
  1  'x, y, z'
loop_
 _atom_site_type_symbol
 _atom_site_label
 _atom_site_symmetry_multiplicity
 _atom_site_fract_x
 _atom_site_fract_y
 _atom_site_fract_z
 _atom_site_occupancy
  Ba  Ba0  1  0.75861397  0.15771900  0.18681299  1
  Ba  Ba1  1  0.25861399  0.84228098  0.81318695  1
  Ba  Ba2  1  0.24801899  0.68894999  0.27636598  1
  Rb  Rb3  1  0.74801897  0.31104999  0.72363396  1
  Tl  Tl4  1  0.52610298  0.56032199  0.73081996  1
  Rb  Rb5  1  0.96286996  0.05758500  0.71280197  1
  Tl  Tl6  1  0.00001300  0.53754099  0.74144596  1
  W  W7  1  0.96816596  0.88131398  0.28342297  1
  O  O8  1  0.02610300  0.43967799  0.26917998  1
  O  O9  1  0.57622898  0.94773698  0.97565494  1
  O  O10  1  0.07622900  0.05226300  0.02434500  1
  O  O11  1  0.75261597  0.25721200  0.48129897  1
  O  O12  1  0.46816598  0.11868600  0.71657697  1
  O  O13  1  0.46286998  0.94241498  0.28719797  1
  O  O14  1  0.50001298  0.46245899  0.25855398  1
  O  O15  1  0.25261599  0.74278799  0.51870097  1
  O  O16  1  0.24756799  0.64309999  0.03267299  1
  O  O17  1  0.74756797  0.35689999  0.96732695  1
