# generated using pymatgen
data_SrCa2LuScZn(CuS6)2
_symmetry_space_group_name_H-M   'P 1'
_cell_length_a   6.30032301
_cell_length_b   6.37198877
_cell_length_c   8.93352318
_cell_angle_alpha   90.00000000
_cell_angle_beta   89.76015472
_cell_angle_gamma   90.00000000
_symmetry_Int_Tables_number   1
_chemical_formula_structural   SrCa2LuScZn(CuS6)2
_chemical_formula_sum   'Sr1 Ca2 Lu1 Sc1 Zn1 Cu2 S12'
_cell_volume   358.63839400
_cell_formula_units_Z   1
loop_
 _symmetry_equiv_pos_site_id
 _symmetry_equiv_pos_as_xyz
  1  'x, y, z'
loop_
 _atom_site_type_symbol
 _atom_site_label
 _atom_site_symmetry_multiplicity
 _atom_site_fract_x
 _atom_site_fract_y
 _atom_site_fract_z
 _atom_site_occupancy
  Sr  Sr0  1  0.49103800  0.46475602  0.75106899  1
  Ca  Ca1  1  0.00896200  0.96475603  0.74893101  1
  Ca  Ca2  1  0.99103800  0.03524400  0.25106897  1
  Lu  Lu3  1  0.50896200  0.53524402  0.24893099  1
  Zn  Zn4  1  0.00000000  0.50000002  0.50000001  1
  Sc  Sc5  1  0.50000000  1.00000004  -0.00000002  1
  Cu  Cu6  1  0.00000000  0.50000002  -0.00000000  1
  Cu  Cu7  1  0.50000000  0.00000000  0.49999999  1
  S  S8  1  0.08780000  0.46854602  0.22625600  1
  S  S9  1  0.41220000  0.96854603  0.27374399  1
  S  S10  1  0.91220000  0.53145402  0.77374398  1
  S  S11  1  0.58780000  0.03145400  0.72625599  1
  S  S12  1  0.23465800  0.19016401  0.54227000  1
  S  S13  1  0.26534200  0.69016402  0.95773000  1
  S  S14  1  0.76534200  0.80983603  0.45772998  1
  S  S15  1  0.73465800  0.30983601  0.04226998  1
  S  S16  1  0.81234100  0.76546903  0.05215197  1
  S  S17  1  0.68765900  0.26546901  0.44784798  1
  S  S18  1  0.18765900  0.23453101  0.94784800  1
  S  S19  1  0.31234100  0.73453103  0.55215200  1
