# generated using pymatgen
data_BaCa2Al2Sn2Ge2Pd
_symmetry_space_group_name_H-M   'P 1'
_cell_length_a   6.24037218
_cell_length_b   7.14911222
_cell_length_c   7.14911127
_cell_angle_alpha   120.00000000
_cell_angle_beta   90.00000000
_cell_angle_gamma   90.00000000
_symmetry_Int_Tables_number   1
_chemical_formula_structural   BaCa2Al2Sn2Ge2Pd
_chemical_formula_sum   'Ba1 Ca2 Al2 Sn2 Ge2 Pd1'
_cell_volume   276.21375057
_cell_formula_units_Z   1
loop_
 _symmetry_equiv_pos_site_id
 _symmetry_equiv_pos_as_xyz
  1  'x, y, z'
loop_
 _atom_site_type_symbol
 _atom_site_label
 _atom_site_symmetry_multiplicity
 _atom_site_fract_x
 _atom_site_fract_y
 _atom_site_fract_z
 _atom_site_occupancy
  Ba  Ba0  1  0.74999998  0.33333331  0.66666667  1
  Ca  Ca1  1  0.24999999  0.66666663  0.33333331  1
  Al  Al2  1  0.49999999  0.00000000  -0.00000000  1
  Ca  Ca3  1  0.00000000  0.00000000  0.00000000  1
  Al  Al4  1  0.24999999  0.15709999  0.84290102  1
  Sn  Sn5  1  0.74999998  0.84289995  0.68579998  1
  Sn  Sn6  1  0.74999998  0.31419898  0.15709899  1
  Ge  Ge7  1  0.24999999  0.68580096  0.84290099  1
  Pd  Pd8  1  0.74999998  0.84289995  0.15709896  1
  Ge  Ge9  1  0.24999999  0.15709999  0.31420000  1
