# generated using pymatgen
data_BaSrCaTa2AlSn2GePd
_symmetry_space_group_name_H-M   'P 1'
_cell_length_a   6.51622200
_cell_length_b   7.55185223
_cell_length_c   7.55185127
_cell_angle_alpha   120.00000000
_cell_angle_beta   90.00000000
_cell_angle_gamma   90.00000000
_symmetry_Int_Tables_number   1
_chemical_formula_structural   BaSrCaTa2AlSn2GePd
_chemical_formula_sum   'Ba1 Sr1 Ca1 Ta2 Al1 Sn2 Ge1 Pd1'
_cell_volume   321.83510560
_cell_formula_units_Z   1
loop_
 _symmetry_equiv_pos_site_id
 _symmetry_equiv_pos_as_xyz
  1  'x, y, z'
loop_
 _atom_site_type_symbol
 _atom_site_label
 _atom_site_symmetry_multiplicity
 _atom_site_fract_x
 _atom_site_fract_y
 _atom_site_fract_z
 _atom_site_occupancy
  Ba  Ba0  1  0.75000000  0.33333331  0.66666666  1
  Sr  Sr1  1  0.25000000  0.66666663  0.33333330  1
  Al  Al2  1  0.00000000  0.00000000  0.00000000  1
  Ca  Ca3  1  0.50000000  0.00000000  -0.00000000  1
  Pd  Pd4  1  0.75000000  0.84057395  0.15942496  1
  Ta  Ta5  1  0.25000000  0.15942599  0.31885200  1
  Sn  Sn6  1  0.75000000  0.84057395  0.68114797  1
  Ta  Ta7  1  0.25000000  0.68114896  0.84057498  1
  Sn  Sn8  1  0.75000000  0.31885098  0.15942499  1
  Ge  Ge9  1  0.25000000  0.15942599  0.84057501  1
