# generated using pymatgen
data_NaCeMgTi(HN)2
_symmetry_space_group_name_H-M   'P 1'
_cell_length_a   5.56475210
_cell_length_b   5.56475210
_cell_length_c   5.56475210
_cell_angle_alpha   90.00000000
_cell_angle_beta   90.00000000
_cell_angle_gamma   90.00000000
_symmetry_Int_Tables_number   1
_chemical_formula_structural   NaCeMgTi(HN)2
_chemical_formula_sum   'Na1 Ce1 Mg1 Ti1 H2 N2'
_cell_volume   172.32070651
_cell_formula_units_Z   1
loop_
 _symmetry_equiv_pos_site_id
 _symmetry_equiv_pos_as_xyz
  1  'x, y, z'
loop_
 _atom_site_type_symbol
 _atom_site_label
 _atom_site_symmetry_multiplicity
 _atom_site_fract_x
 _atom_site_fract_y
 _atom_site_fract_z
 _atom_site_occupancy
  Na  Na0  1  0.00000000  0.00000000  0.00000000  1
  Mg  Mg1  1  0.00000000  0.00000000  0.49999999  1
  Ce  Ce2  1  0.00000000  0.49999999  -0.00000000  1
  Ti  Ti3  1  0.49999999  0.00000000  -0.00000000  1
  H  H4  1  0.75949799  0.75949799  0.24050200  1
  N  N5  1  0.75949799  0.24050200  0.75949799  1
  N  N6  1  0.24050200  0.75949799  0.75949799  1
  H  H7  1  0.24050200  0.24050200  0.24050200  1
