# generated using pymatgen
data_Sr3LaBi3SbO12
_symmetry_space_group_name_H-M   'P 1'
_cell_length_a   5.47312498
_cell_length_b   5.53686190
_cell_length_c   8.06216431
_cell_angle_alpha   90.00000000
_cell_angle_beta   90.03860474
_cell_angle_gamma   90.00000000
_symmetry_Int_Tables_number   1
_chemical_formula_structural   Sr3LaBi3SbO12
_chemical_formula_sum   'Sr3 La1 Bi3 Sb1 O12'
_cell_volume   244.31526508
_cell_formula_units_Z   1
loop_
 _symmetry_equiv_pos_site_id
 _symmetry_equiv_pos_as_xyz
  1  'x, y, z'
loop_
 _atom_site_type_symbol
 _atom_site_label
 _atom_site_symmetry_multiplicity
 _atom_site_fract_x
 _atom_site_fract_y
 _atom_site_fract_z
 _atom_site_occupancy
  Sr  Sr0  1  0.49387000  0.21890200  0.75059596  1
  Sr  Sr1  1  0.99387000  0.78109801  0.25059600  1
  Sr  Sr2  1  0.51413000  0.29871601  0.24820299  1
  La  La3  1  0.01413000  0.70128401  0.74820296  1
  Bi  Bi4  1  0.50057800  0.75745401  0.99919495  1
  Bi  Bi5  1  0.00057800  0.24254600  0.49919497  1
  Bi  Bi6  1  0.50265600  0.75411901  0.50029698  1
  Sb  Sb7  1  0.00265600  0.24588100  0.00029700  1
  O  O8  1  0.20603700  0.95608302  0.54648197  1
  O  O9  1  0.70603700  0.04391700  0.04648200  1
  O  O10  1  0.77804500  0.52866001  0.45986798  1
  O  O11  1  0.27804500  0.47134001  0.95986795  1
  O  O12  1  0.70183800  0.04519000  0.45443398  1
  O  O13  1  0.20183800  0.95481002  0.95443395  1
  O  O14  1  0.27750400  0.47159801  0.54144197  1
  O  O15  1  0.77750400  0.52840201  0.04144201  1
  O  O16  1  0.58938400  0.76207801  0.74231796  1
  O  O17  1  0.08938400  0.23792200  0.24231799  1
  O  O18  1  0.43595900  0.72890501  0.25716399  1
  O  O19  1  0.93595900  0.27109501  0.75716396  1
