# generated using pymatgen
data_SrLi5CaPrTiVO10
_symmetry_space_group_name_H-M   'P 1'
_cell_length_a   5.55499792
_cell_length_b   5.55499792
_cell_length_c   8.78097439
_cell_angle_alpha   108.43984222
_cell_angle_beta   108.43984222
_cell_angle_gamma   90.00000000
_symmetry_Int_Tables_number   1
_chemical_formula_structural   SrLi5CaPrTiVO10
_chemical_formula_sum   'Sr1 Li5 Ca1 Pr1 Ti1 V1 O10'
_cell_volume   242.34143877
_cell_formula_units_Z   1
loop_
 _symmetry_equiv_pos_site_id
 _symmetry_equiv_pos_as_xyz
  1  'x, y, z'
loop_
 _atom_site_type_symbol
 _atom_site_label
 _atom_site_symmetry_multiplicity
 _atom_site_fract_x
 _atom_site_fract_y
 _atom_site_fract_z
 _atom_site_occupancy
  Li  Li0  1  0.50000002  0.50000001  0.00000002  1
  Sr  Sr1  1  0.25131701  0.25131701  0.50263399  1
  Ca  Ca2  1  0.74868304  0.74868302  0.49736602  1
  Pr  Pr3  1  0.00000000  0.00000000  0.00000000  1
  Li  Li4  1  0.37585903  0.87585902  0.75171800  1
  Li  Li5  1  0.12414102  0.62414102  0.24828201  1
  Li  Li6  1  0.87585903  0.37585901  0.75171800  1
  Li  Li7  1  0.62414102  0.12414100  0.24828201  1
  Ti  Ti8  1  0.25000002  0.75000002  0.50000001  1
  O  O9  1  0.00000001  0.50000001  0.99999998  1
  V  V10  1  0.75000002  0.25000001  0.50000000  1
  O  O11  1  0.50000001  0.00000000  0.00000001  1
  O  O12  1  0.36778703  0.88016402  0.24795102  1
  O  O13  1  0.11983602  0.63221302  0.75204899  1
  O  O14  1  0.88016403  0.36778701  0.24795102  1
  O  O15  1  0.63221302  0.11983600  0.75204899  1
  O  O16  1  0.36778702  0.36778701  0.24795101  1
  O  O17  1  0.11983601  0.11983600  0.75204898  1
  O  O18  1  0.88016404  0.88016402  0.24795103  1
  O  O19  1  0.63221303  0.63221302  0.75204900  1
