# generated using pymatgen
data_Li2AlP6(SeS2)3
_symmetry_space_group_name_H-M   'P 1'
_cell_length_a   5.30834198
_cell_length_b   5.30833149
_cell_length_c   10.52189636
_cell_angle_alpha   90.00017548
_cell_angle_beta   90.00009155
_cell_angle_gamma   59.99993515
_symmetry_Int_Tables_number   1
_chemical_formula_structural   Li2AlP6(SeS2)3
_chemical_formula_sum   'Li2 Al1 P6 Se3 S6'
_cell_volume   256.76823561
_cell_formula_units_Z   1
loop_
 _symmetry_equiv_pos_site_id
 _symmetry_equiv_pos_as_xyz
  1  'x, y, z'
loop_
 _atom_site_type_symbol
 _atom_site_label
 _atom_site_symmetry_multiplicity
 _atom_site_fract_x
 _atom_site_fract_y
 _atom_site_fract_z
 _atom_site_occupancy
  Li  Li0  1  0.00000000  0.00000000  0.00000000  1
  Al  Al1  1  0.99999900  0.00000100  0.49999998  1
  S  S2  1  0.66666667  0.66666668  0.24999401  1
  S  S3  1  0.33333334  0.33333334  0.75000298  1
  S  S4  1  0.66666667  0.66666668  0.75000299  1
  S  S5  1  0.33333334  0.33333334  0.24999400  1
  P  P6  1  0.38005700  0.00010900  0.64983198  1
  Li  Li7  1  0.38009100  0.00004000  0.14983399  1
  P  P8  1  0.61983300  0.38005701  0.64983299  1
  Se  Se9  1  0.61986800  0.38009101  0.14983400  1
  P  P10  1  0.00010800  0.61983401  0.64983300  1
  S  S11  1  0.00003800  0.61986901  0.14983401  1
  P  P12  1  0.00011000  0.38005801  0.85016598  1
  P  P13  1  0.00004100  0.38008901  0.35016900  1
  Se  Se14  1  0.61983400  0.00010900  0.85016597  1
  S  S15  1  0.61987100  0.00003900  0.35016898  1
  Se  Se16  1  0.38005900  0.61983301  0.85016599  1
  P  P17  1  0.38009000  0.61987201  0.35016900  1
