# generated using pymatgen
data_LiSiP3
_symmetry_space_group_name_H-M   'P 1'
_cell_length_a   3.82482791
_cell_length_b   6.47318935
_cell_length_c   6.47318935
_cell_angle_alpha   70.91721344
_cell_angle_beta   72.81630707
_cell_angle_gamma   72.81630707
_symmetry_Int_Tables_number   1
_chemical_formula_structural   LiSiP3
_chemical_formula_sum   'Li1 Si1 P3'
_cell_volume   141.14747872
_cell_formula_units_Z   1
loop_
 _symmetry_equiv_pos_site_id
 _symmetry_equiv_pos_as_xyz
  1  'x, y, z'
loop_
 _atom_site_type_symbol
 _atom_site_label
 _atom_site_symmetry_multiplicity
 _atom_site_fract_x
 _atom_site_fract_y
 _atom_site_fract_z
 _atom_site_occupancy
  Li  Li0  1  0.19462700  0.30537300  0.30537299  1
  P  P1  1  0.80537300  0.69462701  0.69462698  1
  P  P2  1  0.00000000  0.00000000  0.00000000  1
  Si  Si3  1  0.50000001  0.21708900  0.78291099  1
  P  P4  1  0.49999999  0.78291101  0.21708899  1
