# generated using pymatgen
data_LiBr
_symmetry_space_group_name_H-M   'P 1'
_cell_length_a   4.43763351
_cell_length_b   4.43763351
_cell_length_c   7.48834515
_cell_angle_alpha   72.76432800
_cell_angle_beta   72.76432800
_cell_angle_gamma   60.00000763
_symmetry_Int_Tables_number   1
_chemical_formula_structural   LiBr
_chemical_formula_sum   'Li2 Br2'
_cell_volume   120.00100256
_cell_formula_units_Z   2
loop_
 _symmetry_equiv_pos_site_id
 _symmetry_equiv_pos_as_xyz
  1  'x, y, z'
loop_
 _atom_site_type_symbol
 _atom_site_label
 _atom_site_symmetry_multiplicity
 _atom_site_fract_x
 _atom_site_fract_y
 _atom_site_fract_z
 _atom_site_occupancy
  Br  Br0  1  0.00000000  0.00000000  0.00000000  1
  Li  Li1  1  0.49999999  0.50000000  0.50000000  1
  Li  Li2  1  0.25584399  0.25584400  0.23246800  1
  Br  Br3  1  0.74415598  0.74415599  0.76753200  1
