# generated using pymatgen
data_Li9MgPSeSO4F3
_symmetry_space_group_name_H-M   'P 1'
_cell_length_a   5.46298456
_cell_length_b   5.46298456
_cell_length_c   7.69697094
_cell_angle_alpha   90.00000000
_cell_angle_beta   90.00000000
_cell_angle_gamma   90.62957001
_symmetry_Int_Tables_number   1
_chemical_formula_structural   Li9MgPSeSO4F3
_chemical_formula_sum   'Li9 Mg1 P1 Se1 S1 O4 F3'
_cell_volume   229.69607543
_cell_formula_units_Z   1
loop_
 _symmetry_equiv_pos_site_id
 _symmetry_equiv_pos_as_xyz
  1  'x, y, z'
loop_
 _atom_site_type_symbol
 _atom_site_label
 _atom_site_symmetry_multiplicity
 _atom_site_fract_x
 _atom_site_fract_y
 _atom_site_fract_z
 _atom_site_occupancy
  Mg  Mg0  1  0.48718895  0.51281098  0.75000001  1
  Li  Li1  1  0.51281095  0.48718898  0.25000000  1
  F  F2  1  0.99519897  0.00480100  0.75000001  1
  S  S3  1  0.00480093  0.99519897  0.25000000  1
  F  F4  1  0.49999992  0.99999997  0.50000000  1
  Li  Li5  1  0.49999992  0.99999997  1.00000001  1
  F  F6  1  -0.00000003  0.49999998  0.50000000  1
  Li  Li7  1  -0.00000003  0.49999998  1.00000001  1
  O  O8  1  0.45334492  0.94425197  0.75000001  1
  Li  Li9  1  0.54665498  0.05574800  0.25000000  1
  O  O10  1  0.05574796  0.54665498  0.75000001  1
  Se  Se11  1  0.94425194  0.45334498  0.25000000  1
  O  O12  1  0.71421196  0.28578799  0.95116701  1
  Li  Li13  1  0.28578794  0.71421198  0.45116700  1
  P  P14  1  0.28578794  0.71421198  0.04883300  1
  O  O15  1  0.71421196  0.28578799  0.54883300  1
  Li  Li16  1  0.21043498  0.21043499  0.00000000  1
  Li  Li17  1  0.78956492  0.78956497  0.50000000  1
  Li  Li18  1  0.78956492  0.78956497  1.00000001  1
  Li  Li19  1  0.21043498  0.21043499  0.50000000  1
