# generated using pymatgen
data_TeAsSCl15
_symmetry_space_group_name_H-M   'P 1'
_cell_length_a   5.54632998
_cell_length_b   5.54632998
_cell_length_c   12.95464039
_cell_angle_alpha   90.00000000
_cell_angle_beta   90.00000000
_cell_angle_gamma   90.00000000
_symmetry_Int_Tables_number   1
_chemical_formula_structural   TeAsSCl15
_chemical_formula_sum   'Te1 As1 S1 Cl15'
_cell_volume   398.50774829
_cell_formula_units_Z   1
loop_
 _symmetry_equiv_pos_site_id
 _symmetry_equiv_pos_as_xyz
  1  'x, y, z'
loop_
 _atom_site_type_symbol
 _atom_site_label
 _atom_site_symmetry_multiplicity
 _atom_site_fract_x
 _atom_site_fract_y
 _atom_site_fract_z
 _atom_site_occupancy
  As  As0  1  0.25973500  0.25973500  0.00000000  1
  Cl  Cl1  1  0.74026500  0.74026500  0.00000000  1
  Cl  Cl2  1  0.74026500  0.25973500  0.49999999  1
  Te  Te3  1  0.25973500  0.74026500  0.49999999  1
  Cl  Cl4  1  0.00000000  0.00000000  0.24999999  1
  Cl  Cl5  1  0.00000000  0.00000000  0.74999998  1
  Cl  Cl6  1  -0.00000000  0.50000000  0.24999999  1
  Cl  Cl7  1  -0.00000000  0.50000000  0.74999998  1
  Cl  Cl8  1  0.50000000  0.00000000  0.74999998  1
  Cl  Cl9  1  0.50000000  0.00000000  0.24999999  1
  Cl  Cl10  1  0.23958400  0.23958400  0.34962999  1
  Cl  Cl11  1  0.76041600  0.76041600  0.65036998  1
  Cl  Cl12  1  0.76041600  0.76041600  0.34962999  1
  Cl  Cl13  1  0.76041600  0.23958400  0.84962997  1
  S  S14  1  0.76041600  0.23958400  0.15037000  1
  Cl  Cl15  1  0.23958400  0.23958400  0.65036998  1
  Cl  Cl16  1  0.23958400  0.76041600  0.15037000  1
  Cl  Cl17  1  0.23958400  0.76041600  0.84962997  1
