# generated using pymatgen
data_RbP2S2Cl
_symmetry_space_group_name_H-M   'P 1'
_cell_length_a   5.53540707
_cell_length_b   6.35026312
_cell_length_c   7.32789421
_cell_angle_alpha   90.00000000
_cell_angle_beta   90.00000000
_cell_angle_gamma   90.00000000
_symmetry_Int_Tables_number   1
_chemical_formula_structural   RbP2S2Cl
_chemical_formula_sum   'Rb1 P2 S2 Cl1'
_cell_volume   257.58494432
_cell_formula_units_Z   1
loop_
 _symmetry_equiv_pos_site_id
 _symmetry_equiv_pos_as_xyz
  1  'x, y, z'
loop_
 _atom_site_type_symbol
 _atom_site_label
 _atom_site_symmetry_multiplicity
 _atom_site_fract_x
 _atom_site_fract_y
 _atom_site_fract_z
 _atom_site_occupancy
  Rb  Rb0  1  0.49999999  0.25000000  0.28897699  1
  Cl  Cl1  1  0.49999999  0.74999999  0.71102298  1
  P  P2  1  -0.00000000  0.74999999  0.28820199  1
  P  P3  1  -0.00000000  0.25000000  0.71179798  1
  S  S4  1  0.00000000  0.00000000  0.00000000  1
  S  S5  1  -0.00000000  0.49999999  0.00000000  1
