# generated using pymatgen
data_Li2MgSi2P2S3
_symmetry_space_group_name_H-M   'P 1'
_cell_length_a   6.26518106
_cell_length_b   6.26518106
_cell_length_c   6.26518106
_cell_angle_alpha   60.00000000
_cell_angle_beta   60.00000000
_cell_angle_gamma   60.00000000
_symmetry_Int_Tables_number   1
_chemical_formula_structural   Li2MgSi2P2S3
_chemical_formula_sum   'Li2 Mg1 Si2 P2 S3'
_cell_volume   173.89451442
_cell_formula_units_Z   1
loop_
 _symmetry_equiv_pos_site_id
 _symmetry_equiv_pos_as_xyz
  1  'x, y, z'
loop_
 _atom_site_type_symbol
 _atom_site_label
 _atom_site_symmetry_multiplicity
 _atom_site_fract_x
 _atom_site_fract_y
 _atom_site_fract_z
 _atom_site_occupancy
  Li  Li0  1  0.25000000  0.25000000  0.25000000  1
  Si  Si1  1  0.75000000  0.75000000  0.75000000  1
  Si  Si2  1  0.00000000  0.00000000  0.00000000  1
  S  S3  1  0.50000000  0.50000000  0.50000000  1
  S  S4  1  0.20947500  0.79052500  0.20947500  1
  Li  Li5  1  0.20947500  0.20947500  0.79052500  1
  S  S6  1  0.79052500  0.20947500  0.79052500  1
  Mg  Mg7  1  0.20947500  0.79052500  0.79052500  1
  P  P8  1  0.79052500  0.20947500  0.20947500  1
  P  P9  1  0.79052500  0.79052500  0.20947500  1
