# generated using pymatgen
data_Li6SeBr3Cl3O2F3
_symmetry_space_group_name_H-M   'P 1'
_cell_length_a   5.49662018
_cell_length_b   5.49661922
_cell_length_c   10.70782280
_cell_angle_alpha   90.00000000
_cell_angle_beta   90.00000000
_cell_angle_gamma   112.29111481
_symmetry_Int_Tables_number   1
_chemical_formula_structural   Li6SeBr3Cl3O2F3
_chemical_formula_sum   'Li6 Se1 Br3 Cl3 O2 F3'
_cell_volume   299.33696941
_cell_formula_units_Z   1
loop_
 _symmetry_equiv_pos_site_id
 _symmetry_equiv_pos_as_xyz
  1  'x, y, z'
loop_
 _atom_site_type_symbol
 _atom_site_label
 _atom_site_symmetry_multiplicity
 _atom_site_fract_x
 _atom_site_fract_y
 _atom_site_fract_z
 _atom_site_occupancy
  F  F0  1  0.70225796  0.29774400  0.75000001  1
  Cl  Cl1  1  0.29774296  0.70225701  0.25000000  1
  Li  Li2  1  0.64991896  0.35008200  0.42749501  1
  Br  Br3  1  0.35008196  0.64991901  0.92749502  1
  Li  Li4  1  0.35008196  0.64991901  0.57250501  1
  Br  Br5  1  0.64991896  0.35008200  0.07250500  1
  Cl  Cl6  1  0.93411096  0.06588900  0.25000000  1
  Li  Li7  1  0.00000000  0.00000000  0.50000001  1
  Li  Li8  1  0.00000000  0.00000000  0.00000000  1
  F  F9  1  0.06588796  0.93411101  0.75000001  1
  Se  Se10  1  0.73194093  0.86452101  0.38442801  1
  Li  Li11  1  0.73194093  0.86452101  0.11557100  1
  Cl  Cl12  1  0.13547898  0.26805900  0.38442801  1
  O  O13  1  0.86452193  0.73194101  0.88442902  1
  F  F14  1  0.26805898  0.13547800  0.61557101  1
  Li  Li15  1  0.13547898  0.26805900  0.11557100  1
  O  O16  1  0.86452193  0.73194101  0.61557101  1
  Br  Br17  1  0.26805898  0.13547800  0.88442902  1
