# generated using pymatgen
data_Li3AsP3S2Cl6O
_symmetry_space_group_name_H-M   'P 1'
_cell_length_a   3.96229196
_cell_length_b   7.05305529
_cell_length_c   13.75467682
_cell_angle_alpha   90.00000000
_cell_angle_beta   90.00000000
_cell_angle_gamma   106.31344604
_symmetry_Int_Tables_number   1
_chemical_formula_structural   Li3AsP3S2Cl6O
_chemical_formula_sum   'Li3 As1 P3 S2 Cl6 O1'
_cell_volume   368.91598664
_cell_formula_units_Z   1
loop_
 _symmetry_equiv_pos_site_id
 _symmetry_equiv_pos_as_xyz
  1  'x, y, z'
loop_
 _atom_site_type_symbol
 _atom_site_label
 _atom_site_symmetry_multiplicity
 _atom_site_fract_x
 _atom_site_fract_y
 _atom_site_fract_z
 _atom_site_occupancy
  O  O0  1  0.89053909  0.78107799  0.75000001  1
  Cl  Cl1  1  0.10946102  0.21892200  0.25000000  1
  Cl  Cl2  1  0.36571408  0.73142799  0.06301700  1
  P  P3  1  0.63428603  0.26857200  0.56301701  1
  Cl  Cl4  1  0.36571408  0.73142799  0.43698301  1
  Cl  Cl5  1  0.63428603  0.26857200  0.93698301  1
  Li  Li6  1  0.83744908  0.67489800  0.25000000  1
  S  S7  1  0.16255104  0.32510200  0.75000001  1
  As  As8  1  0.00000000  0.00000000  0.50000001  1
  P  P9  1  0.00000000  0.00000000  0.00000000  1
  Li  Li10  1  0.26274306  0.52548600  0.88880201  1
  Cl  Cl11  1  0.73725706  0.47451400  0.11119800  1
  S  S12  1  0.43098909  0.86197799  0.25000000  1
  P  P13  1  0.26274306  0.52548600  0.61119801  1
  Li  Li14  1  0.56901102  0.13802200  0.75000001  1
  Cl  Cl15  1  0.73725706  0.47451400  0.38880201  1
