# generated using pymatgen
data_Li3SiP3Br3Cl8
_symmetry_space_group_name_H-M   'P 1'
_cell_length_a   7.34814548
_cell_length_b   7.34814548
_cell_length_c   7.34814548
_cell_angle_alpha   60.58812332
_cell_angle_beta   60.58812332
_cell_angle_gamma   60.58812714
_symmetry_Int_Tables_number   1
_chemical_formula_structural   Li3SiP3Br3Cl8
_chemical_formula_sum   'Li3 Si1 P3 Br3 Cl8'
_cell_volume   284.28200790
_cell_formula_units_Z   1
loop_
 _symmetry_equiv_pos_site_id
 _symmetry_equiv_pos_as_xyz
  1  'x, y, z'
loop_
 _atom_site_type_symbol
 _atom_site_label
 _atom_site_symmetry_multiplicity
 _atom_site_fract_x
 _atom_site_fract_y
 _atom_site_fract_z
 _atom_site_occupancy
  Br  Br0  1  0.36657398  0.36657400  0.36657400  1
  Cl  Cl1  1  0.63342597  0.63342599  0.63342599  1
  P  P2  1  0.00000000  0.00000000  0.00000000  1
  Cl  Cl3  1  -0.00000001  0.49999999  -0.00000000  1
  P  P4  1  0.00000000  0.00000000  0.50000000  1
  Si  Si5  1  0.49999999  0.00000000  -0.00000001  1
  P  P6  1  0.68762399  0.05939800  0.68762400  1
  Br  Br7  1  0.05882798  0.68762999  0.05882800  1
  Li  Li8  1  0.68762397  0.68762399  0.05939799  1
  Br  Br9  1  0.05882800  0.05882800  0.68763000  1
  Li  Li10  1  0.68762999  0.05882800  0.05882799  1
  Li  Li11  1  0.05939798  0.68762399  0.68762400  1
  Cl  Cl12  1  0.31237597  0.94060199  0.31237599  1
  Cl  Cl13  1  0.94117197  0.31237000  0.94117199  1
  Cl  Cl14  1  0.31237599  0.31237600  0.94060200  1
  Cl  Cl15  1  0.94117196  0.94117199  0.31236999  1
  Cl  Cl16  1  0.31236997  0.94117199  0.94117200  1
  Cl  Cl17  1  0.94060197  0.31237600  0.31237599  1
