# generated using pymatgen
data_TeBrCl8
_symmetry_space_group_name_H-M   'P 1'
_cell_length_a   9.14944267
_cell_length_b   9.14944267
_cell_length_c   9.14944267
_cell_angle_alpha   60.00000000
_cell_angle_beta   60.00000000
_cell_angle_gamma   60.00000000
_symmetry_Int_Tables_number   1
_chemical_formula_structural   TeBrCl8
_chemical_formula_sum   'Te1 Br1 Cl8'
_cell_volume   541.58786297
_cell_formula_units_Z   1
loop_
 _symmetry_equiv_pos_site_id
 _symmetry_equiv_pos_as_xyz
  1  'x, y, z'
loop_
 _atom_site_type_symbol
 _atom_site_label
 _atom_site_symmetry_multiplicity
 _atom_site_fract_x
 _atom_site_fract_y
 _atom_site_fract_z
 _atom_site_occupancy
  Te  Te0  1  0.25000000  0.25000000  0.25000000  1
  Cl  Cl1  1  0.75000000  0.75000000  0.75000000  1
  Cl  Cl2  1  0.50000000  0.50000000  0.50000000  1
  Cl  Cl3  1  0.00000000  0.00000000  0.00000000  1
  Cl  Cl4  1  0.23831100  0.76168900  0.23831100  1
  Cl  Cl5  1  0.23831100  0.23831100  0.76168900  1
  Cl  Cl6  1  0.76168900  0.23831100  0.76168900  1
  Br  Br7  1  0.23831100  0.76168900  0.76168900  1
  Cl  Cl8  1  0.76168900  0.23831100  0.23831100  1
  Cl  Cl9  1  0.76168900  0.76168900  0.23831100  1
