# generated using pymatgen
data_Mg2P(SeS)3
_symmetry_space_group_name_H-M   'P 1'
_cell_length_a   5.89444208
_cell_length_b   5.89444208
_cell_length_c   5.89444208
_cell_angle_alpha   90.00000000
_cell_angle_beta   90.00000000
_cell_angle_gamma   90.00000000
_symmetry_Int_Tables_number   1
_chemical_formula_structural   Mg2P(SeS)3
_chemical_formula_sum   'Mg2 P1 Se3 S3'
_cell_volume   204.79913316
_cell_formula_units_Z   1
loop_
 _symmetry_equiv_pos_site_id
 _symmetry_equiv_pos_as_xyz
  1  'x, y, z'
loop_
 _atom_site_type_symbol
 _atom_site_label
 _atom_site_symmetry_multiplicity
 _atom_site_fract_x
 _atom_site_fract_y
 _atom_site_fract_z
 _atom_site_occupancy
  Mg  Mg0  1  0.49999999  0.49999999  0.49999999  1
  Se  Se1  1  0.00000000  0.00000000  0.00000000  1
  S  S2  1  -0.00000000  0.49999999  0.00000000  1
  S  S3  1  0.00000000  0.00000000  0.49999999  1
  S  S4  1  0.49999999  0.00000000  0.00000000  1
  Se  Se5  1  0.23389200  0.23389200  0.23389200  1
  Mg  Mg6  1  0.76610799  0.76610799  0.23389200  1
  Se  Se7  1  0.23389200  0.76610799  0.76610799  1
  P  P8  1  0.76610799  0.23389200  0.76610799  1
