# generated using pymatgen
data_MgSiP8S8BrCl
_symmetry_space_group_name_H-M   'P 1'
_cell_length_a   5.73044205
_cell_length_b   5.74053955
_cell_length_c   8.17919731
_cell_angle_alpha   90.00000000
_cell_angle_beta   90.00000000
_cell_angle_gamma   90.82938385
_symmetry_Int_Tables_number   1
_chemical_formula_structural   MgSiP8S8BrCl
_chemical_formula_sum   'Mg1 Si1 P8 S8 Br1 Cl1'
_cell_volume   269.03328886
_cell_formula_units_Z   1
loop_
 _symmetry_equiv_pos_site_id
 _symmetry_equiv_pos_as_xyz
  1  'x, y, z'
loop_
 _atom_site_type_symbol
 _atom_site_label
 _atom_site_symmetry_multiplicity
 _atom_site_fract_x
 _atom_site_fract_y
 _atom_site_fract_z
 _atom_site_occupancy
  Br  Br0  1  0.00709603  0.99420198  -0.00000000  1
  P  P1  1  0.50726001  0.48895699  -0.00000000  1
  S  S2  1  0.48772001  0.49110899  0.49999998  1
  S  S3  1  0.98449002  0.99535298  0.49999998  1
  Si  Si4  1  0.50585502  0.98667598  0.75785997  1
  S  S5  1  0.50585502  0.98667598  0.24213999  1
  P  P6  1  0.99253401  0.50224199  0.74111797  1
  P  P7  1  0.99253401  0.50224199  0.25888199  1
  Mg  Mg8  1  0.99814600  0.46097399  0.49999998  1
  P  P9  1  0.72942201  0.73026098  0.73641497  1
  S  S10  1  0.72942201  0.73026098  0.26358499  1
  S  S11  1  0.48293802  0.96944998  -0.00000000  1
  Cl  Cl12  1  0.50842700  0.05018100  0.49999998  1
  S  S13  1  0.77585300  0.22772799  0.22592099  1
  S  S14  1  0.77585300  0.22772799  0.77407897  1
  P  P15  1  0.27796701  0.28162899  0.76537997  1
  P  P16  1  0.27796701  0.28162899  0.23461999  1
  P  P17  1  0.01350801  0.53535099  -0.00000000  1
  S  S18  1  0.22475102  0.77889198  0.72519197  1
  P  P19  1  0.22475102  0.77889198  0.27480799  1
