# generated using pymatgen
data_SiTeCl8
_symmetry_space_group_name_H-M   'P 1'
_cell_length_a   7.90091705
_cell_length_b   7.90091705
_cell_length_c   7.90091705
_cell_angle_alpha   60.00000000
_cell_angle_beta   60.00000000
_cell_angle_gamma   60.00000000
_symmetry_Int_Tables_number   1
_chemical_formula_structural   SiTeCl8
_chemical_formula_sum   'Si1 Te1 Cl8'
_cell_volume   348.75264453
_cell_formula_units_Z   1
loop_
 _symmetry_equiv_pos_site_id
 _symmetry_equiv_pos_as_xyz
  1  'x, y, z'
loop_
 _atom_site_type_symbol
 _atom_site_label
 _atom_site_symmetry_multiplicity
 _atom_site_fract_x
 _atom_site_fract_y
 _atom_site_fract_z
 _atom_site_occupancy
  Si  Si0  1  0.25000000  0.25000000  0.25000000  1
  Cl  Cl1  1  0.75000000  0.75000000  0.75000000  1
  Cl  Cl2  1  0.50000000  0.50000000  0.50000000  1
  Cl  Cl3  1  0.00000000  0.00000000  0.00000000  1
  Cl  Cl4  1  0.25575800  0.74424200  0.25575800  1
  Cl  Cl5  1  0.25575800  0.25575800  0.74424200  1
  Cl  Cl6  1  0.74424200  0.25575800  0.74424200  1
  Te  Te7  1  0.25575800  0.74424200  0.74424200  1
  Cl  Cl8  1  0.74424200  0.25575800  0.25575800  1
  Cl  Cl9  1  0.74424200  0.74424200  0.25575800  1
