# generated using pymatgen
data_SBrN5F
_symmetry_space_group_name_H-M   'P 1'
_cell_length_a   6.22315788
_cell_length_b   6.22315788
_cell_length_c   6.22315788
_cell_angle_alpha   60.00000000
_cell_angle_beta   60.00000000
_cell_angle_gamma   60.00000000
_symmetry_Int_Tables_number   1
_chemical_formula_structural   SBrN5F
_chemical_formula_sum   'S1 Br1 N5 F1'
_cell_volume   170.41878314
_cell_formula_units_Z   1
loop_
 _symmetry_equiv_pos_site_id
 _symmetry_equiv_pos_as_xyz
  1  'x, y, z'
loop_
 _atom_site_type_symbol
 _atom_site_label
 _atom_site_symmetry_multiplicity
 _atom_site_fract_x
 _atom_site_fract_y
 _atom_site_fract_z
 _atom_site_occupancy
  Br  Br0  1  0.49999998  0.49999998  0.49999998  1
  S  S1  1  0.00000000  0.00000000  0.00000000  1
  F  F2  1  0.72860698  0.72860698  0.27139299  1
  N  N3  1  0.72860698  0.27139299  0.27139299  1
  N  N4  1  0.27139299  0.27139299  0.72860698  1
  N  N5  1  0.72860698  0.27139299  0.72860698  1
  N  N6  1  0.27139299  0.72860698  0.27139299  1
  N  N7  1  0.27139299  0.72860698  0.72860698  1
