# generated using pymatgen
data_Si3Te2P2Cl
_symmetry_space_group_name_H-M   'P 1'
_cell_length_a   3.88364911
_cell_length_b   7.84911680
_cell_length_c   11.48178864
_cell_angle_alpha   90.00000000
_cell_angle_beta   90.00000000
_cell_angle_gamma   90.00000000
_symmetry_Int_Tables_number   1
_chemical_formula_structural   Si3Te2P2Cl
_chemical_formula_sum   'Si6 Te4 P4 Cl2'
_cell_volume   350.00183717
_cell_formula_units_Z   2
loop_
 _symmetry_equiv_pos_site_id
 _symmetry_equiv_pos_as_xyz
  1  'x, y, z'
loop_
 _atom_site_type_symbol
 _atom_site_label
 _atom_site_symmetry_multiplicity
 _atom_site_fract_x
 _atom_site_fract_y
 _atom_site_fract_z
 _atom_site_occupancy
  Si  Si0  1  0.49999999  0.53370701  0.17278701  1
  Si  Si1  1  0.49999999  0.46629301  0.82721303  1
  P  P2  1  0.49999999  0.03370700  0.32721301  1
  Cl  Cl3  1  0.49999999  0.96629302  0.67278702  1
  Si  Si4  1  -0.00000000  0.50000001  0.50000002  1
  Si  Si5  1  0.00000000  0.00000000  0.00000000  1
  Te  Te6  1  0.49999999  0.67097002  0.40659201  1
  P  P7  1  0.49999999  0.32903001  0.59340802  1
  Te  Te8  1  0.49999999  0.17097000  0.09340800  1
  Si  Si9  1  0.49999999  0.82903002  0.90659203  1
  Te  Te10  1  -0.00000000  0.82698802  0.19502001  1
  P  P11  1  -0.00000000  0.17301200  0.80498003  1
  Te  Te12  1  -0.00000000  0.50000001  0.00000000  1
  Si  Si13  1  0.00000000  0.00000000  0.50000002  1
  Cl  Cl14  1  -0.00000000  0.67301202  0.69502002  1
  P  P15  1  -0.00000000  0.32698801  0.30498001  1
