# generated using pymatgen
data_Li12SeS2BrO2F
_symmetry_space_group_name_H-M   'P 1'
_cell_length_a   5.19909096
_cell_length_b   5.52609301
_cell_length_c   7.62523031
_cell_angle_alpha   85.62649536
_cell_angle_beta   89.77686310
_cell_angle_gamma   89.72662354
_symmetry_Int_Tables_number   1
_chemical_formula_structural   Li12SeS2BrO2F
_chemical_formula_sum   'Li12 Se1 S2 Br1 O2 F1'
_cell_volume   218.43611709
_cell_formula_units_Z   1
loop_
 _symmetry_equiv_pos_site_id
 _symmetry_equiv_pos_as_xyz
  1  'x, y, z'
loop_
 _atom_site_type_symbol
 _atom_site_label
 _atom_site_symmetry_multiplicity
 _atom_site_fract_x
 _atom_site_fract_y
 _atom_site_fract_z
 _atom_site_occupancy
  Br  Br0  1  0.50271800  0.00207900  0.75268000  1
  Li  Li1  1  0.49388907  0.98958698  0.25091096  1
  Li  Li2  1  0.00288803  0.49851099  0.74433399  1
  Li  Li3  1  0.49781904  0.55975399  0.52860898  1
  Li  Li4  1  0.49127404  0.57017199  0.03381197  1
  Li  Li5  1  0.99823801  0.06191900  0.52849499  1
  Li  Li6  1  0.00065301  0.08140600  0.03613000  1
  O  O7  1  0.69629307  0.90396199  0.98383496  1
  Li  Li8  1  0.32186907  0.91173199  0.49244497  1
  Li  Li9  1  0.80846906  0.78315299  0.61281596  1
  S  S10  1  0.20755406  0.80164299  0.10871997  1
  Li  Li11  1  0.37808204  0.60742499  0.79880598  1
  Li  Li12  1  0.60097305  0.60071099  0.29145997  1
  Li  Li13  1  0.81678903  0.39057799  0.97939298  1
  Se  Se14  1  0.18385903  0.39850899  0.50684399  1
  O  O15  1  0.69605602  0.27919200  0.60974198  1
  Li  Li16  1  0.30210502  0.27244500  0.10954799  1
  F  F17  1  0.12989301  0.10438000  0.79911600  1
  S  S18  1  0.87260701  0.08529200  0.28271698  1
