# generated using pymatgen
data_MgSi12P2H2S2N
_symmetry_space_group_name_H-M   'P 1'
_cell_length_a   3.89225507
_cell_length_b   7.47695589
_cell_length_c   9.76536369
_cell_angle_alpha   90.00000000
_cell_angle_beta   90.00000000
_cell_angle_gamma   90.00000000
_symmetry_Int_Tables_number   1
_chemical_formula_structural   MgSi12P2H2S2N
_chemical_formula_sum   'Mg1 Si12 P2 H2 S2 N1'
_cell_volume   284.19375728
_cell_formula_units_Z   1
loop_
 _symmetry_equiv_pos_site_id
 _symmetry_equiv_pos_as_xyz
  1  'x, y, z'
loop_
 _atom_site_type_symbol
 _atom_site_label
 _atom_site_symmetry_multiplicity
 _atom_site_fract_x
 _atom_site_fract_y
 _atom_site_fract_z
 _atom_site_occupancy
  Mg  Mg0  1  0.55557199  0.00000000  0.61227002  1
  Si  Si1  1  0.44442799  0.50000001  0.11227000  1
  Si  Si2  1  0.99084598  0.66872201  0.79009202  1
  Si  Si3  1  0.00915400  0.83127801  0.29009201  1
  Si  Si4  1  0.00915400  0.16872200  0.29009201  1
  S  S5  1  0.99084598  0.33127800  0.79009202  1
  Si  Si6  1  0.93397098  0.00000000  0.00909400  1
  P  P7  1  0.06602900  0.50000001  0.50909402  1
  Si  Si8  1  0.93273098  0.80709101  0.15317000  1
  H  H9  1  0.06726900  0.69290901  0.65317002  1
  N  N10  1  0.06726900  0.30709100  0.65317002  1
  Si  Si11  1  0.93273098  0.19290900  0.15317000  1
  P  P12  1  0.02639500  0.00000000  0.35340401  1
  Si  Si13  1  0.97360498  0.50000001  0.85340403  1
  Si  Si14  1  0.43335499  0.00000000  0.00604800  1
  Si  Si15  1  0.56664499  0.50000001  0.50604802  1
  H  H16  1  0.91597898  0.81770201  0.86263903  1
  Si  Si17  1  0.08402100  0.68229801  0.36263901  1
  Si  Si18  1  0.08402100  0.31770200  0.36263901  1
  S  S19  1  0.91597898  0.18229800  0.86263903  1
