# generated using pymatgen
data_LiSi3(PS4)2
_symmetry_space_group_name_H-M   'P 1'
_cell_length_a   6.33734179
_cell_length_b   6.33820200
_cell_length_c   8.11328506
_cell_angle_alpha   67.00776672
_cell_angle_beta   90.00000000
_cell_angle_gamma   90.00000000
_symmetry_Int_Tables_number   1
_chemical_formula_structural   LiSi3(PS4)2
_chemical_formula_sum   'Li1 Si3 P2 S8'
_cell_volume   299.99983013
_cell_formula_units_Z   1
loop_
 _symmetry_equiv_pos_site_id
 _symmetry_equiv_pos_as_xyz
  1  'x, y, z'
loop_
 _atom_site_type_symbol
 _atom_site_label
 _atom_site_symmetry_multiplicity
 _atom_site_fract_x
 _atom_site_fract_y
 _atom_site_fract_z
 _atom_site_occupancy
  Li  Li0  1  0.50000002  0.12340400  0.75319202  1
  S  S1  1  0.00000000  0.62340399  0.75319204  1
  Si  Si2  1  0.50000002  0.87659599  0.24680803  1
  S  S3  1  1.00000003  0.37659599  0.24680802  1
  P  P4  1  0.00000000  0.00000000  0.00000000  1
  S  S5  1  0.50000002  0.49999999  1.00000004  1
  S  S6  1  0.00000000  0.15615700  0.68768602  1
  S  S7  1  1.00000003  0.84384299  0.31231404  1
  S  S8  1  0.50000002  0.65615699  0.68768604  1
  S  S9  1  0.50000002  0.34384299  0.31231402  1
  S  S10  1  0.78580303  0.78583499  1.00000005  1
  P  P11  1  0.21419701  0.21416500  1.00000003  1
  Si  Si12  1  0.71419702  0.28583500  0.00000001  1
  Si  Si13  1  0.28580301  0.71416499  1.00000005  1
