# generated using pymatgen
data_LiAlSi5P6S7
_symmetry_space_group_name_H-M   'P 1'
_cell_length_a   5.77027225
_cell_length_b   5.80946827
_cell_length_c   8.62757683
_cell_angle_alpha   108.69288635
_cell_angle_beta   101.54510498
_cell_angle_gamma   102.54099274
_symmetry_Int_Tables_number   1
_chemical_formula_structural   LiAlSi5P6S7
_chemical_formula_sum   'Li1 Al1 Si5 P6 S7'
_cell_volume   255.79174358
_cell_formula_units_Z   1
loop_
 _symmetry_equiv_pos_site_id
 _symmetry_equiv_pos_as_xyz
  1  'x, y, z'
loop_
 _atom_site_type_symbol
 _atom_site_label
 _atom_site_symmetry_multiplicity
 _atom_site_fract_x
 _atom_site_fract_y
 _atom_site_fract_z
 _atom_site_occupancy
  Li  Li0  1  0.21031900  0.41457799  0.90006094  1
  Si  Si1  1  0.41363199  0.79606099  0.30166895  1
  P  P2  1  0.70348001  0.39642099  0.40062696  1
  P  P3  1  0.29651999  0.60357899  0.59937294  1
  Si  Si4  1  0.78968101  0.58542199  0.09993896  1
  P  P5  1  -0.00000002  0.99999999  0.49999993  1
  Si  Si6  1  0.50000001  0.00000000  -0.00000000  1
  P  P7  1  0.58636801  0.20393900  0.69833095  1
  P  P8  1  0.89606800  0.80364999  0.79716492  1
  Si  Si9  1  0.10393200  0.19635000  0.20283498  1
  S  S10  1  0.60539300  0.63207299  0.84566393  1
  S  S11  1  0.39460700  0.36792699  0.15433597  1
  Al  Al12  1  0.68872300  0.82536099  0.59910593  1
  Si  Si13  1  0.31127700  0.17463900  0.40089397  1
  S  S14  1  0.80668802  0.01599500  0.23991798  1
  S  S15  1  0.19331198  0.98400499  0.76008192  1
  S  S16  1  0.88520502  0.15431000  0.96188894  1
  P  P17  1  0.11479498  0.84568999  0.03811096  1
  S  S18  1  0.05492199  0.51949399  0.31249396  1
  S  S19  1  0.94507801  0.48050599  0.68750594  1
