# generated using pymatgen
data_Li3SeN3O2F
_symmetry_space_group_name_H-M   'P 1'
_cell_length_a   6.08318567
_cell_length_b   6.08318567
_cell_length_c   6.08318567
_cell_angle_alpha   60.00000000
_cell_angle_beta   60.00000000
_cell_angle_gamma   60.00000000
_symmetry_Int_Tables_number   1
_chemical_formula_structural   Li3SeN3O2F
_chemical_formula_sum   'Li3 Se1 N3 O2 F1'
_cell_volume   159.17623172
_cell_formula_units_Z   1
loop_
 _symmetry_equiv_pos_site_id
 _symmetry_equiv_pos_as_xyz
  1  'x, y, z'
loop_
 _atom_site_type_symbol
 _atom_site_label
 _atom_site_symmetry_multiplicity
 _atom_site_fract_x
 _atom_site_fract_y
 _atom_site_fract_z
 _atom_site_occupancy
  F  F0  1  0.25000000  0.25000000  0.25000000  1
  N  N1  1  0.75000001  0.75000001  0.75000001  1
  Li  Li2  1  0.00000000  0.00000000  0.00000000  1
  Li  Li3  1  0.50000001  0.50000001  0.50000001  1
  N  N4  1  0.25807900  0.74192101  0.25807900  1
  Li  Li5  1  0.74192101  0.25807900  0.74192101  1
  N  N6  1  0.74192101  0.25807900  0.25807900  1
  O  O7  1  0.25807900  0.74192101  0.74192101  1
  Se  Se8  1  0.74192101  0.74192101  0.25807900  1
  O  O9  1  0.25807900  0.25807900  0.74192101  1
