# generated using pymatgen
data_Li7S5NF
_symmetry_space_group_name_H-M   'P 1'
_cell_length_a   5.87231684
_cell_length_b   5.92437172
_cell_length_c   5.92437124
_cell_angle_alpha   89.38829803
_cell_angle_beta   60.32578659
_cell_angle_gamma   60.32585526
_symmetry_Int_Tables_number   1
_chemical_formula_structural   Li7S5NF
_chemical_formula_sum   'Li7 S5 N1 F1'
_cell_volume   147.90088456
_cell_formula_units_Z   1
loop_
 _symmetry_equiv_pos_site_id
 _symmetry_equiv_pos_as_xyz
  1  'x, y, z'
loop_
 _atom_site_type_symbol
 _atom_site_label
 _atom_site_symmetry_multiplicity
 _atom_site_fract_x
 _atom_site_fract_y
 _atom_site_fract_z
 _atom_site_occupancy
  F  F0  1  0.75000402  0.37499900  0.62499597  1
  S  S1  1  0.24997902  0.37500700  0.62501897  1
  Li  Li2  1  0.75001105  0.87501300  0.62499295  1
  S  S3  1  0.24998102  0.37500900  0.12501298  1
  S  S4  1  0.50001904  0.75811200  0.24185297  1
  S  S5  1  0.00002204  0.99187700  0.00807897  1
  N  N6  1  0.27248001  0.14536300  0.85436998  1
  Li  Li7  1  0.72751501  0.14563800  0.85464697  1
  S  S8  1  0.22755003  0.60461000  0.39562097  1
  Li  Li9  1  0.77244603  0.60438700  0.39539797  1
  Li  Li10  1  0.28674503  0.58127200  0.84541696  1
  Li  Li11  1  0.71325101  0.15459700  0.41871398  1
  Li  Li12  1  0.21327301  0.16870900  0.40460198  1
  Li  Li13  1  0.78672503  0.59540800  0.83127596  1
