# generated using pymatgen
data_Li8S3BrO2
_symmetry_space_group_name_H-M   'P 1'
_cell_length_a   5.41384220
_cell_length_b   5.41384220
_cell_length_c   7.35081577
_cell_angle_alpha   90.00000000
_cell_angle_beta   90.00000000
_cell_angle_gamma   120.00000000
_symmetry_Int_Tables_number   1
_chemical_formula_structural   Li8S3BrO2
_chemical_formula_sum   'Li8 S3 Br1 O2'
_cell_volume   186.58527049
_cell_formula_units_Z   1
loop_
 _symmetry_equiv_pos_site_id
 _symmetry_equiv_pos_as_xyz
  1  'x, y, z'
loop_
 _atom_site_type_symbol
 _atom_site_label
 _atom_site_symmetry_multiplicity
 _atom_site_fract_x
 _atom_site_fract_y
 _atom_site_fract_z
 _atom_site_occupancy
  Li  Li0  1  0.00000000  0.00000000  0.00000000  1
  Li  Li1  1  0.00000000  0.00000000  0.50000002  1
  S  S2  1  0.66666665  0.33333334  0.25722801  1
  S  S3  1  0.33333334  0.66666668  0.25722801  1
  Br  Br4  1  0.66666665  0.33333334  0.74277202  1
  S  S5  1  0.33333334  0.66666668  0.74277202  1
  O  O6  1  0.68412598  0.00000000  0.32299901  1
  Li  Li7  1  0.31587400  0.31587401  0.32299901  1
  Li  Li8  1  0.00000002  0.68412602  0.32299901  1
  O  O9  1  0.31587402  1.00000003  0.67700102  1
  Li  Li10  1  0.00000001  0.31587401  0.67700102  1
  Li  Li11  1  0.68412600  0.68412602  0.67700102  1
  Li  Li12  1  0.66666665  0.33333334  1.00000003  1
  Li  Li13  1  0.33333334  0.66666668  1.00000003  1
