# generated using pymatgen
data_Li4MgP3S8BrF3
_symmetry_space_group_name_H-M   'P 1'
_cell_length_a   5.05009079
_cell_length_b   5.13643789
_cell_length_c   7.72220612
_cell_angle_alpha   102.97845459
_cell_angle_beta   108.56243134
_cell_angle_gamma   99.85369110
_symmetry_Int_Tables_number   1
_chemical_formula_structural   Li4MgP3S8BrF3
_chemical_formula_sum   'Li4 Mg1 P3 S8 Br1 F3'
_cell_volume   178.54200383
_cell_formula_units_Z   1
loop_
 _symmetry_equiv_pos_site_id
 _symmetry_equiv_pos_as_xyz
  1  'x, y, z'
loop_
 _atom_site_type_symbol
 _atom_site_label
 _atom_site_symmetry_multiplicity
 _atom_site_fract_x
 _atom_site_fract_y
 _atom_site_fract_z
 _atom_site_occupancy
  Br  Br0  1  0.20337302  0.49658600  0.89735597  1
  P  P1  1  0.78324705  0.49297400  0.09206199  1
  S  S2  1  0.40781103  0.50024800  0.29941998  1
  S  S3  1  0.00578701  0.50892400  0.50749998  1
  S  S4  1  0.59592504  0.49873500  0.70557897  1
  S  S5  1  0.40027502  0.00183900  0.80214998  1
  Li  Li6  1  0.00146500  0.00346300  0.99669797  1
  P  P7  1  0.20022904  0.99846400  0.40080898  1
  S  S8  1  0.59692705  0.99954300  0.19075098  1
  P  P9  1  0.80381606  0.99804000  0.60760297  1
  F  F10  1  0.98755906  0.76712400  0.76390697  1
  Li  Li11  1  0.62138305  0.77485600  0.96672996  1
  Li  Li12  1  0.19450703  0.78153900  0.15317898  1
  S  S13  1  0.82676906  0.76835700  0.35601698  1
  Mg  Mg14  1  0.40660804  0.77908300  0.53611197  1
  F  F15  1  0.37940702  0.23185100  0.05197199  1
  S  S16  1  0.00555101  0.22097400  0.24597299  1
  S  S17  1  0.58029703  0.22206000  0.43989898  1
  Li  Li18  1  0.17845501  0.22570600  0.62711698  1
  F  F19  1  0.82060704  0.22963500  0.85916597  1
