# generated using pymatgen
data_LiTeP4SCl13
_symmetry_space_group_name_H-M   'P 1'
_cell_length_a   7.91369534
_cell_length_b   7.91369534
_cell_length_c   7.91369534
_cell_angle_alpha   109.47122192
_cell_angle_beta   109.47122192
_cell_angle_gamma   109.47122192
_symmetry_Int_Tables_number   1
_chemical_formula_structural   LiTeP4SCl13
_chemical_formula_sum   'Li1 Te1 P4 S1 Cl13'
_cell_volume   381.51890973
_cell_formula_units_Z   1
loop_
 _symmetry_equiv_pos_site_id
 _symmetry_equiv_pos_as_xyz
  1  'x, y, z'
loop_
 _atom_site_type_symbol
 _atom_site_label
 _atom_site_symmetry_multiplicity
 _atom_site_fract_x
 _atom_site_fract_y
 _atom_site_fract_z
 _atom_site_occupancy
  Li  Li0  1  0.74999999  0.12500000  0.37500001  1
  Cl  Cl1  1  0.37500003  0.62500001  0.75000002  1
  Cl  Cl2  1  0.12500005  0.87500001  0.25000004  1
  Cl  Cl3  1  0.87500003  0.75000001  0.62500004  1
  Cl  Cl4  1  0.62500000  0.25000000  0.87500000  1
  Cl  Cl5  1  0.25000002  0.37500000  0.12500002  1
  Cl  Cl6  1  0.87499999  0.12500000  0.75000001  1
  Te  Te7  1  0.25000005  0.87500001  0.62500004  1
  P  P8  1  0.62500001  0.37500000  0.25000003  1
  S  S9  1  0.37500004  0.75000001  0.12500005  1
  P  P10  1  0.12500001  0.25000000  0.37500001  1
  Cl  Cl11  1  0.75000002  0.62500001  0.87500003  1
  Cl  Cl12  1  0.16535701  0.16535700  0.66535699  1
  Cl  Cl13  1  0.83464305  1.00000001  1.00000005  1
  P  P14  1  0.00000003  0.50000001  0.83464300  1
  Cl  Cl15  1  0.50000001  0.33464300  0.50000002  1
  Cl  Cl16  1  0.00000003  0.50000001  0.33464302  1
  Cl  Cl17  1  0.50000004  0.83464301  0.50000004  1
  P  P18  1  0.66535703  0.66535701  0.16535705  1
  Cl  Cl19  1  0.33464306  1.00000001  1.00000004  1
