# generated using pymatgen
data_LiSi2P5S
_symmetry_space_group_name_H-M   'P 1'
_cell_length_a   4.18656301
_cell_length_b   4.18656301
_cell_length_c   8.30715370
_cell_angle_alpha   90.00000000
_cell_angle_beta   90.00000000
_cell_angle_gamma   90.00000000
_symmetry_Int_Tables_number   1
_chemical_formula_structural   LiSi2P5S
_chemical_formula_sum   'Li1 Si2 P5 S1'
_cell_volume   145.60205714
_cell_formula_units_Z   1
loop_
 _symmetry_equiv_pos_site_id
 _symmetry_equiv_pos_as_xyz
  1  'x, y, z'
loop_
 _atom_site_type_symbol
 _atom_site_label
 _atom_site_symmetry_multiplicity
 _atom_site_fract_x
 _atom_site_fract_y
 _atom_site_fract_z
 _atom_site_occupancy
  Li  Li0  1  0.00000000  0.00000000  0.00000000  1
  P  P1  1  0.00000000  0.00000000  0.50000002  1
  P  P2  1  0.50000000  0.50000000  0.26134101  1
  Si  Si3  1  0.50000000  0.50000000  0.73865903  1
  S  S4  1  0.50000000  0.00000000  0.22069601  1
  P  P5  1  0.50000000  0.00000000  0.77930403  1
  P  P6  1  -0.00000000  0.50000000  0.22069601  1
  P  P7  1  -0.00000000  0.50000000  0.77930403  1
  Si  Si8  1  0.50000000  0.50000000  0.50000002  1
