# generated using pymatgen
data_Li10O9F
_symmetry_space_group_name_H-M   'P 1'
_cell_length_a   5.66302443
_cell_length_b   5.95003414
_cell_length_c   8.22281837
_cell_angle_alpha   90.00000000
_cell_angle_beta   90.17348480
_cell_angle_gamma   90.00000000
_symmetry_Int_Tables_number   1
_chemical_formula_structural   Li10O9F
_chemical_formula_sum   'Li10 O9 F1'
_cell_volume   277.06814649
_cell_formula_units_Z   1
loop_
 _symmetry_equiv_pos_site_id
 _symmetry_equiv_pos_as_xyz
  1  'x, y, z'
loop_
 _atom_site_type_symbol
 _atom_site_label
 _atom_site_symmetry_multiplicity
 _atom_site_fract_x
 _atom_site_fract_y
 _atom_site_fract_z
 _atom_site_occupancy
  O  O0  1  0.99918896  0.99650698  0.49960899  1
  Li  Li1  1  0.49918898  0.50349299  0.99960898  1
  O  O2  1  0.51438598  0.94411498  0.24489600  1
  O  O3  1  0.01438600  0.55588499  0.74489599  1
  Li  Li4  1  0.48427098  0.05814200  0.75555999  1
  O  O5  1  0.98427096  0.44185799  0.25556000  1
  Li  Li6  1  0.49977698  0.50122699  0.50155599  1
  Li  Li7  1  0.99977696  0.99877298  0.00155600  1
  Li  Li8  1  0.83143297  0.71215198  0.07296500  1
  O  O9  1  0.33143299  0.78784798  0.57296499  1
  Li  Li10  1  0.17331499  0.28230799  0.92771598  1
  O  O11  1  0.67331497  0.21769199  0.42771599  1
  Li  Li12  1  0.37726398  0.55701999  0.26957400  1
  O  O13  1  0.87726397  0.94297998  0.76957399  1
  Li  Li14  1  0.61780198  0.44252399  0.73032499  1
  O  O15  1  0.11780200  0.05747500  0.23032500  1
  F  F16  1  0.79355397  0.67532898  0.44460599  1
  Li  Li17  1  0.29355399  0.82467098  0.94460598  1
  O  O18  1  0.20900999  0.32144399  0.55319299  1
  Li  Li19  1  0.70900997  0.17855600  0.05319300  1
