# generated using pymatgen
data_Li2SiTeP2SeCl7
_symmetry_space_group_name_H-M   'P 1'
_cell_length_a   7.75260544
_cell_length_b   7.75260544
_cell_length_c   7.75260592
_cell_angle_alpha   61.06253052
_cell_angle_beta   61.06253052
_cell_angle_gamma   61.06252670
_symmetry_Int_Tables_number   1
_chemical_formula_structural   Li2SiTeP2SeCl7
_chemical_formula_sum   'Li2 Si1 Te1 P2 Se1 Cl7'
_cell_volume   337.36144792
_cell_formula_units_Z   1
loop_
 _symmetry_equiv_pos_site_id
 _symmetry_equiv_pos_as_xyz
  1  'x, y, z'
loop_
 _atom_site_type_symbol
 _atom_site_label
 _atom_site_symmetry_multiplicity
 _atom_site_fract_x
 _atom_site_fract_y
 _atom_site_fract_z
 _atom_site_occupancy
  Si  Si0  1  0.49999999  0.50000000  0.50000004  1
  Cl  Cl1  1  -0.00000001  0.50000000  0.50000003  1
  Cl  Cl2  1  0.50000000  0.00000000  0.50000002  1
  Cl  Cl3  1  0.49999999  0.50000000  1.00000005  1
  Cl  Cl4  1  0.91428698  0.91428701  0.91428707  1
  Li  Li5  1  0.08571300  0.08571300  0.08571301  1
  Cl  Cl6  1  0.71075200  0.25863100  0.25863103  1
  Cl  Cl7  1  0.25863099  0.71075200  0.25863103  1
  P  P8  1  0.25863100  0.25863100  0.71075203  1
  P  P9  1  0.28924799  0.74136900  0.74136904  1
  Cl  Cl10  1  0.74136899  0.28924800  0.74136904  1
  Te  Te11  1  0.74136899  0.74136900  0.28924804  1
  Li  Li12  1  0.24653500  0.24653500  0.24653502  1
  Se  Se13  1  0.75346499  0.75346501  0.75346505  1
