# generated using pymatgen
data_SiH4S3Cl10
_symmetry_space_group_name_H-M   'P 1'
_cell_length_a   4.89584780
_cell_length_b   4.89584923
_cell_length_c   23.48484039
_cell_angle_alpha   90.00000000
_cell_angle_beta   90.00000000
_cell_angle_gamma   119.99999237
_symmetry_Int_Tables_number   1
_chemical_formula_structural   SiH4S3Cl10
_chemical_formula_sum   'Si1 H4 S3 Cl10'
_cell_volume   487.49955195
_cell_formula_units_Z   1
loop_
 _symmetry_equiv_pos_site_id
 _symmetry_equiv_pos_as_xyz
  1  'x, y, z'
loop_
 _atom_site_type_symbol
 _atom_site_label
 _atom_site_symmetry_multiplicity
 _atom_site_fract_x
 _atom_site_fract_y
 _atom_site_fract_z
 _atom_site_occupancy
  Cl  Cl0  1  1.00000004  0.30050399  0.33333334  1
  S  S1  1  0.69949603  0.69949598  0.66666668  1
  S  S2  1  0.30050401  0.00000000  0.00000000  1
  H  H3  1  0.01999700  0.30191199  0.78362902  1
  Cl  Cl4  1  0.69808803  0.71808498  0.11696200  1
  Cl  Cl5  1  0.28191501  0.98000297  0.45029601  1
  H  H6  1  0.98000304  0.28191499  0.88303802  1
  Cl  Cl7  1  0.71808503  0.69808798  0.21637101  1
  Cl  Cl8  1  0.30191201  0.01999700  0.54970401  1
  Si  Si9  1  1.00000004  0.18088399  0.83333302  1
  Cl  Cl10  1  0.81911603  0.81911597  0.16666700  1
  Cl  Cl11  1  0.18088401  0.00000000  0.50000001  1
  H  H12  1  0.03825500  0.38218299  0.73538902  1
  S  S13  1  0.61781702  0.65607198  0.06872200  1
  Cl  Cl14  1  0.34392801  0.96174497  0.40205501  1
  H  H15  1  0.96174504  0.34392799  0.93127802  1
  Cl  Cl16  1  0.65607202  0.61781698  0.26461101  1
  Cl  Cl17  1  0.38218302  0.03825500  0.59794502  1
