# generated using pymatgen
data_LiS(BrO5)2
_symmetry_space_group_name_H-M   'P 1'
_cell_length_a   6.37447071
_cell_length_b   6.37447071
_cell_length_c   6.37447166
_cell_angle_alpha   108.09586334
_cell_angle_beta   108.09586334
_cell_angle_gamma   108.09587097
_symmetry_Int_Tables_number   1
_chemical_formula_structural   LiS(BrO5)2
_chemical_formula_sum   'Li1 S1 Br2 O10'
_cell_volume   208.93019446
_cell_formula_units_Z   1
loop_
 _symmetry_equiv_pos_site_id
 _symmetry_equiv_pos_as_xyz
  1  'x, y, z'
loop_
 _atom_site_type_symbol
 _atom_site_label
 _atom_site_symmetry_multiplicity
 _atom_site_fract_x
 _atom_site_fract_y
 _atom_site_fract_z
 _atom_site_occupancy
  O  O0  1  0.47261498  0.47261499  0.47261497  1
  Li  Li1  1  0.00679500  0.00679500  0.00679500  1
  Br  Br2  1  0.90148799  0.02891000  0.48144397  1
  Br  Br3  1  0.48144398  0.90148798  0.02890996  1
  S  S4  1  0.02890999  0.48144399  0.90148798  1
  O  O5  1  0.86021098  0.26064899  0.62595897  1
  O  O6  1  0.38718999  0.08434700  0.11859799  1
  O  O7  1  0.89065698  0.63016399  0.93688995  1
  O  O8  1  0.93688997  0.89065698  0.63016394  1
  O  O9  1  0.08434700  0.11859800  0.38718999  1
  O  O10  1  0.62595898  0.86021098  0.26064896  1
  O  O11  1  0.11859799  0.38718999  0.08434698  1
  O  O12  1  0.63016397  0.93688998  0.89065695  1
  O  O13  1  0.26064898  0.62595899  0.86021097  1
