# generated using pymatgen
data_LiCaMgPHN
_symmetry_space_group_name_H-M   'P 1'
_cell_length_a   2.90467405
_cell_length_b   4.42882204
_cell_length_c   4.52662611
_cell_angle_alpha   90.00000000
_cell_angle_beta   90.00000000
_cell_angle_gamma   90.00000000
_symmetry_Int_Tables_number   1
_chemical_formula_structural   LiCaMgPHN
_chemical_formula_sum   'Li1 Ca1 Mg1 P1 H1 N1'
_cell_volume   58.23180596
_cell_formula_units_Z   1
loop_
 _symmetry_equiv_pos_site_id
 _symmetry_equiv_pos_as_xyz
  1  'x, y, z'
loop_
 _atom_site_type_symbol
 _atom_site_label
 _atom_site_symmetry_multiplicity
 _atom_site_fract_x
 _atom_site_fract_y
 _atom_site_fract_z
 _atom_site_occupancy
  Ca  Ca0  1  0.49999999  0.50000000  0.49999999  1
  Li  Li1  1  0.00000000  0.00000000  0.00000000  1
  Mg  Mg2  1  0.49999999  0.79527099  0.18151600  1
  P  P3  1  0.49999999  0.20472900  0.81848398  1
  H  H4  1  -0.00000000  0.70472899  0.68151598  1
  N  N5  1  -0.00000000  0.29527100  0.31848399  1
