# generated using pymatgen
data_Li6Si4P3S
_symmetry_space_group_name_H-M   'P 1'
_cell_length_a   6.02090311
_cell_length_b   6.02090263
_cell_length_c   6.02090359
_cell_angle_alpha   60.28751373
_cell_angle_beta   60.28752518
_cell_angle_gamma   60.28752136
_symmetry_Int_Tables_number   1
_chemical_formula_structural   Li6Si4P3S
_chemical_formula_sum   'Li6 Si4 P3 S1'
_cell_volume   155.34120326
_cell_formula_units_Z   1
loop_
 _symmetry_equiv_pos_site_id
 _symmetry_equiv_pos_as_xyz
  1  'x, y, z'
loop_
 _atom_site_type_symbol
 _atom_site_label
 _atom_site_symmetry_multiplicity
 _atom_site_fract_x
 _atom_site_fract_y
 _atom_site_fract_z
 _atom_site_occupancy
  Li  Li0  1  0.50000000  0.99999998  0.49999995  1
  Si  Si1  1  1.00000001  0.49999999  0.49999995  1
  Si  Si2  1  0.50000000  0.49999999  -0.00000002  1
  P  P3  1  0.50000000  0.49999999  0.49999996  1
  Si  Si4  1  0.87391801  0.87391699  0.87391794  1
  Si  Si5  1  0.12608200  0.12608300  0.12608199  1
  Li  Li6  1  0.73695201  0.25846700  0.25846597  1
  Li  Li7  1  0.74153401  0.74153299  0.26304796  1
  Li  Li8  1  0.74323401  0.74323399  0.74323395  1
  P  P9  1  0.25846600  0.25846700  0.73695197  1
  S  S10  1  0.74153401  0.26304700  0.74153396  1
  Li  Li11  1  0.25676600  0.25676600  0.25676598  1
  Li  Li12  1  0.26304800  0.74153299  0.74153396  1
  P  P13  1  0.25846600  0.73695299  0.25846597  1
