# generated using pymatgen
data_CaY2ScTe2PS2
_symmetry_space_group_name_H-M   'P 1'
_cell_length_a   3.47692800
_cell_length_b   3.47692704
_cell_length_c   32.12532043
_cell_angle_alpha   90.00000000
_cell_angle_beta   90.00000000
_cell_angle_gamma   120.00000763
_symmetry_Int_Tables_number   1
_chemical_formula_structural   CaY2ScTe2PS2
_chemical_formula_sum   'Ca1 Y2 Sc1 Te2 P1 S2'
_cell_volume   336.33289167
_cell_formula_units_Z   1
loop_
 _symmetry_equiv_pos_site_id
 _symmetry_equiv_pos_as_xyz
  1  'x, y, z'
loop_
 _atom_site_type_symbol
 _atom_site_label
 _atom_site_symmetry_multiplicity
 _atom_site_fract_x
 _atom_site_fract_y
 _atom_site_fract_z
 _atom_site_occupancy
  Ca  Ca0  1  0.00000000  0.00000000  0.59541901  1
  Te  Te1  1  0.66666667  0.33333334  0.47927701  1
  S  S2  1  0.66666667  0.33333334  0.36408601  1
  P  P3  1  0.00000000  0.00000000  0.71063201  1
  S  S4  1  0.00000000  0.00000000  0.88436502  1
  Y  Y5  1  0.00000000  0.00000000  0.42166201  1
  Te  Te6  1  0.66666667  0.33333334  0.65304901  1
  Sc  Sc7  1  0.66666667  0.33333334  0.93507202  1
  Y  Y8  1  0.66666667  0.33333334  0.83359701  1
