# generated using pymatgen
data_LiMgSiP4Se
_symmetry_space_group_name_H-M   'P 1'
_cell_length_a   3.83820605
_cell_length_b   3.83820605
_cell_length_c   12.47683716
_cell_angle_alpha   90.00000000
_cell_angle_beta   90.00000000
_cell_angle_gamma   120.00000000
_symmetry_Int_Tables_number   1
_chemical_formula_structural   LiMgSiP4Se
_chemical_formula_sum   'Li1 Mg1 Si1 P4 Se1'
_cell_volume   159.18117662
_cell_formula_units_Z   1
loop_
 _symmetry_equiv_pos_site_id
 _symmetry_equiv_pos_as_xyz
  1  'x, y, z'
loop_
 _atom_site_type_symbol
 _atom_site_label
 _atom_site_symmetry_multiplicity
 _atom_site_fract_x
 _atom_site_fract_y
 _atom_site_fract_z
 _atom_site_occupancy
  Mg  Mg0  1  0.00000000  0.00000000  0.00000000  1
  Li  Li1  1  0.00000000  0.00000000  0.49999999  1
  P  P2  1  0.66666666  0.33333334  0.74999999  1
  P  P3  1  0.33333334  0.66666668  0.25000000  1
  Se  Se4  1  0.66666666  0.33333334  0.91616899  1
  Si  Si5  1  0.66666666  0.33333334  0.58383099  1
  P  P6  1  0.33333334  0.66666668  0.41616899  1
  P  P7  1  0.33333334  0.66666668  0.08383100  1
