# generated using pymatgen
data_Li5Mg4PS7F3
_symmetry_space_group_name_H-M   'P 1'
_cell_length_a   5.86400366
_cell_length_b   6.03807116
_cell_length_c   8.41767883
_cell_angle_alpha   89.96695709
_cell_angle_beta   89.80928802
_cell_angle_gamma   89.95900726
_symmetry_Int_Tables_number   1
_chemical_formula_structural   Li5Mg4PS7F3
_chemical_formula_sum   'Li5 Mg4 P1 S7 F3'
_cell_volume   298.04526203
_cell_formula_units_Z   1
loop_
 _symmetry_equiv_pos_site_id
 _symmetry_equiv_pos_as_xyz
  1  'x, y, z'
loop_
 _atom_site_type_symbol
 _atom_site_label
 _atom_site_symmetry_multiplicity
 _atom_site_fract_x
 _atom_site_fract_y
 _atom_site_fract_z
 _atom_site_occupancy
  F  F0  1  0.51073444  0.54982514  0.25006633  1
  S  S1  1  0.48926558  0.45017484  0.74993371  1
  Mg  Mg2  1  0.98593174  0.04877272  0.24852819  1
  S  S3  1  0.01406828  0.95122727  0.75147184  1
  S  S4  1  0.50000001  0.00000000  0.00000001  1
  P  P5  1  0.00000000  0.49999999  0.50000001  1
  S  S6  1  0.00000000  0.49999999  -0.00000001  1
  S  S7  1  0.50000001  0.00000000  0.50000003  1
  Li  Li8  1  0.18612776  0.20385424  0.93733313  1
  Mg  Mg9  1  0.30971299  0.70760835  0.55395396  1
  Mg  Mg10  1  0.81387225  0.79614575  0.06266691  1
  F  F11  1  0.69028703  0.29239164  0.44604607  1
  Mg  Mg12  1  0.29421215  0.69598755  0.94978723  1
  Li  Li13  1  0.20458019  0.19163696  0.56350111  1
  F  F14  1  0.70578787  0.30401244  0.05021281  1
  Li  Li15  1  0.79541982  0.80836303  0.43649892  1
  Li  Li16  1  0.38068452  0.96629139  0.25818189  1
  Li  Li17  1  0.09819106  0.44156409  0.24232631  1
  S  S18  1  0.61931550  0.03370860  0.74181815  1
  S  S19  1  0.90180895  0.55843589  0.75767372  1
