# generated using pymatgen
data_Li5Mg3PSe3
_symmetry_space_group_name_H-M   'P 1'
_cell_length_a   5.07273006
_cell_length_b   5.07273006
_cell_length_c   6.41236973
_cell_angle_alpha   113.29981232
_cell_angle_beta   113.29981232
_cell_angle_gamma   90.00000000
_symmetry_Int_Tables_number   1
_chemical_formula_structural   Li5Mg3PSe3
_chemical_formula_sum   'Li5 Mg3 P1 Se3'
_cell_volume   136.77590352
_cell_formula_units_Z   1
loop_
 _symmetry_equiv_pos_site_id
 _symmetry_equiv_pos_as_xyz
  1  'x, y, z'
loop_
 _atom_site_type_symbol
 _atom_site_label
 _atom_site_symmetry_multiplicity
 _atom_site_fract_x
 _atom_site_fract_y
 _atom_site_fract_z
 _atom_site_occupancy
  Li  Li0  1  0.74999996  0.24999999  0.49999996  1
  Se  Se1  1  0.24999995  0.74999997  0.49999995  1
  P  P2  1  0.49999996  0.49999998  -0.00000005  1
  Mg  Mg3  1  0.00000000  0.00000000  0.00000000  1
  Li  Li4  1  0.87505293  0.87505296  0.17725091  1
  Mg  Mg5  1  0.69780197  0.12494599  0.82274797  1
  Se  Se6  1  0.12494696  0.69780297  0.82274995  1
  Se  Se7  1  0.30219797  0.30219799  0.17725097  1
  Li  Li8  1  0.53591496  0.53591498  0.68026495  1
  Mg  Mg9  1  0.85564995  0.46408498  0.31973494  1
  Li  Li10  1  0.46408494  0.85564996  0.31973493  1
  Li  Li11  1  0.14434999  0.14434999  0.68026499  1
