# generated using pymatgen
data_Si3TeP3S4Cl
_symmetry_space_group_name_H-M   'P 1'
_cell_length_a   4.16036797
_cell_length_b   8.40678978
_cell_length_c   10.94724464
_cell_angle_alpha   90.00000000
_cell_angle_beta   90.00000000
_cell_angle_gamma   104.32613373
_symmetry_Int_Tables_number   1
_chemical_formula_structural   Si3TeP3S4Cl
_chemical_formula_sum   'Si3 Te1 P3 S4 Cl1'
_cell_volume   370.97704867
_cell_formula_units_Z   1
loop_
 _symmetry_equiv_pos_site_id
 _symmetry_equiv_pos_as_xyz
  1  'x, y, z'
loop_
 _atom_site_type_symbol
 _atom_site_label
 _atom_site_symmetry_multiplicity
 _atom_site_fract_x
 _atom_site_fract_y
 _atom_site_fract_z
 _atom_site_occupancy
  Si  Si0  1  0.25587705  0.51175403  0.75000002  1
  P  P1  1  0.74412305  0.48824602  0.25000001  1
  S  S2  1  0.00000000  0.00000000  0.50000002  1
  P  P3  1  0.00000000  0.00000000  0.00000000  1
  S  S4  1  0.53710701  0.07421400  0.75000002  1
  S  S5  1  0.46289308  0.92578605  0.25000001  1
  Te  Te6  1  0.94436408  0.88872805  0.75000002  1
  Cl  Cl7  1  0.05563601  0.11127201  0.25000001  1
  S  S8  1  0.38527007  0.77054004  0.05788900  1
  P  P9  1  0.61473002  0.22946001  0.94211103  1
  Si  Si10  1  0.61473002  0.22946001  0.55788902  1
  Si  Si11  1  0.38527007  0.77054004  0.44211101  1
