# generated using pymatgen
data_RbBr3Cl16
_symmetry_space_group_name_H-M   'P 1'
_cell_length_a   4.78211689
_cell_length_b   10.56747913
_cell_length_c   17.45812225
_cell_angle_alpha   90.00000000
_cell_angle_beta   90.00000000
_cell_angle_gamma   90.00000000
_symmetry_Int_Tables_number   1
_chemical_formula_structural   RbBr3Cl16
_chemical_formula_sum   'Rb1 Br3 Cl16'
_cell_volume   882.24481927
_cell_formula_units_Z   1
loop_
 _symmetry_equiv_pos_site_id
 _symmetry_equiv_pos_as_xyz
  1  'x, y, z'
loop_
 _atom_site_type_symbol
 _atom_site_label
 _atom_site_symmetry_multiplicity
 _atom_site_fract_x
 _atom_site_fract_y
 _atom_site_fract_z
 _atom_site_occupancy
  Rb  Rb0  1  0.25000001  0.93313599  0.17646001  1
  Cl  Cl1  1  0.75000002  0.06686400  0.82354004  1
  Cl  Cl2  1  0.75000002  0.56686399  0.67646003  1
  Cl  Cl3  1  0.25000001  0.43313599  0.32354001  1
  Cl  Cl4  1  0.25000001  0.66678499  0.94146404  1
  Cl  Cl5  1  0.75000002  0.33321500  0.05853600  1
  Cl  Cl6  1  0.75000002  0.83321499  0.44146402  1
  Cl  Cl7  1  0.25000001  0.16678500  0.55853602  1
  Cl  Cl8  1  0.25000001  0.52481799  0.11325300  1
  Cl  Cl9  1  0.75000002  0.47518199  0.88674704  1
  Cl  Cl10  1  0.75000002  0.97518199  0.61325303  1
  Cl  Cl11  1  0.25000001  0.02481800  0.38674702  1
  Cl  Cl12  1  0.25000001  0.65627899  0.50938402  1
  Cl  Cl13  1  0.75000002  0.34372100  0.49061602  1
  Br  Br14  1  0.75000002  0.84372099  0.00938400  1
  Cl  Cl15  1  0.25000001  0.15627900  0.99061604  1
  Cl  Cl16  1  0.25000001  0.79507499  0.78066003  1
  Br  Br17  1  0.75000002  0.20492500  0.21934001  1
  Br  Br18  1  0.75000002  0.70492499  0.28066001  1
  Cl  Cl19  1  0.25000001  0.29507500  0.71934003  1
