# generated using pymatgen
data_LiMg3P5S
_symmetry_space_group_name_H-M   'P 1'
_cell_length_a   5.88594198
_cell_length_b   5.90410328
_cell_length_c   5.88594198
_cell_angle_alpha   60.10170364
_cell_angle_beta   90.00000000
_cell_angle_gamma   119.89830017
_symmetry_Int_Tables_number   1
_chemical_formula_structural   LiMg3P5S
_chemical_formula_sum   'Li1 Mg3 P5 S1'
_cell_volume   145.07770081
_cell_formula_units_Z   1
loop_
 _symmetry_equiv_pos_site_id
 _symmetry_equiv_pos_as_xyz
  1  'x, y, z'
loop_
 _atom_site_type_symbol
 _atom_site_label
 _atom_site_symmetry_multiplicity
 _atom_site_fract_x
 _atom_site_fract_y
 _atom_site_fract_z
 _atom_site_occupancy
  Li  Li0  1  0.50000000  0.00000000  0.50000000  1
  P  P1  1  0.00000000  0.00000000  0.00000000  1
  P  P2  1  0.25000003  0.50000001  0.25000000  1
  S  S3  1  0.75000003  0.50000001  0.75000001  1
  Mg  Mg4  1  0.02630503  0.49543701  0.53086801  1
  Mg  Mg5  1  0.46913203  0.49543701  0.97369501  1
  P  P6  1  0.97369503  0.50456301  0.02630500  1
  P  P7  1  0.53086803  0.50456301  0.46913201  1
  Mg  Mg8  1  0.50000000  0.00000000  1.00000000  1
  P  P9  1  1.00000005  1.00000002  0.50000001  1
