# generated using pymatgen
data_Ti2TeS9
_symmetry_space_group_name_H-M   'P 1'
_cell_length_a   3.28650594
_cell_length_b   3.28650546
_cell_length_c   37.40032196
_cell_angle_alpha   90.00000000
_cell_angle_beta   90.00000000
_cell_angle_gamma   120.00000763
_symmetry_Int_Tables_number   1
_chemical_formula_structural   Ti2TeS9
_chemical_formula_sum   'Ti2 Te1 S9'
_cell_volume   349.84423253
_cell_formula_units_Z   1
loop_
 _symmetry_equiv_pos_site_id
 _symmetry_equiv_pos_as_xyz
  1  'x, y, z'
loop_
 _atom_site_type_symbol
 _atom_site_label
 _atom_site_symmetry_multiplicity
 _atom_site_fract_x
 _atom_site_fract_y
 _atom_site_fract_z
 _atom_site_occupancy
  S  S0  1  0.00000000  0.00000000  0.53034301  1
  Ti  Ti1  1  0.00000000  0.00000000  0.90608203  1
  S  S2  1  0.66666669  0.33333333  0.71820802  1
  S  S3  1  0.66666669  0.33333333  0.34245501  1
  S  S4  1  0.00000000  0.00000000  0.67285102  1
  S  S5  1  0.00000000  0.00000000  0.29709301  1
  S  S6  1  0.66666669  0.33333333  0.57541202  1
  S  S7  1  0.66666669  0.33333333  0.48525501  1
  S  S8  1  0.00000000  0.00000000  0.76356102  1
  Ti  Ti9  1  0.00000000  0.00000000  0.38783501  1
  Te  Te10  1  0.66666669  0.33333333  0.94726303  1
  S  S11  1  0.66666669  0.33333333  0.86489502  1
