# generated using pymatgen
data_Li10SiS6O
_symmetry_space_group_name_H-M   'P 1'
_cell_length_a   5.14239407
_cell_length_b   6.89842892
_cell_length_c   7.42076254
_cell_angle_alpha   90.00000000
_cell_angle_beta   90.95213318
_cell_angle_gamma   90.00000000
_symmetry_Int_Tables_number   1
_chemical_formula_structural   Li10SiS6O
_chemical_formula_sum   'Li10 Si1 S6 O1'
_cell_volume   263.21104742
_cell_formula_units_Z   1
loop_
 _symmetry_equiv_pos_site_id
 _symmetry_equiv_pos_as_xyz
  1  'x, y, z'
loop_
 _atom_site_type_symbol
 _atom_site_label
 _atom_site_symmetry_multiplicity
 _atom_site_fract_x
 _atom_site_fract_y
 _atom_site_fract_z
 _atom_site_occupancy
  O  O0  1  0.00000000  0.00000000  0.00000000  1
  S  S1  1  0.49999999  0.50000001  0.49999998  1
  Li  Li2  1  0.48531299  0.17465800  0.80003399  1
  Li  Li3  1  0.98531299  0.32534200  0.30003396  1
  Li  Li4  1  0.51468699  0.82534201  0.19996598  1
  Li  Li5  1  0.01468700  0.67465801  0.69996601  1
  Li  Li6  1  0.69878899  0.16305600  0.98721198  1
  S  S7  1  0.19878900  0.33694400  0.48721200  1
  Li  Li8  1  0.30121100  0.83694401  0.01278799  1
  S  S9  1  0.80121099  0.66305601  0.51278797  1
  Si  Si10  1  0.54909999  0.41556401  0.74420898  1
  Li  Li11  1  0.04910000  0.08443600  0.24420900  1
  S  S12  1  0.45089999  0.58443601  0.25579098  1
  Li  Li13  1  0.95089999  0.91556401  0.75579096  1
  Li  Li14  1  0.20059200  0.21838700  0.91588900  1
  S  S15  1  0.70059199  0.28161300  0.41588897  1
  Li  Li16  1  0.79940799  0.78161301  0.08411096  1
  S  S17  1  0.29940800  0.71838701  0.58411099  1
