# generated using pymatgen
data_MgP2BrNCl5
_symmetry_space_group_name_H-M   'P 1'
_cell_length_a   6.69045353
_cell_length_b   6.69045353
_cell_length_c   6.69045353
_cell_angle_alpha   60.00000000
_cell_angle_beta   60.00000000
_cell_angle_gamma   60.00000000
_symmetry_Int_Tables_number   1
_chemical_formula_structural   MgP2BrNCl5
_chemical_formula_sum   'Mg1 P2 Br1 N1 Cl5'
_cell_volume   211.76377862
_cell_formula_units_Z   1
loop_
 _symmetry_equiv_pos_site_id
 _symmetry_equiv_pos_as_xyz
  1  'x, y, z'
loop_
 _atom_site_type_symbol
 _atom_site_label
 _atom_site_symmetry_multiplicity
 _atom_site_fract_x
 _atom_site_fract_y
 _atom_site_fract_z
 _atom_site_occupancy
  Mg  Mg0  1  0.25000000  0.25000000  0.25000000  1
  Cl  Cl1  1  0.74999999  0.74999999  0.74999999  1
  Cl  Cl2  1  0.00000000  0.00000000  0.00000000  1
  N  N3  1  0.49999999  0.49999999  0.49999999  1
  Br  Br4  1  0.27742300  0.72257699  0.27742300  1
  Cl  Cl5  1  0.27742300  0.27742300  0.72257699  1
  P  P6  1  0.72257699  0.27742300  0.72257699  1
  Cl  Cl7  1  0.27742300  0.72257699  0.72257699  1
  Cl  Cl8  1  0.72257699  0.27742300  0.27742300  1
  P  P9  1  0.72257699  0.72257699  0.27742300  1
