# generated using pymatgen
data_LiSiP3(SeS4)3
_symmetry_space_group_name_H-M   'P 1'
_cell_length_a   6.41876841
_cell_length_b   6.41877031
_cell_length_c   6.93531704
_cell_angle_alpha   89.99976349
_cell_angle_beta   90.00003052
_cell_angle_gamma   91.12722778
_symmetry_Int_Tables_number   1
_chemical_formula_structural   LiSiP3(SeS4)3
_chemical_formula_sum   'Li1 Si1 P3 Se3 S12'
_cell_volume   285.68392655
_cell_formula_units_Z   1
loop_
 _symmetry_equiv_pos_site_id
 _symmetry_equiv_pos_as_xyz
  1  'x, y, z'
loop_
 _atom_site_type_symbol
 _atom_site_label
 _atom_site_symmetry_multiplicity
 _atom_site_fract_x
 _atom_site_fract_y
 _atom_site_fract_z
 _atom_site_occupancy
  Li  Li0  1  0.49998095  0.99999202  0.00000494  1
  S  S1  1  0.99998496  0.49997801  0.49999897  1
  S  S2  1  0.00000100  0.00001200  0.25000900  1
  P  P3  1  0.99999499  0.00001100  0.74998799  1
  S  S4  1  0.64018297  0.35982001  0.25000098  1
  S  S5  1  0.35981596  0.64019001  0.75000096  1
  S  S6  1  0.64018297  0.35982001  0.75000097  1
  S  S7  1  0.35981496  0.64018801  0.24999896  1
  S  S8  1  0.61767695  0.83322901  0.49999095  1
  P  P9  1  0.16677298  0.38232001  0.00000698  1
  P  P10  1  0.83326296  0.61767901  0.99999496  1
  Si  Si11  1  0.38230899  0.16674500  0.50000199  1
  S  S12  1  0.67773096  0.67773801  0.25000496  1
  S  S13  1  0.67773596  0.67774101  0.74999596  1
  S  S14  1  0.32226498  0.32226901  0.74999998  1
  S  S15  1  0.32226398  0.32226801  0.25000098  1
  S  S16  1  0.29457096  0.84045501  0.50000295  1
  Se  Se17  1  0.84046597  0.29456600  0.99999798  1
  Se  Se18  1  0.15954896  0.70543701  0.99999895  1
  Se  Se19  1  0.70543698  0.15954000  0.49999999  1
