# generated using pymatgen
data_LiSi4P7HBr
_symmetry_space_group_name_H-M   'P 1'
_cell_length_a   6.04626417
_cell_length_b   6.04626369
_cell_length_c   7.81289911
_cell_angle_alpha   90.00000000
_cell_angle_beta   90.00000000
_cell_angle_gamma   120.00000000
_symmetry_Int_Tables_number   1
_chemical_formula_structural   LiSi4P7HBr
_chemical_formula_sum   'Li1 Si4 P7 H1 Br1'
_cell_volume   247.35292504
_cell_formula_units_Z   1
loop_
 _symmetry_equiv_pos_site_id
 _symmetry_equiv_pos_as_xyz
  1  'x, y, z'
loop_
 _atom_site_type_symbol
 _atom_site_label
 _atom_site_symmetry_multiplicity
 _atom_site_fract_x
 _atom_site_fract_y
 _atom_site_fract_z
 _atom_site_occupancy
  Br  Br0  1  0.33333331  0.66666667  0.19776700  1
  P  P1  1  0.66666664  0.33333334  0.80223299  1
  P  P2  1  0.00000000  0.00000000  0.49999999  1
  Si  Si3  1  0.00000000  0.00000000  0.00000000  1
  P  P4  1  0.33333331  0.66666667  0.74886199  1
  H  H5  1  0.66666664  0.33333334  0.25113800  1
  P  P6  1  0.17503399  0.35006800  0.82722699  1
  P  P7  1  0.17503398  0.82496601  0.82722699  1
  P  P8  1  0.64993196  0.82496601  0.82722699  1
  Si  Si9  1  0.35006799  0.17503400  0.17277300  1
  Si  Si10  1  0.82496597  0.17503400  0.17277300  1
  P  P11  1  0.82496596  0.64993201  0.17277300  1
  Si  Si12  1  0.66666664  0.33333334  0.46671699  1
  Li  Li13  1  0.33333331  0.66666667  0.53328299  1
