# generated using pymatgen
data_Ca2Se11N3ClO3
_symmetry_space_group_name_H-M   'P 1'
_cell_length_a   4.56018400
_cell_length_b   4.56018400
_cell_length_c   11.68673706
_cell_angle_alpha   90.00000000
_cell_angle_beta   90.00000000
_cell_angle_gamma   90.00000000
_symmetry_Int_Tables_number   1
_chemical_formula_structural   Ca2Se11N3ClO3
_chemical_formula_sum   'Ca2 Se11 N3 Cl1 O3'
_cell_volume   243.02894762
_cell_formula_units_Z   1
loop_
 _symmetry_equiv_pos_site_id
 _symmetry_equiv_pos_as_xyz
  1  'x, y, z'
loop_
 _atom_site_type_symbol
 _atom_site_label
 _atom_site_symmetry_multiplicity
 _atom_site_fract_x
 _atom_site_fract_y
 _atom_site_fract_z
 _atom_site_occupancy
  Ca  Ca0  1  -0.00000000  0.50000000  0.82089300  1
  Cl  Cl1  1  0.50000000  0.00000000  0.17910700  1
  Se  Se2  1  0.18147700  0.00000000  0.63052600  1
  Se  Se3  1  0.81852300  0.00000000  0.63052600  1
  Se  Se4  1  0.50000000  0.68147700  0.63052600  1
  N  N5  1  0.50000000  0.31852300  0.63052600  1
  Se  Se6  1  0.31852300  0.50000000  0.36947400  1
  Se  Se7  1  0.68147700  0.50000000  0.36947400  1
  Se  Se8  1  -0.00000000  0.81852300  0.36947400  1
  Se  Se9  1  -0.00000000  0.18147700  0.36947400  1
  Se  Se10  1  0.50000000  0.00000000  0.49120800  1
  N  N11  1  -0.00000000  0.50000000  0.50879200  1
  O  O12  1  0.50000000  0.00000000  0.90653800  1
  Ca  Ca13  1  -0.00000000  0.50000000  0.09346200  1
  O  O14  1  0.00000000  0.00000000  0.68167500  1
  O  O15  1  0.50000000  0.50000000  0.68167500  1
  Se  Se16  1  0.50000000  0.50000000  0.31832500  1
  N  N17  1  0.00000000  0.00000000  0.31832500  1
  Se  Se18  1  0.50000000  0.00000000  0.57418800  1
  Se  Se19  1  -0.00000000  0.50000000  0.42581200  1
