# generated using pymatgen
data_MgP2Br3Cl4
_symmetry_space_group_name_H-M   'P 1'
_cell_length_a   6.64626217
_cell_length_b   6.64626217
_cell_length_c   6.64626217
_cell_angle_alpha   60.00000000
_cell_angle_beta   60.00000000
_cell_angle_gamma   60.00000000
_symmetry_Int_Tables_number   1
_chemical_formula_structural   MgP2Br3Cl4
_chemical_formula_sum   'Mg1 P2 Br3 Cl4'
_cell_volume   207.59524783
_cell_formula_units_Z   1
loop_
 _symmetry_equiv_pos_site_id
 _symmetry_equiv_pos_as_xyz
  1  'x, y, z'
loop_
 _atom_site_type_symbol
 _atom_site_label
 _atom_site_symmetry_multiplicity
 _atom_site_fract_x
 _atom_site_fract_y
 _atom_site_fract_z
 _atom_site_occupancy
  Mg  Mg0  1  0.25000000  0.25000000  0.25000000  1
  Br  Br1  1  0.74999999  0.74999999  0.74999999  1
  Cl  Cl2  1  0.49999999  0.49999999  0.49999999  1
  Br  Br3  1  0.00000000  0.00000000  0.00000000  1
  Cl  Cl4  1  0.21598000  0.78401999  0.21598000  1
  Cl  Cl5  1  0.21598000  0.21598000  0.78401999  1
  Br  Br6  1  0.78401999  0.21598000  0.78401999  1
  P  P7  1  0.21598000  0.78401999  0.78401999  1
  Cl  Cl8  1  0.78401999  0.21598000  0.21598000  1
  P  P9  1  0.78401999  0.78401999  0.21598000  1
