# generated using pymatgen
data_Li6SBr4O5
_symmetry_space_group_name_H-M   'P 1'
_cell_length_a   4.93246222
_cell_length_b   6.82320690
_cell_length_c   6.88222027
_cell_angle_alpha   74.47875214
_cell_angle_beta   69.54018402
_cell_angle_gamma   69.08252716
_symmetry_Int_Tables_number   1
_chemical_formula_structural   Li6SBr4O5
_chemical_formula_sum   'Li6 S1 Br4 O5'
_cell_volume   199.99268099
_cell_formula_units_Z   1
loop_
 _symmetry_equiv_pos_site_id
 _symmetry_equiv_pos_as_xyz
  1  'x, y, z'
loop_
 _atom_site_type_symbol
 _atom_site_label
 _atom_site_symmetry_multiplicity
 _atom_site_fract_x
 _atom_site_fract_y
 _atom_site_fract_z
 _atom_site_occupancy
  O  O0  1  0.20034299  0.01149000  0.99403403  1
  Li  Li1  1  0.82231995  0.53143402  0.14712801  1
  Br  Br2  1  0.32145298  0.33520901  0.33386201  1
  Br  Br3  1  0.99086694  0.65843802  0.65847602  1
  Li  Li4  1  0.50344197  0.46445302  0.85468302  1
  Li  Li5  1  0.81412395  0.14412901  0.53593504  1
  Br  Br6  1  0.48752997  0.85933803  0.47642299  1
  O  O7  1  0.23833099  0.45026202  0.09905299  1
  O  O8  1  0.76771795  0.55906302  0.88807403  1
  Li  Li9  1  0.21413099  0.10156900  0.44924801  1
  Li  Li10  1  0.77224495  0.89491103  0.54702400  1
  O  O11  1  0.68724096  0.30191701  0.32042402  1
  O  O12  1  0.31378098  0.68606803  0.68374000  1
  Br  Br13  1  0.63406696  0.22378401  0.77393603  1
  S  S14  1  0.07071700  0.50033402  0.49235799  1
  Li  Li15  1  0.62005096  0.77760203  0.24560300  1
