# generated using pymatgen
data_PBrCl5
_symmetry_space_group_name_H-M   'P 1'
_cell_length_a   5.32975006
_cell_length_b   5.32975006
_cell_length_c   9.49263287
_cell_angle_alpha   73.69616699
_cell_angle_beta   73.69616699
_cell_angle_gamma   60.00000000
_symmetry_Int_Tables_number   1
_chemical_formula_structural   PBrCl5
_chemical_formula_sum   'P1 Br1 Cl5'
_cell_volume   220.91395904
_cell_formula_units_Z   1
loop_
 _symmetry_equiv_pos_site_id
 _symmetry_equiv_pos_as_xyz
  1  'x, y, z'
loop_
 _atom_site_type_symbol
 _atom_site_label
 _atom_site_symmetry_multiplicity
 _atom_site_fract_x
 _atom_site_fract_y
 _atom_site_fract_z
 _atom_site_occupancy
  Br  Br0  1  0.77012897  0.77012899  0.68961300  1
  P  P1  1  0.22987099  0.22987100  0.31038700  1
  Cl  Cl2  1  0.00000000  0.00000000  0.00000000  1
  Cl  Cl3  1  0.89033796  0.89033799  0.32898600  1
  Cl  Cl4  1  0.10966200  0.10966200  0.67101401  1
  Cl  Cl5  1  0.64039497  0.64039499  0.07881500  1
  Cl  Cl6  1  0.35960499  0.35960499  0.92118501  1
