# generated using pymatgen
data_LiSi2P7
_symmetry_space_group_name_H-M   'P 1'
_cell_length_a   6.40367222
_cell_length_b   6.40367222
_cell_length_c   6.40367222
_cell_angle_alpha   60.00000000
_cell_angle_beta   60.00000000
_cell_angle_gamma   60.00000000
_symmetry_Int_Tables_number   1
_chemical_formula_structural   LiSi2P7
_chemical_formula_sum   'Li1 Si2 P7'
_cell_volume   185.68305957
_cell_formula_units_Z   1
loop_
 _symmetry_equiv_pos_site_id
 _symmetry_equiv_pos_as_xyz
  1  'x, y, z'
loop_
 _atom_site_type_symbol
 _atom_site_label
 _atom_site_symmetry_multiplicity
 _atom_site_fract_x
 _atom_site_fract_y
 _atom_site_fract_z
 _atom_site_occupancy
  Li  Li0  1  0.74999999  0.74999999  0.74999999  1
  Si  Si1  1  0.25000000  0.25000000  0.25000000  1
  Si  Si2  1  0.00000000  0.00000000  0.00000000  1
  P  P3  1  0.49999999  0.49999999  0.49999999  1
  P  P4  1  0.20355800  0.20355800  0.79644199  1
  P  P5  1  0.79644199  0.20355800  0.79644199  1
  P  P6  1  0.79644199  0.79644199  0.20355800  1
  P  P7  1  0.20355800  0.79644199  0.79644199  1
  P  P8  1  0.79644199  0.20355800  0.20355800  1
  P  P9  1  0.20355800  0.79644199  0.20355800  1
