# generated using pymatgen
data_LiP6S7
_symmetry_space_group_name_H-M   'P 1'
_cell_length_a   6.58358145
_cell_length_b   6.58358145
_cell_length_c   6.58358145
_cell_angle_alpha   60.00000000
_cell_angle_beta   60.00000000
_cell_angle_gamma   60.00000000
_symmetry_Int_Tables_number   1
_chemical_formula_structural   LiP6S7
_chemical_formula_sum   'Li1 P6 S7'
_cell_volume   201.77699055
_cell_formula_units_Z   1
loop_
 _symmetry_equiv_pos_site_id
 _symmetry_equiv_pos_as_xyz
  1  'x, y, z'
loop_
 _atom_site_type_symbol
 _atom_site_label
 _atom_site_symmetry_multiplicity
 _atom_site_fract_x
 _atom_site_fract_y
 _atom_site_fract_z
 _atom_site_occupancy
  Li  Li0  1  0.25000000  0.25000000  0.25000000  1
  S  S1  1  0.49999999  0.49999999  0.49999999  1
  S  S2  1  0.87499998  0.37499999  0.87499998  1
  P  P3  1  0.87499998  0.87499998  0.37499999  1
  S  S4  1  0.37499999  0.87499998  0.87499998  1
  P  P5  1  0.87499998  0.87499998  0.87499998  1
  S  S6  1  0.64040099  0.64040199  0.07879500  1
  S  S7  1  0.64040099  0.07879500  0.64040199  1
  P  P8  1  0.07879400  0.64040199  0.64040199  1
  P  P9  1  0.10959900  0.10959800  0.67120499  1
  S  S10  1  0.10959900  0.10959800  0.10959800  1
  S  S11  1  0.10959900  0.67120499  0.10959800  1
  P  P12  1  0.64040099  0.64040199  0.64040199  1
  P  P13  1  0.67120599  0.10959800  0.10959800  1
