# generated using pymatgen
data_Mg2Se5O11
_symmetry_space_group_name_H-M   'P 1'
_cell_length_a   7.24135208
_cell_length_b   7.24135208
_cell_length_c   7.24135208
_cell_angle_alpha   60.00000000
_cell_angle_beta   60.00000000
_cell_angle_gamma   60.00000000
_symmetry_Int_Tables_number   1
_chemical_formula_structural   Mg2Se5O11
_chemical_formula_sum   'Mg2 Se5 O11'
_cell_volume   268.49981671
_cell_formula_units_Z   1
loop_
 _symmetry_equiv_pos_site_id
 _symmetry_equiv_pos_as_xyz
  1  'x, y, z'
loop_
 _atom_site_type_symbol
 _atom_site_label
 _atom_site_symmetry_multiplicity
 _atom_site_fract_x
 _atom_site_fract_y
 _atom_site_fract_z
 _atom_site_occupancy
  Mg  Mg0  1  0.26087999  0.26087999  0.73911998  1
  O  O1  1  0.73911998  0.26087999  0.26087999  1
  O  O2  1  0.26087999  0.73911998  0.73911998  1
  O  O3  1  0.73911998  0.73911998  0.26087999  1
  O  O4  1  0.73911998  0.26087999  0.73911998  1
  O  O5  1  0.26087999  0.73911998  0.26087999  1
  O  O6  1  0.74999998  0.74999998  0.74999998  1
  O  O7  1  0.24999999  0.24999999  0.24999999  1
  Mg  Mg8  1  0.00000000  0.00000000  0.00000000  1
  Se  Se9  1  0.49999998  0.49999998  0.49999998  1
  Se  Se10  1  0.35036499  0.35036499  0.35036499  1
  Se  Se11  1  0.05109500  0.64963498  0.64963498  1
  O  O12  1  0.64963498  0.64963498  0.05109500  1
  Se  Se13  1  0.64963498  0.05109500  0.64963498  1
  O  O14  1  0.64963498  0.64963498  0.64963498  1
  O  O15  1  0.35036499  0.94890497  0.35036499  1
  O  O16  1  0.94890497  0.35036499  0.35036499  1
  Se  Se17  1  0.35036499  0.35036499  0.94890497  1
