# generated using pymatgen
data_Li3Se6N2O2F
_symmetry_space_group_name_H-M   'P 1'
_cell_length_a   3.22245598
_cell_length_b   5.51427412
_cell_length_c   10.51628780
_cell_angle_alpha   90.00000000
_cell_angle_beta   90.00000000
_cell_angle_gamma   106.98925018
_symmetry_Int_Tables_number   1
_chemical_formula_structural   Li3Se6N2O2F
_chemical_formula_sum   'Li3 Se6 N2 O2 F1'
_cell_volume   178.71418576
_cell_formula_units_Z   1
loop_
 _symmetry_equiv_pos_site_id
 _symmetry_equiv_pos_as_xyz
  1  'x, y, z'
loop_
 _atom_site_type_symbol
 _atom_site_label
 _atom_site_symmetry_multiplicity
 _atom_site_fract_x
 _atom_site_fract_y
 _atom_site_fract_z
 _atom_site_occupancy
  O  O0  1  0.38501908  0.77003801  0.25000000  1
  Se  Se1  1  0.61498103  0.22996200  0.75000001  1
  Se  Se2  1  0.86731208  0.73462401  0.92843302  1
  Se  Se3  1  0.13268803  0.26537600  0.07156700  1
  Se  Se4  1  0.86731208  0.73462401  0.57156701  1
  Se  Se5  1  0.13268803  0.26537600  0.42843301  1
  Se  Se6  1  0.23524705  0.47049400  0.61076701  1
  Li  Li7  1  0.76475306  0.52950600  0.38923301  1
  O  O8  1  0.76475306  0.52950600  0.11076700  1
  N  N9  1  0.23524705  0.47049400  0.88923302  1
  N  N10  1  0.96202810  0.92405601  0.75000001  1
  F  F11  1  0.03797201  0.07594400  0.25000000  1
  Li  Li12  1  0.50000000  0.00000000  0.00000000  1
  Li  Li13  1  0.50000000  0.00000000  0.50000001  1
