# generated using pymatgen
data_TeAs3P4S5Cl3
_symmetry_space_group_name_H-M   'P 1'
_cell_length_a   4.32798910
_cell_length_b   9.82333469
_cell_length_c   10.30739880
_cell_angle_alpha   90.00000000
_cell_angle_beta   90.00000000
_cell_angle_gamma   90.00000000
_symmetry_Int_Tables_number   1
_chemical_formula_structural   TeAs3P4S5Cl3
_chemical_formula_sum   'Te1 As3 P4 S5 Cl3'
_cell_volume   438.22200252
_cell_formula_units_Z   1
loop_
 _symmetry_equiv_pos_site_id
 _symmetry_equiv_pos_as_xyz
  1  'x, y, z'
loop_
 _atom_site_type_symbol
 _atom_site_label
 _atom_site_symmetry_multiplicity
 _atom_site_fract_x
 _atom_site_fract_y
 _atom_site_fract_z
 _atom_site_occupancy
  Te  Te0  1  -0.00000000  0.21759601  0.09897900  1
  S  S1  1  -0.00000000  0.21759601  0.40102101  1
  S  S2  1  -0.00000000  0.78240402  0.59897901  1
  Cl  Cl3  1  -0.00000000  0.78240402  0.90102102  1
  S  S4  1  0.49999999  0.79008802  0.25000000  1
  Cl  Cl5  1  0.49999999  0.50000002  0.50000001  1
  S  S6  1  0.49999999  0.20991201  0.75000001  1
  S  S7  1  0.49999999  0.50000002  0.00000000  1
  Cl  Cl8  1  0.49999999  0.75941702  0.49769201  1
  P  P9  1  0.49999999  0.24058301  0.50230801  1
  P  P10  1  0.49999999  0.75941702  0.00230800  1
  As  As11  1  0.49999999  0.24058301  0.99769202  1
  P  P12  1  -0.00000000  0.97771703  0.75000001  1
  As  As13  1  -0.00000000  0.02228300  0.25000000  1
  P  P14  1  -0.00000000  0.56702402  0.75000001  1
  As  As15  1  -0.00000000  0.43297601  0.25000000  1
