# generated using pymatgen
data_MgS3N3F
_symmetry_space_group_name_H-M   'P 1'
_cell_length_a   5.58425856
_cell_length_b   5.58425856
_cell_length_c   5.58425856
_cell_angle_alpha   60.00000000
_cell_angle_beta   60.00000000
_cell_angle_gamma   60.00000000
_symmetry_Int_Tables_number   1
_chemical_formula_structural   MgS3N3F
_chemical_formula_sum   'Mg1 S3 N3 F1'
_cell_volume   123.13501202
_cell_formula_units_Z   1
loop_
 _symmetry_equiv_pos_site_id
 _symmetry_equiv_pos_as_xyz
  1  'x, y, z'
loop_
 _atom_site_type_symbol
 _atom_site_label
 _atom_site_symmetry_multiplicity
 _atom_site_fract_x
 _atom_site_fract_y
 _atom_site_fract_z
 _atom_site_occupancy
  Mg  Mg0  1  0.49999999  0.49999999  0.49999999  1
  N  N1  1  0.00000000  0.00000000  0.00000000  1
  S  S2  1  0.79288998  0.79288998  0.20710999  1
  F  F3  1  0.79288998  0.20710999  0.20710999  1
  N  N4  1  0.20710999  0.20710999  0.79288998  1
  S  S5  1  0.79288998  0.20710999  0.79288998  1
  S  S6  1  0.20710999  0.79288998  0.20710999  1
  N  N7  1  0.20710999  0.79288998  0.79288998  1
