# generated using pymatgen
data_LiSiTePSeCl9
_symmetry_space_group_name_H-M   'P 1'
_cell_length_a   7.70463276
_cell_length_b   7.70463276
_cell_length_c   7.70463276
_cell_angle_alpha   60.00000000
_cell_angle_beta   60.00000000
_cell_angle_gamma   60.00000000
_symmetry_Int_Tables_number   1
_chemical_formula_structural   LiSiTePSeCl9
_chemical_formula_sum   'Li1 Si1 Te1 P1 Se1 Cl9'
_cell_volume   323.40060717
_cell_formula_units_Z   1
loop_
 _symmetry_equiv_pos_site_id
 _symmetry_equiv_pos_as_xyz
  1  'x, y, z'
loop_
 _atom_site_type_symbol
 _atom_site_label
 _atom_site_symmetry_multiplicity
 _atom_site_fract_x
 _atom_site_fract_y
 _atom_site_fract_z
 _atom_site_occupancy
  Si  Si0  1  0.49999999  0.49999999  0.49999999  1
  Se  Se1  1  0.25000000  0.25000000  0.25000000  1
  Cl  Cl2  1  0.37500000  0.87499999  0.87499999  1
  Cl  Cl3  1  0.87499999  0.37500000  0.87499999  1
  Cl  Cl4  1  0.87499999  0.87499999  0.87499999  1
  Cl  Cl5  1  0.87499999  0.87499999  0.37500000  1
  Cl  Cl6  1  0.11787400  0.11787400  0.64637799  1
  P  P7  1  0.10362200  0.63212599  0.63212599  1
  Te  Te8  1  0.63212599  0.63212599  0.10362200  1
  Cl  Cl9  1  0.11787400  0.64637799  0.11787400  1
  Li  Li10  1  0.64637799  0.11787400  0.11787400  1
  Cl  Cl11  1  0.63212599  0.63212599  0.63212599  1
  Cl  Cl12  1  0.63212599  0.10362200  0.63212599  1
  Cl  Cl13  1  0.11787400  0.11787400  0.11787400  1
