# generated using pymatgen
data_LiSi4P4S
_symmetry_space_group_name_H-M   'P 1'
_cell_length_a   4.22640991
_cell_length_b   4.22640991
_cell_length_c   8.45195198
_cell_angle_alpha   90.00000000
_cell_angle_beta   90.00000000
_cell_angle_gamma   90.00000000
_symmetry_Int_Tables_number   1
_chemical_formula_structural   LiSi4P4S
_chemical_formula_sum   'Li1 Si4 P4 S1'
_cell_volume   150.97333663
_cell_formula_units_Z   1
loop_
 _symmetry_equiv_pos_site_id
 _symmetry_equiv_pos_as_xyz
  1  'x, y, z'
loop_
 _atom_site_type_symbol
 _atom_site_label
 _atom_site_symmetry_multiplicity
 _atom_site_fract_x
 _atom_site_fract_y
 _atom_site_fract_z
 _atom_site_occupancy
  Li  Li0  1  0.49999999  0.49999999  0.00000000  1
  Si  Si1  1  0.49999999  0.49999999  0.49999999  1
  P  P2  1  0.00000000  0.00000000  0.74689506  1
  Si  Si3  1  0.00000000  0.00000000  0.25310491  1
  P  P4  1  0.49999999  0.00000000  0.74436959  1
  Si  Si5  1  0.49999999  0.00000000  0.25563038  1
  Si  Si6  1  0.00000000  0.00000000  0.49999999  1
  P  P7  1  0.00000000  0.00000000  0.00000000  1
  S  S8  1  -0.00000000  0.49999999  0.74436959  1
  P  P9  1  -0.00000000  0.49999999  0.25563038  1
