# generated using pymatgen
data_Li2Si7P2S9
_symmetry_space_group_name_H-M   'P 1'
_cell_length_a   5.53765345
_cell_length_b   5.73901749
_cell_length_c   7.85196877
_cell_angle_alpha   89.95500946
_cell_angle_beta   90.17259216
_cell_angle_gamma   89.78610992
_symmetry_Int_Tables_number   1
_chemical_formula_structural   Li2Si7P2S9
_chemical_formula_sum   'Li2 Si7 P2 S9'
_cell_volume   249.53803483
_cell_formula_units_Z   1
loop_
 _symmetry_equiv_pos_site_id
 _symmetry_equiv_pos_as_xyz
  1  'x, y, z'
loop_
 _atom_site_type_symbol
 _atom_site_label
 _atom_site_symmetry_multiplicity
 _atom_site_fract_x
 _atom_site_fract_y
 _atom_site_fract_z
 _atom_site_occupancy
  Li  Li0  1  0.48613601  0.45206699  0.75072499  1
  Si  Si1  1  0.98488600  0.04839800  0.25072897  1
  S  S2  1  0.01377202  0.95817699  0.75011901  1
  S  S3  1  0.51263101  0.54139899  0.25018998  1
  S  S4  1  0.00034301  0.50052199  0.99888001  1
  P  P5  1  0.50064902  0.99926099  0.49923699  1
  S  S6  1  0.99993701  0.49785499  0.50052197  1
  Si  Si7  1  0.49958000  0.00215900  0.00089998  1
  Si  Si8  1  0.08755301  0.46819899  0.24924400  1
  S  S9  1  0.58830000  0.03261700  0.74953899  1
  Si  Si10  1  0.20805700  0.21505900  0.95321601  1
  S  S11  1  0.70749900  0.28404400  0.45288398  1
  Si  Si12  1  0.21122200  0.20166000  0.54595600  1
  Si  Si13  1  0.71229300  0.29850100  0.04577398  1
  S  S14  1  0.29191702  0.70135499  0.95255400  1
  P  P15  1  0.79354702  0.79846199  0.45271798  1
  S  S16  1  0.29595702  0.70874399  0.54892999  1
  Si  Si17  1  0.79544202  0.79244799  0.04807497  1
  S  S18  1  0.40501602  0.97025599  0.25013898  1
  Li  Li19  1  0.90525901  0.52881699  0.74966798  1
