# generated using pymatgen
data_LiSiP3SeS4
_symmetry_space_group_name_H-M   'P 1'
_cell_length_a   5.59924507
_cell_length_b   5.95254421
_cell_length_c   7.20211077
_cell_angle_alpha   65.59084320
_cell_angle_beta   90.00000000
_cell_angle_gamma   90.00000000
_symmetry_Int_Tables_number   1
_chemical_formula_structural   LiSiP3SeS4
_chemical_formula_sum   'Li1 Si1 P3 Se1 S4'
_cell_volume   218.58882525
_cell_formula_units_Z   1
loop_
 _symmetry_equiv_pos_site_id
 _symmetry_equiv_pos_as_xyz
  1  'x, y, z'
loop_
 _atom_site_type_symbol
 _atom_site_label
 _atom_site_symmetry_multiplicity
 _atom_site_fract_x
 _atom_site_fract_y
 _atom_site_fract_z
 _atom_site_occupancy
  Li  Li0  1  0.74999999  0.37218399  0.25563200  1
  S  S1  1  0.25000000  0.62781598  0.74436799  1
  S  S2  1  0.74999999  0.06853900  0.86292200  1
  S  S3  1  0.25000000  0.93146097  0.13707800  1
  Se  Se4  1  0.25000000  0.25302299  0.49395400  1
  S  S5  1  0.74999999  0.74697697  0.50604600  1
  Si  Si6  1  0.49999999  0.78305097  -0.00000000  1
  P  P7  1  0.99999999  0.21694899  0.99999999  1
  P  P8  1  0.00000000  0.78305097  -0.00000000  1
  P  P9  1  0.49999999  0.21694899  0.99999999  1
