# generated using pymatgen
data_Li2TeP2
_symmetry_space_group_name_H-M   'P 1'
_cell_length_a   4.68340397
_cell_length_b   4.68340492
_cell_length_c   7.54904079
_cell_angle_alpha   90.00000000
_cell_angle_beta   90.00000000
_cell_angle_gamma   119.99999237
_symmetry_Int_Tables_number   1
_chemical_formula_structural   Li2TeP2
_chemical_formula_sum   'Li2 Te1 P2'
_cell_volume   143.39888189
_cell_formula_units_Z   1
loop_
 _symmetry_equiv_pos_site_id
 _symmetry_equiv_pos_as_xyz
  1  'x, y, z'
loop_
 _atom_site_type_symbol
 _atom_site_label
 _atom_site_symmetry_multiplicity
 _atom_site_fract_x
 _atom_site_fract_y
 _atom_site_fract_z
 _atom_site_occupancy
  Te  Te0  1  0.00000000  0.00000000  0.00000000  1
  P  P1  1  0.66666667  0.33333334  0.63170002  1
  Li  Li2  1  0.33333333  0.66666667  0.36830001  1
  P  P3  1  0.66666667  0.33333334  0.24178801  1
  Li  Li4  1  0.33333333  0.66666667  0.75821202  1
