# generated using pymatgen
data_Si3TeP13S2Br
_symmetry_space_group_name_H-M   'P 1'
_cell_length_a   5.80300617
_cell_length_b   5.80295181
_cell_length_c   10.05108070
_cell_angle_alpha   73.22117615
_cell_angle_beta   73.22131348
_cell_angle_gamma   59.99969101
_symmetry_Int_Tables_number   1
_chemical_formula_structural   Si3TeP13S2Br
_chemical_formula_sum   'Si3 Te1 P13 S2 Br1'
_cell_volume   276.35513862
_cell_formula_units_Z   1
loop_
 _symmetry_equiv_pos_site_id
 _symmetry_equiv_pos_as_xyz
  1  'x, y, z'
loop_
 _atom_site_type_symbol
 _atom_site_label
 _atom_site_symmetry_multiplicity
 _atom_site_fract_x
 _atom_site_fract_y
 _atom_site_fract_z
 _atom_site_occupancy
  Br  Br0  1  0.37499999  0.37500001  0.87499996  1
  P  P1  1  0.87499997  0.87500001  0.37499994  1
  P  P2  1  0.12500000  0.12500000  0.62499998  1
  P  P3  1  0.62499998  0.62500001  0.12499996  1
  Si  Si4  1  0.24999999  0.24999900  0.25000098  1
  Si  Si5  1  0.74999997  0.75000101  0.74999894  1
  P  P6  1  0.49999998  0.50000001  0.49999996  1
  P  P7  1  -0.00000001  0.99999902  0.00000096  1
  P  P8  1  0.14099599  0.61966801  0.61966896  1
  P  P9  1  0.64099998  0.11966700  0.11966698  1
  P  P10  1  0.88033297  0.35900101  0.88033295  1
  Te  Te11  1  0.38033298  0.85900201  0.38033195  1
  P  P12  1  0.61966698  0.14099700  0.61966797  1
  P  P13  1  0.11966599  0.64100101  0.11966697  1
  S  S14  1  0.61966798  0.61966701  0.61966895  1
  P  P15  1  0.11966700  0.11966600  0.11966699  1
  S  S16  1  0.35900098  0.88033301  0.88033294  1
  Si  Si17  1  0.85900297  0.38033201  0.38033196  1
  P  P18  1  0.88033296  0.88033401  0.88033193  1
  P  P19  1  0.38033298  0.38033201  0.38033197  1
