# generated using pymatgen
data_LiTe2P2S4Cl9
_symmetry_space_group_name_H-M   'P 1'
_cell_length_a   6.53112507
_cell_length_b   8.17664337
_cell_length_c   9.20434475
_cell_angle_alpha   91.21586609
_cell_angle_beta   90.00000000
_cell_angle_gamma   90.00000000
_symmetry_Int_Tables_number   1
_chemical_formula_structural   LiTe2P2S4Cl9
_chemical_formula_sum   'Li1 Te2 P2 S4 Cl9'
_cell_volume   491.42601036
_cell_formula_units_Z   1
loop_
 _symmetry_equiv_pos_site_id
 _symmetry_equiv_pos_as_xyz
  1  'x, y, z'
loop_
 _atom_site_type_symbol
 _atom_site_label
 _atom_site_symmetry_multiplicity
 _atom_site_fract_x
 _atom_site_fract_y
 _atom_site_fract_z
 _atom_site_occupancy
  Li  Li0  1  0.49999999  0.49999998  0.00000002  1
  Cl  Cl1  1  0.00000000  0.00000000  0.00000000  1
  Cl  Cl2  1  0.04263700  0.62406397  0.28291502  1
  S  S3  1  0.54263699  0.87593596  0.71708501  1
  Cl  Cl4  1  0.95736299  0.37593598  0.71708499  1
  Cl  Cl5  1  0.45736300  0.12406399  0.28291499  1
  Cl  Cl6  1  0.35190200  0.83320296  0.43957802  1
  Te  Te7  1  0.85190199  0.66679697  0.56042201  1
  Te  Te8  1  0.64809799  0.16679699  0.56042199  1
  Cl  Cl9  1  0.14809800  0.33320299  0.43957800  1
  P  P10  1  0.29654800  0.85849996  0.05960204  1
  S  S11  1  0.79654799  0.64149997  0.94039799  1
  Cl  Cl12  1  0.62259799  0.47002698  0.23668501  1
  S  S13  1  0.12259800  0.02997300  0.76331497  1
  P  P14  1  0.37740200  0.52997298  0.76331500  1
  Cl  Cl15  1  0.87740199  0.97002696  0.23668504  1
  S  S16  1  0.20345200  0.35849998  0.05960202  1
  Cl  Cl17  1  0.70345199  0.14149999  0.94039797  1
