# generated using pymatgen
data_LiMgSiP6S
_symmetry_space_group_name_H-M   'P 1'
_cell_length_a   6.03307629
_cell_length_b   6.03307629
_cell_length_c   6.03307629
_cell_angle_alpha   60.00000000
_cell_angle_beta   60.00000000
_cell_angle_gamma   60.00000000
_symmetry_Int_Tables_number   1
_chemical_formula_structural   LiMgSiP6S
_chemical_formula_sum   'Li1 Mg1 Si1 P6 S1'
_cell_volume   155.27496956
_cell_formula_units_Z   1
loop_
 _symmetry_equiv_pos_site_id
 _symmetry_equiv_pos_as_xyz
  1  'x, y, z'
loop_
 _atom_site_type_symbol
 _atom_site_label
 _atom_site_symmetry_multiplicity
 _atom_site_fract_x
 _atom_site_fract_y
 _atom_site_fract_z
 _atom_site_occupancy
  Li  Li0  1  0.24999999  0.24999999  0.24999999  1
  Si  Si1  1  0.74999997  0.74999997  0.74999997  1
  P  P2  1  0.00000000  0.00000000  0.00000000  1
  S  S3  1  0.49999998  0.49999998  0.49999998  1
  Mg  Mg4  1  0.21498899  0.78501097  0.21498899  1
  P  P5  1  0.21498899  0.21498899  0.78501097  1
  P  P6  1  0.78501097  0.21498899  0.78501097  1
  P  P7  1  0.21498899  0.78501097  0.78501097  1
  P  P8  1  0.78501097  0.21498899  0.21498899  1
  P  P9  1  0.78501097  0.78501097  0.21498899  1
