# generated using pymatgen
data_Li7O6F
_symmetry_space_group_name_H-M   'P 1'
_cell_length_a   5.35422564
_cell_length_b   5.35423565
_cell_length_c   6.03193760
_cell_angle_alpha   92.68262482
_cell_angle_beta   92.68273926
_cell_angle_gamma   61.15042114
_symmetry_Int_Tables_number   1
_chemical_formula_structural   Li7O6F
_chemical_formula_sum   'Li7 O6 F1'
_cell_volume   151.23684479
_cell_formula_units_Z   1
loop_
 _symmetry_equiv_pos_site_id
 _symmetry_equiv_pos_as_xyz
  1  'x, y, z'
loop_
 _atom_site_type_symbol
 _atom_site_label
 _atom_site_symmetry_multiplicity
 _atom_site_fract_x
 _atom_site_fract_y
 _atom_site_fract_z
 _atom_site_occupancy
  Li  Li0  1  0.31186900  0.27646701  0.68326695  1
  Li  Li1  1  0.27646700  0.31186901  0.18326796  1
  Li  Li2  1  0.64029099  0.66403403  0.83795391  1
  Li  Li3  1  0.66403599  0.64029303  0.33795592  1
  Li  Li4  1  0.04838399  0.91294004  0.02635994  1
  Li  Li5  1  0.91294500  0.04838500  0.52636094  1
  Li  Li6  1  0.81636299  0.97318904  0.79465488  1
  O  O7  1  0.97318799  0.81636103  0.29465390  1
  O  O8  1  0.30179300  0.49873002  0.93707593  1
  O  O9  1  0.49873000  0.30179301  0.43707395  1
  O  O10  1  0.90037899  0.41955502  0.59894092  1
  O  O11  1  0.41953899  0.90037904  0.09894293  1
  O  O12  1  0.33458799  0.90142404  0.62174091  1
  F  F13  1  0.90142599  0.33458301  0.12174794  1
