# generated using pymatgen
data_Li9SNO3
_symmetry_space_group_name_H-M   'P 1'
_cell_length_a   5.17214441
_cell_length_b   5.29826450
_cell_length_c   7.47436333
_cell_angle_alpha   102.28218842
_cell_angle_beta   108.39600372
_cell_angle_gamma   102.90674591
_symmetry_Int_Tables_number   1
_chemical_formula_structural   Li9SNO3
_chemical_formula_sum   'Li9 S1 N1 O3'
_cell_volume   180.34567524
_cell_formula_units_Z   1
loop_
 _symmetry_equiv_pos_site_id
 _symmetry_equiv_pos_as_xyz
  1  'x, y, z'
loop_
 _atom_site_type_symbol
 _atom_site_label
 _atom_site_symmetry_multiplicity
 _atom_site_fract_x
 _atom_site_fract_y
 _atom_site_fract_z
 _atom_site_occupancy
  Li  Li0  1  0.04382000  0.35308299  0.81740398  1
  Li  Li1  1  0.54379501  0.35306699  0.31736299  1
  Li  Li2  1  0.55895301  0.66400498  0.74929098  1
  Li  Li3  1  0.05895899  0.66402498  0.24927700  1
  S  S4  1  0.75825702  0.24770699  0.21091599  1
  O  O5  1  0.25832501  0.24773199  0.71090898  1
  O  O6  1  0.23245700  0.41436199  0.10826800  1
  Li  Li7  1  0.73244602  0.41435999  0.60824398  1
  O  O8  1  0.77623801  0.99687097  0.78781698  1
  N  N9  1  0.27622699  0.99688097  0.28783000  1
  Li  Li10  1  0.30583600  0.73232898  0.85635098  1
  Li  Li11  1  0.80579602  0.73235898  0.35638399  1
  Li  Li12  1  0.82445002  0.59161298  0.96997897  1
  Li  Li13  1  0.32443700  0.59160398  0.46996799  1
