# generated using pymatgen
data_AsP4S4Br2Cl7
_symmetry_space_group_name_H-M   'P 1'
_cell_length_a   7.40208197
_cell_length_b   7.44778919
_cell_length_c   7.44778919
_cell_angle_alpha   60.21271133
_cell_angle_beta   60.20280457
_cell_angle_gamma   60.20280457
_symmetry_Int_Tables_number   1
_chemical_formula_structural   AsP4S4Br2Cl7
_chemical_formula_sum   'As1 P4 S4 Br2 Cl7'
_cell_volume   291.68608132
_cell_formula_units_Z   1
loop_
 _symmetry_equiv_pos_site_id
 _symmetry_equiv_pos_as_xyz
  1  'x, y, z'
loop_
 _atom_site_type_symbol
 _atom_site_label
 _atom_site_symmetry_multiplicity
 _atom_site_fract_x
 _atom_site_fract_y
 _atom_site_fract_z
 _atom_site_occupancy
  Br  Br0  1  0.50000000  0.50000000  0.50000001  1
  S  S1  1  0.50000001  1.00000000  1.00000001  1
  P  P2  1  0.87365801  0.87634200  0.37634201  1
  S  S3  1  0.12634200  0.12365800  0.62365800  1
  Cl  Cl4  1  1.00000000  0.50000000  1.00000001  1
  Cl  Cl5  1  0.50000000  0.50000000  0.00000000  1
  Cl  Cl6  1  0.80923200  0.44076800  0.94076801  1
  P  P7  1  0.43530200  0.81469800  0.31469800  1
  Cl  Cl8  1  0.43647000  0.80576900  0.93956301  1
  P  P9  1  0.81819800  0.43956300  0.30576901  1
  S  S10  1  0.43646900  0.43956400  0.30576900  1
  Cl  Cl11  1  0.81819900  0.80576800  0.93956301  1
  Cl  Cl12  1  0.19076800  0.55923200  0.05923200  1
  Br  Br13  1  0.56469800  0.18530200  0.68530201  1
  As  As14  1  0.56353000  0.19423100  0.06043700  1
  P  P15  1  0.18180200  0.56043700  0.69423100  1
  S  S16  1  0.56353100  0.56043600  0.69423101  1
  Cl  Cl17  1  0.18180100  0.19423200  0.06043700  1
