# generated using pymatgen
data_Li7P2S6N
_symmetry_space_group_name_H-M   'P 1'
_cell_length_a   6.52372217
_cell_length_b   6.52372217
_cell_length_c   6.52372217
_cell_angle_alpha   90.00000000
_cell_angle_beta   90.00000000
_cell_angle_gamma   90.00000000
_symmetry_Int_Tables_number   1
_chemical_formula_structural   Li7P2S6N
_chemical_formula_sum   'Li7 P2 S6 N1'
_cell_volume   277.64277208
_cell_formula_units_Z   1
loop_
 _symmetry_equiv_pos_site_id
 _symmetry_equiv_pos_as_xyz
  1  'x, y, z'
loop_
 _atom_site_type_symbol
 _atom_site_label
 _atom_site_symmetry_multiplicity
 _atom_site_fract_x
 _atom_site_fract_y
 _atom_site_fract_z
 _atom_site_occupancy
  S  S0  1  0.61918598  0.88081398  0.11918600  1
  Li  Li1  1  0.88081398  0.11918600  0.61918598  1
  Li  Li2  1  0.11918600  0.61918598  0.88081398  1
  Li  Li3  1  0.38081399  0.38081399  0.38081399  1
  Li  Li4  1  0.38081399  0.11918600  0.88081398  1
  Li  Li5  1  0.11918600  0.88081398  0.38081399  1
  S  S6  1  0.88081398  0.38081399  0.11918600  1
  Li  Li7  1  0.61918598  0.61918598  0.61918598  1
  S  S8  1  0.15717000  0.34282999  0.65716998  1
  S  S9  1  0.34282999  0.65716998  0.15717000  1
  Li  Li10  1  0.65716998  0.15717000  0.34282999  1
  N  N11  1  0.84282998  0.84282998  0.84282998  1
  P  P12  1  0.84282998  0.65716998  0.34282999  1
  P  P13  1  0.65716998  0.34282999  0.84282998  1
  S  S14  1  0.34282999  0.84282998  0.65716998  1
  S  S15  1  0.15717000  0.15717000  0.15717000  1
