# generated using pymatgen
data_SiTe(SCl3)2
_symmetry_space_group_name_H-M   'P 1'
_cell_length_a   8.09531212
_cell_length_b   8.09531212
_cell_length_c   8.09531212
_cell_angle_alpha   60.00000000
_cell_angle_beta   60.00000000
_cell_angle_gamma   60.00000000
_symmetry_Int_Tables_number   1
_chemical_formula_structural   SiTe(SCl3)2
_chemical_formula_sum   'Si1 Te1 S2 Cl6'
_cell_volume   375.13345390
_cell_formula_units_Z   1
loop_
 _symmetry_equiv_pos_site_id
 _symmetry_equiv_pos_as_xyz
  1  'x, y, z'
loop_
 _atom_site_type_symbol
 _atom_site_label
 _atom_site_symmetry_multiplicity
 _atom_site_fract_x
 _atom_site_fract_y
 _atom_site_fract_z
 _atom_site_occupancy
  Si  Si0  1  0.25000000  0.25000000  0.25000000  1
  S  S1  1  0.74999999  0.74999999  0.74999999  1
  S  S2  1  0.49999999  0.49999999  0.49999999  1
  Cl  Cl3  1  0.00000000  0.00000000  0.00000000  1
  Cl  Cl4  1  0.22136100  0.77863899  0.22136100  1
  Te  Te5  1  0.22136100  0.22136100  0.77863899  1
  Cl  Cl6  1  0.77863899  0.22136100  0.77863899  1
  Cl  Cl7  1  0.22136100  0.77863899  0.77863899  1
  Cl  Cl8  1  0.77863899  0.22136100  0.22136100  1
  Cl  Cl9  1  0.77863899  0.77863899  0.22136100  1
