# generated using pymatgen
data_SiTeCl8
_symmetry_space_group_name_H-M   'P 1'
_cell_length_a   7.60831642
_cell_length_b   7.60831642
_cell_length_c   7.60831642
_cell_angle_alpha   60.00000000
_cell_angle_beta   60.00000000
_cell_angle_gamma   60.00000000
_symmetry_Int_Tables_number   1
_chemical_formula_structural   SiTeCl8
_chemical_formula_sum   'Si1 Te1 Cl8'
_cell_volume   311.42301186
_cell_formula_units_Z   1
loop_
 _symmetry_equiv_pos_site_id
 _symmetry_equiv_pos_as_xyz
  1  'x, y, z'
loop_
 _atom_site_type_symbol
 _atom_site_label
 _atom_site_symmetry_multiplicity
 _atom_site_fract_x
 _atom_site_fract_y
 _atom_site_fract_z
 _atom_site_occupancy
  Si  Si0  1  0.24999999  0.24999999  0.24999999  1
  Cl  Cl1  1  0.74999998  0.74999998  0.74999998  1
  Cl  Cl2  1  0.49999999  0.49999999  0.49999999  1
  Cl  Cl3  1  0.00000000  0.00000000  0.00000000  1
  Cl  Cl4  1  0.24732899  0.75267098  0.24732899  1
  Cl  Cl5  1  0.24732899  0.24732899  0.75267098  1
  Cl  Cl6  1  0.75267098  0.24732899  0.75267098  1
  Te  Te7  1  0.24732899  0.75267098  0.75267098  1
  Cl  Cl8  1  0.75267098  0.24732899  0.24732899  1
  Cl  Cl9  1  0.75267098  0.75267098  0.24732899  1
