# generated using pymatgen
data_TePCl4
_symmetry_space_group_name_H-M   'P 1'
_cell_length_a   5.13191414
_cell_length_b   8.16910553
_cell_length_c   11.03085232
_cell_angle_alpha   90.00000000
_cell_angle_beta   90.00000000
_cell_angle_gamma   90.00000000
_symmetry_Int_Tables_number   1
_chemical_formula_structural   TePCl4
_chemical_formula_sum   'Te2 P2 Cl8'
_cell_volume   462.44805616
_cell_formula_units_Z   2
loop_
 _symmetry_equiv_pos_site_id
 _symmetry_equiv_pos_as_xyz
  1  'x, y, z'
loop_
 _atom_site_type_symbol
 _atom_site_label
 _atom_site_symmetry_multiplicity
 _atom_site_fract_x
 _atom_site_fract_y
 _atom_site_fract_z
 _atom_site_occupancy
  Te  Te0  1  0.74999998  0.28013102  0.57889998  1
  Cl  Cl1  1  0.74999998  0.78013104  0.92109997  1
  Cl  Cl2  1  0.24999999  0.71986904  0.42109999  1
  Cl  Cl3  1  0.24999999  0.21986901  0.07890000  1
  Cl  Cl4  1  0.74999998  0.36716002  0.89047897  1
  Cl  Cl5  1  0.74999998  0.86716005  0.60952098  1
  Cl  Cl6  1  0.24999999  0.63284004  0.10952100  1
  Cl  Cl7  1  0.24999999  0.13284001  0.39047899  1
  P  P8  1  0.74999998  0.51779603  0.36283999  1
  Cl  Cl9  1  0.74999998  0.01779600  0.13716000  1
  P  P10  1  0.24999999  0.48220403  0.63715998  1
  Te  Te11  1  0.24999999  0.98220406  0.86283998  1
