# generated using pymatgen
data_P
_symmetry_space_group_name_H-M   'P 1'
_cell_length_a   4.35459614
_cell_length_b   6.82325315
_cell_length_c   6.82325315
_cell_angle_alpha   90.00000000
_cell_angle_beta   90.00000000
_cell_angle_gamma   90.00000000
_symmetry_Int_Tables_number   1
_chemical_formula_structural   P
_chemical_formula_sum   P6
_cell_volume   202.73599012
_cell_formula_units_Z   6
loop_
 _symmetry_equiv_pos_site_id
 _symmetry_equiv_pos_as_xyz
  1  'x, y, z'
loop_
 _atom_site_type_symbol
 _atom_site_label
 _atom_site_symmetry_multiplicity
 _atom_site_fract_x
 _atom_site_fract_y
 _atom_site_fract_z
 _atom_site_occupancy
  P  P0  1  0.49999998  0.49999999  0.49999999  1
  P  P1  1  0.00000000  0.00000000  0.00000000  1
  P  P2  1  0.49999998  0.80213598  0.19786400  1
  P  P3  1  0.49999998  0.19786400  0.80213598  1
  P  P4  1  0.99999997  0.30213599  0.30213599  1
  P  P5  1  0.99999997  0.69786398  0.69786398  1
