# generated using pymatgen
data_Si4P3H4Cl3
_symmetry_space_group_name_H-M   'P 1'
_cell_length_a   6.92069292
_cell_length_b   6.92069292
_cell_length_c   6.92069292
_cell_angle_alpha   109.47122192
_cell_angle_beta   109.47122192
_cell_angle_gamma   109.47122192
_symmetry_Int_Tables_number   1
_chemical_formula_structural   Si4P3H4Cl3
_chemical_formula_sum   'Si4 P3 H4 Cl3'
_cell_volume   255.16836275
_cell_formula_units_Z   1
loop_
 _symmetry_equiv_pos_site_id
 _symmetry_equiv_pos_as_xyz
  1  'x, y, z'
loop_
 _atom_site_type_symbol
 _atom_site_label
 _atom_site_symmetry_multiplicity
 _atom_site_fract_x
 _atom_site_fract_y
 _atom_site_fract_z
 _atom_site_occupancy
  Cl  Cl0  1  1.00000006  0.50000003  1.00000007  1
  Si  Si1  1  1.00000009  1.00000006  0.50000009  1
  Si  Si2  1  0.50000005  0.50000003  0.50000005  1
  Si  Si3  1  0.50000001  0.00000000  0.00000001  1
  H  H4  1  0.00000000  0.00000000  0.00000000  1
  H  H5  1  1.00000006  0.50000003  0.50000006  1
  H  H6  1  0.50000001  0.00000000  0.50000002  1
  H  H7  1  0.50000005  0.50000003  0.00000004  1
  Si  Si8  1  0.33028703  0.33028702  0.00000003  1
  Cl  Cl9  1  1.00000007  0.66971304  0.66971307  1
  P  P10  1  0.66971306  0.66971304  0.00000005  1
  Cl  Cl11  1  0.66971302  0.00000000  0.66971303  1
  P  P12  1  0.33028701  0.00000000  0.33028701  1
  P  P13  1  1.00000005  0.33028702  0.33028705  1
