# generated using pymatgen
data_LiSi2P4SeS12
_symmetry_space_group_name_H-M   'P 1'
_cell_length_a   5.60718203
_cell_length_b   7.53600550
_cell_length_c   7.53600550
_cell_angle_alpha   106.49353790
_cell_angle_beta   90.00000000
_cell_angle_gamma   90.00000000
_symmetry_Int_Tables_number   1
_chemical_formula_structural   LiSi2P4SeS12
_chemical_formula_sum   'Li1 Si2 P4 Se1 S12'
_cell_volume   305.33637013
_cell_formula_units_Z   1
loop_
 _symmetry_equiv_pos_site_id
 _symmetry_equiv_pos_as_xyz
  1  'x, y, z'
loop_
 _atom_site_type_symbol
 _atom_site_label
 _atom_site_symmetry_multiplicity
 _atom_site_fract_x
 _atom_site_fract_y
 _atom_site_fract_z
 _atom_site_occupancy
  Li  Li0  1  0.24153600  0.09078000  0.30459300  1
  P  P1  1  0.74153600  0.90922001  0.69540699  1
  S  S2  1  0.74153600  0.30459300  0.09078000  1
  S  S3  1  0.24153600  0.69540701  0.90922000  1
  S  S4  1  0.69536800  0.81585901  0.18414099  1
  P  P5  1  0.19536800  0.18414100  0.81585901  1
  S  S6  1  0.25695900  0.58957301  0.41042699  1
  P  P7  1  0.75695900  0.41042700  0.58957300  1
  S  S8  1  0.99565600  0.65829001  0.64866800  1
  S  S9  1  0.00815000  0.81613201  0.18386799  1
  Si  Si10  1  0.57438100  0.90770201  0.40436599  1
  P  P11  1  0.07438100  0.09229800  0.59563401  1
  S  S12  1  0.49565600  0.64866801  0.65829000  1
  Si  Si13  1  0.56437800  0.94697001  0.05302998  1
  S  S14  1  0.99565600  0.35133200  0.34171000  1
  Se  Se15  1  0.49565600  0.34171000  0.35133200  1
  S  S16  1  0.06437800  0.05303000  0.94697001  1
  S  S17  1  0.50815000  0.18386800  0.81613201  1
  S  S18  1  0.07438100  0.40436600  0.90770201  1
  S  S19  1  0.57438100  0.59563401  0.09229799  1
