# generated using pymatgen
data_LiSi2P3H6S2N
_symmetry_space_group_name_H-M   'P 1'
_cell_length_a   5.57022285
_cell_length_b   5.89859724
_cell_length_c   7.38701820
_cell_angle_alpha   73.61257935
_cell_angle_beta   72.11225891
_cell_angle_gamma   73.19260406
_symmetry_Int_Tables_number   1
_chemical_formula_structural   LiSi2P3H6S2N
_chemical_formula_sum   'Li1 Si2 P3 H6 S2 N1'
_cell_volume   216.07645804
_cell_formula_units_Z   1
loop_
 _symmetry_equiv_pos_site_id
 _symmetry_equiv_pos_as_xyz
  1  'x, y, z'
loop_
 _atom_site_type_symbol
 _atom_site_label
 _atom_site_symmetry_multiplicity
 _atom_site_fract_x
 _atom_site_fract_y
 _atom_site_fract_z
 _atom_site_occupancy
  Li  Li0  1  0.99602502  0.00278100  0.99748003  1
  P  P1  1  0.53970301  0.44451000  0.74996500  1
  H  H2  1  0.44681701  0.56279501  0.25552698  1
  Si  Si3  1  0.86132602  0.19673500  0.44494001  1
  H  H4  1  0.98976403  0.65578001  0.61078199  1
  N  N5  1  0.89657002  0.08118900  0.76109302  1
  P  P6  1  0.09022501  0.92571401  0.23644196  1
  H  H7  1  0.68802302  0.30141100  0.46672400  1
  H  H8  1  0.32180301  0.64899001  0.55854598  1
  Si  Si9  1  0.29963301  0.68808601  0.95708699  1
  S  S10  1  0.68962002  0.31734800  0.03640499  1
  P  P11  1  0.68830502  0.76654601  0.14502397  1
  S  S12  1  0.29692701  0.23134800  0.86321201  1
  H  H13  1  0.80207102  0.64800001  0.64806299  1
  H  H14  1  0.21426201  0.37412800  0.34603699  1
