# generated using pymatgen
data_SiPH
_symmetry_space_group_name_H-M   'P 1'
_cell_length_a   6.41306829
_cell_length_b   6.41306829
_cell_length_c   6.41306829
_cell_angle_alpha   60.00000000
_cell_angle_beta   60.00000000
_cell_angle_gamma   60.00000000
_symmetry_Int_Tables_number   1
_chemical_formula_structural   SiPH
_chemical_formula_sum   'Si3 P3 H3'
_cell_volume   186.50161493
_cell_formula_units_Z   3
loop_
 _symmetry_equiv_pos_site_id
 _symmetry_equiv_pos_as_xyz
  1  'x, y, z'
loop_
 _atom_site_type_symbol
 _atom_site_label
 _atom_site_symmetry_multiplicity
 _atom_site_fract_x
 _atom_site_fract_y
 _atom_site_fract_z
 _atom_site_occupancy
  P  P0  1  0.25000000  0.25000000  0.25000000  1
  H  H1  1  0.74999999  0.74999999  0.74999999  1
  Si  Si2  1  0.81687599  0.81687599  0.18312400  1
  P  P3  1  0.18312400  0.81687599  0.81687599  1
  Si  Si4  1  0.18312400  0.81687599  0.18312400  1
  Si  Si5  1  0.18312400  0.18312400  0.81687599  1
  H  H6  1  0.81687599  0.18312400  0.18312400  1
  P  P7  1  0.81687599  0.18312400  0.81687599  1
  H  H8  1  0.00000000  0.00000000  0.00000000  1
