# generated using pymatgen
data_SiTeP8
_symmetry_space_group_name_H-M   'P 1'
_cell_length_a   4.06282187
_cell_length_b   7.03278542
_cell_length_c   10.19848347
_cell_angle_alpha   91.57700348
_cell_angle_beta   90.00000000
_cell_angle_gamma   106.78903961
_symmetry_Int_Tables_number   1
_chemical_formula_structural   SiTeP8
_chemical_formula_sum   'Si1 Te1 P8'
_cell_volume   278.86448988
_cell_formula_units_Z   1
loop_
 _symmetry_equiv_pos_site_id
 _symmetry_equiv_pos_as_xyz
  1  'x, y, z'
loop_
 _atom_site_type_symbol
 _atom_site_label
 _atom_site_symmetry_multiplicity
 _atom_site_fract_x
 _atom_site_fract_y
 _atom_site_fract_z
 _atom_site_occupancy
  Si  Si0  1  0.00000000  0.00000000  0.00000000  1
  P  P1  1  0.00000000  0.00000000  0.50000000  1
  P  P2  1  0.70743898  0.41487798  0.31687299  1
  P  P3  1  0.29256095  0.58512197  0.68312699  1
  Te  Te4  1  0.07314799  0.14629599  0.25947000  1
  P  P5  1  0.36343793  0.72687596  0.44415499  1
  P  P6  1  0.92685194  0.85370396  0.74052999  1
  P  P7  1  0.63656199  0.27312399  0.55584500  1
  P  P8  1  0.63343299  0.26686599  0.92520000  1
  P  P9  1  0.36656693  0.73313396  0.07479999  1
