# generated using pymatgen
data_Si5P6S
_symmetry_space_group_name_H-M   'P 1'
_cell_length_a   5.46432495
_cell_length_b   5.46432495
_cell_length_c   6.49987078
_cell_angle_alpha   90.00000000
_cell_angle_beta   90.00000000
_cell_angle_gamma   107.45198822
_symmetry_Int_Tables_number   1
_chemical_formula_structural   Si5P6S
_chemical_formula_sum   'Si5 P6 S1'
_cell_volume   185.14493559
_cell_formula_units_Z   1
loop_
 _symmetry_equiv_pos_site_id
 _symmetry_equiv_pos_as_xyz
  1  'x, y, z'
loop_
 _atom_site_type_symbol
 _atom_site_label
 _atom_site_symmetry_multiplicity
 _atom_site_fract_x
 _atom_site_fract_y
 _atom_site_fract_z
 _atom_site_occupancy
  Si  Si0  1  0.17565001  0.82434997  1.00000003  1
  P  P1  1  0.82434997  0.17564999  1.00000003  1
  S  S2  1  0.67564998  0.32434999  0.50000002  1
  P  P3  1  0.32435000  0.67564997  0.50000002  1
  P  P4  1  0.12521600  0.12521600  0.62604402  1
  P  P5  1  0.62521598  0.62521598  0.87395603  1
  P  P6  1  0.37478399  0.37478399  0.12604400  1
  P  P7  1  0.87478398  0.87478397  0.37395601  1
  Si  Si8  1  0.33038099  0.33038099  0.83293203  1
  Si  Si9  1  0.16961900  0.16961899  0.33293201  1
  Si  Si10  1  0.66961898  0.66961898  0.16706801  1
  Si  Si11  1  0.83038098  0.83038097  0.66706802  1
