# generated using pymatgen
data_LiMg2Si4P4S5
_symmetry_space_group_name_H-M   'P 1'
_cell_length_a   3.04211378
_cell_length_b   5.66080046
_cell_length_c   10.29417419
_cell_angle_alpha   103.33453369
_cell_angle_beta   89.99902344
_cell_angle_gamma   89.99845123
_symmetry_Int_Tables_number   1
_chemical_formula_structural   LiMg2Si4P4S5
_chemical_formula_sum   'Li1 Mg2 Si4 P4 S5'
_cell_volume   172.49460781
_cell_formula_units_Z   1
loop_
 _symmetry_equiv_pos_site_id
 _symmetry_equiv_pos_as_xyz
  1  'x, y, z'
loop_
 _atom_site_type_symbol
 _atom_site_label
 _atom_site_symmetry_multiplicity
 _atom_site_fract_x
 _atom_site_fract_y
 _atom_site_fract_z
 _atom_site_occupancy
  Li  Li0  1  -0.00000000  0.00000300  0.00000800  1
  Si  Si1  1  1.00000000  0.49999702  0.49999202  1
  S  S2  1  0.49999997  0.75000004  0.75000003  1
  S  S3  1  0.50000000  0.25000001  0.25000001  1
  P  P4  1  0.49999998  0.50000102  0.00000502  1
  S  S5  1  0.49999995  0.99999905  0.49999504  1
  P  P6  1  0.99999999  0.75000004  0.25000003  1
  S  S7  1  -0.00000002  0.25000001  0.75000002  1
  P  P8  1  0.50000601  0.17877501  0.87671802  1
  Si  Si9  1  0.50000597  0.67879303  0.37671603  1
  Si  Si10  1  0.49999400  0.32122502  0.62328202  1
  S  S11  1  0.49999396  0.82120704  0.12328403  1
  Si  Si12  1  0.99999798  0.90494504  0.60877304  1
  Mg  Mg13  1  0.99999901  0.40494202  0.10878101  1
  Mg  Mg14  1  0.00000196  0.59505503  0.89122703  1
  P  P15  1  0.00000099  0.09505800  0.39121901  1
