# generated using pymatgen
data_SiAsSe2S4ClO
_symmetry_space_group_name_H-M   'P 1'
_cell_length_a   4.06504488
_cell_length_b   4.06504488
_cell_length_c   14.25333309
_cell_angle_alpha   90.00000000
_cell_angle_beta   90.00000000
_cell_angle_gamma   90.00000000
_symmetry_Int_Tables_number   1
_chemical_formula_structural   SiAsSe2S4ClO
_chemical_formula_sum   'Si1 As1 Se2 S4 Cl1 O1'
_cell_volume   235.53048370
_cell_formula_units_Z   1
loop_
 _symmetry_equiv_pos_site_id
 _symmetry_equiv_pos_as_xyz
  1  'x, y, z'
loop_
 _atom_site_type_symbol
 _atom_site_label
 _atom_site_symmetry_multiplicity
 _atom_site_fract_x
 _atom_site_fract_y
 _atom_site_fract_z
 _atom_site_occupancy
  As  As0  1  -0.00000000  0.50000001  0.89714299  1
  Se  Se1  1  0.50000001  0.00000000  0.10285700  1
  S  S2  1  -0.00000000  0.50000001  0.36716300  1
  O  O3  1  0.50000001  0.00000000  0.63283700  1
  Cl  Cl4  1  -0.00000000  0.50000001  0.61097100  1
  S  S5  1  0.50000001  0.00000000  0.38902900  1
  Se  Se6  1  -0.00000000  0.50000001  0.19083100  1
  Si  Si7  1  0.50000001  0.00000000  0.80916899  1
  S  S8  1  0.00000000  0.00000000  0.00000000  1
  S  S9  1  0.50000001  0.50000001  0.00000000  1
