# generated using pymatgen
data_PBr5N3
_symmetry_space_group_name_H-M   'P 1'
_cell_length_a   5.95762539
_cell_length_b   7.27876139
_cell_length_c   7.27876139
_cell_angle_alpha   65.22418213
_cell_angle_beta   81.55540466
_cell_angle_gamma   81.55540466
_symmetry_Int_Tables_number   1
_chemical_formula_structural   PBr5N3
_chemical_formula_sum   'P1 Br5 N3'
_cell_volume   282.19530993
_cell_formula_units_Z   1
loop_
 _symmetry_equiv_pos_site_id
 _symmetry_equiv_pos_as_xyz
  1  'x, y, z'
loop_
 _atom_site_type_symbol
 _atom_site_label
 _atom_site_symmetry_multiplicity
 _atom_site_fract_x
 _atom_site_fract_y
 _atom_site_fract_z
 _atom_site_occupancy
  P  P0  1  0.32204401  0.33380400  0.33380397  1
  Br  Br1  1  0.67795602  0.66619600  0.66619594  1
  Br  Br2  1  0.00000000  0.00000000  0.00000000  1
  N  N3  1  0.20114401  0.34697100  0.85166296  1
  Br  Br4  1  0.79885602  0.14833700  0.65302898  1
  Br  Br5  1  0.79885603  0.65302900  0.14833696  1
  N  N6  1  0.20114402  0.85166300  0.34697094  1
  N  N7  1  0.23390502  0.88366000  0.88365992  1
  Br  Br8  1  0.76609502  0.11634000  0.11634000  1
