# generated using pymatgen
data_TeAsCl10
_symmetry_space_group_name_H-M   'P 1'
_cell_length_a   5.07039404
_cell_length_b   8.40884209
_cell_length_c   10.09383678
_cell_angle_alpha   90.00000000
_cell_angle_beta   90.00000000
_cell_angle_gamma   90.00000000
_symmetry_Int_Tables_number   1
_chemical_formula_structural   TeAsCl10
_chemical_formula_sum   'Te1 As1 Cl10'
_cell_volume   430.36226647
_cell_formula_units_Z   1
loop_
 _symmetry_equiv_pos_site_id
 _symmetry_equiv_pos_as_xyz
  1  'x, y, z'
loop_
 _atom_site_type_symbol
 _atom_site_label
 _atom_site_symmetry_multiplicity
 _atom_site_fract_x
 _atom_site_fract_y
 _atom_site_fract_z
 _atom_site_occupancy
  Te  Te0  1  0.25000000  0.24606800  0.88748402  1
  Cl  Cl1  1  0.74999999  0.75393199  0.11251600  1
  Cl  Cl2  1  0.25000000  0.74606799  0.61251601  1
  Cl  Cl3  1  0.74999999  0.25393200  0.38748401  1
  Cl  Cl4  1  0.25000000  0.02270400  0.16536600  1
  Cl  Cl5  1  0.74999999  0.97729599  0.83463402  1
  Cl  Cl6  1  0.25000000  0.52270399  0.33463401  1
  Cl  Cl7  1  0.74999999  0.47729600  0.66536601  1
  Cl  Cl8  1  0.74999999  0.35838000  0.07394600  1
  Cl  Cl9  1  0.25000000  0.64161999  0.92605402  1
  Cl  Cl10  1  0.74999999  0.85837999  0.42605401  1
  As  As11  1  0.25000000  0.14162000  0.57394601  1
