# generated using pymatgen
data_LiSi2P2S
_symmetry_space_group_name_H-M   'P 1'
_cell_length_a   3.95297503
_cell_length_b   3.95297503
_cell_length_c   8.70466232
_cell_angle_alpha   90.00000000
_cell_angle_beta   90.00000000
_cell_angle_gamma   90.00000000
_symmetry_Int_Tables_number   1
_chemical_formula_structural   LiSi2P2S
_chemical_formula_sum   'Li1 Si2 P2 S1'
_cell_volume   136.01915465
_cell_formula_units_Z   1
loop_
 _symmetry_equiv_pos_site_id
 _symmetry_equiv_pos_as_xyz
  1  'x, y, z'
loop_
 _atom_site_type_symbol
 _atom_site_label
 _atom_site_symmetry_multiplicity
 _atom_site_fract_x
 _atom_site_fract_y
 _atom_site_fract_z
 _atom_site_occupancy
  Si  Si0  1  0.50000000  0.00000000  0.86426497  1
  P  P1  1  -0.00000000  0.50000000  0.13573499  1
  Li  Li2  1  -0.00000000  0.50000000  0.67390697  1
  Si  Si3  1  0.50000000  0.00000000  0.32609299  1
  P  P4  1  0.00000000  0.00000000  0.00000000  1
  S  S5  1  0.50000000  0.50000000  0.00000000  1
