# generated using pymatgen
data_Te2P5
_symmetry_space_group_name_H-M   'P 1'
_cell_length_a   7.21114874
_cell_length_b   7.21114874
_cell_length_c   7.21114874
_cell_angle_alpha   104.54872894
_cell_angle_beta   104.54872894
_cell_angle_gamma   119.84091187
_symmetry_Int_Tables_number   1
_chemical_formula_structural   Te2P5
_chemical_formula_sum   'Te2 P5'
_cell_volume   281.46209771
_cell_formula_units_Z   1
loop_
 _symmetry_equiv_pos_site_id
 _symmetry_equiv_pos_as_xyz
  1  'x, y, z'
loop_
 _atom_site_type_symbol
 _atom_site_label
 _atom_site_symmetry_multiplicity
 _atom_site_fract_x
 _atom_site_fract_y
 _atom_site_fract_z
 _atom_site_occupancy
  Te  Te0  1  0.50000004  0.50000003  0.00000004  1
  P  P1  1  0.75000003  0.25000001  0.50000004  1
  P  P2  1  0.25000005  0.75000004  0.50000006  1
  P  P3  1  0.16933502  0.31618602  0.48552003  1
  P  P4  1  0.31618505  0.83066505  0.14685006  1
  Te  Te5  1  0.68381502  0.16933501  0.85315004  1
  P  P6  1  0.83066506  0.68381404  0.51448007  1
