# generated using pymatgen
data_LiSe2S2N2OF
_symmetry_space_group_name_H-M   'P 1'
_cell_length_a   4.95172405
_cell_length_b   6.03942394
_cell_length_c   6.03942347
_cell_angle_alpha   120.00000000
_cell_angle_beta   90.00000000
_cell_angle_gamma   90.00000000
_symmetry_Int_Tables_number   1
_chemical_formula_structural   LiSe2S2N2OF
_chemical_formula_sum   'Li1 Se2 S2 N2 O1 F1'
_cell_volume   156.41487957
_cell_formula_units_Z   1
loop_
 _symmetry_equiv_pos_site_id
 _symmetry_equiv_pos_as_xyz
  1  'x, y, z'
loop_
 _atom_site_type_symbol
 _atom_site_label
 _atom_site_symmetry_multiplicity
 _atom_site_fract_x
 _atom_site_fract_y
 _atom_site_fract_z
 _atom_site_occupancy
  Li  Li0  1  0.00000000  0.00000000  0.00000000  1
  S  S1  1  0.68908099  0.33333333  0.66666665  1
  S  S2  1  0.31091900  0.66666665  0.33333329  1
  Se  Se3  1  0.21552500  0.15020000  0.30039999  1
  N  N4  1  0.21552500  0.15020000  0.84980099  1
  N  N5  1  0.21552500  0.69960099  0.84980096  1
  Se  Se6  1  0.78447499  0.84979998  0.69959995  1
  O  O7  1  0.78447499  0.84979998  0.15019895  1
  F  F8  1  0.78447499  0.30039899  0.15019898  1
