# generated using pymatgen
data_TeCl4
_symmetry_space_group_name_H-M   'P 1'
_cell_length_a   8.37036610
_cell_length_b   8.42533493
_cell_length_c   12.01129532
_cell_angle_alpha   90.00000000
_cell_angle_beta   90.00000000
_cell_angle_gamma   90.00000000
_symmetry_Int_Tables_number   1
_chemical_formula_structural   TeCl4
_chemical_formula_sum   'Te4 Cl16'
_cell_volume   847.07423555
_cell_formula_units_Z   4
loop_
 _symmetry_equiv_pos_site_id
 _symmetry_equiv_pos_as_xyz
  1  'x, y, z'
loop_
 _atom_site_type_symbol
 _atom_site_label
 _atom_site_symmetry_multiplicity
 _atom_site_fract_x
 _atom_site_fract_y
 _atom_site_fract_z
 _atom_site_occupancy
  Te  Te0  1  0.50831299  0.46818500  0.24999999  1
  Cl  Cl1  1  0.00831300  0.03181500  0.74999998  1
  Cl  Cl2  1  0.99168699  0.96818501  0.24999999  1
  Cl  Cl3  1  0.49168699  0.53181500  0.74999998  1
  Cl  Cl4  1  0.49999999  0.00000000  0.49999999  1
  Cl  Cl5  1  -0.00000000  0.50000000  0.00000000  1
  Cl  Cl6  1  -0.00000000  0.50000000  0.49999999  1
  Cl  Cl7  1  0.49999999  0.00000000  0.00000000  1
  Cl  Cl8  1  0.54824499  0.99370801  0.74999998  1
  Te  Te9  1  0.04824500  0.50629200  0.24999999  1
  Cl  Cl10  1  0.79480799  0.20538600  0.02568800  1
  Cl  Cl11  1  0.20519200  0.79461401  0.97431197  1
  Cl  Cl12  1  0.29480800  0.29461400  0.97431197  1
  Te  Te13  1  0.70519199  0.70538601  0.02568800  1
  Cl  Cl14  1  0.29480800  0.29461400  0.52568799  1
  Te  Te15  1  0.70519199  0.70538601  0.47431199  1
  Cl  Cl16  1  0.20519200  0.79461401  0.52568799  1
  Cl  Cl17  1  0.79480799  0.20538600  0.47431199  1
  Cl  Cl18  1  0.95175499  0.49370800  0.74999998  1
  Cl  Cl19  1  0.45175499  0.00629200  0.24999999  1
