# generated using pymatgen
data_Si3P3SeS6
_symmetry_space_group_name_H-M   'P 1'
_cell_length_a   6.95960379
_cell_length_b   7.02517700
_cell_length_c   7.02575779
_cell_angle_alpha   60.83486176
_cell_angle_beta   60.35367203
_cell_angle_gamma   60.34846497
_symmetry_Int_Tables_number   1
_chemical_formula_structural   Si3P3SeS6
_chemical_formula_sum   'Si3 P3 Se1 S6'
_cell_volume   245.69642044
_cell_formula_units_Z   1
loop_
 _symmetry_equiv_pos_site_id
 _symmetry_equiv_pos_as_xyz
  1  'x, y, z'
loop_
 _atom_site_type_symbol
 _atom_site_label
 _atom_site_symmetry_multiplicity
 _atom_site_fract_x
 _atom_site_fract_y
 _atom_site_fract_z
 _atom_site_occupancy
  Si  Si0  1  0.36926299  0.88090900  0.88111303  1
  S  S1  1  0.54757399  0.48609200  0.48620602  1
  P  P2  1  0.97998998  0.48618100  0.48609202  1
  P  P3  1  0.99425698  0.49694700  0.01456300  1
  S  S4  1  0.99403398  0.01477500  0.49697402  1
  Se  Se5  1  0.23491499  0.25641400  0.25643601  1
  Si  Si6  1  0.23513199  0.73407600  0.29553601  1
  Si  Si7  1  0.23523099  0.29541600  0.73402402  1
  S  S8  1  0.23860599  0.73510200  0.73500103  1
  S  S9  1  0.75117798  0.74411200  0.25363101  1
  S  S10  1  0.75233698  0.25622900  0.25617301  1
  P  P11  1  0.79128198  0.73510600  0.73507803  1
  S  S12  1  0.75119698  0.25364400  0.74419003  1
