# generated using pymatgen
data_YTe4PCl8
_symmetry_space_group_name_H-M   'P 1'
_cell_length_a   8.59063435
_cell_length_b   8.59063435
_cell_length_c   8.59063435
_cell_angle_alpha   109.47122192
_cell_angle_beta   109.47122192
_cell_angle_gamma   109.47122192
_symmetry_Int_Tables_number   1
_chemical_formula_structural   YTe4PCl8
_chemical_formula_sum   'Y1 Te4 P1 Cl8'
_cell_volume   488.03817062
_cell_formula_units_Z   1
loop_
 _symmetry_equiv_pos_site_id
 _symmetry_equiv_pos_as_xyz
  1  'x, y, z'
loop_
 _atom_site_type_symbol
 _atom_site_label
 _atom_site_symmetry_multiplicity
 _atom_site_fract_x
 _atom_site_fract_y
 _atom_site_fract_z
 _atom_site_occupancy
  Cl  Cl0  1  0.25000003  0.43610801  0.18610803  1
  Cl  Cl1  1  0.68610801  0.25000101  0.93610802  1
  Cl  Cl2  1  0.43610804  0.68610802  0.75000104  1
  Te  Te3  1  0.81389305  0.75000102  0.56389306  1
  Cl  Cl4  1  0.06389305  0.81389302  0.25000004  1
  Cl  Cl5  1  0.75000000  0.06389300  0.31389302  1
  Cl  Cl6  1  0.04441900  0.04441900  0.54441900  1
  P  P7  1  0.50000003  0.45558101  0.50000003  1
  Te  Te8  1  0.45558106  1.00000003  1.00000006  1
  Y  Y9  1  0.00000003  0.50000001  0.95558102  1
  Te  Te10  1  0.50970203  0.50970202  0.00970204  1
  Cl  Cl11  1  0.50000006  0.99029803  0.50000006  1
  Cl  Cl12  1  1.00000003  0.50000001  0.49029805  1
  Te  Te13  1  0.99029806  1.00000003  1.00000007  1
