# generated using pymatgen
data_LiSiP2S
_symmetry_space_group_name_H-M   'P 1'
_cell_length_a   6.33821535
_cell_length_b   6.33821535
_cell_length_c   6.33821535
_cell_angle_alpha   60.00000000
_cell_angle_beta   60.00000000
_cell_angle_gamma   60.00000000
_symmetry_Int_Tables_number   1
_chemical_formula_structural   LiSiP2S
_chemical_formula_sum   'Li2 Si2 P4 S2'
_cell_volume   180.04703550
_cell_formula_units_Z   2
loop_
 _symmetry_equiv_pos_site_id
 _symmetry_equiv_pos_as_xyz
  1  'x, y, z'
loop_
 _atom_site_type_symbol
 _atom_site_label
 _atom_site_symmetry_multiplicity
 _atom_site_fract_x
 _atom_site_fract_y
 _atom_site_fract_z
 _atom_site_occupancy
  Li  Li0  1  0.74999999  0.74999999  0.74999999  1
  P  P1  1  0.25000000  0.25000000  0.25000000  1
  S  S2  1  0.00000000  0.00000000  0.00000000  1
  S  S3  1  0.49999999  0.49999999  0.49999999  1
  P  P4  1  0.21695700  0.21695700  0.78304299  1
  P  P5  1  0.78304299  0.21695700  0.78304299  1
  Si  Si6  1  0.78304299  0.78304299  0.21695700  1
  P  P7  1  0.21695700  0.78304299  0.78304299  1
  Li  Li8  1  0.78304299  0.21695700  0.21695700  1
  Si  Si9  1  0.21695700  0.78304299  0.21695700  1
