# generated using pymatgen
data_CsLiTeP2SCl12
_symmetry_space_group_name_H-M   'P 1'
_cell_length_a   5.63214779
_cell_length_b   5.63214779
_cell_length_c   13.38336086
_cell_angle_alpha   90.00000000
_cell_angle_beta   90.00000000
_cell_angle_gamma   90.00000000
_symmetry_Int_Tables_number   1
_chemical_formula_structural   CsLiTeP2SCl12
_chemical_formula_sum   'Cs1 Li1 Te1 P2 S1 Cl12'
_cell_volume   424.53477726
_cell_formula_units_Z   1
loop_
 _symmetry_equiv_pos_site_id
 _symmetry_equiv_pos_as_xyz
  1  'x, y, z'
loop_
 _atom_site_type_symbol
 _atom_site_label
 _atom_site_symmetry_multiplicity
 _atom_site_fract_x
 _atom_site_fract_y
 _atom_site_fract_z
 _atom_site_occupancy
  Li  Li0  1  0.75973503  0.75973503  0.00000000  1
  Cl  Cl1  1  0.24026501  0.75973503  0.50000001  1
  Te  Te2  1  0.75973503  0.24026501  0.50000001  1
  Cl  Cl3  1  0.24026501  0.24026501  0.00000000  1
  Cl  Cl4  1  0.50000002  0.50000002  0.75000001  1
  Cl  Cl5  1  0.50000002  0.50000002  0.25000000  1
  Cl  Cl6  1  -0.00000000  0.50000002  0.75000001  1
  Cl  Cl7  1  0.50000002  0.00000000  0.75000001  1
  Cl  Cl8  1  -0.00000000  0.50000002  0.25000000  1
  Cl  Cl9  1  0.50000002  0.00000000  0.25000000  1
  Cl  Cl10  1  0.73800503  0.73800503  0.65452301  1
  Cl  Cl11  1  0.26199501  0.26199501  0.65452301  1
  Cl  Cl12  1  0.73800503  0.73800503  0.34547700  1
  P  P13  1  0.73800503  0.26199501  0.15452300  1
  Cs  Cs14  1  0.26199501  0.73800503  0.84547701  1
  Cl  Cl15  1  0.26199501  0.26199501  0.34547700  1
  S  S16  1  0.26199501  0.73800503  0.15452300  1
  P  P17  1  0.73800503  0.26199501  0.84547701  1
