# generated using pymatgen
data_Li3Si2P8S
_symmetry_space_group_name_H-M   'P 1'
_cell_length_a   6.44006395
_cell_length_b   6.44006300
_cell_length_c   8.46381664
_cell_angle_alpha   90.00000000
_cell_angle_beta   90.00000000
_cell_angle_gamma   120.00000763
_symmetry_Int_Tables_number   1
_chemical_formula_structural   Li3Si2P8S
_chemical_formula_sum   'Li3 Si2 P8 S1'
_cell_volume   304.00248993
_cell_formula_units_Z   1
loop_
 _symmetry_equiv_pos_site_id
 _symmetry_equiv_pos_as_xyz
  1  'x, y, z'
loop_
 _atom_site_type_symbol
 _atom_site_label
 _atom_site_symmetry_multiplicity
 _atom_site_fract_x
 _atom_site_fract_y
 _atom_site_fract_z
 _atom_site_occupancy
  Li  Li0  1  0.66666669  0.33333335  0.18626301  1
  P  P1  1  0.33333338  0.66666670  0.81373703  1
  P  P2  1  0.00000000  0.00000000  0.50000002  1
  P  P3  1  0.00000000  0.00000000  0.00000000  1
  Li  Li4  1  0.66666669  0.33333335  0.68729003  1
  P  P5  1  0.33333338  0.66666670  0.31271001  1
  P  P6  1  0.18001702  0.36003402  0.23927801  1
  Si  Si7  1  0.18001705  0.81998204  0.23927801  1
  P  P8  1  0.63996506  0.81998204  0.23927801  1
  Si  Si9  1  0.36003501  0.18001801  0.76072203  1
  P  P10  1  0.81998302  0.18001801  0.76072203  1
  P  P11  1  0.81998305  0.63996603  0.76072203  1
  S  S12  1  0.33333338  0.66666670  0.52796502  1
  Li  Li13  1  0.66666669  0.33333335  0.47203502  1
