# generated using pymatgen
data_LiBr
_symmetry_space_group_name_H-M   'P 1'
_cell_length_a   4.32853842
_cell_length_b   4.32853842
_cell_length_c   7.49414682
_cell_angle_alpha   73.21418762
_cell_angle_beta   73.21418762
_cell_angle_gamma   59.99999619
_symmetry_Int_Tables_number   1
_chemical_formula_structural   LiBr
_chemical_formula_sum   'Li2 Br2'
_cell_volume   114.64011359
_cell_formula_units_Z   2
loop_
 _symmetry_equiv_pos_site_id
 _symmetry_equiv_pos_as_xyz
  1  'x, y, z'
loop_
 _atom_site_type_symbol
 _atom_site_label
 _atom_site_symmetry_multiplicity
 _atom_site_fract_x
 _atom_site_fract_y
 _atom_site_fract_z
 _atom_site_occupancy
  Br  Br0  1  0.24716301  0.24716299  0.25851100  1
  Li  Li1  1  0.75283704  0.75283698  0.74148899  1
  Li  Li2  1  0.00000000  0.00000000  0.00000000  1
  Br  Br3  1  0.50000002  0.49999999  0.49999999  1
