# generated using pymatgen
data_Li5Si4P3S2
_symmetry_space_group_name_H-M   'P 1'
_cell_length_a   5.96416283
_cell_length_b   5.96416283
_cell_length_c   5.96416187
_cell_angle_alpha   60.21615982
_cell_angle_beta   60.21615982
_cell_angle_gamma   60.21615601
_symmetry_Int_Tables_number   1
_chemical_formula_structural   Li5Si4P3S2
_chemical_formula_sum   'Li5 Si4 P3 S2'
_cell_volume   150.74874934
_cell_formula_units_Z   1
loop_
 _symmetry_equiv_pos_site_id
 _symmetry_equiv_pos_as_xyz
  1  'x, y, z'
loop_
 _atom_site_type_symbol
 _atom_site_label
 _atom_site_symmetry_multiplicity
 _atom_site_fract_x
 _atom_site_fract_y
 _atom_site_fract_z
 _atom_site_occupancy
  Li  Li0  1  0.37437498  0.37437498  0.37437503  1
  P  P1  1  0.75419596  0.75419596  0.75419607  1
  S  S2  1  0.86800195  0.37670398  0.37670405  1
  Si  Si3  1  0.37670398  0.86800196  0.37670405  1
  Si  Si4  1  0.37670398  0.37670398  0.86800205  1
  Si  Si5  1  0.99231794  0.99231795  0.99231809  1
  S  S6  1  0.13298399  0.13298399  0.13298401  1
  Li  Li7  1  0.58745497  0.12831099  0.12831102  1
  Li  Li8  1  0.12831099  0.58745497  0.12831102  1
  Li  Li9  1  0.12831099  0.12831099  0.58745503  1
  P  P10  1  0.61542397  0.61542397  0.61542406  1
  Li  Li11  1  0.16735899  0.62392797  0.62392805  1
  P  P12  1  0.62392797  0.16735899  0.62392805  1
  Si  Si13  1  0.62392797  0.62392797  0.16735904  1
