# generated using pymatgen
data_Si2P5Cl3
_symmetry_space_group_name_H-M   'P 1'
_cell_length_a   7.23195124
_cell_length_b   7.23195124
_cell_length_c   7.23195124
_cell_angle_alpha   91.15766144
_cell_angle_beta   119.33389282
_cell_angle_gamma   119.33389282
_symmetry_Int_Tables_number   1
_chemical_formula_structural   Si2P5Cl3
_chemical_formula_sum   'Si2 P5 Cl3'
_cell_volume   270.08857161
_cell_formula_units_Z   1
loop_
 _symmetry_equiv_pos_site_id
 _symmetry_equiv_pos_as_xyz
  1  'x, y, z'
loop_
 _atom_site_type_symbol
 _atom_site_label
 _atom_site_symmetry_multiplicity
 _atom_site_fract_x
 _atom_site_fract_y
 _atom_site_fract_z
 _atom_site_occupancy
  Si  Si0  1  0.50000012  0.75000007  0.25000008  1
  P  P1  1  1.00000012  0.50000005  0.50000011  1
  P  P2  1  0.50000006  0.25000002  0.75000007  1
  Cl  Cl3  1  0.00000000  0.00000000  0.00000000  1
  P  P4  1  0.29889314  1.00000009  0.29889308  1
  Cl  Cl5  1  0.29889306  0.29889303  0.00000004  1
  Cl  Cl6  1  0.70110713  0.70110706  1.00000011  1
  Si  Si7  1  0.70110717  1.00000009  0.70110712  1
  P  P8  1  1.00000009  0.22094602  0.22094609  1
  P  P9  1  0.00000010  0.77905407  0.77905406  1
