# generated using pymatgen
data_TeP
_symmetry_space_group_name_H-M   'P 1'
_cell_length_a   3.75210094
_cell_length_b   10.67312241
_cell_length_c   10.67312145
_cell_angle_alpha   120.00000000
_cell_angle_beta   90.00000000
_cell_angle_gamma   90.00000000
_symmetry_Int_Tables_number   1
_chemical_formula_structural   TeP
_chemical_formula_sum   'Te4 P4'
_cell_volume   370.15880736
_cell_formula_units_Z   4
loop_
 _symmetry_equiv_pos_site_id
 _symmetry_equiv_pos_as_xyz
  1  'x, y, z'
loop_
 _atom_site_type_symbol
 _atom_site_label
 _atom_site_symmetry_multiplicity
 _atom_site_fract_x
 _atom_site_fract_y
 _atom_site_fract_z
 _atom_site_occupancy
  Te  Te0  1  0.25000000  0.66666663  0.33333330  1
  P  P1  1  0.75000001  0.33333331  0.66666664  1
  Te  Te2  1  0.75000001  0.78167995  0.21831896  1
  Te  Te3  1  0.75000001  0.43663897  0.21831898  1
  Te  Te4  1  0.75000001  0.78167995  0.56335996  1
  P  P5  1  0.25000000  0.21831999  0.78168098  1
  P  P6  1  0.25000000  0.56336097  0.78168097  1
  P  P7  1  0.25000000  0.21831999  0.43663999  1
