# generated using pymatgen
data_MgSi7BP2H4Se2S
_symmetry_space_group_name_H-M   'P 1'
_cell_length_a   5.58513117
_cell_length_b   6.01593876
_cell_length_c   6.50156498
_cell_angle_alpha   90.00000000
_cell_angle_beta   90.00000000
_cell_angle_gamma   91.62049866
_symmetry_Int_Tables_number   1
_chemical_formula_structural   MgSi7BP2H4Se2S
_chemical_formula_sum   'Mg1 Si7 B1 P2 H4 Se2 S1'
_cell_volume   218.36396188
_cell_formula_units_Z   1
loop_
 _symmetry_equiv_pos_site_id
 _symmetry_equiv_pos_as_xyz
  1  'x, y, z'
loop_
 _atom_site_type_symbol
 _atom_site_label
 _atom_site_symmetry_multiplicity
 _atom_site_fract_x
 _atom_site_fract_y
 _atom_site_fract_z
 _atom_site_occupancy
  Si  Si0  1  0.00747601  0.47433499  0.25000000  1
  Mg  Mg1  1  0.99252403  0.52566499  0.75000000  1
  Si  Si2  1  0.50000002  0.49999999  0.50000000  1
  Si  Si3  1  0.50000002  0.49999999  -0.00000000  1
  Si  Si4  1  0.39179102  0.80170699  0.25000000  1
  H  H5  1  0.60820901  0.19829300  0.75000000  1
  H  H6  1  0.81056303  0.80492099  0.46318600  1
  H  H7  1  0.18943701  0.19507900  0.96318600  1
  Si  Si8  1  0.18943701  0.19507900  0.53681400  1
  Si  Si9  1  0.81056303  0.80492099  0.03681400  1
  Si  Si10  1  0.70892701  0.15610500  0.25000000  1
  H  H11  1  0.29107302  0.84389499  0.75000000  1
  S  S12  1  0.36396402  0.64049599  0.25000000  1
  P  P13  1  0.63603602  0.35950400  0.75000000  1
  B  B14  1  0.82023203  0.64427899  0.48344800  1
  Se  Se15  1  0.17976801  0.35572100  0.98344800  1
  Se  Se16  1  0.17976801  0.35572100  0.51655200  1
  P  P17  1  0.82023203  0.64427899  0.01655200  1
