# generated using pymatgen
data_MgSi5P3S7Cl2
_symmetry_space_group_name_H-M   'P 1'
_cell_length_a   5.99689484
_cell_length_b   6.86452198
_cell_length_c   6.86452198
_cell_angle_alpha   90.00000000
_cell_angle_beta   90.00000000
_cell_angle_gamma   90.00000000
_symmetry_Int_Tables_number   1
_chemical_formula_structural   MgSi5P3S7Cl2
_chemical_formula_sum   'Mg1 Si5 P3 S7 Cl2'
_cell_volume   282.58365164
_cell_formula_units_Z   1
loop_
 _symmetry_equiv_pos_site_id
 _symmetry_equiv_pos_as_xyz
  1  'x, y, z'
loop_
 _atom_site_type_symbol
 _atom_site_label
 _atom_site_symmetry_multiplicity
 _atom_site_fract_x
 _atom_site_fract_y
 _atom_site_fract_z
 _atom_site_occupancy
  Mg  Mg0  1  1.00000003  0.50000000  0.50000000  1
  Si  Si1  1  0.00000000  0.00000000  0.00000000  1
  P  P2  1  0.50000001  0.67367900  0.17367900  1
  Si  Si3  1  0.50000001  0.17367900  0.32632100  1
  Cl  Cl4  1  0.50000001  0.82632100  0.67367900  1
  P  P5  1  0.50000001  0.32632100  0.82632100  1
  S  S6  1  1.00000003  1.00000000  0.50000000  1
  P  P7  1  1.00000003  0.50000000  -0.00000000  1
  Si  Si8  1  0.50000001  0.50000000  0.50000000  1
  Cl  Cl9  1  0.50000001  0.00000000  -0.00000000  1
  S  S10  1  0.25015301  0.14038400  0.64038400  1
  Si  Si11  1  0.25015301  0.85961600  0.35961600  1
  S  S12  1  0.25015301  0.35961600  0.14038400  1
  Si  Si13  1  0.25015301  0.64038400  0.85961600  1
  S  S14  1  0.74984702  0.14038400  0.64038400  1
  S  S15  1  0.74984702  0.64038400  0.85961600  1
  S  S16  1  0.74984702  0.85961600  0.35961600  1
  S  S17  1  0.74984702  0.35961600  0.14038400  1
