# generated using pymatgen
data_LiSi8P3
_symmetry_space_group_name_H-M   'P 1'
_cell_length_a   6.18728733
_cell_length_b   6.18728733
_cell_length_c   6.18728733
_cell_angle_alpha   106.32744598
_cell_angle_beta   106.32744598
_cell_angle_gamma   115.96022034
_symmetry_Int_Tables_number   1
_chemical_formula_structural   LiSi8P3
_chemical_formula_sum   'Li1 Si8 P3'
_cell_volume   180.56527837
_cell_formula_units_Z   1
loop_
 _symmetry_equiv_pos_site_id
 _symmetry_equiv_pos_as_xyz
  1  'x, y, z'
loop_
 _atom_site_type_symbol
 _atom_site_label
 _atom_site_symmetry_multiplicity
 _atom_site_fract_x
 _atom_site_fract_y
 _atom_site_fract_z
 _atom_site_occupancy
  Li  Li0  1  0.74999995  0.24999998  0.49999992  1
  Si  Si1  1  0.00000000  0.00000000  0.00000000  1
  P  P2  1  0.49999995  0.49999996  0.99999990  1
  P  P3  1  0.24999995  0.74999995  0.49999991  1
  Si  Si4  1  0.66884393  0.84700894  0.17816489  1
  Si  Si5  1  0.15299098  0.33115598  0.82183494  1
  Si  Si6  1  0.59700893  0.91884393  0.67816488  1
  Si  Si7  1  0.50932096  0.33115598  0.17816494  1
  P  P8  1  0.66884395  0.49067896  0.82183490  1
  Si  Si9  1  0.08115598  0.40299097  0.32183495  1
  Si  Si10  1  0.08115596  0.75932095  0.67816492  1
  Si  Si11  1  0.24067895  0.91884393  0.32183491  1
