# generated using pymatgen
data_Li2TeO6
_symmetry_space_group_name_H-M   'P 1'
_cell_length_a   5.03664541
_cell_length_b   5.03664541
_cell_length_c   6.36287403
_cell_angle_alpha   88.47590637
_cell_angle_beta   88.47590637
_cell_angle_gamma   67.64587402
_symmetry_Int_Tables_number   1
_chemical_formula_structural   Li2TeO6
_chemical_formula_sum   'Li2 Te1 O6'
_cell_volume   149.20558722
_cell_formula_units_Z   1
loop_
 _symmetry_equiv_pos_site_id
 _symmetry_equiv_pos_as_xyz
  1  'x, y, z'
loop_
 _atom_site_type_symbol
 _atom_site_label
 _atom_site_symmetry_multiplicity
 _atom_site_fract_x
 _atom_site_fract_y
 _atom_site_fract_z
 _atom_site_occupancy
  Li  Li0  1  0.00000000  0.00000000  0.00000000  1
  Li  Li1  1  0.65183098  0.65183099  0.73172196  1
  Te  Te2  1  0.34816899  0.34816899  0.26827798  1
  O  O3  1  0.75871797  0.75871798  0.94952295  1
  O  O4  1  0.24128199  0.24128199  0.05047699  1
  O  O5  1  0.70808098  0.23207099  0.24516798  1
  O  O6  1  0.23207099  0.70808098  0.24516798  1
  O  O7  1  0.29191898  0.76792898  0.75483196  1
  O  O8  1  0.76792898  0.29191899  0.75483196  1
