# generated using pymatgen
data_Si12H3Se4S
_symmetry_space_group_name_H-M   'P 1'
_cell_length_a   5.48661327
_cell_length_b   5.48661327
_cell_length_c   7.70825911
_cell_angle_alpha   90.00000000
_cell_angle_beta   90.00000000
_cell_angle_gamma   91.31479645
_symmetry_Int_Tables_number   1
_chemical_formula_structural   Si12H3Se4S
_chemical_formula_sum   'Si12 H3 Se4 S1'
_cell_volume   231.98005491
_cell_formula_units_Z   1
loop_
 _symmetry_equiv_pos_site_id
 _symmetry_equiv_pos_as_xyz
  1  'x, y, z'
loop_
 _atom_site_type_symbol
 _atom_site_label
 _atom_site_symmetry_multiplicity
 _atom_site_fract_x
 _atom_site_fract_y
 _atom_site_fract_z
 _atom_site_occupancy
  Si  Si0  1  0.49999996  0.49999999  0.00000000  1
  Si  Si1  1  0.49999996  0.49999999  0.49999999  1
  Si  Si2  1  0.17973095  0.82026898  0.25000000  1
  Si  Si3  1  0.82026897  0.17973100  0.74999999  1
  H  H4  1  0.08780395  0.71081898  0.93026399  1
  Se  Se5  1  0.08780395  0.71081898  0.56973599  1
  S  S6  1  0.71081898  0.08780400  0.43026399  1
  H  H7  1  0.71081898  0.08780400  0.06973600  1
  Si  Si8  1  0.28918094  0.91219598  0.93026399  1
  Se  Se9  1  0.91219596  0.28918099  0.43026399  1
  Se  Se10  1  0.28918094  0.91219598  0.56973599  1
  Si  Si11  1  0.91219596  0.28918099  0.06973600  1
  Si  Si12  1  0.28591398  0.22660699  0.74999999  1
  Si  Si13  1  0.22660698  0.28591399  0.25000000  1
  Si  Si14  1  0.71408594  0.77339298  0.25000000  1
  Si  Si15  1  0.77339294  0.71408598  0.74999999  1
  H  H16  1  0.76099297  0.23900699  0.49368299  1
  Si  Si17  1  0.23900695  0.76099298  0.99368299  1
  Se  Se18  1  0.23900695  0.76099298  0.50631699  1
  Si  Si19  1  0.76099297  0.23900699  0.00631700  1
