# generated using pymatgen
data_LiS4BrN2
_symmetry_space_group_name_H-M   'P 1'
_cell_length_a   6.03461742
_cell_length_b   6.03461742
_cell_length_c   6.03461742
_cell_angle_alpha   60.00000000
_cell_angle_beta   60.00000000
_cell_angle_gamma   60.00000000
_symmetry_Int_Tables_number   1
_chemical_formula_structural   LiS4BrN2
_chemical_formula_sum   'Li1 S4 Br1 N2'
_cell_volume   155.39399403
_cell_formula_units_Z   1
loop_
 _symmetry_equiv_pos_site_id
 _symmetry_equiv_pos_as_xyz
  1  'x, y, z'
loop_
 _atom_site_type_symbol
 _atom_site_label
 _atom_site_symmetry_multiplicity
 _atom_site_fract_x
 _atom_site_fract_y
 _atom_site_fract_z
 _atom_site_occupancy
  Br  Br0  1  0.00000000  0.00000000  0.00000000  1
  S  S1  1  0.50000001  0.50000001  0.50000001  1
  S  S2  1  0.73418402  0.73418402  0.26581601  1
  S  S3  1  0.73418402  0.26581601  0.26581601  1
  Li  Li4  1  0.26581601  0.26581601  0.73418402  1
  N  N5  1  0.73418402  0.26581601  0.73418402  1
  S  S6  1  0.26581601  0.73418402  0.26581601  1
  N  N7  1  0.26581601  0.73418402  0.73418402  1
