# generated using pymatgen
data_LiSiP4S
_symmetry_space_group_name_H-M   'P 1'
_cell_length_a   4.56655216
_cell_length_b   4.56655216
_cell_length_c   8.39459896
_cell_angle_alpha   105.78292084
_cell_angle_beta   105.78292084
_cell_angle_gamma   90.00000000
_symmetry_Int_Tables_number   1
_chemical_formula_structural   LiSiP4S
_chemical_formula_sum   'Li1 Si1 P4 S1'
_cell_volume   161.58705999
_cell_formula_units_Z   1
loop_
 _symmetry_equiv_pos_site_id
 _symmetry_equiv_pos_as_xyz
  1  'x, y, z'
loop_
 _atom_site_type_symbol
 _atom_site_label
 _atom_site_symmetry_multiplicity
 _atom_site_fract_x
 _atom_site_fract_y
 _atom_site_fract_z
 _atom_site_occupancy
  Si  Si0  1  0.67169195  0.67169197  0.34338399  1
  P  P1  1  0.32830798  0.32830798  0.65661602  1
  P  P2  1  0.99999994  0.49999998  1.00000001  1
  S  S3  1  0.49999995  0.99999995  1.00000001  1
  Li  Li4  1  0.86282594  0.86282596  0.72565199  1
  P  P5  1  0.13717399  0.13717399  0.27434801  1
  P  P6  1  0.49999997  0.49999998  -0.00000002  1
