# generated using pymatgen
data_AsS6BrCl7O
_symmetry_space_group_name_H-M   'P 1'
_cell_length_a   7.02765417
_cell_length_b   7.45761776
_cell_length_c   9.96458340
_cell_angle_alpha   97.01506805
_cell_angle_beta   92.57389069
_cell_angle_gamma   91.32792664
_symmetry_Int_Tables_number   1
_chemical_formula_structural   AsS6BrCl7O
_chemical_formula_sum   'As1 S6 Br1 Cl7 O1'
_cell_volume   517.59069236
_cell_formula_units_Z   1
loop_
 _symmetry_equiv_pos_site_id
 _symmetry_equiv_pos_as_xyz
  1  'x, y, z'
loop_
 _atom_site_type_symbol
 _atom_site_label
 _atom_site_symmetry_multiplicity
 _atom_site_fract_x
 _atom_site_fract_y
 _atom_site_fract_z
 _atom_site_occupancy
  O  O0  1  0.30144304  0.75413801  0.00626202  1
  S  S1  1  0.12914201  0.20137100  0.65687604  1
  S  S2  1  0.87085803  0.79862902  0.34312404  1
  S  S3  1  0.69855700  0.24586200  0.99373806  1
  S  S4  1  0.40347904  0.67748201  0.57148505  1
  Cl  Cl5  1  0.59652101  0.32251801  0.42851503  1
  S  S6  1  0.78338703  0.70769001  0.74994106  1
  Cl  Cl7  1  0.21661301  0.29231001  0.25005902  1
  S  S8  1  0.37885400  0.06280100  0.33053402  1
  Cl  Cl9  1  0.39489403  0.55317001  0.32517903  1
  As  As10  1  0.80156403  0.74755901  0.98109907  1
  Cl  Cl11  1  0.91620100  0.29957701  0.33123603  1
  Cl  Cl12  1  0.08379904  0.70042301  0.66876405  1
  Cl  Cl13  1  0.60510602  0.44683001  0.67482105  1
  Br  Br14  1  0.62114605  0.93719902  0.66946606  1
  Cl  Cl15  1  0.19843601  0.25244100  0.01890101  1
