# generated using pymatgen
data_Li3Se5N3O2
_symmetry_space_group_name_H-M   'P 1'
_cell_length_a   5.19326782
_cell_length_b   5.19326782
_cell_length_c   5.19326830
_cell_angle_alpha   101.11835480
_cell_angle_beta   101.11835480
_cell_angle_gamma   101.11835480
_symmetry_Int_Tables_number   1
_chemical_formula_structural   Li3Se5N3O2
_chemical_formula_sum   'Li3 Se5 N3 O2'
_cell_volume   130.94924088
_cell_formula_units_Z   1
loop_
 _symmetry_equiv_pos_site_id
 _symmetry_equiv_pos_as_xyz
  1  'x, y, z'
loop_
 _atom_site_type_symbol
 _atom_site_label
 _atom_site_symmetry_multiplicity
 _atom_site_fract_x
 _atom_site_fract_y
 _atom_site_fract_z
 _atom_site_occupancy
  Li  Li0  1  0.29460801  0.08827400  0.59342601  1
  Li  Li1  1  0.40657401  0.70539203  0.91172604  1
  N  N2  1  0.91172604  0.40657402  0.70539206  1
  Se  Se3  1  0.70539202  0.91172604  0.40657407  1
  Se  Se4  1  0.59342603  0.29460801  0.08827404  1
  N  N5  1  0.08827400  0.59342603  0.29460803  1
  N  N6  1  0.00000000  0.00000000  0.00000000  1
  Se  Se7  1  0.22285701  0.32088901  0.93604702  1
  O  O8  1  0.06395299  0.77714304  0.67911103  1
  Li  Li9  1  0.67911103  0.06395300  0.77714303  1
  Se  Se10  1  0.77714303  0.67911103  0.06395307  1
  Se  Se11  1  0.93604704  0.22285701  0.32088905  1
  O  O12  1  0.32088901  0.93604704  0.22285706  1
