# generated using pymatgen
data_Li3MgSiP5H
_symmetry_space_group_name_H-M   'P 1'
_cell_length_a   5.20511627
_cell_length_b   5.20511627
_cell_length_c   6.58569813
_cell_angle_alpha   91.79431915
_cell_angle_beta   111.54524231
_cell_angle_gamma   119.71880341
_symmetry_Int_Tables_number   1
_chemical_formula_structural   Li3MgSiP5H
_chemical_formula_sum   'Li3 Mg1 Si1 P5 H1'
_cell_volume   139.01291698
_cell_formula_units_Z   1
loop_
 _symmetry_equiv_pos_site_id
 _symmetry_equiv_pos_as_xyz
  1  'x, y, z'
loop_
 _atom_site_type_symbol
 _atom_site_label
 _atom_site_symmetry_multiplicity
 _atom_site_fract_x
 _atom_site_fract_y
 _atom_site_fract_z
 _atom_site_occupancy
  Li  Li0  1  0.42234003  0.21570901  0.63804902  1
  P  P1  1  0.57766007  0.78429104  0.36195105  1
  P  P2  1  0.00000000  0.00000000  0.00000000  1
  H  H3  1  0.18823104  0.60374403  0.79197502  1
  Si  Si4  1  0.81176906  0.39625602  0.20802505  1
  Li  Li5  1  0.02728104  0.73820004  0.76548102  1
  Mg  Mg6  1  0.97271906  0.26180001  0.23451905  1
  P  P7  1  0.48066706  0.75156304  0.79963304  1
  Li  Li8  1  0.04807002  0.31896602  0.79963301  1
  P  P9  1  0.51933304  0.24843701  0.20036703  1
  P  P10  1  0.95193008  0.68103403  0.20036706  1
