# generated using pymatgen
data_Li2Si3P(SeS2)2
_symmetry_space_group_name_H-M   'P 1'
_cell_length_a   4.29284811
_cell_length_b   6.50545788
_cell_length_c   6.90008688
_cell_angle_alpha   91.83469391
_cell_angle_beta   93.79080200
_cell_angle_gamma   96.63504791
_symmetry_Int_Tables_number   1
_chemical_formula_structural   Li2Si3P(SeS2)2
_chemical_formula_sum   'Li2 Si3 P1 Se2 S4'
_cell_volume   190.83597839
_cell_formula_units_Z   1
loop_
 _symmetry_equiv_pos_site_id
 _symmetry_equiv_pos_as_xyz
  1  'x, y, z'
loop_
 _atom_site_type_symbol
 _atom_site_label
 _atom_site_symmetry_multiplicity
 _atom_site_fract_x
 _atom_site_fract_y
 _atom_site_fract_z
 _atom_site_occupancy
  Li  Li0  1  0.46039496  0.36842700  0.24456903  1
  S  S1  1  0.53960494  0.63157299  0.75543103  1
  S  S2  1  0.68022893  0.85854099  0.27226406  1
  S  S3  1  0.31977098  0.14145900  0.72773599  1
  Se  Se4  1  0.60065494  0.67499199  0.07939206  1
  P  P5  1  0.40378499  0.02209700  0.23441201  1
  Se  Se6  1  0.51222794  0.67913599  0.43100504  1
  Si  Si7  1  0.39934497  0.32500800  0.92060800  1
  S  S8  1  0.59621492  0.97790299  0.76558805  1
  Si  Si9  1  0.48777197  0.32086400  0.56899502  1
  Li  Li10  1  0.95962395  0.35051800  0.25495404  1
  Si  Si11  1  0.04037595  0.64948199  0.74504601  1
