# generated using pymatgen
data_Li2Mg3Se2S2N
_symmetry_space_group_name_H-M   'P 1'
_cell_length_a   5.28484774
_cell_length_b   5.28484774
_cell_length_c   5.72653580
_cell_angle_alpha   62.52025223
_cell_angle_beta   62.52025223
_cell_angle_gamma   60.00000381
_symmetry_Int_Tables_number   1
_chemical_formula_structural   Li2Mg3Se2S2N
_chemical_formula_sum   'Li2 Mg3 Se2 S2 N1'
_cell_volume   117.21292618
_cell_formula_units_Z   1
loop_
 _symmetry_equiv_pos_site_id
 _symmetry_equiv_pos_as_xyz
  1  'x, y, z'
loop_
 _atom_site_type_symbol
 _atom_site_label
 _atom_site_symmetry_multiplicity
 _atom_site_fract_x
 _atom_site_fract_y
 _atom_site_fract_z
 _atom_site_occupancy
  Li  Li0  1  0.63780997  0.63780999  0.08657005  1
  S  S1  1  0.36218998  0.36218999  0.91343000  1
  S  S2  1  0.85560896  0.85560899  0.43317305  1
  N  N3  1  0.14439099  0.14439100  0.56682700  1
  Mg  Mg4  1  0.04583698  0.78391599  0.73239601  1
  Se  Se5  1  0.78391597  0.43785099  0.73239603  1
  Se  Se6  1  0.43785099  0.04583700  0.73239600  1
  Mg  Mg7  1  0.95416297  0.21608400  0.26760403  1
  Li  Li8  1  0.21608398  0.56214899  0.26760402  1
  Mg  Mg9  1  0.56214896  0.95416298  0.26760405  1
