# generated using pymatgen
data_Li2SiP
_symmetry_space_group_name_H-M   'P 1'
_cell_length_a   3.68185973
_cell_length_b   3.68185973
_cell_length_c   6.00360632
_cell_angle_alpha   72.14330292
_cell_angle_beta   72.14330292
_cell_angle_gamma   60.00000381
_symmetry_Int_Tables_number   1
_chemical_formula_structural   Li2SiP
_chemical_formula_sum   'Li2 Si1 P1'
_cell_volume   65.91585080
_cell_formula_units_Z   1
loop_
 _symmetry_equiv_pos_site_id
 _symmetry_equiv_pos_as_xyz
  1  'x, y, z'
loop_
 _atom_site_type_symbol
 _atom_site_label
 _atom_site_symmetry_multiplicity
 _atom_site_fract_x
 _atom_site_fract_y
 _atom_site_fract_z
 _atom_site_occupancy
  Li  Li0  1  0.00000000  0.00000000  0.00000000  1
  Si  Si1  1  0.49999999  0.50000000  0.49999999  1
  P  P2  1  0.23870599  0.23870600  0.28388200  1
  Li  Li3  1  0.76129398  0.76129401  0.71611799  1
