# generated using pymatgen
data_MgSi(PS)2
_symmetry_space_group_name_H-M   'P 1'
_cell_length_a   4.39876509
_cell_length_b   4.43805027
_cell_length_c   11.03566742
_cell_angle_alpha   88.76142883
_cell_angle_beta   89.39898682
_cell_angle_gamma   61.22246552
_symmetry_Int_Tables_number   1
_chemical_formula_structural   MgSi(PS)2
_chemical_formula_sum   'Mg1 Si1 P2 S2'
_cell_volume   188.78600730
_cell_formula_units_Z   1
loop_
 _symmetry_equiv_pos_site_id
 _symmetry_equiv_pos_as_xyz
  1  'x, y, z'
loop_
 _atom_site_type_symbol
 _atom_site_label
 _atom_site_symmetry_multiplicity
 _atom_site_fract_x
 _atom_site_fract_y
 _atom_site_fract_z
 _atom_site_occupancy
  Mg  Mg0  1  0.98880400  0.73651798  0.99691197  1
  Si  Si1  1  0.26044799  0.00177200  0.17506200  1
  P  P2  1  0.24653800  0.01127700  0.66128000  1
  S  S3  1  0.76245099  0.23330599  0.34075999  1
  P  P4  1  0.75437499  0.23797199  0.82792499  1
  S  S5  1  0.98738400  0.77915398  0.49796097  1
