# generated using pymatgen
data_LiMgP3S5
_symmetry_space_group_name_H-M   'P 1'
_cell_length_a   6.39425230
_cell_length_b   6.39425230
_cell_length_c   6.39425230
_cell_angle_alpha   60.00000000
_cell_angle_beta   60.00000000
_cell_angle_gamma   60.00000000
_symmetry_Int_Tables_number   1
_chemical_formula_structural   LiMgP3S5
_chemical_formula_sum   'Li1 Mg1 P3 S5'
_cell_volume   184.86483493
_cell_formula_units_Z   1
loop_
 _symmetry_equiv_pos_site_id
 _symmetry_equiv_pos_as_xyz
  1  'x, y, z'
loop_
 _atom_site_type_symbol
 _atom_site_label
 _atom_site_symmetry_multiplicity
 _atom_site_fract_x
 _atom_site_fract_y
 _atom_site_fract_z
 _atom_site_occupancy
  Mg  Mg0  1  0.24999999  0.24999999  0.24999999  1
  S  S1  1  0.74999997  0.74999997  0.74999997  1
  S  S2  1  0.49999998  0.49999998  0.49999998  1
  S  S3  1  0.00000000  0.00000000  0.00000000  1
  P  P4  1  0.22886199  0.77113797  0.22886199  1
  Li  Li5  1  0.22886199  0.22886199  0.77113797  1
  P  P6  1  0.77113797  0.22886199  0.77113797  1
  P  P7  1  0.22886199  0.77113797  0.77113797  1
  S  S8  1  0.77113797  0.22886199  0.22886199  1
  S  S9  1  0.77113797  0.77113797  0.22886199  1
