# generated using pymatgen
data_TiTeS4
_symmetry_space_group_name_H-M   'P 1'
_cell_length_a   3.43574595
_cell_length_b   3.43574572
_cell_length_c   39.14773560
_cell_angle_alpha   90.00000000
_cell_angle_beta   90.00000000
_cell_angle_gamma   120.00000000
_symmetry_Int_Tables_number   1
_chemical_formula_structural   TiTeS4
_chemical_formula_sum   'Ti2 Te2 S8'
_cell_volume   400.20207455
_cell_formula_units_Z   2
loop_
 _symmetry_equiv_pos_site_id
 _symmetry_equiv_pos_as_xyz
  1  'x, y, z'
loop_
 _atom_site_type_symbol
 _atom_site_label
 _atom_site_symmetry_multiplicity
 _atom_site_fract_x
 _atom_site_fract_y
 _atom_site_fract_z
 _atom_site_occupancy
  Te  Te0  1  0.66666666  0.33333333  0.04649200  1
  S  S1  1  0.33333330  0.66666665  0.95350796  1
  S  S2  1  0.33333330  0.66666665  0.85859597  1
  S  S3  1  0.66666666  0.33333333  0.14140399  1
  S  S4  1  0.66666666  0.33333333  0.90603896  1
  S  S5  1  0.33333330  0.66666665  0.09396100  1
  S  S6  1  0.66666666  0.33333333  0.28181899  1
  S  S7  1  0.33333330  0.66666665  0.71818097  1
  Te  Te8  1  0.66666666  0.33333333  0.67617697  1
  Ti  Ti9  1  0.33333330  0.66666665  0.32382299  1
  S  S10  1  0.33333330  0.66666665  0.23978199  1
  Ti  Ti11  1  0.66666666  0.33333333  0.76021797  1
