# generated using pymatgen
data_Y2(BrO5)3
_symmetry_space_group_name_H-M   'P 1'
_cell_length_a   3.99687099
_cell_length_b   6.07787991
_cell_length_c   10.07212353
_cell_angle_alpha   90.00000000
_cell_angle_beta   90.00000000
_cell_angle_gamma   90.00000000
_symmetry_Int_Tables_number   1
_chemical_formula_structural   Y2(BrO5)3
_chemical_formula_sum   'Y2 Br3 O15'
_cell_volume   244.67707997
_cell_formula_units_Z   1
loop_
 _symmetry_equiv_pos_site_id
 _symmetry_equiv_pos_as_xyz
  1  'x, y, z'
loop_
 _atom_site_type_symbol
 _atom_site_label
 _atom_site_symmetry_multiplicity
 _atom_site_fract_x
 _atom_site_fract_y
 _atom_site_fract_z
 _atom_site_occupancy
  Y  Y0  1  0.50000000  0.34651801  0.34121802  1
  Br  Br1  1  0.50000000  0.65348201  0.84121804  1
  O  O2  1  -0.00000000  0.16017000  0.66047203  1
  O  O3  1  -0.00000000  0.83983001  0.16047201  1
  O  O4  1  0.50000000  0.42606101  0.09104000  1
  O  O5  1  0.50000000  0.57393901  0.59104003  1
  O  O6  1  -0.00000000  0.06443700  0.90809504  1
  O  O7  1  -0.00000000  0.93556301  0.40809502  1
  O  O8  1  0.50000000  0.08886600  0.03869400  1
  Br  Br9  1  0.50000000  0.91113401  0.53869403  1
  Br  Br10  1  -0.00000000  0.37387601  0.96659605  1
  O  O11  1  -0.00000000  0.62612401  0.46659602  1
  O  O12  1  0.50000000  0.58623601  0.10457800  1
  O  O13  1  0.50000000  0.41376401  0.60457803  1
  O  O14  1  -0.00000000  0.90292701  0.90070704  1
  Y  Y15  1  -0.00000000  0.09707300  0.40070702  1
  O  O16  1  0.50000000  0.10512900  0.13536001  1
  O  O17  1  0.50000000  0.89487101  0.63536003  1
  O  O18  1  -0.00000000  0.38334701  0.86942804  1
  O  O19  1  -0.00000000  0.61665301  0.36942802  1
