# generated using pymatgen
data_Li2PS(O3F2)2
_symmetry_space_group_name_H-M   'P 1'
_cell_length_a   3.74191594
_cell_length_b   3.74191594
_cell_length_c   12.91215801
_cell_angle_alpha   90.00000000
_cell_angle_beta   90.00000000
_cell_angle_gamma   90.00000000
_symmetry_Int_Tables_number   1
_chemical_formula_structural   Li2PS(O3F2)2
_chemical_formula_sum   'Li2 P1 S1 O6 F4'
_cell_volume   180.79519605
_cell_formula_units_Z   1
loop_
 _symmetry_equiv_pos_site_id
 _symmetry_equiv_pos_as_xyz
  1  'x, y, z'
loop_
 _atom_site_type_symbol
 _atom_site_label
 _atom_site_symmetry_multiplicity
 _atom_site_fract_x
 _atom_site_fract_y
 _atom_site_fract_z
 _atom_site_occupancy
  F  F0  1  0.50000001  0.00000000  0.58319700  1
  F  F1  1  -0.00000000  0.50000001  0.41680300  1
  O  O2  1  -0.00000000  0.50000001  0.10575200  1
  O  O3  1  0.50000001  0.00000000  0.89424800  1
  F  F4  1  0.50000001  0.00000000  0.26648500  1
  O  O5  1  -0.00000000  0.50000001  0.73351500  1
  S  S6  1  -0.00000000  0.50000001  0.93357900  1
  P  P7  1  0.50000001  0.00000000  0.06642100  1
  F  F8  1  -0.00000000  0.50000001  0.59642100  1
  O  O9  1  0.50000001  0.00000000  0.40357900  1
  Li  Li10  1  0.00000000  0.00000000  0.22828000  1
  Li  Li11  1  0.50000001  0.50000001  0.22828000  1
  O  O12  1  0.00000000  0.00000000  0.77172000  1
  O  O13  1  0.50000001  0.50000001  0.77172000  1
