# generated using pymatgen
data_MgP5(SeS)3
_symmetry_space_group_name_H-M   'P 1'
_cell_length_a   5.58080816
_cell_length_b   5.66383028
_cell_length_c   5.58634520
_cell_angle_alpha   60.66920853
_cell_angle_beta   89.59870911
_cell_angle_gamma   119.29875946
_symmetry_Int_Tables_number   1
_chemical_formula_structural   MgP5(SeS)3
_chemical_formula_sum   'Mg1 P5 Se3 S3'
_cell_volume   126.98386799
_cell_formula_units_Z   1
loop_
 _symmetry_equiv_pos_site_id
 _symmetry_equiv_pos_as_xyz
  1  'x, y, z'
loop_
 _atom_site_type_symbol
 _atom_site_label
 _atom_site_symmetry_multiplicity
 _atom_site_fract_x
 _atom_site_fract_y
 _atom_site_fract_z
 _atom_site_occupancy
  Mg  Mg0  1  0.00001504  0.50002804  0.99995498  1
  P  P1  1  0.00001504  0.50002904  0.50001598  1
  P  P2  1  0.49995908  0.99997408  0.50001195  1
  P  P3  1  0.00001607  0.99997508  0.50001197  1
  P  P4  1  0.76752902  0.03264500  0.25913397  1
  S  S5  1  0.20843904  0.46750104  0.26500698  1
  S  S6  1  0.23247207  0.96735408  0.74086296  1
  P  P7  1  0.23507107  0.96753808  0.29163797  1
  Se  Se8  1  0.79157205  0.53249904  0.73499295  1
  Se  Se9  1  0.24095004  0.53271404  0.73247397  1
  S  S10  1  0.76492901  0.03246100  0.70836697  1
  Se  Se11  1  0.75904005  0.46728504  0.26752696  1
