# generated using pymatgen
data_TeBrCl8
_symmetry_space_group_name_H-M   'P 1'
_cell_length_a   9.03230953
_cell_length_b   9.03230953
_cell_length_c   9.03230953
_cell_angle_alpha   60.00000000
_cell_angle_beta   60.00000000
_cell_angle_gamma   60.00000000
_symmetry_Int_Tables_number   1
_chemical_formula_structural   TeBrCl8
_chemical_formula_sum   'Te1 Br1 Cl8'
_cell_volume   521.05244576
_cell_formula_units_Z   1
loop_
 _symmetry_equiv_pos_site_id
 _symmetry_equiv_pos_as_xyz
  1  'x, y, z'
loop_
 _atom_site_type_symbol
 _atom_site_label
 _atom_site_symmetry_multiplicity
 _atom_site_fract_x
 _atom_site_fract_y
 _atom_site_fract_z
 _atom_site_occupancy
  Te  Te0  1  0.24999999  0.24999999  0.24999999  1
  Cl  Cl1  1  0.74999996  0.74999996  0.74999996  1
  Cl  Cl2  1  0.00000000  0.00000000  0.00000000  1
  Cl  Cl3  1  0.49999997  0.49999997  0.49999997  1
  Br  Br4  1  0.23744899  0.76255096  0.23744899  1
  Cl  Cl5  1  0.23744899  0.23744899  0.76255096  1
  Cl  Cl6  1  0.76255096  0.23744899  0.76255096  1
  Cl  Cl7  1  0.23744899  0.76255096  0.76255096  1
  Cl  Cl8  1  0.76255096  0.23744899  0.23744899  1
  Cl  Cl9  1  0.76255096  0.76255096  0.23744899  1
