# generated using pymatgen
data_TeP2S2Cl7
_symmetry_space_group_name_H-M   'P 1'
_cell_length_a   6.97049522
_cell_length_b   6.97049522
_cell_length_c   9.02564716
_cell_angle_alpha   90.00000000
_cell_angle_beta   90.00000000
_cell_angle_gamma   90.00000000
_symmetry_Int_Tables_number   1
_chemical_formula_structural   TeP2S2Cl7
_chemical_formula_sum   'Te1 P2 S2 Cl7'
_cell_volume   438.53637235
_cell_formula_units_Z   1
loop_
 _symmetry_equiv_pos_site_id
 _symmetry_equiv_pos_as_xyz
  1  'x, y, z'
loop_
 _atom_site_type_symbol
 _atom_site_label
 _atom_site_symmetry_multiplicity
 _atom_site_fract_x
 _atom_site_fract_y
 _atom_site_fract_z
 _atom_site_occupancy
  Te  Te0  1  0.49999998  0.49999998  0.00000000  1
  Cl  Cl1  1  0.00000000  0.00000000  0.00000000  1
  S  S2  1  0.49999998  0.49999998  0.49999999  1
  S  S3  1  0.00000000  0.00000000  0.49999999  1
  Cl  Cl4  1  0.35640899  0.85640897  0.28498599  1
  Cl  Cl5  1  0.14359100  0.35640899  0.28498599  1
  Cl  Cl6  1  0.85640897  0.64359098  0.28498599  1
  Cl  Cl7  1  0.35640899  0.14359100  0.71501399  1
  P  P8  1  0.64359098  0.85640897  0.71501399  1
  Cl  Cl9  1  0.64359098  0.14359100  0.28498599  1
  P  P10  1  0.85640897  0.35640899  0.71501399  1
  Cl  Cl11  1  0.14359100  0.64359098  0.71501399  1
