# generated using pymatgen
data_LiF
_symmetry_space_group_name_H-M   'P 1'
_cell_length_a   5.19494915
_cell_length_b   5.99848127
_cell_length_c   6.70847368
_cell_angle_alpha   77.09430695
_cell_angle_beta   75.01824188
_cell_angle_gamma   73.21405792
_symmetry_Int_Tables_number   1
_chemical_formula_structural   LiF
_chemical_formula_sum   'Li10 F10'
_cell_volume   190.82251985
_cell_formula_units_Z   10
loop_
 _symmetry_equiv_pos_site_id
 _symmetry_equiv_pos_as_xyz
  1  'x, y, z'
loop_
 _atom_site_type_symbol
 _atom_site_label
 _atom_site_symmetry_multiplicity
 _atom_site_fract_x
 _atom_site_fract_y
 _atom_site_fract_z
 _atom_site_occupancy
  Li  Li0  1  0.00000003  0.49999998  -0.00000002  1
  Li  Li1  1  0.39994799  0.09943100  0.20084602  1
  Li  Li2  1  0.40134701  0.59999298  0.20014199  1
  Li  Li3  1  0.80002798  0.19918399  0.40189303  1
  Li  Li4  1  0.20098201  0.29956599  0.59890200  1
  Li  Li5  1  0.79901800  0.70043397  0.40109801  1
  Li  Li6  1  0.19997203  0.80081597  0.59810698  1
  Li  Li7  1  0.59865300  0.40000698  0.79985802  1
  Li  Li8  1  0.60005202  0.90056897  0.79915400  1
  Li  Li9  1  0.00000000  0.00000000  0.00000000  1
  F  F10  1  0.69593399  0.29806099  0.10006502  1
  F  F11  1  0.10053502  0.39873698  0.30403899  1
  F  F12  1  0.69724401  0.80342397  0.10092699  1
  F  F13  1  0.09906204  0.90053997  0.29978496  1
  F  F14  1  0.90093797  0.09946000  0.70021505  1
  F  F15  1  0.50000001  0.49999998  0.50000001  1
  F  F16  1  0.30275600  0.19657599  0.89907302  1
  F  F17  1  0.89946499  0.60126298  0.69596102  1
  F  F18  1  0.49999998  0.00000000  0.50000003  1
  F  F19  1  0.30406602  0.70193897  0.89993499  1
