# generated using pymatgen
data_LiPSe3S2F
_symmetry_space_group_name_H-M   'P 1'
_cell_length_a   4.31339598
_cell_length_b   5.29215717
_cell_length_c   5.46531200
_cell_angle_alpha   90.00000000
_cell_angle_beta   90.00000000
_cell_angle_gamma   90.00000000
_symmetry_Int_Tables_number   1
_chemical_formula_structural   LiPSe3S2F
_chemical_formula_sum   'Li1 P1 Se3 S2 F1'
_cell_volume   124.75760327
_cell_formula_units_Z   1
loop_
 _symmetry_equiv_pos_site_id
 _symmetry_equiv_pos_as_xyz
  1  'x, y, z'
loop_
 _atom_site_type_symbol
 _atom_site_label
 _atom_site_symmetry_multiplicity
 _atom_site_fract_x
 _atom_site_fract_y
 _atom_site_fract_z
 _atom_site_occupancy
  F  F0  1  0.50000000  0.00000000  -0.00000000  1
  Se  Se1  1  0.00000000  0.00000000  0.50000000  1
  S  S2  1  0.50000000  0.49999998  0.50000000  1
  S  S3  1  -0.00000000  0.49999998  0.00000000  1
  Se  Se4  1  0.25000000  0.70442698  0.75000000  1
  Li  Li5  1  0.25000000  0.70442698  0.25000000  1
  Se  Se6  1  0.75000000  0.29557299  0.25000000  1
  P  P7  1  0.75000000  0.29557299  0.75000000  1
