# generated using pymatgen
data_Li6P2SNO2
_symmetry_space_group_name_H-M   'P 1'
_cell_length_a   5.54618597
_cell_length_b   5.54618597
_cell_length_c   7.04440260
_cell_angle_alpha   113.18237305
_cell_angle_beta   113.18237305
_cell_angle_gamma   90.00000000
_symmetry_Int_Tables_number   1
_chemical_formula_structural   Li6P2SNO2
_chemical_formula_sum   'Li6 P2 S1 N1 O2'
_cell_volume   180.00228691
_cell_formula_units_Z   1
loop_
 _symmetry_equiv_pos_site_id
 _symmetry_equiv_pos_as_xyz
  1  'x, y, z'
loop_
 _atom_site_type_symbol
 _atom_site_label
 _atom_site_symmetry_multiplicity
 _atom_site_fract_x
 _atom_site_fract_y
 _atom_site_fract_z
 _atom_site_occupancy
  Li  Li0  1  0.50000003  0.50000002  0.00000004  1
  N  N1  1  0.25000004  0.75000002  0.50000004  1
  Li  Li2  1  0.75000003  0.25000001  0.50000003  1
  Li  Li3  1  0.00000000  0.00000000  0.00000000  1
  Li  Li4  1  0.64244303  0.28636801  0.82857002  1
  S  S5  1  0.03636802  0.43612601  0.32856902  1
  P  P6  1  0.29220205  0.89244403  0.32857105  1
  O  O7  1  0.18612703  0.54220202  0.82857002  1
  Li  Li8  1  0.56387305  0.70779802  0.67143004  1
  O  O9  1  0.45779803  0.35755601  0.17142903  1
  Li  Li10  1  0.71363205  0.81387403  0.17143107  1
  P  P11  1  0.10755705  0.96363203  0.67143004  1
