# generated using pymatgen
data_Li5S2NF2
_symmetry_space_group_name_H-M   'P 1'
_cell_length_a   5.94184208
_cell_length_b   5.94184208
_cell_length_c   5.94184208
_cell_angle_alpha   60.00000000
_cell_angle_beta   60.00000000
_cell_angle_gamma   60.00000000
_symmetry_Int_Tables_number   1
_chemical_formula_structural   Li5S2NF2
_chemical_formula_sum   'Li5 S2 N1 F2'
_cell_volume   148.33659895
_cell_formula_units_Z   1
loop_
 _symmetry_equiv_pos_site_id
 _symmetry_equiv_pos_as_xyz
  1  'x, y, z'
loop_
 _atom_site_type_symbol
 _atom_site_label
 _atom_site_symmetry_multiplicity
 _atom_site_fract_x
 _atom_site_fract_y
 _atom_site_fract_z
 _atom_site_occupancy
  F  F0  1  0.74999997  0.74999997  0.74999997  1
  Li  Li1  1  0.24999999  0.24999999  0.24999999  1
  S  S2  1  0.00000000  0.00000000  0.00000000  1
  S  S3  1  0.49999998  0.49999998  0.49999998  1
  Li  Li4  1  0.24816425  0.75183571  0.24816425  1
  F  F5  1  0.75183571  0.24816425  0.75183571  1
  N  N6  1  0.75183571  0.24816425  0.24816425  1
  Li  Li7  1  0.24816425  0.75183571  0.75183571  1
  Li  Li8  1  0.75183571  0.75183571  0.24816425  1
  Li  Li9  1  0.24816425  0.24816425  0.75183571  1
