# generated using pymatgen
data_Li2MgSi9TeP2S5
_symmetry_space_group_name_H-M   'P 1'
_cell_length_a   5.62581015
_cell_length_b   5.62581015
_cell_length_c   8.87606144
_cell_angle_alpha   108.47610474
_cell_angle_beta   108.47610474
_cell_angle_gamma   90.00000000
_symmetry_Int_Tables_number   1
_chemical_formula_structural   Li2MgSi9TeP2S5
_chemical_formula_sum   'Li2 Mg1 Si9 Te1 P2 S5'
_cell_volume   251.13145884
_cell_formula_units_Z   1
loop_
 _symmetry_equiv_pos_site_id
 _symmetry_equiv_pos_as_xyz
  1  'x, y, z'
loop_
 _atom_site_type_symbol
 _atom_site_label
 _atom_site_symmetry_multiplicity
 _atom_site_fract_x
 _atom_site_fract_y
 _atom_site_fract_z
 _atom_site_occupancy
  Mg  Mg0  1  0.24746699  0.24746699  0.49493397  1
  Si  Si1  1  0.75253296  0.75253297  0.50506595  1
  Si  Si2  1  0.00000000  0.00000000  0.00000000  1
  Si  Si3  1  0.49999997  0.49999998  -0.00000002  1
  Si  Si4  1  0.87838896  0.37838899  0.75677795  1
  Si  Si5  1  0.12161098  0.62161098  0.24322197  1
  Si  Si6  1  0.37838897  0.87838897  0.75677794  1
  P  P7  1  0.62161098  0.12161100  0.24322198  1
  S  S8  1  0.62417898  0.13728599  0.76146495  1
  P  P9  1  0.86271396  0.37582099  0.23853497  1
  S  S10  1  0.13728598  0.62417898  0.76146495  1
  S  S11  1  0.37582097  0.86271397  0.23853497  1
  Si  Si12  1  0.62417897  0.62417898  0.76146494  1
  Si  Si13  1  0.86271395  0.86271397  0.23853496  1
  S  S14  1  0.13728599  0.13728599  0.76146496  1
  S  S15  1  0.37582098  0.37582099  0.23853498  1
  Li  Li16  1  0.74999997  0.24999999  0.49999996  1
  Si  Si17  1  -0.00000001  0.49999998  0.99999995  1
  Li  Li18  1  0.24999998  0.74999997  0.49999996  1
  Te  Te19  1  0.49999998  0.00000000  -0.00000001  1
