# generated using pymatgen
data_SiP
_symmetry_space_group_name_H-M   'P 1'
_cell_length_a   4.05352783
_cell_length_b   4.05352688
_cell_length_c   6.66241693
_cell_angle_alpha   90.00000000
_cell_angle_beta   90.00000000
_cell_angle_gamma   120.00000763
_symmetry_Int_Tables_number   1
_chemical_formula_structural   SiP
_chemical_formula_sum   'Si2 P2'
_cell_volume   94.80442797
_cell_formula_units_Z   2
loop_
 _symmetry_equiv_pos_site_id
 _symmetry_equiv_pos_as_xyz
  1  'x, y, z'
loop_
 _atom_site_type_symbol
 _atom_site_label
 _atom_site_symmetry_multiplicity
 _atom_site_fract_x
 _atom_site_fract_y
 _atom_site_fract_z
 _atom_site_occupancy
  P  P0  1  0.66666669  0.33333333  0.99941601  1
  Si  Si1  1  0.33333333  0.66666667  0.49941600  1
  P  P2  1  0.66666669  0.33333333  0.62558401  1
  Si  Si3  1  0.33333333  0.66666667  0.12558400  1
