# generated using pymatgen
data_LiP7S6BrCl
_symmetry_space_group_name_H-M   'P 1'
_cell_length_a   5.35312700
_cell_length_b   5.35312700
_cell_length_c   10.06038380
_cell_angle_alpha   90.00000000
_cell_angle_beta   90.00000000
_cell_angle_gamma   90.00000000
_symmetry_Int_Tables_number   1
_chemical_formula_structural   LiP7S6BrCl
_chemical_formula_sum   'Li1 P7 S6 Br1 Cl1'
_cell_volume   288.29004326
_cell_formula_units_Z   1
loop_
 _symmetry_equiv_pos_site_id
 _symmetry_equiv_pos_as_xyz
  1  'x, y, z'
loop_
 _atom_site_type_symbol
 _atom_site_label
 _atom_site_symmetry_multiplicity
 _atom_site_fract_x
 _atom_site_fract_y
 _atom_site_fract_z
 _atom_site_occupancy
  Br  Br0  1  0.50000000  0.50000000  0.50000001  1
  P  P1  1  0.50000000  0.50000000  0.00000000  1
  P  P2  1  0.00000000  0.00000000  0.25000001  1
  P  P3  1  0.00000000  0.00000000  0.75000002  1
  S  S4  1  0.74234900  0.25765100  0.25000001  1
  P  P5  1  0.25765100  0.74234900  0.25000001  1
  P  P6  1  0.74234900  0.74234900  0.75000002  1
  P  P7  1  0.25765100  0.25765100  0.75000002  1
  S  S8  1  0.17138000  0.19168500  0.38583901  1
  P  P9  1  0.82862000  0.80831500  0.38583901  1
  S  S10  1  0.17138000  0.80831500  0.88583902  1
  S  S11  1  0.82862000  0.19168500  0.88583902  1
  S  S12  1  0.19168500  0.82862000  0.61416101  1
  Li  Li13  1  0.80831500  0.17138000  0.61416101  1
  Cl  Cl14  1  0.80831500  0.82862000  0.11416100  1
  S  S15  1  0.19168500  0.17138000  0.11416100  1
