# generated using pymatgen
data_Li4SeSNO2F
_symmetry_space_group_name_H-M   'P 1'
_cell_length_a   5.77930117
_cell_length_b   5.77930117
_cell_length_c   5.77930117
_cell_angle_alpha   60.00000000
_cell_angle_beta   60.00000000
_cell_angle_gamma   60.00000000
_symmetry_Int_Tables_number   1
_chemical_formula_structural   Li4SeSNO2F
_chemical_formula_sum   'Li4 Se1 S1 N1 O2 F1'
_cell_volume   136.49318949
_cell_formula_units_Z   1
loop_
 _symmetry_equiv_pos_site_id
 _symmetry_equiv_pos_as_xyz
  1  'x, y, z'
loop_
 _atom_site_type_symbol
 _atom_site_label
 _atom_site_symmetry_multiplicity
 _atom_site_fract_x
 _atom_site_fract_y
 _atom_site_fract_z
 _atom_site_occupancy
  F  F0  1  0.75000001  0.75000001  0.75000001  1
  Li  Li1  1  0.25000000  0.25000000  0.25000000  1
  N  N2  1  0.50000000  0.50000000  0.50000000  1
  S  S3  1  0.00000000  0.00000000  0.00000000  1
  Li  Li4  1  0.24387147  0.75612854  0.24387147  1
  Li  Li5  1  0.75612854  0.24387147  0.75612854  1
  O  O6  1  0.75612854  0.24387147  0.24387147  1
  O  O7  1  0.24387147  0.75612854  0.75612854  1
  Se  Se8  1  0.75612854  0.75612854  0.24387147  1
  Li  Li9  1  0.24387147  0.24387147  0.75612854  1
