# generated using pymatgen
data_LiSiP3S13
_symmetry_space_group_name_H-M   'P 1'
_cell_length_a   5.93197393
_cell_length_b   6.59917307
_cell_length_c   6.59917307
_cell_angle_alpha   90.00000000
_cell_angle_beta   90.00000000
_cell_angle_gamma   90.00000000
_symmetry_Int_Tables_number   1
_chemical_formula_structural   LiSiP3S13
_chemical_formula_sum   'Li1 Si1 P3 S13'
_cell_volume   258.33203823
_cell_formula_units_Z   1
loop_
 _symmetry_equiv_pos_site_id
 _symmetry_equiv_pos_as_xyz
  1  'x, y, z'
loop_
 _atom_site_type_symbol
 _atom_site_label
 _atom_site_symmetry_multiplicity
 _atom_site_fract_x
 _atom_site_fract_y
 _atom_site_fract_z
 _atom_site_occupancy
  Li  Li0  1  1.00000001  0.49999999  0.49999999  1
  Si  Si1  1  0.00000000  0.00000000  0.00000000  1
  P  P2  1  0.50000001  0.67391699  0.82608299  1
  P  P3  1  0.50000001  0.82608299  0.32608300  1
  S  S4  1  0.50000001  0.17391700  0.67391699  1
  S  S5  1  0.50000001  0.32608300  0.17391700  1
  S  S6  1  1.00000001  0.49999999  0.00000000  1
  S  S7  1  1.00000001  0.00000000  0.49999999  1
  S  S8  1  0.50000001  0.49999999  0.49999999  1
  S  S9  1  0.50000001  0.00000000  0.00000000  1
  S  S10  1  0.74014301  0.14020500  0.35979500  1
  S  S11  1  0.74014301  0.85979499  0.64020499  1
  P  P12  1  0.74014301  0.64020499  0.14020500  1
  S  S13  1  0.74014301  0.35979500  0.85979499  1
  S  S14  1  0.25985700  0.85979499  0.64020499  1
  S  S15  1  0.25985700  0.64020499  0.14020500  1
  S  S16  1  0.25985700  0.14020500  0.35979500  1
  S  S17  1  0.25985700  0.35979500  0.85979499  1
