# generated using pymatgen
data_S2OF9
_symmetry_space_group_name_H-M   'P 1'
_cell_length_a   4.25684404
_cell_length_b   4.25684404
_cell_length_c   11.44932842
_cell_angle_alpha   100.71356964
_cell_angle_beta   100.71356964
_cell_angle_gamma   90.00000000
_symmetry_Int_Tables_number   1
_chemical_formula_structural   S2OF9
_chemical_formula_sum   'S2 O1 F9'
_cell_volume   200.17185495
_cell_formula_units_Z   1
loop_
 _symmetry_equiv_pos_site_id
 _symmetry_equiv_pos_as_xyz
  1  'x, y, z'
loop_
 _atom_site_type_symbol
 _atom_site_label
 _atom_site_symmetry_multiplicity
 _atom_site_fract_x
 _atom_site_fract_y
 _atom_site_fract_z
 _atom_site_occupancy
  F  F0  1  0.00000000  0.00000000  0.00000000  1
  F  F1  1  0.81447701  0.81447700  0.62895400  1
  F  F2  1  0.18552300  0.18552300  0.37104599  1
  O  O3  1  0.59736601  0.59736600  0.19473201  1
  F  F4  1  0.40263400  0.40263400  0.80526799  1
  F  F5  1  0.09619301  0.59619300  0.19238600  1
  F  F6  1  0.50000000  0.50000000  0.00000001  1
  S  S7  1  0.69318901  0.69318900  0.38637801  1
  F  F8  1  0.40380701  0.90380700  0.80761399  1
  F  F9  1  0.59619300  0.09619300  0.19238600  1
  S  S10  1  0.30681100  0.30681100  0.61362199  1
  F  F11  1  0.90380700  0.40380700  0.80761399  1
