# generated using pymatgen
data_CsSi6AsP4S4Cl3
_symmetry_space_group_name_H-M   'P 1'
_cell_length_a   5.24210024
_cell_length_b   8.51004791
_cell_length_c   10.42847729
_cell_angle_alpha   111.38402557
_cell_angle_beta   104.55657196
_cell_angle_gamma   90.00000000
_symmetry_Int_Tables_number   1
_chemical_formula_structural   CsSi6AsP4S4Cl3
_chemical_formula_sum   'Cs1 Si6 As1 P4 S4 Cl3'
_cell_volume   417.11430760
_cell_formula_units_Z   1
loop_
 _symmetry_equiv_pos_site_id
 _symmetry_equiv_pos_as_xyz
  1  'x, y, z'
loop_
 _atom_site_type_symbol
 _atom_site_label
 _atom_site_symmetry_multiplicity
 _atom_site_fract_x
 _atom_site_fract_y
 _atom_site_fract_z
 _atom_site_occupancy
  Cs  Cs0  1  0.49999998  0.49999998  0.00000001  1
  S  S1  1  0.04003499  0.24098399  0.08007000  1
  P  P2  1  0.95996496  0.75901597  0.91993002  1
  P  P3  1  0.32556898  0.55181198  0.65113801  1
  S  S4  1  0.67443097  0.44818798  0.34886201  1
  S  S5  1  0.41331499  0.00929600  0.82663001  1
  P  P6  1  0.58668497  0.99070396  0.17337001  1
  Cl  Cl7  1  0.80387097  0.17265299  0.60774201  1
  Cl  Cl8  1  0.19612898  0.82734697  0.39225801  1
  Cl  Cl9  1  0.19196099  0.19651499  0.38392200  1
  Si  Si10  1  0.80803896  0.80348497  0.61607801  1
  Si  Si11  1  0.11428800  0.01499900  0.22857600  1
  Si  Si12  1  0.88571196  0.98500096  0.77142402  1
  P  P13  1  0.18404199  0.39038799  0.36808501  1
  Si  Si14  1  0.81595796  0.60961198  0.63191501  1
  Si  Si15  1  0.27534299  0.18146599  0.55068601  1
  Si  Si16  1  0.72465696  0.81853397  0.44931401  1
  As  As17  1  0.53641798  0.24388799  0.07283501  1
  S  S18  1  0.46358197  0.75611197  0.92716501  1
