# generated using pymatgen
data_Si2P7HS4
_symmetry_space_group_name_H-M   'P 1'
_cell_length_a   6.24521685
_cell_length_b   7.23917580
_cell_length_c   7.86554575
_cell_angle_alpha   107.76536560
_cell_angle_beta   90.00000000
_cell_angle_gamma   115.55317688
_symmetry_Int_Tables_number   1
_chemical_formula_structural   Si2P7HS4
_chemical_formula_sum   'Si2 P7 H1 S4'
_cell_volume   301.91524958
_cell_formula_units_Z   1
loop_
 _symmetry_equiv_pos_site_id
 _symmetry_equiv_pos_as_xyz
  1  'x, y, z'
loop_
 _atom_site_type_symbol
 _atom_site_label
 _atom_site_symmetry_multiplicity
 _atom_site_fract_x
 _atom_site_fract_y
 _atom_site_fract_z
 _atom_site_occupancy
  H  H0  1  0.49223410  0.98446804  0.20541505  1
  Si  Si1  1  0.50776601  0.01553200  0.79458498  1
  P  P2  1  0.17374804  0.34749501  0.72977200  1
  Si  Si3  1  0.82625208  0.65250503  0.27022803  1
  S  S4  1  0.15053503  0.30107101  0.20844601  1
  S  S5  1  0.84946508  0.69892903  0.79155401  1
  P  P6  1  0.32115307  0.64230503  0.41246902  1
  S  S7  1  0.67884705  0.35769502  0.58753100  1
  P  P8  1  0.05225201  0.10450400  0.32025300  1
  S  S9  1  0.94774810  0.89549604  0.67974703  1
  P  P10  1  0.89786205  0.26760101  0.07207201  1
  P  P11  1  0.36973903  0.26760101  0.07207201  1
  P  P12  1  0.10213807  0.73239903  0.92792801  1
  P  P13  1  0.63026108  0.73239903  0.92792801  1
