# generated using pymatgen
data_SiP2
_symmetry_space_group_name_H-M   'P 1'
_cell_length_a   4.13386679
_cell_length_b   4.13386679
_cell_length_c   6.95836210
_cell_angle_alpha   90.00000000
_cell_angle_beta   90.00000000
_cell_angle_gamma   90.00000000
_symmetry_Int_Tables_number   1
_chemical_formula_structural   SiP2
_chemical_formula_sum   'Si2 P4'
_cell_volume   118.91043831
_cell_formula_units_Z   2
loop_
 _symmetry_equiv_pos_site_id
 _symmetry_equiv_pos_as_xyz
  1  'x, y, z'
loop_
 _atom_site_type_symbol
 _atom_site_label
 _atom_site_symmetry_multiplicity
 _atom_site_fract_x
 _atom_site_fract_y
 _atom_site_fract_z
 _atom_site_occupancy
  P  P0  1  -0.00000000  0.50000003  0.82634399  1
  Si  Si1  1  0.50000003  0.00000000  0.17365600  1
  Si  Si2  1  0.50000003  0.00000000  0.63068699  1
  P  P3  1  -0.00000000  0.50000003  0.36931299  1
  P  P4  1  0.00000000  0.00000000  0.00000000  1
  P  P5  1  0.50000003  0.50000003  0.00000000  1
