# generated using pymatgen
data_SiPH2
_symmetry_space_group_name_H-M   'P 1'
_cell_length_a   5.60161781
_cell_length_b   5.60161781
_cell_length_c   5.60161781
_cell_angle_alpha   82.56332397
_cell_angle_beta   64.72757721
_cell_angle_gamma   116.33680725
_symmetry_Int_Tables_number   1
_chemical_formula_structural   SiPH2
_chemical_formula_sum   'Si2 P2 H4'
_cell_volume   130.96010363
_cell_formula_units_Z   2
loop_
 _symmetry_equiv_pos_site_id
 _symmetry_equiv_pos_as_xyz
  1  'x, y, z'
loop_
 _atom_site_type_symbol
 _atom_site_label
 _atom_site_symmetry_multiplicity
 _atom_site_fract_x
 _atom_site_fract_y
 _atom_site_fract_z
 _atom_site_occupancy
  P  P0  1  0.88156205  1.00000003  0.11843798  1
  Si  Si1  1  0.88156201  0.50000002  0.61843801  1
  H  H2  1  0.38636305  0.74621502  0.85985196  1
  H  H3  1  0.39393301  0.25378501  0.35985200  1
  Si  Si4  1  0.66884301  0.39777001  0.22892701  1
  H  H5  1  0.37330204  0.60222902  0.72892797  1
  H  H6  1  0.40179406  0.88957603  0.98778195  1
  P  P7  1  0.12264200  0.11042400  0.48778199  1
