# generated using pymatgen
data_Br2O7
_symmetry_space_group_name_H-M   'P 1'
_cell_length_a   3.56470275
_cell_length_b   8.13858986
_cell_length_c   9.02682877
_cell_angle_alpha   63.20497513
_cell_angle_beta   84.96786499
_cell_angle_gamma   78.78010559
_symmetry_Int_Tables_number   1
_chemical_formula_structural   Br2O7
_chemical_formula_sum   'Br4 O14'
_cell_volume   229.29573978
_cell_formula_units_Z   2
loop_
 _symmetry_equiv_pos_site_id
 _symmetry_equiv_pos_as_xyz
  1  'x, y, z'
loop_
 _atom_site_type_symbol
 _atom_site_label
 _atom_site_symmetry_multiplicity
 _atom_site_fract_x
 _atom_site_fract_y
 _atom_site_fract_z
 _atom_site_occupancy
  O  O0  1  0.72252808  0.44818100  0.22532600  1
  O  O1  1  0.72252811  0.67350700  0.77467403  1
  O  O2  1  0.05112810  0.75708400  0.36388703  1
  O  O3  1  0.05112802  0.12097100  0.63611303  1
  O  O4  1  0.39456104  0.20110900  1.00000004  1
  O  O5  1  0.09529011  0.82852400  0.00000001  1
  O  O6  1  0.47656407  0.44680300  0.61156902  1
  O  O7  1  0.47656402  0.05837200  0.38843101  1
  Br  Br8  1  0.47395605  0.25803400  0.71572703  1
  Br  Br9  1  0.47395614  0.97376100  0.28427302  1
  O  O10  1  0.81557108  0.37196300  1.00000003  1
  O  O11  1  0.14312109  0.66726900  0.14905501  1
  O  O12  1  0.14312111  0.81632400  0.85094505  1
  Br  Br13  1  0.00038000  0.00256900  0.00000000  1
  O  O14  1  0.67100009  0.50326400  0.46206102  1
  Br  Br15  1  0.67100015  0.96532500  0.53793903  1
  O  O16  1  0.27925208  0.58198000  0.65648003  1
  O  O17  1  0.27925204  0.23846000  0.34352001  1
