# generated using pymatgen
data_MgSi3(P3S)2
_symmetry_space_group_name_H-M   'P 1'
_cell_length_a   5.50337219
_cell_length_b   5.50337219
_cell_length_c   6.64895582
_cell_angle_alpha   114.44706726
_cell_angle_beta   114.44706726
_cell_angle_gamma   90.00000000
_symmetry_Int_Tables_number   1
_chemical_formula_structural   MgSi3(P3S)2
_chemical_formula_sum   'Mg1 Si3 P6 S2'
_cell_volume   163.28390211
_cell_formula_units_Z   1
loop_
 _symmetry_equiv_pos_site_id
 _symmetry_equiv_pos_as_xyz
  1  'x, y, z'
loop_
 _atom_site_type_symbol
 _atom_site_label
 _atom_site_symmetry_multiplicity
 _atom_site_fract_x
 _atom_site_fract_y
 _atom_site_fract_z
 _atom_site_occupancy
  Mg  Mg0  1  0.75000002  0.74999999  0.50000005  1
  P  P1  1  0.25000001  0.25000000  0.50000000  1
  S  S2  1  1.00000000  0.50000000  0.00000006  1
  S  S3  1  0.49999999  0.00000000  0.00000002  1
  P  P4  1  0.94189202  0.81661099  0.25850306  1
  P  P5  1  0.68339001  0.55810899  0.74149903  1
  P  P6  1  0.05810801  0.18338900  0.74149699  1
  Si  Si7  1  0.55810799  0.05810800  0.74149800  1
  Si  Si8  1  0.31661001  0.44189100  0.25850102  1
  Si  Si9  1  0.81661000  0.31661000  0.25850203  1
  P  P10  1  0.44189203  0.94189199  0.25850205  1
  P  P11  1  0.18339003  0.68338999  0.74149802  1
