# generated using pymatgen
data_Li6SiP2Se
_symmetry_space_group_name_H-M   'P 1'
_cell_length_a   4.86105394
_cell_length_b   5.20246601
_cell_length_c   5.20246553
_cell_angle_alpha   120.00000763
_cell_angle_beta   90.00000000
_cell_angle_gamma   90.00000000
_symmetry_Int_Tables_number   1
_chemical_formula_structural   Li6SiP2Se
_chemical_formula_sum   'Li6 Si1 P2 Se1'
_cell_volume   113.94086236
_cell_formula_units_Z   1
loop_
 _symmetry_equiv_pos_site_id
 _symmetry_equiv_pos_as_xyz
  1  'x, y, z'
loop_
 _atom_site_type_symbol
 _atom_site_label
 _atom_site_symmetry_multiplicity
 _atom_site_fract_x
 _atom_site_fract_y
 _atom_site_fract_z
 _atom_site_occupancy
  Li  Li0  1  0.75000001  0.00000000  -0.00000000  1
  Li  Li1  1  0.25000000  0.00000000  -0.00000000  1
  Li  Li2  1  0.25000000  0.66666669  0.33333337  1
  Li  Li3  1  0.75000001  0.33333335  0.66666667  1
  P  P4  1  0.50000001  0.68890302  0.68890303  1
  Se  Se5  1  0.50000001  0.00000000  0.31109699  1
  Li  Li6  1  0.00000000  0.68890302  1.00000002  1
  Li  Li7  1  0.50000001  0.31109701  0.99999999  1
  Si  Si8  1  1.00000001  0.00000000  0.68890298  1
  P  P9  1  0.00000000  0.31109701  0.31109701  1
