# generated using pymatgen
data_Li9PS4BrO2F
_symmetry_space_group_name_H-M   'P 1'
_cell_length_a   4.68906736
_cell_length_b   4.68898678
_cell_length_c   9.28347492
_cell_angle_alpha   90.00127411
_cell_angle_beta   90.00154114
_cell_angle_gamma   90.78365326
_symmetry_Int_Tables_number   1
_chemical_formula_structural   Li9PS4BrO2F
_chemical_formula_sum   'Li9 P1 S4 Br1 O2 F1'
_cell_volume   204.09643812
_cell_formula_units_Z   1
loop_
 _symmetry_equiv_pos_site_id
 _symmetry_equiv_pos_as_xyz
  1  'x, y, z'
loop_
 _atom_site_type_symbol
 _atom_site_label
 _atom_site_symmetry_multiplicity
 _atom_site_fract_x
 _atom_site_fract_y
 _atom_site_fract_z
 _atom_site_occupancy
  Br  Br0  1  0.99206001  0.99205699  0.66313196  1
  Li  Li1  1  0.99908901  0.99909399  0.33333329  1
  Li  Li2  1  0.99214201  0.99213299  0.00356396  1
  S  S3  1  0.51152001  0.51151900  0.16643298  1
  Li  Li4  1  0.49285901  0.49285100  0.83331398  1
  Li  Li5  1  0.51140501  0.51141200  0.50022998  1
  Li  Li6  1  0.80463801  0.80463399  0.16548296  1
  F  F7  1  0.80455801  0.80454199  0.50119397  1
  Li  Li8  1  0.79758201  0.79756499  0.83336997  1
  S  S9  1  0.30148799  0.69505899  0.00005697  1
  Li  Li10  1  0.30530099  0.69945699  0.33333331  1
  O  O11  1  0.30136199  0.69499399  0.66666665  1
  S  S12  1  0.69505902  0.30147000  0.00005498  1
  P  P13  1  0.69944202  0.30530600  0.33333332  1
  O  O14  1  0.69496902  0.30133700  0.66666665  1
  Li  Li15  1  0.18768000  0.18769700  0.83332000  1
  S  S16  1  0.20446400  0.20446900  0.16695899  1
  Li  Li17  1  0.20438100  0.20440600  0.49969299  1
