# generated using pymatgen
data_SiH3
_symmetry_space_group_name_H-M   'P 1'
_cell_length_a   4.45057154
_cell_length_b   4.45057154
_cell_length_c   7.27885818
_cell_angle_alpha   90.00000000
_cell_angle_beta   90.00000000
_cell_angle_gamma   119.97308350
_symmetry_Int_Tables_number   1
_chemical_formula_structural   SiH3
_chemical_formula_sum   'Si3 H9'
_cell_volume   124.89446476
_cell_formula_units_Z   3
loop_
 _symmetry_equiv_pos_site_id
 _symmetry_equiv_pos_as_xyz
  1  'x, y, z'
loop_
 _atom_site_type_symbol
 _atom_site_label
 _atom_site_symmetry_multiplicity
 _atom_site_fract_x
 _atom_site_fract_y
 _atom_site_fract_z
 _atom_site_occupancy
  H  H0  1  0.33731601  0.66268398  0.30287499  1
  H  H1  1  0.66268398  0.33731599  0.80287498  1
  H  H2  1  0.45977600  0.54022398  0.48041699  1
  H  H3  1  0.54022399  0.45977599  0.98041698  1
  Si  Si4  1  0.90916997  0.44825499  0.51677399  1
  H  H5  1  0.55174498  0.09083000  0.51677399  1
  Si  Si6  1  0.09083001  0.55174498  0.01677400  1
  Si  Si7  1  0.44825501  0.90916997  0.01677400  1
  H  H8  1  0.33539101  0.66460898  0.43975099  1
  H  H9  1  0.66460898  0.33539099  0.93975098  1
  H  H10  1  0.66655598  0.33344399  0.56540899  1
  H  H11  1  0.33344401  0.66655598  0.06540900  1
