# generated using pymatgen
data_Li4P3C
_symmetry_space_group_name_H-M   'P 1'
_cell_length_a   4.63586807
_cell_length_b   4.63586807
_cell_length_c   5.69121027
_cell_angle_alpha   114.03427887
_cell_angle_beta   114.03427887
_cell_angle_gamma   90.00000000
_symmetry_Int_Tables_number   1
_chemical_formula_structural   Li4P3C
_chemical_formula_sum   'Li4 P3 C1'
_cell_volume   99.98464260
_cell_formula_units_Z   1
loop_
 _symmetry_equiv_pos_site_id
 _symmetry_equiv_pos_as_xyz
  1  'x, y, z'
loop_
 _atom_site_type_symbol
 _atom_site_label
 _atom_site_symmetry_multiplicity
 _atom_site_fract_x
 _atom_site_fract_y
 _atom_site_fract_z
 _atom_site_occupancy
  C  C0  1  0.49999998  0.49999999  -0.00000001  1
  P  P1  1  0.24999999  0.74999998  0.50000000  1
  Li  Li2  1  0.00000000  0.00000000  0.00000000  1
  Li  Li3  1  0.74999998  0.24999999  0.50000000  1
  Li  Li4  1  0.24343699  0.24343699  0.48687400  1
  P  P5  1  0.75656298  0.75656298  0.51312599  1
  P  P6  1  0.99343697  0.49343699  0.98687400  1
  Li  Li7  1  0.50656299  0.00656300  0.01312600  1
