# generated using pymatgen
data_LiSi6PHS2
_symmetry_space_group_name_H-M   'P 1'
_cell_length_a   6.44813728
_cell_length_b   6.82573938
_cell_length_c   6.88011026
_cell_angle_alpha   81.18773651
_cell_angle_beta   66.77046204
_cell_angle_gamma   71.84877014
_symmetry_Int_Tables_number   1
_chemical_formula_structural   LiSi6PHS2
_chemical_formula_sum   'Li1 Si6 P1 H1 S2'
_cell_volume   264.26091158
_cell_formula_units_Z   1
loop_
 _symmetry_equiv_pos_site_id
 _symmetry_equiv_pos_as_xyz
  1  'x, y, z'
loop_
 _atom_site_type_symbol
 _atom_site_label
 _atom_site_symmetry_multiplicity
 _atom_site_fract_x
 _atom_site_fract_y
 _atom_site_fract_z
 _atom_site_occupancy
  Li  Li0  1  0.41891203  0.81143899  0.32640397  1
  Si  Si1  1  0.58108802  0.18856100  0.67359595  1
  Si  Si2  1  0.86319704  0.59306800  0.78977193  1
  P  P3  1  0.13680301  0.40693200  0.21022799  1
  Si  Si4  1  0.00000000  0.00000000  0.00000000  1
  Si  Si5  1  0.90100005  0.80351599  0.37807594  1
  Si  Si6  1  0.09900001  0.19648400  0.62192398  1
  Si  Si7  1  0.32326302  0.65877299  0.81681196  1
  H  H8  1  0.67673703  0.34122700  0.18318796  1
  S  S9  1  0.76371604  0.91598999  0.95595893  1
  S  S10  1  0.23628401  0.08401000  0.04404098  1
