# generated using pymatgen
data_Si9P6SCl2
_symmetry_space_group_name_H-M   'P 1'
_cell_length_a   7.05402517
_cell_length_b   7.05402517
_cell_length_c   11.39649010
_cell_angle_alpha   101.96152496
_cell_angle_beta   101.96152496
_cell_angle_gamma   109.28807831
_symmetry_Int_Tables_number   1
_chemical_formula_structural   Si9P6SCl2
_chemical_formula_sum   'Si9 P6 S1 Cl2'
_cell_volume   499.74081767
_cell_formula_units_Z   1
loop_
 _symmetry_equiv_pos_site_id
 _symmetry_equiv_pos_as_xyz
  1  'x, y, z'
loop_
 _atom_site_type_symbol
 _atom_site_label
 _atom_site_symmetry_multiplicity
 _atom_site_fract_x
 _atom_site_fract_y
 _atom_site_fract_z
 _atom_site_occupancy
  Si  Si0  1  0.64852599  0.14852600  0.29705202  1
  Cl  Cl1  1  0.39852599  0.39852599  0.79705201  1
  Si  Si2  1  0.98283198  0.35652399  0.62607303  1
  Cl  Cl3  1  0.60652399  0.73283199  0.12607304  1
  P  P4  1  0.51954899  0.39324099  0.12607303  1
  Si  Si5  1  0.64324099  0.26954900  0.62607301  1
  Si  Si6  1  0.36714600  0.82235699  0.14860004  1
  Si  Si7  1  0.78145399  0.32624299  0.14860003  1
  Si  Si8  1  0.96386798  0.41496799  0.45607903  1
  Si  Si9  1  0.49221099  0.04111100  0.45607901  1
  P  P10  1  0.29111100  0.24221100  0.95607899  1
  S  S11  1  0.66496799  0.71386799  0.95607902  1
  P  P12  1  0.57865699  0.15457000  0.76822301  1
  P  P13  1  0.18956600  0.61365199  0.76822301  1
  Si  Si14  1  0.86365199  0.93956598  0.26822205  1
  Si  Si15  1  0.40456999  0.32865699  0.26822202  1
  P  P16  1  0.07235700  0.11714600  0.64859999  1
  P  P17  1  0.57624299  0.53145399  0.64860002  1
