# generated using pymatgen
data_Li2SiPS3Cl
_symmetry_space_group_name_H-M   'P 1'
_cell_length_a   6.46135378
_cell_length_b   6.46135378
_cell_length_c   7.89974165
_cell_angle_alpha   114.13951111
_cell_angle_beta   114.13951111
_cell_angle_gamma   90.00000000
_symmetry_Int_Tables_number   1
_chemical_formula_structural   Li2SiPS3Cl
_chemical_formula_sum   'Li2 Si1 P1 S3 Cl1'
_cell_volume   269.05134020
_cell_formula_units_Z   1
loop_
 _symmetry_equiv_pos_site_id
 _symmetry_equiv_pos_as_xyz
  1  'x, y, z'
loop_
 _atom_site_type_symbol
 _atom_site_label
 _atom_site_symmetry_multiplicity
 _atom_site_fract_x
 _atom_site_fract_y
 _atom_site_fract_z
 _atom_site_occupancy
  Li  Li0  1  0.25000005  0.75000004  0.50000006  1
  S  S1  1  0.75000005  0.25000001  0.50000005  1
  P  P2  1  0.50000005  0.50000003  1.00000007  1
  Cl  Cl3  1  0.00000000  0.00000000  0.00000000  1
  Si  Si4  1  0.35223103  0.35223202  0.23439604  1
  S  S5  1  0.64776904  0.11783501  0.76560405  1
  S  S6  1  0.88216408  0.88216505  0.23439608  1
  Li  Li7  1  0.11783603  0.64776804  0.76560406  1
