# generated using pymatgen
data_YAs(Br2Cl5)2
_symmetry_space_group_name_H-M   'P 1'
_cell_length_a   9.05798626
_cell_length_b   9.35042763
_cell_length_c   9.05798626
_cell_angle_alpha   61.02931213
_cell_angle_beta   90.00000000
_cell_angle_gamma   118.97068787
_symmetry_Int_Tables_number   1
_chemical_formula_structural   YAs(Br2Cl5)2
_chemical_formula_sum   'Y1 As1 Br4 Cl10'
_cell_volume   558.92663188
_cell_formula_units_Z   1
loop_
 _symmetry_equiv_pos_site_id
 _symmetry_equiv_pos_as_xyz
  1  'x, y, z'
loop_
 _atom_site_type_symbol
 _atom_site_label
 _atom_site_symmetry_multiplicity
 _atom_site_fract_x
 _atom_site_fract_y
 _atom_site_fract_z
 _atom_site_occupancy
  Y  Y0  1  0.00000000  0.00000000  0.00000000  1
  Cl  Cl1  1  0.80412896  0.31610299  0.69319899  1
  Cl  Cl2  1  0.51197397  0.31610299  0.99069798  1
  Cl  Cl3  1  0.30680098  0.31610199  0.48802700  1
  Cl  Cl4  1  0.00930199  0.31610399  0.19587001  1
  Cl  Cl5  1  0.19587097  0.68389697  0.30680102  1
  Cl  Cl6  1  0.48802596  0.68389697  0.00930203  1
  Cl  Cl7  1  0.69319895  0.68389797  0.51197301  1
  Cl  Cl8  1  0.99069794  0.68389597  0.80413000  1
  Cl  Cl9  1  0.49999999  0.00000000  0.49999999  1
  Cl  Cl10  1  0.84772198  0.00000000  0.67110698  1
  Br  Br11  1  0.15227796  0.99999996  0.32889303  1
  Br  Br12  1  0.32889299  0.00000100  0.84772098  1
  Br  Br13  1  0.67110694  0.99999896  0.15227904  1
  Br  Br14  1  0.76161296  0.52322598  0.23838701  1
  As  As15  1  0.23838697  0.47677398  0.76161300  1
