# generated using pymatgen
data_Li3SiP
_symmetry_space_group_name_H-M   'P 1'
_cell_length_a   3.08747792
_cell_length_b   3.08747792
_cell_length_c   6.76205587
_cell_angle_alpha   103.19666290
_cell_angle_beta   103.19667816
_cell_angle_gamma   90.00000000
_symmetry_Int_Tables_number   1
_chemical_formula_structural   Li3SiP
_chemical_formula_sum   'Li3 Si1 P1'
_cell_volume   61.00748763
_cell_formula_units_Z   1
loop_
 _symmetry_equiv_pos_site_id
 _symmetry_equiv_pos_as_xyz
  1  'x, y, z'
loop_
 _atom_site_type_symbol
 _atom_site_label
 _atom_site_symmetry_multiplicity
 _atom_site_fract_x
 _atom_site_fract_y
 _atom_site_fract_z
 _atom_site_occupancy
  Li  Li0  1  0.31267400  0.31267301  0.62534701  1
  P  P1  1  0.68732600  0.68732702  0.37465299  1
  Si  Si2  1  0.00000000  0.00000000  0.00000000  1
  Li  Li3  1  0.15795100  0.15795000  0.31590101  1
  Li  Li4  1  0.84204900  0.84205002  0.68409900  1
