# generated using pymatgen
data_MgSi10As(PS)3
_symmetry_space_group_name_H-M   'P 1'
_cell_length_a   4.01042891
_cell_length_b   6.14093113
_cell_length_c   10.67622757
_cell_angle_alpha   90.00000000
_cell_angle_beta   89.65567017
_cell_angle_gamma   90.00000000
_symmetry_Int_Tables_number   1
_chemical_formula_structural   MgSi10As(PS)3
_chemical_formula_sum   'Mg1 Si10 As1 P3 S3'
_cell_volume   262.92690453
_cell_formula_units_Z   1
loop_
 _symmetry_equiv_pos_site_id
 _symmetry_equiv_pos_as_xyz
  1  'x, y, z'
loop_
 _atom_site_type_symbol
 _atom_site_label
 _atom_site_symmetry_multiplicity
 _atom_site_fract_x
 _atom_site_fract_y
 _atom_site_fract_z
 _atom_site_occupancy
  Mg  Mg0  1  0.00000000  0.00000000  0.00000000  1
  Si  Si1  1  -0.00000000  0.49999999  0.50000001  1
  S  S2  1  0.53304401  0.45513499  0.84983903  1
  Si  Si3  1  0.46695601  0.95513498  0.65016102  1
  Si  Si4  1  0.46695601  0.54486499  0.15016101  1
  Si  Si5  1  0.53304401  0.04486500  0.34983902  1
  S  S6  1  0.00211900  0.41483899  0.84967102  1
  S  S7  1  0.99788102  0.91483898  0.65032903  1
  Si  Si8  1  0.99788102  0.58516099  0.15032902  1
  Si  Si9  1  0.00211900  0.08516100  0.34967101  1
  P  P10  1  0.49780701  0.11692100  0.80281603  1
  Si  Si11  1  0.50219301  0.61692099  0.69718403  1
  Si  Si12  1  0.49648001  0.19922700  0.53718902  1
  P  P13  1  0.50352001  0.69922699  0.96281103  1
  Si  Si14  1  0.50352001  0.80077298  0.46281102  1
  As  As15  1  0.49648001  0.30077299  0.03718901  1
  Si  Si16  1  0.49780701  0.38307899  0.30281602  1
  P  P17  1  0.50219301  0.88307898  0.19718401  1
