# generated using pymatgen
data_Li3Mg3Si4(P3S2)2
_symmetry_space_group_name_H-M   'P 1'
_cell_length_a   4.57480812
_cell_length_b   5.97488403
_cell_length_c   6.09052086
_cell_angle_alpha   90.00000000
_cell_angle_beta   90.00000000
_cell_angle_gamma   90.00000000
_symmetry_Int_Tables_number   1
_chemical_formula_structural   Li3Mg3Si4(P3S2)2
_chemical_formula_sum   'Li3 Mg3 Si4 P6 S4'
_cell_volume   166.47798042
_cell_formula_units_Z   1
loop_
 _symmetry_equiv_pos_site_id
 _symmetry_equiv_pos_as_xyz
  1  'x, y, z'
loop_
 _atom_site_type_symbol
 _atom_site_label
 _atom_site_symmetry_multiplicity
 _atom_site_fract_x
 _atom_site_fract_y
 _atom_site_fract_z
 _atom_site_occupancy
  Li  Li0  1  0.25810199  0.76012000  0.80198602  1
  P  P1  1  0.25810199  0.23988000  0.80198602  1
  Mg  Mg2  1  0.82223398  0.50000000  -0.00000000  1
  Mg  Mg3  1  0.25810199  0.76012000  0.19801400  1
  S  S4  1  0.25810199  0.23988000  0.19801400  1
  P  P5  1  0.74189798  0.73988000  0.30198601  1
  S  S6  1  0.74189798  0.26012000  0.30198601  1
  P  P7  1  0.17776600  0.00000000  0.50000001  1
  P  P8  1  0.74189798  0.73988000  0.69801402  1
  P  P9  1  0.74189798  0.26012000  0.69801402  1
  S  S10  1  0.77928998  0.00000000  0.00000000  1
  P  P11  1  0.22070999  0.50000000  0.50000001  1
  Li  Li12  1  0.96679297  0.00000000  0.79170702  1
  Li  Li13  1  0.59516198  0.78727500  0.00000000  1
  Si  Si14  1  0.59516198  0.21272500  0.00000000  1
  Si  Si15  1  0.96679297  0.00000000  0.20829300  1
  Si  Si16  1  0.03320700  0.50000000  0.29170701  1
  Mg  Mg17  1  0.40483799  0.71272500  0.50000001  1
  Si  Si18  1  0.40483799  0.28727500  0.50000001  1
  S  S19  1  0.03320700  0.50000000  0.70829302  1
