# generated using pymatgen
data_Ti3TeS8
_symmetry_space_group_name_H-M   'P 1'
_cell_length_a   3.25388408
_cell_length_b   3.25388384
_cell_length_c   36.89224243
_cell_angle_alpha   90.00000000
_cell_angle_beta   90.00000000
_cell_angle_gamma   120.00000000
_symmetry_Int_Tables_number   1
_chemical_formula_structural   Ti3TeS8
_chemical_formula_sum   'Ti3 Te1 S8'
_cell_volume   338.27492555
_cell_formula_units_Z   1
loop_
 _symmetry_equiv_pos_site_id
 _symmetry_equiv_pos_as_xyz
  1  'x, y, z'
loop_
 _atom_site_type_symbol
 _atom_site_label
 _atom_site_symmetry_multiplicity
 _atom_site_fract_x
 _atom_site_fract_y
 _atom_site_fract_z
 _atom_site_occupancy
  S  S0  1  0.00000000  0.00000000  0.90608196  1
  S  S1  1  0.00000000  0.00000000  0.53032498  1
  Ti  Ti2  1  0.66666664  0.33333333  0.71822497  1
  Ti  Ti3  1  0.66666664  0.33333333  0.34245599  1
  Ti  Ti4  1  0.00000000  0.00000000  0.67190097  1
  S  S5  1  0.66666664  0.33333333  0.57632298  1
  S  S6  1  0.66666664  0.33333333  0.48431598  1
  S  S7  1  0.00000000  0.00000000  0.76454297  1
  Te  Te8  1  0.00000000  0.00000000  0.30045799  1
  S  S9  1  0.66666664  0.33333333  0.94796896  1
  S  S10  1  0.66666664  0.33333333  0.86419197  1
  S  S11  1  0.00000000  0.00000000  0.38446099  1
