# generated using pymatgen
data_SiH3
_symmetry_space_group_name_H-M   'P 1'
_cell_length_a   3.59158611
_cell_length_b   6.22372913
_cell_length_c   6.65099192
_cell_angle_alpha   105.91432953
_cell_angle_beta   90.00000000
_cell_angle_gamma   90.00000000
_symmetry_Int_Tables_number   1
_chemical_formula_structural   SiH3
_chemical_formula_sum   'Si3 H9'
_cell_volume   142.97190464
_cell_formula_units_Z   3
loop_
 _symmetry_equiv_pos_site_id
 _symmetry_equiv_pos_as_xyz
  1  'x, y, z'
loop_
 _atom_site_type_symbol
 _atom_site_label
 _atom_site_symmetry_multiplicity
 _atom_site_fract_x
 _atom_site_fract_y
 _atom_site_fract_z
 _atom_site_occupancy
  Si  Si0  1  0.74999998  0.71662698  0.88972401  1
  Si  Si1  1  0.24999999  0.28337299  0.11027600  1
  H  H2  1  0.24999999  0.87164197  0.22947199  1
  H  H3  1  0.74999998  0.12835800  0.77052802  1
  H  H4  1  0.24999999  0.35007199  0.69902301  1
  H  H5  1  0.74999998  0.64992798  0.30097700  1
  H  H6  1  0.24999999  0.76867398  0.57644901  1
  Si  Si7  1  0.74999998  0.23132599  0.42355101  1
  H  H8  1  0.24999999  0.89375997  0.08939599  1
  H  H9  1  0.74999998  0.10624000  0.91060402  1
  H  H10  1  0.24999999  0.45121599  0.84059802  1
  H  H11  1  0.74999998  0.54878398  0.15940200  1
