# generated using pymatgen
data_Li2MgP5S4
_symmetry_space_group_name_H-M   'P 1'
_cell_length_a   5.10928154
_cell_length_b   5.10928154
_cell_length_c   7.13254690
_cell_angle_alpha   90.00000000
_cell_angle_beta   90.00000000
_cell_angle_gamma   93.13638306
_symmetry_Int_Tables_number   1
_chemical_formula_structural   Li2MgP5S4
_chemical_formula_sum   'Li2 Mg1 P5 S4'
_cell_volume   185.91451599
_cell_formula_units_Z   1
loop_
 _symmetry_equiv_pos_site_id
 _symmetry_equiv_pos_as_xyz
  1  'x, y, z'
loop_
 _atom_site_type_symbol
 _atom_site_label
 _atom_site_symmetry_multiplicity
 _atom_site_fract_x
 _atom_site_fract_y
 _atom_site_fract_z
 _atom_site_occupancy
  Li  Li0  1  0.82694704  0.82694700  0.50000001  1
  S  S1  1  0.17305301  0.17305300  -0.00000000  1
  P  P2  1  0.32088703  0.67911300  0.75000001  1
  P  P3  1  0.67911302  0.32088700  0.25000000  1
  P  P4  1  0.17998904  0.78847400  0.54762501  1
  P  P5  1  0.21152604  0.82001100  0.95237501  1
  S  S6  1  0.82001101  0.21152600  0.04762500  1
  Mg  Mg7  1  0.78847401  0.17998900  0.45237501  1
  P  P8  1  0.26122102  0.34794600  0.77881201  1
  Li  Li9  1  0.65205403  0.73877900  0.72118801  1
  S  S10  1  0.73877903  0.65205400  0.27881200  1
  S  S11  1  0.34794601  0.26122100  0.22118800  1
