# generated using pymatgen
data_Mg3P3SeS2N
_symmetry_space_group_name_H-M   'P 1'
_cell_length_a   5.07270432
_cell_length_b   5.07270432
_cell_length_c   5.31351328
_cell_angle_alpha   100.19934845
_cell_angle_beta   100.19934845
_cell_angle_gamma   117.81964874
_symmetry_Int_Tables_number   1
_chemical_formula_structural   Mg3P3SeS2N
_chemical_formula_sum   'Mg3 P3 Se1 S2 N1'
_cell_volume   113.59414990
_cell_formula_units_Z   1
loop_
 _symmetry_equiv_pos_site_id
 _symmetry_equiv_pos_as_xyz
  1  'x, y, z'
loop_
 _atom_site_type_symbol
 _atom_site_label
 _atom_site_symmetry_multiplicity
 _atom_site_fract_x
 _atom_site_fract_y
 _atom_site_fract_z
 _atom_site_occupancy
  Mg  Mg0  1  0.50000000  0.50000000  0.50000004  1
  P  P1  1  0.00000000  0.00000000  0.00000000  1
  P  P2  1  0.33396000  0.66604001  0.00000003  1
  S  S3  1  0.66604001  0.33396000  0.00000003  1
  Se  Se4  1  0.30279700  0.30279700  0.78251603  1
  Mg  Mg5  1  0.07798300  0.40675400  0.19239702  1
  S  S6  1  0.40675400  0.07798300  0.19239702  1
  N  N7  1  0.59324601  0.92201701  0.80760306  1
  P  P8  1  0.92201701  0.59324601  0.80760306  1
  Mg  Mg9  1  0.69720301  0.69720301  0.21748404  1
