# generated using pymatgen
data_Si8P3S6F
_symmetry_space_group_name_H-M   'P 1'
_cell_length_a   5.64174318
_cell_length_b   5.89879227
_cell_length_c   8.67449379
_cell_angle_alpha   87.47124481
_cell_angle_beta   71.03550720
_cell_angle_gamma   68.07788086
_symmetry_Int_Tables_number   1
_chemical_formula_structural   Si8P3S6F
_chemical_formula_sum   'Si8 P3 S6 F1'
_cell_volume   252.28926923
_cell_formula_units_Z   1
loop_
 _symmetry_equiv_pos_site_id
 _symmetry_equiv_pos_as_xyz
  1  'x, y, z'
loop_
 _atom_site_type_symbol
 _atom_site_label
 _atom_site_symmetry_multiplicity
 _atom_site_fract_x
 _atom_site_fract_y
 _atom_site_fract_z
 _atom_site_occupancy
  F  F0  1  0.54045305  0.99400302  0.81922099  1
  S  S1  1  0.02823102  0.48424601  0.86115101  1
  Si  Si2  1  0.63642003  0.45143201  0.68550899  1
  Si  Si3  1  0.14917504  0.96040202  0.64353900  1
  Si  Si4  1  0.82592005  0.96442202  0.42738598  1
  Si  Si5  1  0.80759103  0.47383001  0.27239098  1
  Si  Si6  1  0.36952804  0.97023202  0.23236999  1
  Si  Si7  1  0.35144802  0.48012901  0.07759099  1
  S  S8  1  0.19295402  0.44025401  0.49657600  1
  Si  Si9  1  0.98388802  0.00469300  0.00849297  1
  P  P10  1  0.26229803  0.74756202  0.87500900  1
  S  S11  1  0.78338502  0.21224700  0.89549899  1
  S  S12  1  0.39330402  0.23309901  0.60975300  1
  S  S13  1  0.91425004  0.69736002  0.63008798  1
  P  P14  1  0.03610901  0.24323901  0.45083600  1
  Si  Si15  1  0.34063203  0.60607901  0.33781699  1
  S  S16  1  0.14126501  0.20144600  0.05395400  1
  P  P17  1  0.83623304  0.83934902  0.16769098  1
