# generated using pymatgen
data_Li9OF10
_symmetry_space_group_name_H-M   'P 1'
_cell_length_a   4.96438217
_cell_length_b   5.63681173
_cell_length_c   9.15595341
_cell_angle_alpha   92.82472229
_cell_angle_beta   105.72981262
_cell_angle_gamma   90.00000000
_symmetry_Int_Tables_number   1
_chemical_formula_structural   Li9OF10
_chemical_formula_sum   'Li9 O1 F10'
_cell_volume   246.29524904
_cell_formula_units_Z   1
loop_
 _symmetry_equiv_pos_site_id
 _symmetry_equiv_pos_as_xyz
  1  'x, y, z'
loop_
 _atom_site_type_symbol
 _atom_site_label
 _atom_site_symmetry_multiplicity
 _atom_site_fract_x
 _atom_site_fract_y
 _atom_site_fract_z
 _atom_site_occupancy
  Li  Li0  1  -0.00000001  0.99999997  0.49999996  1
  Li  Li1  1  0.49999998  0.49999999  0.49999997  1
  Li  Li2  1  0.36079298  0.77982898  0.21288897  1
  Li  Li3  1  0.85209597  0.27982899  0.21288898  1
  Li  Li4  1  0.14790399  0.72017098  0.78711095  1
  Li  Li5  1  0.63920698  0.22017099  0.78711096  1
  F  F6  1  0.52550598  0.06954500  0.15057599  1
  F  F7  1  0.62506997  0.56954498  0.15057598  1
  F  F8  1  0.08755899  0.98590997  0.28006297  1
  Li  Li9  1  0.19250399  0.48590999  0.28006298  1
  F  F10  1  0.80350197  0.29302799  0.41335297  1
  Li  Li11  1  0.60985097  0.79302798  0.41335296  1
  Li  Li12  1  0.39014898  0.20697199  0.58664697  1
  O  O13  1  0.19649799  0.70697198  0.58664696  1
  F  F14  1  0.80749597  0.51408999  0.71993696  1
  F  F15  1  0.91244097  0.01409000  0.71993697  1
  F  F16  1  0.37492998  0.43045499  0.84942395  1
  F  F17  1  0.47449397  0.93045497  0.84942394  1
  F  F18  1  0.11271099  0.74999998  -0.00000002  1
  F  F19  1  0.88728897  0.24999999  0.99999995  1
