# generated using pymatgen
data_LiMg2P3(SN)2
_symmetry_space_group_name_H-M   'P 1'
_cell_length_a   6.32922077
_cell_length_b   6.32922077
_cell_length_c   6.32922077
_cell_angle_alpha   60.00000000
_cell_angle_beta   60.00000000
_cell_angle_gamma   60.00000000
_symmetry_Int_Tables_number   1
_chemical_formula_structural   LiMg2P3(SN)2
_chemical_formula_sum   'Li1 Mg2 P3 S2 N2'
_cell_volume   179.28160698
_cell_formula_units_Z   1
loop_
 _symmetry_equiv_pos_site_id
 _symmetry_equiv_pos_as_xyz
  1  'x, y, z'
loop_
 _atom_site_type_symbol
 _atom_site_label
 _atom_site_symmetry_multiplicity
 _atom_site_fract_x
 _atom_site_fract_y
 _atom_site_fract_z
 _atom_site_occupancy
  Mg  Mg0  1  0.25000000  0.25000000  0.25000000  1
  P  P1  1  0.75000001  0.75000001  0.75000001  1
  S  S2  1  0.50000001  0.50000001  0.50000001  1
  S  S3  1  0.00000000  0.00000000  0.00000000  1
  N  N4  1  0.24547800  0.75452201  0.24547800  1
  P  P5  1  0.24547800  0.24547800  0.75452201  1
  N  N6  1  0.75452201  0.24547800  0.75452201  1
  Mg  Mg7  1  0.24547800  0.75452201  0.75452201  1
  Li  Li8  1  0.75452201  0.24547800  0.24547800  1
  P  P9  1  0.75452201  0.75452201  0.24547800  1
