# generated using pymatgen
data_Li2O2
_symmetry_space_group_name_H-M   'P 1'
_cell_length_a   5.34844780
_cell_length_b   6.89381361
_cell_length_c   6.89380693
_cell_angle_alpha   86.19972229
_cell_angle_beta   81.32926178
_cell_angle_gamma   81.32923126
_symmetry_Int_Tables_number   1
_chemical_formula_structural   Li2O2
_chemical_formula_sum   'Li10 O10'
_cell_volume   248.15923705
_cell_formula_units_Z   5
loop_
 _symmetry_equiv_pos_site_id
 _symmetry_equiv_pos_as_xyz
  1  'x, y, z'
loop_
 _atom_site_type_symbol
 _atom_site_label
 _atom_site_symmetry_multiplicity
 _atom_site_fract_x
 _atom_site_fract_y
 _atom_site_fract_z
 _atom_site_occupancy
  Li  Li0  1  0.24999307  0.90298997  0.09701097  1
  Li  Li1  1  0.25000002  0.27538699  0.72461097  1
  Li  Li2  1  0.74999701  0.09680900  0.90318499  1
  Li  Li3  1  0.75000006  0.72471398  0.27528998  1
  Li  Li4  1  0.71845205  0.61081998  0.79405997  1
  Li  Li5  1  0.78155102  0.20594199  0.38918100  1
  Li  Li6  1  0.28154803  0.38917799  0.20592599  1
  Li  Li7  1  0.21845606  0.79407298  0.61082196  1
  O  O8  1  0.64236806  0.78977098  0.97306096  1
  O  O9  1  0.85762801  0.02694100  0.21023001  1
  Li  Li10  1  0.35763002  0.21023999  0.02693300  1
  O  O11  1  0.14237107  0.97306697  0.78975894  1
  O  O12  1  0.87645603  0.38221299  0.85743398  1
  O  O13  1  0.62354501  0.14256500  0.61778599  1
  O  O14  1  0.12354004  0.61779798  0.14255198  1
  O  O15  1  0.37645906  0.85744997  0.38220097  1
  O  O16  1  0.42044604  0.58161998  0.70663297  1
  O  O17  1  0.07955702  0.29336599  0.41837998  1
  O  O18  1  0.57955803  0.41840399  0.29334899  1
  Li  Li19  1  0.92044305  0.70665198  0.58159698  1
