# generated using pymatgen
data_CsSrLiTe3P2SCl11
_symmetry_space_group_name_H-M   'P 1'
_cell_length_a   3.51050711
_cell_length_b   9.61262131
_cell_length_c   11.95122623
_cell_angle_alpha   90.00000000
_cell_angle_beta   90.00000000
_cell_angle_gamma   90.00000000
_symmetry_Int_Tables_number   1
_chemical_formula_structural   CsSrLiTe3P2SCl11
_chemical_formula_sum   'Cs1 Sr1 Li1 Te3 P2 S1 Cl11'
_cell_volume   403.29622570
_cell_formula_units_Z   1
loop_
 _symmetry_equiv_pos_site_id
 _symmetry_equiv_pos_as_xyz
  1  'x, y, z'
loop_
 _atom_site_type_symbol
 _atom_site_label
 _atom_site_symmetry_multiplicity
 _atom_site_fract_x
 _atom_site_fract_y
 _atom_site_fract_z
 _atom_site_occupancy
  Sr  Sr0  1  0.74999998  0.60713398  0.63100599  1
  Cl  Cl1  1  0.24999999  0.39286599  0.36899399  1
  Cl  Cl2  1  0.74999998  0.10713400  0.86899398  1
  Te  Te3  1  0.24999999  0.89286597  0.13100600  1
  P  P4  1  0.74999998  0.76974298  0.28495099  1
  Cl  Cl5  1  0.24999999  0.73025698  0.78495098  1
  S  S6  1  0.74999998  0.26974299  0.21504900  1
  Cl  Cl7  1  0.24999999  0.23025699  0.71504899  1
  Li  Li8  1  0.74999998  0.07992800  0.09800000  1
  Cl  Cl9  1  0.24999999  0.91612497  0.32257499  1
  Cl  Cl10  1  0.74999998  0.08387500  0.67742499  1
  Te  Te11  1  0.24999999  0.41612499  0.17742500  1
  Cl  Cl12  1  0.74999998  0.72212198  0.09717400  1
  Cl  Cl13  1  0.24999999  0.27787799  0.90282598  1
  P  P14  1  0.74999998  0.22212199  0.40282599  1
  Cl  Cl15  1  0.24999999  0.77787798  0.59717399  1
  Cl  Cl16  1  0.74999998  0.57992798  0.40199999  1
  Cl  Cl17  1  0.24999999  0.42007199  0.59799999  1
  Te  Te18  1  0.24999999  0.92007197  0.90199998  1
  Cs  Cs19  1  0.74999998  0.58387498  0.82257498  1
