# generated using pymatgen
data_Li4Mg(PSe)2
_symmetry_space_group_name_H-M   'P 1'
_cell_length_a   4.63224983
_cell_length_b   5.03009415
_cell_length_c   5.03009367
_cell_angle_alpha   120.00000000
_cell_angle_beta   90.00000000
_cell_angle_gamma   90.00000000
_symmetry_Int_Tables_number   1
_chemical_formula_structural   Li4Mg(PSe)2
_chemical_formula_sum   'Li4 Mg1 P2 Se2'
_cell_volume   101.50204498
_cell_formula_units_Z   1
loop_
 _symmetry_equiv_pos_site_id
 _symmetry_equiv_pos_as_xyz
  1  'x, y, z'
loop_
 _atom_site_type_symbol
 _atom_site_label
 _atom_site_symmetry_multiplicity
 _atom_site_fract_x
 _atom_site_fract_y
 _atom_site_fract_z
 _atom_site_occupancy
  Li  Li0  1  0.50000002  0.33333332  0.66666668  1
  Li  Li1  1  0.50000002  0.66666664  0.33333333  1
  P  P2  1  0.00000000  0.00000000  0.00000000  1
  P  P3  1  0.74713703  0.67479197  1.00000002  1
  Se  Se4  1  0.25286301  0.32520799  1.00000003  1
  Mg  Mg5  1  0.74713703  0.32520799  0.32520800  1
  Li  Li6  1  0.25286301  0.67479197  0.67479201  1
  Li  Li7  1  0.74713703  0.00000000  0.67479202  1
  Se  Se8  1  0.25286301  0.99999996  0.32520799  1
