# generated using pymatgen
data_S2BrF7
_symmetry_space_group_name_H-M   'P 1'
_cell_length_a   5.73815298
_cell_length_b   5.73815298
_cell_length_c   5.73815298
_cell_angle_alpha   60.00000000
_cell_angle_beta   60.00000000
_cell_angle_gamma   60.00000000
_symmetry_Int_Tables_number   1
_chemical_formula_structural   S2BrF7
_chemical_formula_sum   'S2 Br1 F7'
_cell_volume   133.59843465
_cell_formula_units_Z   1
loop_
 _symmetry_equiv_pos_site_id
 _symmetry_equiv_pos_as_xyz
  1  'x, y, z'
loop_
 _atom_site_type_symbol
 _atom_site_label
 _atom_site_symmetry_multiplicity
 _atom_site_fract_x
 _atom_site_fract_y
 _atom_site_fract_z
 _atom_site_occupancy
  F  F0  1  0.25000001  0.25000001  0.25000001  1
  Br  Br1  1  0.75000002  0.75000002  0.75000002  1
  S  S2  1  0.50000001  0.50000001  0.50000001  1
  S  S3  1  0.00000000  0.00000000  0.00000000  1
  F  F4  1  0.76214902  0.76214902  0.23785101  1
  F  F5  1  0.23785101  0.23785101  0.76214902  1
  F  F6  1  0.76214902  0.23785101  0.23785101  1
  F  F7  1  0.23785101  0.76214902  0.76214902  1
  F  F8  1  0.76214902  0.23785101  0.76214902  1
  F  F9  1  0.23785101  0.76214902  0.23785101  1
