# generated using pymatgen
data_CaYTe5Cl13
_symmetry_space_group_name_H-M   'P 1'
_cell_length_a   3.84618092
_cell_length_b   8.60624409
_cell_length_c   14.06768227
_cell_angle_alpha   90.00000000
_cell_angle_beta   90.00000000
_cell_angle_gamma   90.00000000
_symmetry_Int_Tables_number   1
_chemical_formula_structural   CaYTe5Cl13
_chemical_formula_sum   'Ca1 Y1 Te5 Cl13'
_cell_volume   465.65676703
_cell_formula_units_Z   1
loop_
 _symmetry_equiv_pos_site_id
 _symmetry_equiv_pos_as_xyz
  1  'x, y, z'
loop_
 _atom_site_type_symbol
 _atom_site_label
 _atom_site_symmetry_multiplicity
 _atom_site_fract_x
 _atom_site_fract_y
 _atom_site_fract_z
 _atom_site_occupancy
  Ca  Ca0  1  0.25000001  0.06686400  0.17904500  1
  Cl  Cl1  1  0.75000002  0.93313599  0.82095498  1
  Cl  Cl2  1  0.25000001  0.56686399  0.32095499  1
  Te  Te3  1  0.75000002  0.43313600  0.67904499  1
  Cl  Cl4  1  0.75000002  0.67179699  0.05726600  1
  Cl  Cl5  1  0.75000002  0.17179700  0.44273399  1
  Cl  Cl6  1  0.25000001  0.82820299  0.55726599  1
  Cl  Cl7  1  0.25000001  0.32820300  0.94273398  1
  Cl  Cl8  1  0.75000002  0.66270099  0.48639999  1
  Cl  Cl9  1  0.25000001  0.20610900  0.78419299  1
  Cl  Cl10  1  0.25000001  0.48353800  0.10634300  1
  Te  Te11  1  0.25000001  0.98353799  0.39365699  1
  Cl  Cl12  1  0.25000001  0.33729900  0.51359999  1
  Cl  Cl13  1  0.75000002  0.01646200  0.60634299  1
  Te  Te14  1  0.75000002  0.16270100  0.01360000  1
  Cl  Cl15  1  0.25000001  0.70610899  0.71580699  1
  Y  Y16  1  0.75000002  0.29389100  0.28419299  1
  Te  Te17  1  0.75000002  0.79389099  0.21580700  1
  Te  Te18  1  0.25000001  0.83729899  0.98639998  1
  Cl  Cl19  1  0.75000002  0.51646199  0.89365698  1
