# generated using pymatgen
data_RbTe(PS2)6
_symmetry_space_group_name_H-M   'P 1'
_cell_length_a   5.48248291
_cell_length_b   6.86343813
_cell_length_c   8.57016277
_cell_angle_alpha   90.00000000
_cell_angle_beta   90.00000000
_cell_angle_gamma   90.00000000
_symmetry_Int_Tables_number   1
_chemical_formula_structural   RbTe(PS2)6
_chemical_formula_sum   'Rb1 Te1 P6 S12'
_cell_volume   322.48393182
_cell_formula_units_Z   1
loop_
 _symmetry_equiv_pos_site_id
 _symmetry_equiv_pos_as_xyz
  1  'x, y, z'
loop_
 _atom_site_type_symbol
 _atom_site_label
 _atom_site_symmetry_multiplicity
 _atom_site_fract_x
 _atom_site_fract_y
 _atom_site_fract_z
 _atom_site_occupancy
  Rb  Rb0  1  -0.00000000  0.49999999  0.00000000  1
  Te  Te1  1  0.50000001  0.00000000  0.50000001  1
  P  P2  1  -0.00000000  0.31195899  0.39314901  1
  P  P3  1  0.50000001  0.81195898  0.10685100  1
  P  P4  1  0.50000001  0.18804100  0.89314902  1
  S  S5  1  -0.00000000  0.68804099  0.60685102  1
  S  S6  1  0.26912800  0.69904799  0.06731700  1
  S  S7  1  0.50000001  0.88299198  0.27507101  1
  S  S8  1  -0.00000000  0.38299199  0.22492901  1
  S  S9  1  0.23087200  0.19904800  0.43268301  1
  S  S10  1  -0.00000000  0.61700799  0.77507102  1
  S  S11  1  0.73087201  0.30095199  0.93268302  1
  P  P12  1  0.23087200  0.80095198  0.56731702  1
  S  S13  1  0.50000001  0.11700800  0.72492902  1
  P  P14  1  0.76912801  0.80095198  0.56731702  1
  S  S15  1  0.26912800  0.30095199  0.93268302  1
  P  P16  1  -0.00000000  0.49999999  0.50000001  1
  S  S17  1  0.76912801  0.19904800  0.43268301  1
  S  S18  1  0.73087201  0.69904799  0.06731700  1
  S  S19  1  0.50000001  0.00000000  0.00000000  1
