# generated using pymatgen
data_LiSiTe2AsP7
_symmetry_space_group_name_H-M   'P 1'
_cell_length_a   6.38135099
_cell_length_b   6.54230499
_cell_length_c   6.56439209
_cell_angle_alpha   65.11637115
_cell_angle_beta   89.99970245
_cell_angle_gamma   89.99914551
_symmetry_Int_Tables_number   1
_chemical_formula_structural   LiSiTe2AsP7
_chemical_formula_sum   'Li1 Si1 Te2 As1 P7'
_cell_volume   248.61302282
_cell_formula_units_Z   1
loop_
 _symmetry_equiv_pos_site_id
 _symmetry_equiv_pos_as_xyz
  1  'x, y, z'
loop_
 _atom_site_type_symbol
 _atom_site_label
 _atom_site_symmetry_multiplicity
 _atom_site_fract_x
 _atom_site_fract_y
 _atom_site_fract_z
 _atom_site_occupancy
  Li  Li0  1  0.49999804  0.72296099  0.78756702  1
  P  P1  1  0.00000702  0.27703300  0.71244003  1
  P  P2  1  0.50000202  0.27703900  0.21243299  1
  P  P3  1  0.99999304  0.72296699  0.28755899  1
  Si  Si4  1  0.85610905  0.86170399  0.87603901  1
  Te  Te5  1  0.35611301  0.13829300  0.62395900  1
  P  P6  1  0.14389101  0.13829600  0.12396100  1
  P  P7  1  0.64388705  0.86170699  0.37604101  1
  As  As8  1  0.14276004  0.65077599  0.66747203  1
  Te  Te9  1  0.64275402  0.34922800  0.83253300  1
  P  P10  1  0.85724002  0.34922400  0.33252798  1
  P  P11  1  0.35724604  0.65077199  0.16746701  1
