# generated using pymatgen
data_CeGa4
_symmetry_space_group_name_H-M   'P 1'
_cell_length_a   4.48968315
_cell_length_b   4.48968315
_cell_length_c   10.63771152
_cell_angle_alpha   90.00000000
_cell_angle_beta   90.00000000
_cell_angle_gamma   90.00000000
_symmetry_Int_Tables_number   1
_chemical_formula_structural   CeGa4
_chemical_formula_sum   'Ce2 Ga8'
_cell_volume   214.42706168
_cell_formula_units_Z   2
loop_
 _symmetry_equiv_pos_site_id
 _symmetry_equiv_pos_as_xyz
  1  'x, y, z'
loop_
 _atom_site_type_symbol
 _atom_site_label
 _atom_site_symmetry_multiplicity
 _atom_site_fract_x
 _atom_site_fract_y
 _atom_site_fract_z
 _atom_site_occupancy
  Ce  Ce0  1  0.00000000  0.00000000  0.76131703  1
  Ce  Ce1  1  0.49999998  0.49999998  0.23674601  1
  Ga  Ga2  1  0.49999998  0.49999998  0.63489103  1
  Ga  Ga3  1  0.00000000  0.00000000  0.36526402  1
  Ga  Ga4  1  0.49999998  0.00000000  0.00149900  1
  Ga  Ga5  1  0.00000000  0.49999998  0.00149900  1
  Ga  Ga6  1  0.49999998  0.49999998  0.87437404  1
  Ga  Ga7  1  0.00000000  0.00000000  0.12807601  1
  Ga  Ga8  1  0.49999998  0.00000000  0.49815202  1
  Ga  Ga9  1  0.00000000  0.49999998  0.49815202  1
