# generated using pymatgen
data_LiMn(SiO3)2
_symmetry_space_group_name_H-M   'P 1'
_cell_length_a   5.66480875
_cell_length_b   6.94901371
_cell_length_c   6.94901371
_cell_angle_alpha   83.47498322
_cell_angle_beta   76.91081238
_cell_angle_gamma   76.91081238
_symmetry_Int_Tables_number   1
_chemical_formula_structural   LiMn(SiO3)2
_chemical_formula_sum   'Li2 Mn2 Si4 O12'
_cell_volume   258.95617955
_cell_formula_units_Z   2
loop_
 _symmetry_equiv_pos_site_id
 _symmetry_equiv_pos_as_xyz
  1  'x, y, z'
loop_
 _atom_site_type_symbol
 _atom_site_label
 _atom_site_symmetry_multiplicity
 _atom_site_fract_x
 _atom_site_fract_y
 _atom_site_fract_z
 _atom_site_occupancy
  Li  Li0  1  0.74999998  0.30195201  0.69804798  1
  Li  Li1  1  0.24999997  0.69804801  0.30195199  1
  Mn  Mn2  1  0.74999995  0.89959702  0.10040297  1
  Mn  Mn3  1  0.24999999  0.10040300  0.89959700  1
  Si  Si4  1  0.73794296  0.80304702  0.62063697  1
  Si  Si5  1  0.76205698  0.37936301  0.19695297  1
  Si  Si6  1  0.26205699  0.19695300  0.37936299  1
  Si  Si7  1  0.23794297  0.62063701  0.80304699  1
  O  O8  1  0.02379197  0.63539701  0.64557900  1
  O  O9  1  0.47620798  0.35442101  0.36460298  1
  O  O10  1  0.97620797  0.36460301  0.35442097  1
  O  O11  1  0.52379197  0.64557901  0.63539698  1
  O  O12  1  0.30503198  0.37822101  0.90239200  1
  O  O13  1  0.19496799  0.09760800  0.62177900  1
  O  O14  1  0.69496797  0.62177901  0.09760797  1
  O  O15  1  0.80503195  0.90239202  0.37822097  1
  O  O16  1  0.63644895  0.97098502  0.80978498  1
  O  O17  1  0.86355098  0.19021500  0.02901497  1
  O  O18  1  0.36355099  0.02901500  0.19021499  1
  O  O19  1  0.13644896  0.80978502  0.97098500  1
