# generated using pymatgen
data_HfNiSn
_symmetry_space_group_name_H-M   'P 1'
_cell_length_a   5.42535400
_cell_length_b   6.49946308
_cell_length_c   6.49946308
_cell_angle_alpha   90.00000000
_cell_angle_beta   90.00000000
_cell_angle_gamma   90.00000000
_symmetry_Int_Tables_number   1
_chemical_formula_structural   HfNiSn
_chemical_formula_sum   'Hf4 Ni4 Sn4'
_cell_volume   229.18333957
_cell_formula_units_Z   4
loop_
 _symmetry_equiv_pos_site_id
 _symmetry_equiv_pos_as_xyz
  1  'x, y, z'
loop_
 _atom_site_type_symbol
 _atom_site_label
 _atom_site_symmetry_multiplicity
 _atom_site_fract_x
 _atom_site_fract_y
 _atom_site_fract_z
 _atom_site_occupancy
  Hf  Hf0  1  0.50000000  0.16103800  0.65349699  1
  Hf  Hf1  1  0.50000000  0.65349699  0.83896199  1
  Hf  Hf2  1  0.50000000  0.34650300  0.16103800  1
  Hf  Hf3  1  0.00000000  0.83896199  0.65349699  1
  Ni  Ni4  1  0.50000000  0.83896199  0.34650300  1
  Ni  Ni5  1  1.00000000  0.34650300  0.83896199  1
  Sn  Sn6  1  0.00000000  0.65349699  0.16103800  1
  Sn  Sn7  1  0.00000000  0.16103800  0.34650300  1
  Sn  Sn8  1  0.25000000  0.00000000  0.00000000  1
  Sn  Sn9  1  0.75000000  0.00000000  -0.00000000  1
  Ni  Ni10  1  0.75000000  0.49999999  0.49999999  1
  Ni  Ni11  1  0.25000000  0.49999999  0.49999999  1
