# generated using pymatgen
data_Nb4FeSi5
_symmetry_space_group_name_H-M   'P 1'
_cell_length_a   5.90934515
_cell_length_b   5.90934515
_cell_length_c   6.91034412
_cell_angle_alpha   90.00000000
_cell_angle_beta   90.00000000
_cell_angle_gamma   90.00000000
_symmetry_Int_Tables_number   1
_chemical_formula_structural   Nb4FeSi5
_chemical_formula_sum   'Nb8 Fe2 Si10'
_cell_volume   241.31170523
_cell_formula_units_Z   2
loop_
 _symmetry_equiv_pos_site_id
 _symmetry_equiv_pos_as_xyz
  1  'x, y, z'
loop_
 _atom_site_type_symbol
 _atom_site_label
 _atom_site_symmetry_multiplicity
 _atom_site_fract_x
 _atom_site_fract_y
 _atom_site_fract_z
 _atom_site_occupancy
  Nb  Nb0  1  0.66412198  0.81457098  0.49999999  1
  Nb  Nb1  1  0.33587799  0.18542900  0.49999999  1
  Nb  Nb2  1  0.83587798  0.31457099  0.00000000  1
  Nb  Nb3  1  0.16412200  0.68542898  0.00000000  1
  Nb  Nb4  1  0.81457098  0.33587799  0.49999999  1
  Nb  Nb5  1  0.18542900  0.66412198  0.49999999  1
  Nb  Nb6  1  0.31457099  0.16412200  -0.00000000  1
  Nb  Nb7  1  0.68542898  0.83587798  -0.00000000  1
  Si  Si8  1  0.38630999  0.88630998  0.25000000  1
  Fe  Fe9  1  0.61368998  0.11369000  0.25000000  1
  Si  Si10  1  0.11369000  0.38630999  0.74999999  1
  Si  Si11  1  0.88630998  0.61368998  0.74999999  1
  Si  Si12  1  0.88630998  0.61368998  0.25000000  1
  Si  Si13  1  0.11369000  0.38630999  0.25000000  1
  Si  Si14  1  0.38630999  0.88630998  0.74999999  1
  Si  Si15  1  0.61368998  0.11369000  0.74999999  1
  Fe  Fe16  1  0.49999999  0.49999999  0.22200400  1
  Si  Si17  1  0.00000000  0.00000000  0.72200399  1
  Si  Si18  1  0.49999999  0.49999999  0.77799599  1
  Si  Si19  1  0.00000000  0.00000000  0.27799600  1
