# generated using pymatgen
data_La3Mg
_symmetry_space_group_name_H-M   'P 1'
_cell_length_a   5.81557322
_cell_length_b   7.32956409
_cell_length_c   7.32956409
_cell_angle_alpha   60.00000000
_cell_angle_beta   90.00000000
_cell_angle_gamma   90.00000000
_symmetry_Int_Tables_number   1
_chemical_formula_structural   La3Mg
_chemical_formula_sum   'La6 Mg2'
_cell_volume   270.56988264
_cell_formula_units_Z   2
loop_
 _symmetry_equiv_pos_site_id
 _symmetry_equiv_pos_as_xyz
  1  'x, y, z'
loop_
 _atom_site_type_symbol
 _atom_site_label
 _atom_site_symmetry_multiplicity
 _atom_site_fract_x
 _atom_site_fract_y
 _atom_site_fract_z
 _atom_site_occupancy
  La  La0  1  0.74999997  0.66666667  0.66666667  1
  La  La1  1  0.24999999  0.33333333  0.33333333  1
  La  La2  1  0.24999999  0.83412600  0.33174799  1
  La  La3  1  0.24999999  0.83412600  0.83412600  1
  La  La4  1  0.24999999  0.33174800  0.83412602  1
  La  La5  1  0.74999997  0.16587400  0.66825202  1
  Mg  Mg6  1  0.74999997  0.16587400  0.16587400  1
  Mg  Mg7  1  0.74999997  0.66825200  0.16587399  1
