# generated using pymatgen
data_U2Mn2Fe5
_symmetry_space_group_name_H-M   'P 1'
_cell_length_a   5.06430674
_cell_length_b   5.15137768
_cell_length_c   12.56207752
_cell_angle_alpha   89.20964050
_cell_angle_beta   88.63304901
_cell_angle_gamma   60.59943390
_symmetry_Int_Tables_number   1
_chemical_formula_structural   U2Mn2Fe5
_chemical_formula_sum   'U4 Mn4 Fe10'
_cell_volume   285.43179200
_cell_formula_units_Z   2
loop_
 _symmetry_equiv_pos_site_id
 _symmetry_equiv_pos_as_xyz
  1  'x, y, z'
loop_
 _atom_site_type_symbol
 _atom_site_label
 _atom_site_symmetry_multiplicity
 _atom_site_fract_x
 _atom_site_fract_y
 _atom_site_fract_z
 _atom_site_occupancy
  U  U0  1  0.66284903  0.66619403  0.08029998  1
  U  U1  1  0.99654404  0.00059400  0.75445897  1
  U  U2  1  0.33160901  0.33152101  0.41740598  1
  U  U3  1  0.66839103  0.66847903  0.33259397  1
  Mn  Mn4  1  0.00345600  0.99940604  0.99554195  1
  Mn  Mn5  1  0.33715101  0.33380601  0.66969997  1
  Mn  Mn6  1  0.83262204  0.33440501  0.54307097  1
  Mn  Mn7  1  0.16737801  0.66559503  0.20692898  1
  Fe  Fe8  1  0.66264703  0.67309903  0.71303396  1
  Fe  Fe9  1  0.00000000  0.00000000  0.37499999  1
  Fe  Fe10  1  0.33735301  0.32690101  0.03696599  1
  Fe  Fe11  1  1.00000004  0.50000002  0.87499996  1
  Fe  Fe12  1  0.33447702  0.83183003  0.54234097  1
  Fe  Fe13  1  0.66552303  0.16817001  0.20765899  1
  Fe  Fe14  1  0.50000002  0.50000002  0.87499996  1
  Fe  Fe15  1  0.83411104  0.83279503  0.54273696  1
  Fe  Fe16  1  0.16588901  0.16720501  0.20726299  1
  Fe  Fe17  1  0.50000002  0.00000000  0.87499997  1
