# generated using pymatgen
data_YFe2BC2
_symmetry_space_group_name_H-M   'P 1'
_cell_length_a   3.54878998
_cell_length_b   3.54878998
_cell_length_c   5.76144123
_cell_angle_alpha   107.93739319
_cell_angle_beta   107.93739319
_cell_angle_gamma   90.00000000
_symmetry_Int_Tables_number   1
_chemical_formula_structural   YFe2BC2
_chemical_formula_sum   'Y1 Fe2 B1 C2'
_cell_volume   65.31524269
_cell_formula_units_Z   1
loop_
 _symmetry_equiv_pos_site_id
 _symmetry_equiv_pos_as_xyz
  1  'x, y, z'
loop_
 _atom_site_type_symbol
 _atom_site_label
 _atom_site_symmetry_multiplicity
 _atom_site_fract_x
 _atom_site_fract_y
 _atom_site_fract_z
 _atom_site_occupancy
  Y  Y0  1  0.49999999  0.50000000  -0.00000002  1
  Fe  Fe1  1  0.74999999  0.25000000  0.49999999  1
  Fe  Fe2  1  0.24999999  0.75000000  0.49999999  1
  B  B3  1  0.14390200  0.14390200  0.28780400  1
  C  C4  1  0.85609798  0.85609800  0.71219598  1
  C  C5  1  0.00000000  0.00000000  0.00000000  1
