# generated using pymatgen
data_Na4ScBe2Cl3O8
_symmetry_space_group_name_H-M   'P 1'
_cell_length_a   5.24465990
_cell_length_b   7.14565182
_cell_length_c   7.14565182
_cell_angle_alpha   120.00000000
_cell_angle_beta   90.00000000
_cell_angle_gamma   90.00000000
_symmetry_Int_Tables_number   1
_chemical_formula_structural   Na4ScBe2Cl3O8
_chemical_formula_sum   'Na4 Sc1 Be2 Cl3 O8'
_cell_volume   231.91650844
_cell_formula_units_Z   1
loop_
 _symmetry_equiv_pos_site_id
 _symmetry_equiv_pos_as_xyz
  1  'x, y, z'
loop_
 _atom_site_type_symbol
 _atom_site_label
 _atom_site_symmetry_multiplicity
 _atom_site_fract_x
 _atom_site_fract_y
 _atom_site_fract_z
 _atom_site_occupancy
  Sc  Sc0  1  0.50000001  0.33333334  0.66666667  1
  Na  Na1  1  0.50000001  0.66666668  0.33333333  1
  Na  Na2  1  -0.00000000  0.66666668  0.33333333  1
  Na  Na3  1  1.00000002  0.33333334  0.66666667  1
  Na  Na4  1  0.75000001  0.22271200  -0.00000000  1
  Be  Be5  1  0.75000001  0.77728801  0.77728799  1
  Cl  Cl6  1  0.75000001  0.00000000  0.22271200  1
  Be  Be7  1  0.25000000  0.77728801  -0.00000001  1
  Cl  Cl8  1  0.25000000  0.22271200  0.22271200  1
  Cl  Cl9  1  0.25000000  0.00000000  0.77728800  1
  O  O10  1  0.75000001  0.59775701  -0.00000001  1
  O  O11  1  0.75000001  0.40224301  0.40224300  1
  O  O12  1  0.75000001  0.00000000  0.59775700  1
  O  O13  1  0.25000000  0.40224301  1.00000000  1
  O  O14  1  0.25000000  0.59775701  0.59775700  1
  O  O15  1  0.25000000  0.00000000  0.40224300  1
  O  O16  1  0.50000001  0.00000000  -0.00000000  1
  O  O17  1  0.00000000  0.00000000  0.00000000  1
