# generated using pymatgen
data_Nb5Fe3Ge8
_symmetry_space_group_name_H-M   'P 1'
_cell_length_a   4.30211687
_cell_length_b   6.62670517
_cell_length_c   9.31547260
_cell_angle_alpha   90.00000000
_cell_angle_beta   90.00000000
_cell_angle_gamma   90.00000000
_symmetry_Int_Tables_number   1
_chemical_formula_structural   Nb5Fe3Ge8
_chemical_formula_sum   'Nb5 Fe3 Ge8'
_cell_volume   265.57350528
_cell_formula_units_Z   1
loop_
 _symmetry_equiv_pos_site_id
 _symmetry_equiv_pos_as_xyz
  1  'x, y, z'
loop_
 _atom_site_type_symbol
 _atom_site_label
 _atom_site_symmetry_multiplicity
 _atom_site_fract_x
 _atom_site_fract_y
 _atom_site_fract_z
 _atom_site_occupancy
  Nb  Nb0  1  0.25000001  0.31080299  0.10054500  1
  Nb  Nb1  1  0.75000002  0.68919698  0.89945504  1
  Nb  Nb2  1  0.75000002  0.81080298  0.39945502  1
  Nb  Nb3  1  0.25000001  0.18919700  0.60054503  1
  Ge  Ge4  1  0.25000001  0.08591600  0.32513301  1
  Nb  Nb5  1  0.75000002  0.91408398  0.67486703  1
  Ge  Ge6  1  0.75000002  0.58591598  0.17486701  1
  Ge  Ge7  1  0.25000001  0.41408399  0.82513304  1
  Fe  Fe8  1  0.25000001  0.53196499  0.37962302  1
  Fe  Fe9  1  0.75000002  0.46803499  0.62037703  1
  Ge  Ge10  1  0.75000002  0.03196500  0.12037701  1
  Fe  Fe11  1  0.25000001  0.96803498  0.87962304  1
  Ge  Ge12  1  0.25000001  0.79781998  0.13909001  1
  Ge  Ge13  1  0.75000002  0.20217999  0.86091004  1
  Ge  Ge14  1  0.75000002  0.29781999  0.36091002  1
  Ge  Ge15  1  0.25000001  0.70217998  0.63909003  1
