# generated using pymatgen
data_Pr2B3C4
_symmetry_space_group_name_H-M   'P 1'
_cell_length_a   3.74473810
_cell_length_b   4.13942385
_cell_length_c   9.92200756
_cell_angle_alpha   97.61330414
_cell_angle_beta   90.00000000
_cell_angle_gamma   116.89302063
_symmetry_Int_Tables_number   1
_chemical_formula_structural   Pr2B3C4
_chemical_formula_sum   'Pr2 B3 C4'
_cell_volume   135.64643755
_cell_formula_units_Z   1
loop_
 _symmetry_equiv_pos_site_id
 _symmetry_equiv_pos_as_xyz
  1  'x, y, z'
loop_
 _atom_site_type_symbol
 _atom_site_label
 _atom_site_symmetry_multiplicity
 _atom_site_fract_x
 _atom_site_fract_y
 _atom_site_fract_z
 _atom_site_occupancy
  Pr  Pr0  1  0.00000000  0.00000000  0.00000000  1
  Pr  Pr1  1  0.66878401  0.33756799  0.66404601  1
  B  B2  1  0.33121604  0.66243199  0.33595400  1
  B  B3  1  0.26494203  0.52988399  0.85065501  1
  C  C4  1  0.92994704  0.85989398  0.53230000  1
  B  B5  1  0.59768600  0.19537200  0.21799300  1
  C  C6  1  0.73505802  0.47011599  0.14934500  1
  C  C7  1  0.40231405  0.80462798  0.78200701  1
  C  C8  1  0.07005301  0.14010600  0.46770001  1
