# generated using pymatgen
data_Na4Cu3O5
_symmetry_space_group_name_H-M   'P 1'
_cell_length_a   3.97445989
_cell_length_b   5.30972719
_cell_length_c   10.13725758
_cell_angle_alpha   75.09639740
_cell_angle_beta   78.69496155
_cell_angle_gamma   68.02128601
_symmetry_Int_Tables_number   1
_chemical_formula_structural   Na4Cu3O5
_chemical_formula_sum   'Na4 Cu3 O5'
_cell_volume   190.51625258
_cell_formula_units_Z   1
loop_
 _symmetry_equiv_pos_site_id
 _symmetry_equiv_pos_as_xyz
  1  'x, y, z'
loop_
 _atom_site_type_symbol
 _atom_site_label
 _atom_site_symmetry_multiplicity
 _atom_site_fract_x
 _atom_site_fract_y
 _atom_site_fract_z
 _atom_site_occupancy
  Na  Na0  1  0.22015907  0.76539900  0.79428298  1
  Na  Na1  1  0.77984105  0.23460100  0.20571698  1
  Na  Na2  1  0.62034404  0.19309700  0.56621497  1
  Na  Na3  1  0.37965608  0.80690300  0.43378499  1
  Cu  Cu4  1  0.88654306  0.32240200  0.90451195  1
  Cu  Cu5  1  0.11345706  0.67759800  0.09548800  1
  Cu  Cu6  1  0.16772802  0.10310400  0.56143998  1
  O  O7  1  0.64881211  0.96121700  0.74115897  1
  O  O8  1  0.83227211  0.89689600  0.43855998  1
  O  O9  1  0.42343806  0.53178400  0.62133998  1
  O  O10  1  0.35118802  0.03878300  0.25884098  1
  O  O11  1  0.57656206  0.46821600  0.37865998  1
