# generated using pymatgen
data_Rb5Pd
_symmetry_space_group_name_H-M   'P 1'
_cell_length_a   5.00137901
_cell_length_b   7.74855518
_cell_length_c   7.74855518
_cell_angle_alpha   90.00000000
_cell_angle_beta   90.00000000
_cell_angle_gamma   90.00000000
_symmetry_Int_Tables_number   1
_chemical_formula_structural   Rb5Pd
_chemical_formula_sum   'Rb5 Pd1'
_cell_volume   300.28333324
_cell_formula_units_Z   1
loop_
 _symmetry_equiv_pos_site_id
 _symmetry_equiv_pos_as_xyz
  1  'x, y, z'
loop_
 _atom_site_type_symbol
 _atom_site_label
 _atom_site_symmetry_multiplicity
 _atom_site_fract_x
 _atom_site_fract_y
 _atom_site_fract_z
 _atom_site_occupancy
  Rb  Rb0  1  0.00000000  0.00000000  0.00000000  1
  Rb  Rb1  1  0.50000000  0.49999999  0.49999999  1
  Rb  Rb2  1  -0.00000000  0.30250099  0.30250099  1
  Pd  Pd3  1  0.00000000  0.69749898  0.69749898  1
  Rb  Rb4  1  0.50000000  0.19749900  0.80250098  1
  Rb  Rb5  1  0.50000000  0.80250098  0.19749900  1
