# generated using pymatgen
data_Li2CuO2
_symmetry_space_group_name_H-M   'P 1'
_cell_length_a   5.26943731
_cell_length_b   5.26943731
_cell_length_c   5.54373550
_cell_angle_alpha   61.62369156
_cell_angle_beta   61.62369156
_cell_angle_gamma   60.00000763
_symmetry_Int_Tables_number   1
_chemical_formula_structural   Li2CuO2
_chemical_formula_sum   'Li4 Cu2 O4'
_cell_volume   111.44215274
_cell_formula_units_Z   2
loop_
 _symmetry_equiv_pos_site_id
 _symmetry_equiv_pos_as_xyz
  1  'x, y, z'
loop_
 _atom_site_type_symbol
 _atom_site_label
 _atom_site_symmetry_multiplicity
 _atom_site_fract_x
 _atom_site_fract_y
 _atom_site_fract_z
 _atom_site_occupancy
  Li  Li0  1  0.25000001  0.25000000  0.25000001  1
  Li  Li1  1  0.75000003  0.75000001  0.75000003  1
  Li  Li2  1  0.50000002  0.50000001  0.50000002  1
  Li  Li3  1  0.00000000  0.00000000  0.00000000  1
  Cu  Cu4  1  0.37037001  0.12963000  0.75000002  1
  Cu  Cu5  1  0.75000002  0.37037001  0.75000003  1
  O  O6  1  0.62963003  0.87037002  0.25000003  1
  O  O7  1  0.87037002  0.25000000  0.25000002  1
  O  O8  1  0.25000001  0.62963001  0.25000002  1
  O  O9  1  0.12963001  0.75000001  0.75000002  1
