# generated using pymatgen
data_Li2Fe2Cu
_symmetry_space_group_name_H-M   'P 1'
_cell_length_a   4.08901215
_cell_length_b   4.08901167
_cell_length_c   4.87459707
_cell_angle_alpha   90.00000000
_cell_angle_beta   90.00000000
_cell_angle_gamma   120.00000000
_symmetry_Int_Tables_number   1
_chemical_formula_structural   Li2Fe2Cu
_chemical_formula_sum   'Li2 Fe2 Cu1'
_cell_volume   70.58397389
_cell_formula_units_Z   1
loop_
 _symmetry_equiv_pos_site_id
 _symmetry_equiv_pos_as_xyz
  1  'x, y, z'
loop_
 _atom_site_type_symbol
 _atom_site_label
 _atom_site_symmetry_multiplicity
 _atom_site_fract_x
 _atom_site_fract_y
 _atom_site_fract_z
 _atom_site_occupancy
  Li  Li0  1  0.00000000  0.00000000  0.00000000  1
  Li  Li1  1  0.33333330  0.66666667  0.63825599  1
  Cu  Cu2  1  0.66666663  0.33333334  0.36174399  1
  Fe  Fe3  1  0.33333330  0.66666667  0.13636900  1
  Fe  Fe4  1  0.66666663  0.33333334  0.86363099  1
