# generated using pymatgen
data_BaCa3
_symmetry_space_group_name_H-M   'P 1'
_cell_length_a   6.44119978
_cell_length_b   7.99991179
_cell_length_c   7.99991179
_cell_angle_alpha   120.00000000
_cell_angle_beta   90.00000000
_cell_angle_gamma   90.00000000
_symmetry_Int_Tables_number   1
_chemical_formula_structural   BaCa3
_chemical_formula_sum   'Ba2 Ca6'
_cell_volume   356.99965565
_cell_formula_units_Z   2
loop_
 _symmetry_equiv_pos_site_id
 _symmetry_equiv_pos_as_xyz
  1  'x, y, z'
loop_
 _atom_site_type_symbol
 _atom_site_label
 _atom_site_symmetry_multiplicity
 _atom_site_fract_x
 _atom_site_fract_y
 _atom_site_fract_z
 _atom_site_occupancy
  Ba  Ba0  1  0.25000001  0.66666668  0.33333334  1
  Ba  Ba1  1  0.75000003  0.33333334  0.66666668  1
  Ca  Ca2  1  0.75000003  0.83258102  0.16741900  1
  Ca  Ca3  1  0.75000003  0.33483801  0.16741900  1
  Ca  Ca4  1  0.75000003  0.83258102  0.66516202  1
  Ca  Ca5  1  0.25000001  0.16741900  0.83258102  1
  Ca  Ca6  1  0.25000001  0.66516202  0.83258102  1
  Ca  Ca7  1  0.25000001  0.16741900  0.33483801  1
