# generated using pymatgen
data_Li2O2
_symmetry_space_group_name_H-M   'P 1'
_cell_length_a   2.98618603
_cell_length_b   6.02432585
_cell_length_c   6.70235443
_cell_angle_alpha   103.17356873
_cell_angle_beta   102.87186432
_cell_angle_gamma   90.00000000
_symmetry_Int_Tables_number   1
_chemical_formula_structural   Li2O2
_chemical_formula_sum   'Li6 O6'
_cell_volume   114.28670721
_cell_formula_units_Z   3
loop_
 _symmetry_equiv_pos_site_id
 _symmetry_equiv_pos_as_xyz
  1  'x, y, z'
loop_
 _atom_site_type_symbol
 _atom_site_label
 _atom_site_symmetry_multiplicity
 _atom_site_fract_x
 _atom_site_fract_y
 _atom_site_fract_z
 _atom_site_occupancy
  Li  Li0  1  0.00000000  0.00000000  0.00000000  1
  Li  Li1  1  0.33208299  0.66885498  0.66416599  1
  Li  Li2  1  0.66791699  0.33114499  0.33583400  1
  Li  Li3  1  -0.00000000  0.49999999  -0.00000001  1
  Li  Li4  1  0.32868000  0.15702100  0.65736000  1
  Li  Li5  1  0.67131999  0.84297898  0.34263999  1
  O  O6  1  0.84497299  0.41368199  0.68994600  1
  O  O7  1  0.16641000  0.07408200  0.33282000  1
  O  O8  1  0.15502700  0.58631798  0.31005399  1
  O  O9  1  0.50003899  0.72278098  0.00007799  1
  O  O10  1  0.49996099  0.27721899  0.99992200  1
  O  O11  1  0.83358999  0.92591797  0.66717999  1
