# generated using pymatgen
data_Li3MnNO7
_symmetry_space_group_name_H-M   'P 1'
_cell_length_a   5.29834318
_cell_length_b   5.50543785
_cell_length_c   5.36666632
_cell_angle_alpha   90.00000000
_cell_angle_beta   61.93865585
_cell_angle_gamma   90.00000000
_symmetry_Int_Tables_number   1
_chemical_formula_structural   Li3MnNO7
_chemical_formula_sum   'Li3 Mn1 N1 O7'
_cell_volume   138.14141974
_cell_formula_units_Z   1
loop_
 _symmetry_equiv_pos_site_id
 _symmetry_equiv_pos_as_xyz
  1  'x, y, z'
loop_
 _atom_site_type_symbol
 _atom_site_label
 _atom_site_symmetry_multiplicity
 _atom_site_fract_x
 _atom_site_fract_y
 _atom_site_fract_z
 _atom_site_occupancy
  Li  Li0  1  0.74999998  0.40542201  0.49999999  1
  Li  Li1  1  0.24999999  0.59457802  0.50000000  1
  Li  Li2  1  0.74999998  0.09862500  -0.00000002  1
  Mn  Mn3  1  0.24999999  0.90137502  -0.00000001  1
  O  O4  1  0.97323798  0.11031400  0.20038998  1
  N  N5  1  0.52676199  0.11031400  0.79961000  1
  O  O6  1  0.47323799  0.88968602  0.20038999  1
  O  O7  1  0.02676200  0.88968602  0.79961001  1
  O  O8  1  0.94546598  0.35850201  0.73666299  1
  O  O9  1  0.44546599  0.64149802  0.73666300  1
  O  O10  1  0.55453399  0.35850201  0.26333699  1
  O  O11  1  0.05453400  0.64149802  0.26333700  1
