# generated using pymatgen
data_Li2Co3C7
_symmetry_space_group_name_H-M   'P 1'
_cell_length_a   5.22870827
_cell_length_b   5.22870827
_cell_length_c   8.10755157
_cell_angle_alpha   87.79994202
_cell_angle_beta   87.79994202
_cell_angle_gamma   65.75052643
_symmetry_Int_Tables_number   1
_chemical_formula_structural   Li2Co3C7
_chemical_formula_sum   'Li2 Co3 C7'
_cell_volume   201.88668993
_cell_formula_units_Z   1
loop_
 _symmetry_equiv_pos_site_id
 _symmetry_equiv_pos_as_xyz
  1  'x, y, z'
loop_
 _atom_site_type_symbol
 _atom_site_label
 _atom_site_symmetry_multiplicity
 _atom_site_fract_x
 _atom_site_fract_y
 _atom_site_fract_z
 _atom_site_occupancy
  Li  Li0  1  0.00000000  0.00000000  0.49999999  1
  Li  Li1  1  0.00000000  0.00000000  0.00000000  1
  Co  Co2  1  0.63504900  0.63504898  0.21665802  1
  Co  Co3  1  0.36495000  0.36494999  0.78334200  1
  C  C4  1  0.70050700  0.70050698  0.40916502  1
  C  C5  1  0.29949300  0.29949299  0.59083500  1
  C  C6  1  0.77147699  0.27405199  0.19374602  1
  Co  Co7  1  0.22852301  0.72594798  0.80625400  1
  C  C8  1  0.72594799  0.22852299  0.80625400  1
  C  C9  1  0.27405200  0.77147698  0.19374602  1
  C  C10  1  0.76766700  0.76766698  0.05496903  1
  C  C11  1  0.23233300  0.23233299  0.94503099  1
