# generated using pymatgen
data_Na3CuO6
_symmetry_space_group_name_H-M   'P 1'
_cell_length_a   5.56758213
_cell_length_b   5.56756783
_cell_length_c   9.76359367
_cell_angle_alpha   73.72882843
_cell_angle_beta   73.72870636
_cell_angle_gamma   60.18539810
_symmetry_Int_Tables_number   1
_chemical_formula_structural   Na3CuO6
_chemical_formula_sum   'Na6 Cu2 O12'
_cell_volume   248.44169005
_cell_formula_units_Z   2
loop_
 _symmetry_equiv_pos_site_id
 _symmetry_equiv_pos_as_xyz
  1  'x, y, z'
loop_
 _atom_site_type_symbol
 _atom_site_label
 _atom_site_symmetry_multiplicity
 _atom_site_fract_x
 _atom_site_fract_y
 _atom_site_fract_z
 _atom_site_occupancy
  Na  Na0  1  0.50000699  0.99999603  0.99999402  1
  Na  Na1  1  0.99999901  0.50000201  0.50000203  1
  Na  Na2  1  0.76184601  0.23815601  0.25000002  1
  Na  Na3  1  0.23815799  0.76183902  0.74999901  1
  Na  Na4  1  0.65516501  0.07635700  0.63079300  1
  Na  Na5  1  0.92364501  0.34482701  0.86920801  1
  Cu  Cu6  1  0.34483199  0.92365303  0.36920703  1
  Cu  Cu7  1  0.07634999  0.65517002  0.13079302  1
  O  O8  1  0.12591000  0.16948000  0.65873699  1
  O  O9  1  0.83052100  0.87408902  0.84126303  1
  O  O10  1  0.87408400  0.83051802  0.34126804  1
  O  O11  1  0.16948900  0.12591000  0.15873200  1
  O  O12  1  0.31894300  0.37238501  0.86510000  1
  O  O13  1  0.62761400  0.68105502  0.63490102  1
  O  O14  1  0.68105700  0.62761102  0.13490304  1
  O  O15  1  0.37239100  0.31894501  0.36509801  1
  O  O16  1  0.11451499  0.71754002  0.58399801  1
  O  O17  1  0.28245899  0.88548103  0.91600201  1
  O  O18  1  0.71753801  0.11452200  0.08399902  1
  O  O19  1  0.88547701  0.28246501  0.41600302  1
