# generated using pymatgen
data_TiBe8Nb
_symmetry_space_group_name_H-M   'P 1'
_cell_length_a   3.17902088
_cell_length_b   5.80790806
_cell_length_c   5.80790806
_cell_angle_alpha   90.00000000
_cell_angle_beta   90.00000000
_cell_angle_gamma   90.00000000
_symmetry_Int_Tables_number   1
_chemical_formula_structural   TiBe8Nb
_chemical_formula_sum   'Ti1 Be8 Nb1'
_cell_volume   107.23408390
_cell_formula_units_Z   1
loop_
 _symmetry_equiv_pos_site_id
 _symmetry_equiv_pos_as_xyz
  1  'x, y, z'
loop_
 _atom_site_type_symbol
 _atom_site_label
 _atom_site_symmetry_multiplicity
 _atom_site_fract_x
 _atom_site_fract_y
 _atom_site_fract_z
 _atom_site_occupancy
  Be  Be0  1  0.00000000  0.49999999  0.49999999  1
  Ti  Ti1  1  0.00000000  0.00000000  0.00000000  1
  Be  Be2  1  0.00000000  0.11382600  0.61382599  1
  Be  Be3  1  1.00000004  0.88617399  0.38617400  1
  Be  Be4  1  0.00000000  0.61382599  0.88617399  1
  Be  Be5  1  0.00000000  0.38617400  0.11382600  1
  Nb  Nb6  1  0.50000002  0.82216099  0.67783899  1
  Be  Be7  1  0.50000002  0.17783900  0.32216100  1
  Be  Be8  1  0.50000002  0.67783899  0.17783900  1
  Be  Be9  1  0.50000002  0.32216100  0.82216099  1
