# generated using pymatgen
data_Sc2AlNi3
_symmetry_space_group_name_H-M   'P 1'
_cell_length_a   4.81864405
_cell_length_b   4.92816687
_cell_length_c   4.92816687
_cell_angle_alpha   76.17179108
_cell_angle_beta   60.73247528
_cell_angle_gamma   60.73247528
_symmetry_Int_Tables_number   1
_chemical_formula_structural   Sc2AlNi3
_chemical_formula_sum   'Sc2 Al1 Ni3'
_cell_volume   89.05815948
_cell_formula_units_Z   1
loop_
 _symmetry_equiv_pos_site_id
 _symmetry_equiv_pos_as_xyz
  1  'x, y, z'
loop_
 _atom_site_type_symbol
 _atom_site_label
 _atom_site_symmetry_multiplicity
 _atom_site_fract_x
 _atom_site_fract_y
 _atom_site_fract_z
 _atom_site_occupancy
  Sc  Sc0  1  0.84238799  0.81522301  0.49999999  1
  Sc  Sc1  1  0.65761099  0.50000000  0.18477799  1
  Al  Al2  1  0.34238899  0.50000000  0.81522199  1
  Ni  Ni3  1  0.15761200  0.18477700  0.50000000  1
  Ni  Ni4  1  0.25000000  0.00000000  -0.00000000  1
  Ni  Ni5  1  0.75000000  0.00000000  -0.00000001  1
