# generated using pymatgen
data_CuHO3
_symmetry_space_group_name_H-M   'P 1'
_cell_length_a   4.46487761
_cell_length_b   4.46487761
_cell_length_c   4.46487761
_cell_angle_alpha   80.35369110
_cell_angle_beta   80.35369110
_cell_angle_gamma   80.35369110
_symmetry_Int_Tables_number   1
_chemical_formula_structural   CuHO3
_chemical_formula_sum   'Cu1 H1 O3'
_cell_volume   85.61318670
_cell_formula_units_Z   1
loop_
 _symmetry_equiv_pos_site_id
 _symmetry_equiv_pos_as_xyz
  1  'x, y, z'
loop_
 _atom_site_type_symbol
 _atom_site_label
 _atom_site_symmetry_multiplicity
 _atom_site_fract_x
 _atom_site_fract_y
 _atom_site_fract_z
 _atom_site_occupancy
  Cu  Cu0  1  0.05590200  0.05590200  0.05590200  1
  H  H1  1  0.50641799  0.50641797  0.50641798  1
  O  O2  1  0.89426197  0.42932598  0.42932597  1
  O  O3  1  0.42932601  0.89426196  0.42932597  1
  O  O4  1  0.42932600  0.42932598  0.89426201  1
