# generated using pymatgen
data_Be2Mo
_symmetry_space_group_name_H-M   'P 1'
_cell_length_a   3.16239905
_cell_length_b   3.79347801
_cell_length_c   3.79347849
_cell_angle_alpha   60.00000381
_cell_angle_beta   90.00000000
_cell_angle_gamma   90.00000000
_symmetry_Int_Tables_number   1
_chemical_formula_structural   Be2Mo
_chemical_formula_sum   'Be2 Mo1'
_cell_volume   39.41145936
_cell_formula_units_Z   1
loop_
 _symmetry_equiv_pos_site_id
 _symmetry_equiv_pos_as_xyz
  1  'x, y, z'
loop_
 _atom_site_type_symbol
 _atom_site_label
 _atom_site_symmetry_multiplicity
 _atom_site_fract_x
 _atom_site_fract_y
 _atom_site_fract_z
 _atom_site_occupancy
  Be  Be0  1  0.00000000  0.00000000  0.00000000  1
  Be  Be1  1  0.49999999  0.33333334  0.33333333  1
  Mo  Mo2  1  0.49999999  0.66666667  0.66666667  1
