# generated using pymatgen
data_Sr(SiO3)2
_symmetry_space_group_name_H-M   'P 1'
_cell_length_a   6.85535574
_cell_length_b   6.85535574
_cell_length_c   7.23157644
_cell_angle_alpha   101.82174683
_cell_angle_beta   111.95341492
_cell_angle_gamma   112.92462158
_symmetry_Int_Tables_number   1
_chemical_formula_structural   Sr(SiO3)2
_chemical_formula_sum   'Sr2 Si4 O12'
_cell_volume   264.75316772
_cell_formula_units_Z   2
loop_
 _symmetry_equiv_pos_site_id
 _symmetry_equiv_pos_as_xyz
  1  'x, y, z'
loop_
 _atom_site_type_symbol
 _atom_site_label
 _atom_site_symmetry_multiplicity
 _atom_site_fract_x
 _atom_site_fract_y
 _atom_site_fract_z
 _atom_site_occupancy
  Sr  Sr0  1  0.41298502  0.16298500  0.25000000  1
  Sr  Sr1  1  0.58701500  0.83701500  0.74999995  1
  Si  Si2  1  0.50581102  0.29949600  0.81156698  1
  Si  Si3  1  0.01207099  0.30575600  0.31156697  1
  Si  Si4  1  0.98792903  0.69424400  0.68843298  1
  Si  Si5  1  0.49418900  0.70050400  0.18843297  1
  O  O6  1  0.56420702  0.18696900  0.65126100  1
  O  O7  1  0.67716001  0.55577500  0.90769097  1
  O  O8  1  0.58285502  0.21584900  0.99068398  1
  O  O9  1  0.96429205  0.08705400  0.15126104  1
  O  O10  1  0.85191604  0.23053100  0.40769102  1
  O  O11  1  0.27483500  0.40782900  0.49068397  1
  O  O12  1  0.72516502  0.59217100  0.50931598  1
  O  O13  1  0.14808398  0.76946900  0.59230893  1
  O  O14  1  0.03570797  0.91294600  0.84873891  1
  O  O15  1  0.41714499  0.78415100  0.00931597  1
  O  O16  1  0.32284000  0.44422500  0.09230898  1
  O  O17  1  0.43579299  0.81303100  0.34873895  1
