# generated using pymatgen
data_LiCuO4
_symmetry_space_group_name_H-M   'P 1'
_cell_length_a   5.74338245
_cell_length_b   7.16425991
_cell_length_c   7.16425991
_cell_angle_alpha   85.13043213
_cell_angle_beta   76.53192902
_cell_angle_gamma   76.53192902
_symmetry_Int_Tables_number   1
_chemical_formula_structural   LiCuO4
_chemical_formula_sum   'Li3 Cu3 O12'
_cell_volume   278.65151516
_cell_formula_units_Z   3
loop_
 _symmetry_equiv_pos_site_id
 _symmetry_equiv_pos_as_xyz
  1  'x, y, z'
loop_
 _atom_site_type_symbol
 _atom_site_label
 _atom_site_symmetry_multiplicity
 _atom_site_fract_x
 _atom_site_fract_y
 _atom_site_fract_z
 _atom_site_occupancy
  Li  Li0  1  0.25034901  0.62424901  0.78132302  1
  Li  Li1  1  0.24965100  0.21867700  0.37575101  1
  Li  Li2  1  0.74965100  0.37575101  0.21867701  1
  Cu  Cu3  1  0.75034901  0.78132301  0.62424903  1
  Cu  Cu4  1  0.25000000  0.12350400  0.87649602  1
  Cu  Cu5  1  0.75000001  0.87649602  0.12350401  1
  O  O6  1  0.51117501  0.66731001  0.61145402  1
  O  O7  1  0.98882500  0.38854601  0.33269002  1
  O  O8  1  0.48882500  0.33269001  0.38854602  1
  O  O9  1  0.01117501  0.61145401  0.66731002  1
  O  O10  1  0.81638701  0.90704302  0.40471202  1
  O  O11  1  0.68361301  0.59528801  0.09295701  1
  O  O12  1  0.18361300  0.09295700  0.59528801  1
  O  O13  1  0.31638701  0.40471201  0.90704302  1
  O  O14  1  0.13921201  0.82245201  0.94409202  1
  O  O15  1  0.36078800  0.05590800  0.17754801  1
  O  O16  1  0.86078800  0.17754800  0.05590801  1
  O  O17  1  0.63921201  0.94409202  0.82245203  1
