# generated using pymatgen
data_Li2CuS4
_symmetry_space_group_name_H-M   'P 1'
_cell_length_a   6.94471312
_cell_length_b   6.94471312
_cell_length_c   6.95660830
_cell_angle_alpha   61.52767181
_cell_angle_beta   61.52767181
_cell_angle_gamma   61.57176590
_symmetry_Int_Tables_number   1
_chemical_formula_structural   Li2CuS4
_chemical_formula_sum   'Li4 Cu2 S8'
_cell_volume   245.45308799
_cell_formula_units_Z   2
loop_
 _symmetry_equiv_pos_site_id
 _symmetry_equiv_pos_as_xyz
  1  'x, y, z'
loop_
 _atom_site_type_symbol
 _atom_site_label
 _atom_site_symmetry_multiplicity
 _atom_site_fract_x
 _atom_site_fract_y
 _atom_site_fract_z
 _atom_site_occupancy
  Li  Li0  1  0.39879199  0.60120801  -0.00000001  1
  Li  Li1  1  0.36925199  0.63074801  0.49999999  1
  Li  Li2  1  0.36897400  0.13671800  0.00386799  1
  Li  Li3  1  0.86328199  0.63102601  0.99613199  1
  Cu  Cu4  1  0.75759298  0.98825301  0.37719898  1
  Cu  Cu5  1  0.01174699  0.24240700  0.62280100  1
  S  S6  1  0.13111299  0.38659701  0.75997200  1
  S  S7  1  0.61764400  0.37797901  0.74237899  1
  S  S8  1  0.11472799  0.39102601  0.23155900  1
  S  S9  1  0.12435398  0.85187801  0.75794899  1
  S  S10  1  0.61340299  0.86888701  0.24002799  1
  S  S11  1  0.62202100  0.38235601  0.25762099  1
  S  S12  1  0.60897399  0.88527201  0.76844099  1
  S  S13  1  0.14812198  0.87564601  0.24205099  1
