# generated using pymatgen
data_Y(Al5Fe)2
_symmetry_space_group_name_H-M   'P 1'
_cell_length_a   5.11853981
_cell_length_b   6.83260822
_cell_length_c   6.83260822
_cell_angle_alpha   81.93476868
_cell_angle_beta   68.00244141
_cell_angle_gamma   68.00244141
_symmetry_Int_Tables_number   1
_chemical_formula_structural   Y(Al5Fe)2
_chemical_formula_sum   'Y1 Al10 Fe2'
_cell_volume   205.43091356
_cell_formula_units_Z   1
loop_
 _symmetry_equiv_pos_site_id
 _symmetry_equiv_pos_as_xyz
  1  'x, y, z'
loop_
 _atom_site_type_symbol
 _atom_site_label
 _atom_site_symmetry_multiplicity
 _atom_site_fract_x
 _atom_site_fract_y
 _atom_site_fract_z
 _atom_site_occupancy
  Y  Y0  1  0.00000000  0.00000000  0.00000000  1
  Al  Al1  1  1.00000002  0.34885500  0.65114500  1
  Al  Al2  1  -0.00000004  0.65114500  0.34885504  1
  Al  Al3  1  0.34885497  0.65114500  0.65114504  1
  Al  Al4  1  0.65114501  0.34885500  0.34885501  1
  Al  Al5  1  0.49999997  0.77920000  0.22080005  1
  Al  Al6  1  0.50000001  0.22080000  0.77920000  1
  Al  Al7  1  0.27920000  0.22080000  0.22080001  1
  Al  Al8  1  0.72079998  0.77920000  0.77920004  1
  Al  Al9  1  0.49999999  0.50000000  0.00000003  1
  Al  Al10  1  -0.00000003  0.50000000  0.00000004  1
  Fe  Fe11  1  0.00000000  0.00000000  0.50000000  1
  Fe  Fe12  1  0.49999996  1.00000000  0.50000006  1
