# generated using pymatgen
data_CaNd6Mg
_symmetry_space_group_name_H-M   'P 1'
_cell_length_a   5.97729492
_cell_length_b   7.41842985
_cell_length_c   7.41842937
_cell_angle_alpha   120.00000000
_cell_angle_beta   90.00000000
_cell_angle_gamma   90.00000000
_symmetry_Int_Tables_number   1
_chemical_formula_structural   CaNd6Mg
_chemical_formula_sum   'Ca1 Nd6 Mg1'
_cell_volume   284.87823971
_cell_formula_units_Z   1
loop_
 _symmetry_equiv_pos_site_id
 _symmetry_equiv_pos_as_xyz
  1  'x, y, z'
loop_
 _atom_site_type_symbol
 _atom_site_label
 _atom_site_symmetry_multiplicity
 _atom_site_fract_x
 _atom_site_fract_y
 _atom_site_fract_z
 _atom_site_occupancy
  Ca  Ca0  1  0.75000001  0.33333333  0.66666664  1
  Nd  Nd1  1  0.25000000  0.66666666  0.33333329  1
  Nd  Nd2  1  0.25000000  0.16591500  0.33182998  1
  Nd  Nd3  1  0.25000000  0.66816999  0.83408495  1
  Nd  Nd4  1  0.25000000  0.16591500  0.83408498  1
  Nd  Nd5  1  0.75000001  0.83408499  0.66816994  1
  Nd  Nd6  1  0.75000001  0.33183000  0.16591498  1
  Mg  Mg7  1  0.75000001  0.83408499  0.16591494  1
