# generated using pymatgen
data_Fe2O3
_symmetry_space_group_name_H-M   'P 1'
_cell_length_a   5.21014977
_cell_length_b   5.21014977
_cell_length_c   5.57731676
_cell_angle_alpha   62.15482712
_cell_angle_beta   62.15482712
_cell_angle_gamma   60.00000000
_symmetry_Int_Tables_number   1
_chemical_formula_structural   Fe2O3
_chemical_formula_sum   'Fe4 O6'
_cell_volume   110.41122039
_cell_formula_units_Z   2
loop_
 _symmetry_equiv_pos_site_id
 _symmetry_equiv_pos_as_xyz
  1  'x, y, z'
loop_
 _atom_site_type_symbol
 _atom_site_label
 _atom_site_symmetry_multiplicity
 _atom_site_fract_x
 _atom_site_fract_y
 _atom_site_fract_z
 _atom_site_occupancy
  Fe  Fe0  1  0.84943500  0.84943503  0.45169504  1
  Fe  Fe1  1  0.65056500  0.65056502  0.04830502  1
  Fe  Fe2  1  0.15056500  0.15056501  0.54830502  1
  Fe  Fe3  1  0.34943500  0.34943501  0.95169504  1
  O  O4  1  0.04959699  0.45040302  0.75000003  1
  O  O5  1  0.75000002  0.04959700  0.75000003  1
  O  O6  1  0.45040299  0.75000003  0.75000004  1
  O  O7  1  0.95040301  0.54959702  0.25000003  1
  O  O8  1  0.24999998  0.95040303  0.25000003  1
  O  O9  1  0.54959701  0.25000001  0.25000002  1
