# generated using pymatgen
data_La13In6Bi
_symmetry_space_group_name_H-M   'P 1'
_cell_length_a   9.10279083
_cell_length_b   9.10279083
_cell_length_c   9.10279083
_cell_angle_alpha   90.00000000
_cell_angle_beta   90.00000000
_cell_angle_gamma   90.00000000
_symmetry_Int_Tables_number   1
_chemical_formula_structural   La13In6Bi
_chemical_formula_sum   'La13 In6 Bi1'
_cell_volume   754.26453918
_cell_formula_units_Z   1
loop_
 _symmetry_equiv_pos_site_id
 _symmetry_equiv_pos_as_xyz
  1  'x, y, z'
loop_
 _atom_site_type_symbol
 _atom_site_label
 _atom_site_symmetry_multiplicity
 _atom_site_fract_x
 _atom_site_fract_y
 _atom_site_fract_z
 _atom_site_occupancy
  La  La0  1  0.87500002  0.70208101  0.04791900  1
  La  La1  1  0.06349400  0.06349400  0.06349400  1
  La  La2  1  0.20208100  0.45208101  0.12500000  1
  La  La3  1  0.81349401  0.31349401  0.18650600  1
  La  La4  1  0.45208101  0.12500000  0.20208100  1
  La  La5  1  0.54791901  0.62500001  0.29791901  1
  La  La6  1  0.18650600  0.81349401  0.31349401  1
  La  La7  1  0.79791901  0.95208102  0.37500001  1
  La  La8  1  0.93650602  0.56349401  0.43650601  1
  La  La9  1  0.12500000  0.20208100  0.45208101  1
  La  La10  1  0.62500001  0.29791901  0.54791901  1
  La  La11  1  0.43650601  0.93650602  0.56349401  1
  La  La12  1  0.29791901  0.54791901  0.62500001  1
  In  In13  1  0.68650601  0.68650601  0.68650601  1
  Bi  Bi14  1  0.04791900  0.87500002  0.70208101  1
  In  In15  1  0.95208102  0.37500001  0.79791901  1
  In  In16  1  0.31349401  0.18650600  0.81349401  1
  In  In17  1  0.70208101  0.04791900  0.87500002  1
  In  In18  1  0.56349401  0.43650601  0.93650602  1
  In  In19  1  0.37500001  0.79791901  0.95208102  1
