# generated using pymatgen
data_PrGe2
_symmetry_space_group_name_H-M   'P 1'
_cell_length_a   4.37240601
_cell_length_b   4.37240601
_cell_length_c   7.40989208
_cell_angle_alpha   107.15984344
_cell_angle_beta   107.15984344
_cell_angle_gamma   90.00000000
_symmetry_Int_Tables_number   1
_chemical_formula_structural   PrGe2
_chemical_formula_sum   'Pr2 Ge4'
_cell_volume   128.74127160
_cell_formula_units_Z   2
loop_
 _symmetry_equiv_pos_site_id
 _symmetry_equiv_pos_as_xyz
  1  'x, y, z'
loop_
 _atom_site_type_symbol
 _atom_site_label
 _atom_site_symmetry_multiplicity
 _atom_site_fract_x
 _atom_site_fract_y
 _atom_site_fract_z
 _atom_site_occupancy
  Pr  Pr0  1  0.25000002  0.75000001  0.50000004  1
  Pr  Pr1  1  0.00000000  0.00000000  0.00000000  1
  Ge  Ge2  1  0.66385601  0.16385600  0.32771203  1
  Ge  Ge3  1  0.58588702  0.58588701  0.17177403  1
  Ge  Ge4  1  0.83614401  0.33614400  0.67228804  1
  Ge  Ge5  1  0.41411301  0.41411300  0.82822604  1
