# generated using pymatgen
data_Li4TaO3F4
_symmetry_space_group_name_H-M   'P 1'
_cell_length_a   5.59467506
_cell_length_b   5.65563917
_cell_length_c   5.67486286
_cell_angle_alpha   90.00000000
_cell_angle_beta   89.35739136
_cell_angle_gamma   90.00000000
_symmetry_Int_Tables_number   1
_chemical_formula_structural   Li4TaO3F4
_chemical_formula_sum   'Li4 Ta1 O3 F4'
_cell_volume   179.54967238
_cell_formula_units_Z   1
loop_
 _symmetry_equiv_pos_site_id
 _symmetry_equiv_pos_as_xyz
  1  'x, y, z'
loop_
 _atom_site_type_symbol
 _atom_site_label
 _atom_site_symmetry_multiplicity
 _atom_site_fract_x
 _atom_site_fract_y
 _atom_site_fract_z
 _atom_site_occupancy
  Li  Li0  1  0.49999999  0.49999998  0.00000001  1
  Li  Li1  1  0.49999999  0.00000000  0.50000002  1
  Li  Li2  1  0.00000000  0.49999998  0.50000001  1
  Li  Li3  1  0.00000000  0.00000000  0.00000000  1
  Ta  Ta4  1  0.11046400  0.88901897  0.61145701  1
  O  O5  1  0.88953599  0.38901899  0.88854303  1
  F  F6  1  0.39184700  0.10991000  0.10446601  1
  O  O7  1  0.60815299  0.60990998  0.39553402  1
  O  O8  1  0.88953599  0.11098100  0.38854302  1
  F  F9  1  0.11046400  0.61098098  0.11145700  1
  F  F10  1  0.60815299  0.89008997  0.89553402  1
  F  F11  1  0.39184700  0.39008999  0.60446602  1
