# generated using pymatgen
data_LiCu2
_symmetry_space_group_name_H-M   'P 1'
_cell_length_a   4.85030651
_cell_length_b   4.85030651
_cell_length_c   5.38631201
_cell_angle_alpha   63.24067688
_cell_angle_beta   63.24067688
_cell_angle_gamma   59.99999237
_symmetry_Int_Tables_number   1
_chemical_formula_structural   LiCu2
_chemical_formula_sum   'Li2 Cu4'
_cell_volume   93.74214029
_cell_formula_units_Z   2
loop_
 _symmetry_equiv_pos_site_id
 _symmetry_equiv_pos_as_xyz
  1  'x, y, z'
loop_
 _atom_site_type_symbol
 _atom_site_label
 _atom_site_symmetry_multiplicity
 _atom_site_fract_x
 _atom_site_fract_y
 _atom_site_fract_z
 _atom_site_occupancy
  Li  Li0  1  0.00000000  0.00000000  0.00000000  1
  Li  Li1  1  0.50000001  0.83283501  0.49999998  1
  Cu  Cu2  1  0.83283501  0.16716500  0.49999999  1
  Cu  Cu3  1  0.33255701  0.33255700  0.00232898  1
  Cu  Cu4  1  0.66744301  0.66744301  0.99767099  1
  Cu  Cu5  1  0.16716500  0.50000001  0.50000000  1
