# generated using pymatgen
data_GdPd2
_symmetry_space_group_name_H-M   'P 1'
_cell_length_a   4.02627993
_cell_length_b   4.02627993
_cell_length_c   7.57948780
_cell_angle_alpha   90.00000000
_cell_angle_beta   90.00000000
_cell_angle_gamma   90.00000000
_symmetry_Int_Tables_number   1
_chemical_formula_structural   GdPd2
_chemical_formula_sum   'Gd2 Pd4'
_cell_volume   122.87054651
_cell_formula_units_Z   2
loop_
 _symmetry_equiv_pos_site_id
 _symmetry_equiv_pos_as_xyz
  1  'x, y, z'
loop_
 _atom_site_type_symbol
 _atom_site_label
 _atom_site_symmetry_multiplicity
 _atom_site_fract_x
 _atom_site_fract_y
 _atom_site_fract_z
 _atom_site_occupancy
  Gd  Gd0  1  0.00000000  0.50000001  0.34197901  1
  Gd  Gd1  1  0.50000001  0.00000000  0.65802102  1
  Pd  Pd2  1  0.50000001  0.50000001  0.00000000  1
  Pd  Pd3  1  0.00000000  0.00000000  0.00000000  1
  Pd  Pd4  1  0.50000001  0.00000000  0.24936801  1
  Pd  Pd5  1  0.00000000  0.50000001  0.75063202  1
