# generated using pymatgen
data_LiCu
_symmetry_space_group_name_H-M   'P 1'
_cell_length_a   3.21172190
_cell_length_b   5.35645819
_cell_length_c   5.49300528
_cell_angle_alpha   119.18104553
_cell_angle_beta   106.99848938
_cell_angle_gamma   90.00000000
_symmetry_Int_Tables_number   1
_chemical_formula_structural   LiCu
_chemical_formula_sum   'Li2 Cu2'
_cell_volume   77.74249440
_cell_formula_units_Z   2
loop_
 _symmetry_equiv_pos_site_id
 _symmetry_equiv_pos_as_xyz
  1  'x, y, z'
loop_
 _atom_site_type_symbol
 _atom_site_label
 _atom_site_symmetry_multiplicity
 _atom_site_fract_x
 _atom_site_fract_y
 _atom_site_fract_z
 _atom_site_occupancy
  Li  Li0  1  0.50000001  0.83560799  0.00000004  1
  Li  Li1  1  -0.00000000  0.33831300  0.00000002  1
  Cu  Cu2  1  0.25232000  0.24869300  0.50464100  1
  Cu  Cu3  1  0.74767901  0.74405200  0.49535802  1
