# generated using pymatgen
data_Rb4TlS5
_symmetry_space_group_name_H-M   'P 1'
_cell_length_a   6.54897022
_cell_length_b   7.22802210
_cell_length_c   8.44111061
_cell_angle_alpha   115.34983063
_cell_angle_beta   112.82520294
_cell_angle_gamma   90.00000000
_symmetry_Int_Tables_number   1
_chemical_formula_structural   Rb4TlS5
_chemical_formula_sum   'Rb4 Tl1 S5'
_cell_volume   326.13517817
_cell_formula_units_Z   1
loop_
 _symmetry_equiv_pos_site_id
 _symmetry_equiv_pos_as_xyz
  1  'x, y, z'
loop_
 _atom_site_type_symbol
 _atom_site_label
 _atom_site_symmetry_multiplicity
 _atom_site_fract_x
 _atom_site_fract_y
 _atom_site_fract_z
 _atom_site_occupancy
  Rb  Rb0  1  0.35474896  0.52725899  0.70949801  1
  Rb  Rb1  1  0.64525095  0.47274099  0.29050198  1
  Rb  Rb2  1  0.14525197  0.81776198  0.29050299  1
  Rb  Rb3  1  0.85474795  0.18223800  0.70949700  1
  Tl  Tl4  1  0.24999999  0.00000000  -0.00000001  1
  S  S5  1  0.74999996  0.00000000  -0.00000003  1
  S  S6  1  0.40352498  0.07682700  0.80705002  1
  S  S7  1  0.09647499  0.26977699  0.19295000  1
  S  S8  1  0.90352493  0.73022298  0.80704999  1
  S  S9  1  0.59647494  0.92317298  0.19294997  1
