# generated using pymatgen
data_YbSi2
_symmetry_space_group_name_H-M   'P 1'
_cell_length_a   4.44809914
_cell_length_b   6.93080807
_cell_length_c   7.70363379
_cell_angle_alpha   90.00000000
_cell_angle_beta   90.00000000
_cell_angle_gamma   90.00000000
_symmetry_Int_Tables_number   1
_chemical_formula_structural   YbSi2
_chemical_formula_sum   'Yb4 Si8'
_cell_volume   237.49472029
_cell_formula_units_Z   4
loop_
 _symmetry_equiv_pos_site_id
 _symmetry_equiv_pos_as_xyz
  1  'x, y, z'
loop_
 _atom_site_type_symbol
 _atom_site_label
 _atom_site_symmetry_multiplicity
 _atom_site_fract_x
 _atom_site_fract_y
 _atom_site_fract_z
 _atom_site_occupancy
  Yb  Yb0  1  0.24999999  0.98750399  0.30186501  1
  Yb  Yb1  1  0.24999999  0.48750400  0.19813501  1
  Yb  Yb2  1  0.74999998  0.01249600  0.69813502  1
  Yb  Yb3  1  0.74999998  0.51249600  0.80186502  1
  Si  Si4  1  0.24999999  0.32769400  0.57372002  1
  Si  Si5  1  0.24999999  0.82769399  0.92628003  1
  Si  Si6  1  0.74999998  0.67230599  0.42628001  1
  Si  Si7  1  0.74999998  0.17230600  0.07372000  1
  Si  Si8  1  0.24999999  0.22447800  0.90038603  1
  Si  Si9  1  0.24999999  0.72447799  0.59961402  1
  Si  Si10  1  0.74999998  0.77552199  0.09961400  1
  Si  Si11  1  0.74999998  0.27552200  0.40038601  1
