# generated using pymatgen
data_Na2LiInO4
_symmetry_space_group_name_H-M   'P 1'
_cell_length_a   4.53370619
_cell_length_b   4.53370619
_cell_length_c   5.99042225
_cell_angle_alpha   112.23541260
_cell_angle_beta   112.23541260
_cell_angle_gamma   90.00000000
_symmetry_Int_Tables_number   1
_chemical_formula_structural   Na2LiInO4
_chemical_formula_sum   'Na2 Li1 In1 O4'
_cell_volume   104.01448145
_cell_formula_units_Z   1
loop_
 _symmetry_equiv_pos_site_id
 _symmetry_equiv_pos_as_xyz
  1  'x, y, z'
loop_
 _atom_site_type_symbol
 _atom_site_label
 _atom_site_symmetry_multiplicity
 _atom_site_fract_x
 _atom_site_fract_y
 _atom_site_fract_z
 _atom_site_occupancy
  Li  Li0  1  0.25000004  0.75000000  0.50000005  1
  Na  Na1  1  0.50000002  0.50000000  0.00000006  1
  Na  Na2  1  0.75000001  0.25000000  0.50000004  1
  In  In3  1  0.00000000  0.00000000  0.00000000  1
  O  O4  1  0.97017102  0.47017100  0.94034206  1
  O  O5  1  0.77982904  0.77982900  0.55965808  1
  O  O6  1  0.22017101  0.22017100  0.44034201  1
  O  O7  1  0.52982899  0.02982900  0.05965803  1
