# generated using pymatgen
data_Pr4Sn5
_symmetry_space_group_name_H-M   'P 1'
_cell_length_a   6.39292479
_cell_length_b   9.55790806
_cell_length_c   9.55790806
_cell_angle_alpha   120.00000000
_cell_angle_beta   90.00000000
_cell_angle_gamma   90.00000000
_symmetry_Int_Tables_number   1
_chemical_formula_structural   Pr4Sn5
_chemical_formula_sum   'Pr8 Sn10'
_cell_volume   505.77332868
_cell_formula_units_Z   2
loop_
 _symmetry_equiv_pos_site_id
 _symmetry_equiv_pos_as_xyz
  1  'x, y, z'
loop_
 _atom_site_type_symbol
 _atom_site_label
 _atom_site_symmetry_multiplicity
 _atom_site_fract_x
 _atom_site_fract_y
 _atom_site_fract_z
 _atom_site_occupancy
  Pr  Pr0  1  0.25000001  0.38238200  0.38238199  1
  Pr  Pr1  1  0.75000003  0.61761799  0.61761798  1
  Pr  Pr2  1  0.25000001  0.00000000  0.61761799  1
  Pr  Pr3  1  0.75000003  0.99999999  0.38238198  1
  Pr  Pr4  1  0.25000001  0.61761799  -0.00000001  1
  Pr  Pr5  1  0.75000003  0.38238200  -0.00000000  1
  Pr  Pr6  1  0.50000002  0.00000000  -0.00000000  1
  Pr  Pr7  1  0.00000000  0.00000000  0.00000000  1
  Sn  Sn8  1  0.25000001  0.73738999  0.73738998  1
  Sn  Sn9  1  0.75000003  0.26261000  0.26260999  1
  Sn  Sn10  1  0.25000001  0.99999999  0.26260999  1
  Sn  Sn11  1  0.75000003  0.99999999  0.73738998  1
  Sn  Sn12  1  0.25000001  0.26261000  -0.00000000  1
  Sn  Sn13  1  0.75000003  0.73738999  -0.00000001  1
  Sn  Sn14  1  0.50000002  0.66666666  0.33333332  1
  Sn  Sn15  1  0.50000002  0.33333333  0.66666665  1
  Sn  Sn16  1  1.00000003  0.33333333  0.66666665  1
  Sn  Sn17  1  -0.00000000  0.66666666  0.33333332  1
