# generated using pymatgen
data_Ce6UO12
_symmetry_space_group_name_H-M   'P 1'
_cell_length_a   6.78871584
_cell_length_b   6.78871584
_cell_length_c   6.78871536
_cell_angle_alpha   99.59758759
_cell_angle_beta   99.59758759
_cell_angle_gamma   99.59758759
_symmetry_Int_Tables_number   1
_chemical_formula_structural   Ce6UO12
_chemical_formula_sum   'Ce6 U1 O12'
_cell_volume   298.02116472
_cell_formula_units_Z   1
loop_
 _symmetry_equiv_pos_site_id
 _symmetry_equiv_pos_as_xyz
  1  'x, y, z'
loop_
 _atom_site_type_symbol
 _atom_site_label
 _atom_site_symmetry_multiplicity
 _atom_site_fract_x
 _atom_site_fract_y
 _atom_site_fract_z
 _atom_site_occupancy
  Ce  Ce0  1  0.29985701  0.13824300  0.60090403  1
  Ce  Ce1  1  0.13824301  0.60090401  0.29985704  1
  Ce  Ce2  1  0.60090401  0.29985701  0.13824304  1
  Ce  Ce3  1  0.70014302  0.86175702  0.39909608  1
  Ce  Ce4  1  0.86175702  0.39909601  0.70014307  1
  Ce  Ce5  1  0.39909601  0.70014301  0.86175706  1
  U  U6  1  0.00000000  0.00000000  0.00000000  1
  O  O7  1  0.06971501  0.92823202  0.32097105  1
  O  O8  1  0.92823202  0.32097101  0.06971506  1
  O  O9  1  0.32097101  0.06971500  0.92823203  1
  O  O10  1  0.93028502  0.07176800  0.67902905  1
  O  O11  1  0.07176801  0.67902901  0.93028504  1
  O  O12  1  0.67902902  0.93028502  0.07176808  1
  O  O13  1  0.17768801  0.43244601  0.58255503  1
  O  O14  1  0.41744502  0.82231201  0.56755406  1
  O  O15  1  0.56755401  0.41744501  0.82231205  1
  O  O16  1  0.82231202  0.56755401  0.41744507  1
  O  O17  1  0.58255501  0.17768800  0.43244604  1
  O  O18  1  0.43244601  0.58255501  0.17768805  1
