# generated using pymatgen
data_Li2CuS4
_symmetry_space_group_name_H-M   'P 1'
_cell_length_a   3.59590006
_cell_length_b   6.15993452
_cell_length_c   6.25668144
_cell_angle_alpha   117.96444702
_cell_angle_beta   106.70025635
_cell_angle_gamma   90.00000000
_symmetry_Int_Tables_number   1
_chemical_formula_structural   Li2CuS4
_chemical_formula_sum   'Li2 Cu1 S4'
_cell_volume   115.74703173
_cell_formula_units_Z   1
loop_
 _symmetry_equiv_pos_site_id
 _symmetry_equiv_pos_as_xyz
  1  'x, y, z'
loop_
 _atom_site_type_symbol
 _atom_site_label
 _atom_site_symmetry_multiplicity
 _atom_site_fract_x
 _atom_site_fract_y
 _atom_site_fract_z
 _atom_site_occupancy
  Li  Li0  1  0.26095299  0.27986000  0.52190597  1
  Li  Li1  1  0.73904697  0.72013999  0.47809396  1
  Cu  Cu2  1  0.00000000  0.00000000  0.00000000  1
  S  S3  1  0.12463499  0.45995999  0.24926997  1
  S  S4  1  0.87536497  0.54003999  0.75072996  1
  S  S5  1  0.36220899  0.02073800  0.72441798  1
  S  S6  1  0.63779097  0.97926198  0.27558195  1
