# generated using pymatgen
data_PrP2
_symmetry_space_group_name_H-M   'P 1'
_cell_length_a   4.06193113
_cell_length_b   4.06193113
_cell_length_c   6.99041224
_cell_angle_alpha   90.00000000
_cell_angle_beta   90.00000000
_cell_angle_gamma   90.00000000
_symmetry_Int_Tables_number   1
_chemical_formula_structural   PrP2
_chemical_formula_sum   'Pr2 P4'
_cell_volume   115.33680046
_cell_formula_units_Z   2
loop_
 _symmetry_equiv_pos_site_id
 _symmetry_equiv_pos_as_xyz
  1  'x, y, z'
loop_
 _atom_site_type_symbol
 _atom_site_label
 _atom_site_symmetry_multiplicity
 _atom_site_fract_x
 _atom_site_fract_y
 _atom_site_fract_z
 _atom_site_occupancy
  Pr  Pr0  1  0.49999998  0.00000000  0.68633198  1
  Pr  Pr1  1  0.00000000  0.49999998  0.31366799  1
  P  P2  1  0.00000000  0.00000000  0.00000000  1
  P  P3  1  0.49999998  0.49999998  0.00000000  1
  P  P4  1  0.00000000  0.49999998  0.83855497  1
  P  P5  1  0.49999998  0.00000000  0.16144499  1
