# generated using pymatgen
data_LaGa3Ni2
_symmetry_space_group_name_H-M   'P 1'
_cell_length_a   3.85579705
_cell_length_b   5.69417381
_cell_length_c   5.69417381
_cell_angle_alpha   120.00000000
_cell_angle_beta   90.00000000
_cell_angle_gamma   90.00000000
_symmetry_Int_Tables_number   1
_chemical_formula_structural   LaGa3Ni2
_chemical_formula_sum   'La1 Ga3 Ni2'
_cell_volume   108.26952666
_cell_formula_units_Z   1
loop_
 _symmetry_equiv_pos_site_id
 _symmetry_equiv_pos_as_xyz
  1  'x, y, z'
loop_
 _atom_site_type_symbol
 _atom_site_label
 _atom_site_symmetry_multiplicity
 _atom_site_fract_x
 _atom_site_fract_y
 _atom_site_fract_z
 _atom_site_occupancy
  La  La0  1  0.00000000  0.00000000  0.00000000  1
  Ga  Ga1  1  -0.00000000  0.33333334  0.66666664  1
  Ga  Ga2  1  -0.00000000  0.66666668  0.33333330  1
  Ga  Ga3  1  0.49999999  0.50000001  -0.00000002  1
  Ni  Ni4  1  0.49999999  0.50000001  0.49999997  1
  Ni  Ni5  1  0.49999999  1.00000002  0.49999996  1
