# generated using pymatgen
data_GdBiS
_symmetry_space_group_name_H-M   'P 1'
_cell_length_a   4.29059315
_cell_length_b   4.29059315
_cell_length_c   8.79834270
_cell_angle_alpha   90.00000000
_cell_angle_beta   90.00000000
_cell_angle_gamma   90.00000000
_symmetry_Int_Tables_number   1
_chemical_formula_structural   GdBiS
_chemical_formula_sum   'Gd2 Bi2 S2'
_cell_volume   161.97035863
_cell_formula_units_Z   2
loop_
 _symmetry_equiv_pos_site_id
 _symmetry_equiv_pos_as_xyz
  1  'x, y, z'
loop_
 _atom_site_type_symbol
 _atom_site_label
 _atom_site_symmetry_multiplicity
 _atom_site_fract_x
 _atom_site_fract_y
 _atom_site_fract_z
 _atom_site_occupancy
  Gd  Gd0  1  0.00000000  0.49999998  0.71289502  1
  Gd  Gd1  1  0.49999998  0.00000000  0.28710501  1
  Bi  Bi2  1  0.00000000  0.00000000  0.00000000  1
  Bi  Bi3  1  0.49999998  0.49999998  0.00000000  1
  S  S4  1  0.00000000  0.49999998  0.36644601  1
  S  S5  1  0.49999998  0.00000000  0.63355402  1
