# generated using pymatgen
data_Yb4Mg2Cu3
_symmetry_space_group_name_H-M   'P 1'
_cell_length_a   4.37710285
_cell_length_b   7.31383181
_cell_length_c   7.31383181
_cell_angle_alpha   120.00000000
_cell_angle_beta   90.00000000
_cell_angle_gamma   90.00000000
_symmetry_Int_Tables_number   1
_chemical_formula_structural   Yb4Mg2Cu3
_chemical_formula_sum   'Yb4 Mg2 Cu3'
_cell_volume   202.77169006
_cell_formula_units_Z   1
loop_
 _symmetry_equiv_pos_site_id
 _symmetry_equiv_pos_as_xyz
  1  'x, y, z'
loop_
 _atom_site_type_symbol
 _atom_site_label
 _atom_site_symmetry_multiplicity
 _atom_site_fract_x
 _atom_site_fract_y
 _atom_site_fract_z
 _atom_site_occupancy
  Yb  Yb0  1  0.50000002  0.76695501  0.76695497  1
  Yb  Yb1  1  0.50000002  0.23304500  0.99999998  1
  Yb  Yb2  1  0.50000002  0.00000000  0.23304500  1
  Yb  Yb3  1  1.00000003  0.00000000  0.58127399  1
  Mg  Mg4  1  -0.00000000  0.41872601  0.41872599  1
  Mg  Mg5  1  -0.00000000  0.58127401  0.99999998  1
  Cu  Cu6  1  0.50000002  0.66666668  0.33333331  1
  Cu  Cu7  1  0.50000002  0.33333334  0.66666665  1
  Cu  Cu8  1  0.00000000  0.00000000  0.00000000  1
