# generated using pymatgen
data_Pr5Sn3
_symmetry_space_group_name_H-M   'P 1'
_cell_length_a   6.36471224
_cell_length_b   9.53468609
_cell_length_c   9.53468609
_cell_angle_alpha   83.60398102
_cell_angle_beta   70.50247192
_cell_angle_gamma   70.50247192
_symmetry_Int_Tables_number   1
_chemical_formula_structural   Pr5Sn3
_chemical_formula_sum   'Pr10 Sn6'
_cell_volume   514.15959429
_cell_formula_units_Z   2
loop_
 _symmetry_equiv_pos_site_id
 _symmetry_equiv_pos_as_xyz
  1  'x, y, z'
loop_
 _atom_site_type_symbol
 _atom_site_label
 _atom_site_symmetry_multiplicity
 _atom_site_fract_x
 _atom_site_fract_y
 _atom_site_fract_z
 _atom_site_occupancy
  Pr  Pr0  1  0.41410100  0.86764602  0.30415100  1
  Pr  Pr1  1  0.58589898  0.13235400  0.69584902  1
  Pr  Pr2  1  0.71825298  0.69584902  0.86764502  1
  Pr  Pr3  1  0.08589801  0.69584902  0.13235500  1
  Pr  Pr4  1  0.21825201  0.86764602  0.69584901  1
  Pr  Pr5  1  0.25000000  0.50000001  0.50000001  1
  Pr  Pr6  1  0.74999998  0.50000001  0.50000001  1
  Pr  Pr7  1  0.91410197  0.30415101  0.86764502  1
  Pr  Pr8  1  0.28174699  0.30415101  0.13235500  1
  Pr  Pr9  1  0.78174797  0.13235400  0.30415101  1
  Sn  Sn10  1  0.66075398  0.50000001  0.17849200  1
  Sn  Sn11  1  0.83924598  0.82150802  0.50000001  1
  Sn  Sn12  1  0.74999997  0.00000000  0.00000000  1
  Sn  Sn13  1  0.16075400  0.17849200  0.50000001  1
  Sn  Sn14  1  0.33924600  0.50000001  0.82150802  1
  Sn  Sn15  1  0.25000001  1.00000002  -0.00000001  1
