# generated using pymatgen
data_SrGe2C5
_symmetry_space_group_name_H-M   'P 1'
_cell_length_a   6.69779015
_cell_length_b   7.56533146
_cell_length_c   7.56533146
_cell_angle_alpha   63.33061218
_cell_angle_beta   63.72606277
_cell_angle_gamma   63.72606277
_symmetry_Int_Tables_number   1
_chemical_formula_structural   SrGe2C5
_chemical_formula_sum   'Sr2 Ge4 C10'
_cell_volume   292.58416541
_cell_formula_units_Z   2
loop_
 _symmetry_equiv_pos_site_id
 _symmetry_equiv_pos_as_xyz
  1  'x, y, z'
loop_
 _atom_site_type_symbol
 _atom_site_label
 _atom_site_symmetry_multiplicity
 _atom_site_fract_x
 _atom_site_fract_y
 _atom_site_fract_z
 _atom_site_occupancy
  Sr  Sr0  1  0.61160499  0.13839500  0.63839501  1
  Sr  Sr1  1  0.38839498  0.86160502  0.36160502  1
  Ge  Ge2  1  0.49999999  0.50000001  0.00000000  1
  Ge  Ge3  1  0.99999998  0.50000001  1.00000002  1
  Ge  Ge4  1  0.00000000  0.00000000  0.00000000  1
  Ge  Ge5  1  -0.00000001  0.50000001  0.50000002  1
  C  C6  1  0.12788000  0.19253200  0.04895100  1
  C  C7  1  0.36936398  0.80746702  0.95104903  1
  C  C8  1  0.87211898  0.45105001  0.30746801  1
  C  C9  1  0.63063698  0.54895101  0.69253202  1
  C  C10  1  0.87211998  0.80746802  0.95104903  1
  C  C11  1  0.63063599  0.19253300  0.04895100  1
  C  C12  1  0.08716900  0.16283100  0.66283102  1
  C  C13  1  0.91283097  0.83716902  0.33716901  1
  C  C14  1  0.36936299  0.45104901  0.30746801  1
  C  C15  1  0.12788099  0.54895001  0.69253202  1
