# generated using pymatgen
data_Li2CoS4
_symmetry_space_group_name_H-M   'P 1'
_cell_length_a   3.03167200
_cell_length_b   6.08339882
_cell_length_c   6.32196522
_cell_angle_alpha   113.16471863
_cell_angle_beta   103.87313843
_cell_angle_gamma   90.00000000
_symmetry_Int_Tables_number   1
_chemical_formula_structural   Li2CoS4
_chemical_formula_sum   'Li2 Co1 S4'
_cell_volume   103.48532666
_cell_formula_units_Z   1
loop_
 _symmetry_equiv_pos_site_id
 _symmetry_equiv_pos_as_xyz
  1  'x, y, z'
loop_
 _atom_site_type_symbol
 _atom_site_label
 _atom_site_symmetry_multiplicity
 _atom_site_fract_x
 _atom_site_fract_y
 _atom_site_fract_z
 _atom_site_occupancy
  Li  Li0  1  0.26374699  0.31867099  0.52749397  1
  Li  Li1  1  0.73625299  0.68132897  0.47250595  1
  Co  Co2  1  0.00000000  0.00000000  0.00000000  1
  S  S3  1  0.08505699  0.43594398  0.17011397  1
  S  S4  1  0.91494299  0.56405598  0.82988595  1
  S  S5  1  0.35089500  0.02447200  0.70178998  1
  S  S6  1  0.64910498  0.97552796  0.29820994  1
