# generated using pymatgen
data_LaYMgAl7Fe4
_symmetry_space_group_name_H-M   'P 1'
_cell_length_a   6.77500820
_cell_length_b   6.77500820
_cell_length_c   6.77500820
_cell_angle_alpha   107.90142822
_cell_angle_beta   110.26177216
_cell_angle_gamma   110.26177216
_symmetry_Int_Tables_number   1
_chemical_formula_structural   LaYMgAl7Fe4
_chemical_formula_sum   'La1 Y1 Mg1 Al7 Fe4'
_cell_volume   239.25655602
_cell_formula_units_Z   1
loop_
 _symmetry_equiv_pos_site_id
 _symmetry_equiv_pos_as_xyz
  1  'x, y, z'
loop_
 _atom_site_type_symbol
 _atom_site_label
 _atom_site_symmetry_multiplicity
 _atom_site_fract_x
 _atom_site_fract_y
 _atom_site_fract_z
 _atom_site_occupancy
  La  La0  1  0.49999998  0.49999997  -0.00000003  1
  Y  Y1  1  0.49999999  0.00000000  0.49999999  1
  Mg  Mg2  1  0.72222397  0.27641798  0.27603398  1
  Al  Al3  1  0.27777598  0.55380997  0.55419395  1
  Al  Al4  1  0.99961597  0.05381000  0.77603398  1
  Al  Al5  1  0.00038398  0.77641795  0.05419395  1
  Al  Al6  1  0.00038399  0.72396596  0.44618994  1
  Al  Al7  1  0.99961596  0.44580597  0.72358196  1
  Al  Al8  1  0.27777599  0.22396599  0.22358198  1
  Al  Al9  1  0.72222396  0.94580594  0.94618991  1
  Fe  Fe10  1  0.31703997  0.90851995  0.90851991  1
  Fe  Fe11  1  0.68295997  0.59147996  0.59147995  1
  Fe  Fe12  1  -0.00000000  0.09147999  0.40851998  1
  Fe  Fe13  1  -0.00000001  0.40851998  0.09147997  1
