# generated using pymatgen
data_Ca3Pr2(MoO4)3
_symmetry_space_group_name_H-M   'P 1'
_cell_length_a   6.72808743
_cell_length_b   6.72808743
_cell_length_c   6.72808743
_cell_angle_alpha   93.14724731
_cell_angle_beta   93.14724731
_cell_angle_gamma   93.14723969
_symmetry_Int_Tables_number   1
_chemical_formula_structural   Ca3Pr2(MoO4)3
_chemical_formula_sum   'Ca3 Pr2 Mo3 O12'
_cell_volume   303.13061502
_cell_formula_units_Z   1
loop_
 _symmetry_equiv_pos_site_id
 _symmetry_equiv_pos_as_xyz
  1  'x, y, z'
loop_
 _atom_site_type_symbol
 _atom_site_label
 _atom_site_symmetry_multiplicity
 _atom_site_fract_x
 _atom_site_fract_y
 _atom_site_fract_z
 _atom_site_occupancy
  Ca  Ca0  1  0.00000000  0.00000000  0.00000000  1
  Ca  Ca1  1  0.49999998  0.50000000  0.50000001  1
  Ca  Ca2  1  0.91617398  0.43409500  0.74236402  1
  Pr  Pr3  1  0.74236397  0.91617399  0.43409501  1
  Pr  Pr4  1  0.56590499  0.25763600  0.08382600  1
  Mo  Mo5  1  0.43409498  0.74236399  0.91617402  1
  Mo  Mo6  1  0.25763600  0.08382600  0.56590501  1
  Mo  Mo7  1  0.08382598  0.56590500  0.25763600  1
  O  O8  1  0.91122498  0.31984500  0.07814700  1
  O  O9  1  0.92185299  0.08877500  0.68015502  1
  O  O10  1  0.81122998  0.59480299  0.46986801  1
  O  O11  1  0.68015497  0.92185299  0.08877500  1
  O  O12  1  0.59480298  0.46986800  0.81123002  1
  O  O13  1  0.53013199  0.18877000  0.40519701  1
  O  O14  1  0.46986797  0.81122999  0.59480301  1
  O  O15  1  0.40519698  0.53013200  0.18877000  1
  O  O16  1  0.31984500  0.07814700  0.91122502  1
  O  O17  1  0.18876999  0.40519700  0.53013201  1
  O  O18  1  0.07814697  0.91122499  0.31984501  1
  O  O19  1  0.08877498  0.68015499  0.92185302  1
