# generated using pymatgen
data_Li4Cu3S7
_symmetry_space_group_name_H-M   'P 1'
_cell_length_a   7.19649601
_cell_length_b   7.29966831
_cell_length_c   7.29959679
_cell_angle_alpha   60.79275894
_cell_angle_beta   60.50251770
_cell_angle_gamma   60.50492477
_symmetry_Int_Tables_number   1
_chemical_formula_structural   Li4Cu3S7
_chemical_formula_sum   'Li4 Cu3 S7'
_cell_volume   274.81922650
_cell_formula_units_Z   1
loop_
 _symmetry_equiv_pos_site_id
 _symmetry_equiv_pos_as_xyz
  1  'x, y, z'
loop_
 _atom_site_type_symbol
 _atom_site_label
 _atom_site_symmetry_multiplicity
 _atom_site_fract_x
 _atom_site_fract_y
 _atom_site_fract_z
 _atom_site_occupancy
  Li  Li0  1  0.87415798  0.87566800  0.87561801  1
  Li  Li1  1  0.12584000  0.12435900  0.12440200  1
  Li  Li2  1  0.50004899  0.50001800  0.49994801  1
  Li  Li3  1  0.00002499  0.50003600  0.49996402  1
  Cu  Cu4  1  0.49993899  0.49997700  0.00002100  1
  Cu  Cu5  1  0.49999098  0.99998700  0.49988501  1
  S  S6  1  0.73404799  0.73913100  0.73921301  1
  Cu  Cu7  1  0.26346000  0.25551900  0.71753701  1
  S  S8  1  0.26348898  0.71749200  0.25550301  1
  S  S9  1  0.71219200  0.26090500  0.26088000  1
  S  S10  1  0.73655500  0.28246000  0.74448601  1
  S  S11  1  0.28776498  0.73912600  0.73914502  1
  S  S12  1  0.26593500  0.26080900  0.26088700  1
  S  S13  1  0.73655799  0.74450800  0.28251100  1
