# generated using pymatgen
data_YGe
_symmetry_space_group_name_H-M   'P 1'
_cell_length_a   4.00878716
_cell_length_b   4.88827896
_cell_length_c   16.20858765
_cell_angle_alpha   90.00000000
_cell_angle_beta   90.00000000
_cell_angle_gamma   90.00000000
_symmetry_Int_Tables_number   1
_chemical_formula_structural   YGe
_chemical_formula_sum   'Y6 Ge6'
_cell_volume   317.62461667
_cell_formula_units_Z   6
loop_
 _symmetry_equiv_pos_site_id
 _symmetry_equiv_pos_as_xyz
  1  'x, y, z'
loop_
 _atom_site_type_symbol
 _atom_site_label
 _atom_site_symmetry_multiplicity
 _atom_site_fract_x
 _atom_site_fract_y
 _atom_site_fract_z
 _atom_site_occupancy
  Y  Y0  1  0.75426597  0.48046100  0.89257196  1
  Y  Y1  1  0.74573397  0.98046101  0.60742798  1
  Y  Y2  1  0.25426599  0.51953900  0.10742800  1
  Y  Y3  1  0.24573399  0.01953900  0.39257198  1
  Y  Y4  1  0.84963797  0.99912901  0.20956799  1
  Y  Y5  1  0.65036197  0.49912900  0.29043199  1
  Ge  Ge6  1  0.34963799  0.00087100  0.79043197  1
  Ge  Ge7  1  0.15036199  0.50087100  0.70956797  1
  Ge  Ge8  1  0.74955597  0.07162900  0.04334100  1
  Ge  Ge9  1  0.75044397  0.57162900  0.45665898  1
  Ge  Ge10  1  0.24955599  0.92837101  0.95665896  1
  Ge  Ge11  1  0.25044399  0.42837100  0.54334098  1
