# generated using pymatgen
data_Sr4Cu5S7
_symmetry_space_group_name_H-M   'P 1'
_cell_length_a   4.16006899
_cell_length_b   7.19485617
_cell_length_c   14.02440357
_cell_angle_alpha   90.00000000
_cell_angle_beta   90.00000000
_cell_angle_gamma   90.00000000
_symmetry_Int_Tables_number   1
_chemical_formula_structural   Sr4Cu5S7
_chemical_formula_sum   'Sr4 Cu5 S7'
_cell_volume   419.76579797
_cell_formula_units_Z   1
loop_
 _symmetry_equiv_pos_site_id
 _symmetry_equiv_pos_as_xyz
  1  'x, y, z'
loop_
 _atom_site_type_symbol
 _atom_site_label
 _atom_site_symmetry_multiplicity
 _atom_site_fract_x
 _atom_site_fract_y
 _atom_site_fract_z
 _atom_site_occupancy
  Sr  Sr0  1  0.25000000  0.20678400  0.87161303  1
  Sr  Sr1  1  0.75000000  0.79321598  0.12838700  1
  Sr  Sr2  1  0.25000000  0.70678398  0.62838702  1
  Sr  Sr3  1  0.75000000  0.29321599  0.37161301  1
  Cu  Cu4  1  0.75000000  0.73167798  0.86389903  1
  Cu  Cu5  1  0.75000000  0.23167799  0.63610102  1
  Cu  Cu6  1  0.25000000  0.26832199  0.13610100  1
  Cu  Cu7  1  0.25000000  0.76832198  0.36389901  1
  Cu  Cu8  1  0.25000000  0.03124500  0.25885001  1
  S  S9  1  0.75000000  0.96875498  0.74115002  1
  S  S10  1  0.25000000  0.53124499  0.24115001  1
  S  S11  1  0.75000000  0.46875499  0.75885002  1
  S  S12  1  0.25000000  0.26227699  0.54792702  1
  S  S13  1  0.75000000  0.23772299  0.04792700  1
  S  S14  1  0.25000000  0.76227698  0.95207303  1
  S  S15  1  0.75000000  0.73772298  0.45207301  1
