# generated using pymatgen
data_B
_symmetry_space_group_name_H-M   'P 1'
_cell_length_a   3.10632992
_cell_length_b   5.33631468
_cell_length_c   5.33631468
_cell_angle_alpha   69.52040863
_cell_angle_beta   73.07882690
_cell_angle_gamma   73.07882690
_symmetry_Int_Tables_number   1
_chemical_formula_structural   B
_chemical_formula_sum   B9
_cell_volume   77.49122321
_cell_formula_units_Z   9
loop_
 _symmetry_equiv_pos_site_id
 _symmetry_equiv_pos_as_xyz
  1  'x, y, z'
loop_
 _atom_site_type_symbol
 _atom_site_label
 _atom_site_symmetry_multiplicity
 _atom_site_fract_x
 _atom_site_fract_y
 _atom_site_fract_z
 _atom_site_occupancy
  B  B0  1  -0.00000000  0.50000001  0.49999998  1
  B  B1  1  0.84829903  0.15170100  0.15170098  1
  B  B2  1  0.15170100  0.84829901  0.84829896  1
  B  B3  1  0.50000001  0.85410401  0.14589596  1
  B  B4  1  0.50000001  0.14589600  0.85410399  1
  B  B5  1  0.69593902  0.56477301  0.04334897  1
  B  B6  1  0.30406101  0.43522701  0.95665098  1
  B  B7  1  0.30406100  0.95665101  0.43522696  1
  B  B8  1  0.69593902  0.04334900  0.56477299  1
