# generated using pymatgen
data_Li3Cu10
_symmetry_space_group_name_H-M   'P 1'
_cell_length_a   4.23467207
_cell_length_b   4.37619352
_cell_length_c   14.70219707
_cell_angle_alpha   91.41960907
_cell_angle_beta   97.41330719
_cell_angle_gamma   118.70275879
_symmetry_Int_Tables_number   1
_chemical_formula_structural   Li3Cu10
_chemical_formula_sum   'Li3 Cu10'
_cell_volume   235.79968652
_cell_formula_units_Z   1
loop_
 _symmetry_equiv_pos_site_id
 _symmetry_equiv_pos_as_xyz
  1  'x, y, z'
loop_
 _atom_site_type_symbol
 _atom_site_label
 _atom_site_symmetry_multiplicity
 _atom_site_fract_x
 _atom_site_fract_y
 _atom_site_fract_z
 _atom_site_occupancy
  Li  Li0  1  0.04015999  0.07183300  0.99815297  1
  Li  Li1  1  0.56000496  0.31499899  0.73961897  1
  Li  Li2  1  0.03032196  0.53477297  0.48044098  1
  Cu  Cu3  1  0.51109293  0.72507297  0.22771799  1
  Cu  Cu4  1  0.66958695  0.38770298  0.92250396  1
  Cu  Cu5  1  0.93360490  0.99977895  0.80483796  1
  Cu  Cu6  1  0.64055892  0.84233796  0.39874998  1
  Cu  Cu7  1  0.18166495  0.62652897  0.66878598  1
  Cu  Cu8  1  0.40204397  0.21672199  0.54226998  1
  Cu  Cu9  1  0.16687999  0.09656700  0.22056299  1
  Cu  Cu10  1  0.90684594  0.47660798  0.30189898  1
  Cu  Cu11  1  0.75195095  0.44883498  0.13015599  1
  Cu  Cu12  1  0.40128293  0.75824196  0.06430199  1
