# generated using pymatgen
data_Li3CuS3
_symmetry_space_group_name_H-M   'P 1'
_cell_length_a   3.39387798
_cell_length_b   6.13408327
_cell_length_c   6.68288755
_cell_angle_alpha   115.67004395
_cell_angle_beta   104.70977783
_cell_angle_gamma   90.00000000
_symmetry_Int_Tables_number   1
_chemical_formula_structural   Li3CuS3
_chemical_formula_sum   'Li3 Cu1 S3'
_cell_volume   120.31602900
_cell_formula_units_Z   1
loop_
 _symmetry_equiv_pos_site_id
 _symmetry_equiv_pos_as_xyz
  1  'x, y, z'
loop_
 _atom_site_type_symbol
 _atom_site_label
 _atom_site_symmetry_multiplicity
 _atom_site_fract_x
 _atom_site_fract_y
 _atom_site_fract_z
 _atom_site_occupancy
  Li  Li0  1  0.24597999  0.18303200  0.49195998  1
  Li  Li1  1  0.49897698  0.49672400  0.99795394  1
  Li  Li2  1  0.75666396  0.82092100  0.51332793  1
  Cu  Cu3  1  0.13730198  0.47907100  0.27460396  1
  S  S4  1  0.86010498  0.52463000  0.72020994  1
  S  S5  1  0.60550395  0.94103300  0.21100792  1
  S  S6  1  0.39546800  0.05459000  0.79093598  1
