# generated using pymatgen
data_RbScCuSe3
_symmetry_space_group_name_H-M   'P 1'
_cell_length_a   4.00009012
_cell_length_b   8.00505829
_cell_length_c   10.32876301
_cell_angle_alpha   90.00000000
_cell_angle_beta   90.00000000
_cell_angle_gamma   104.46849823
_symmetry_Int_Tables_number   1
_chemical_formula_structural   RbScCuSe3
_chemical_formula_sum   'Rb2 Sc2 Cu2 Se6'
_cell_volume   320.24758338
_cell_formula_units_Z   2
loop_
 _symmetry_equiv_pos_site_id
 _symmetry_equiv_pos_as_xyz
  1  'x, y, z'
loop_
 _atom_site_type_symbol
 _atom_site_label
 _atom_site_symmetry_multiplicity
 _atom_site_fract_x
 _atom_site_fract_y
 _atom_site_fract_z
 _atom_site_occupancy
  Rb  Rb0  1  0.25947501  0.51894999  0.75000000  1
  Rb  Rb1  1  0.74052499  0.48104999  0.25000000  1
  Sc  Sc2  1  0.00000000  0.00000000  0.50000000  1
  Sc  Sc3  1  0.00000000  0.00000000  0.00000000  1
  Cu  Cu4  1  0.46621402  0.93242799  0.25000000  1
  Cu  Cu5  1  0.53378599  0.06757200  0.75000000  1
  Se  Se6  1  0.38814201  0.77628399  0.44084700  1
  Se  Se7  1  0.61185799  0.22371600  0.55915300  1
  Se  Se8  1  0.61185799  0.22371600  0.94084700  1
  Se  Se9  1  0.05181200  0.10362400  0.25000000  1
  Se  Se10  1  0.94818800  0.89637599  0.75000000  1
  Se  Se11  1  0.38814201  0.77628399  0.05915300  1
