# generated using pymatgen
data_ZrGa
_symmetry_space_group_name_H-M   'P 1'
_cell_length_a   4.82763910
_cell_length_b   5.88978195
_cell_length_c   5.88978195
_cell_angle_alpha   60.00000000
_cell_angle_beta   90.00000000
_cell_angle_gamma   90.00000000
_symmetry_Int_Tables_number   1
_chemical_formula_structural   ZrGa
_chemical_formula_sum   'Zr4 Ga4'
_cell_volume   145.03200863
_cell_formula_units_Z   4
loop_
 _symmetry_equiv_pos_site_id
 _symmetry_equiv_pos_as_xyz
  1  'x, y, z'
loop_
 _atom_site_type_symbol
 _atom_site_label
 _atom_site_symmetry_multiplicity
 _atom_site_fract_x
 _atom_site_fract_y
 _atom_site_fract_z
 _atom_site_occupancy
  Zr  Zr0  1  0.74999998  0.66730301  0.16634799  1
  Zr  Zr1  1  0.74999998  0.16634900  0.16634800  1
  Zr  Zr2  1  0.74999998  0.16634900  0.66730202  1
  Zr  Zr3  1  0.24999999  0.33269701  0.83365202  1
  Ga  Ga4  1  0.24999999  0.83365101  0.83365201  1
  Ga  Ga5  1  0.24999999  0.83365101  0.33269800  1
  Ga  Ga6  1  0.24999999  0.33333334  0.33333334  1
  Ga  Ga7  1  0.74999998  0.66666668  0.66666668  1
