# generated using pymatgen
data_Be9Nb
_symmetry_space_group_name_H-M   'P 1'
_cell_length_a   3.30142498
_cell_length_b   6.21434498
_cell_length_c   6.21434498
_cell_angle_alpha   90.00000000
_cell_angle_beta   90.00000000
_cell_angle_gamma   90.00000000
_symmetry_Int_Tables_number   1
_chemical_formula_structural   Be9Nb
_chemical_formula_sum   'Be9 Nb1'
_cell_volume   127.49470559
_cell_formula_units_Z   1
loop_
 _symmetry_equiv_pos_site_id
 _symmetry_equiv_pos_as_xyz
  1  'x, y, z'
loop_
 _atom_site_type_symbol
 _atom_site_label
 _atom_site_symmetry_multiplicity
 _atom_site_fract_x
 _atom_site_fract_y
 _atom_site_fract_z
 _atom_site_occupancy
  Be  Be0  1  0.00000000  0.00000000  0.00000000  1
  Nb  Nb1  1  0.00000000  0.50000000  0.50000000  1
  Be  Be2  1  0.50000000  0.32304900  0.82304900  1
  Be  Be3  1  0.50000000  0.82304900  0.67695100  1
  Be  Be4  1  0.50000000  0.17695100  0.32304900  1
  Be  Be5  1  0.50000000  0.67695100  0.17695100  1
  Be  Be6  1  0.00000000  0.10833200  0.60833200  1
  Be  Be7  1  0.00000000  0.60833200  0.89166800  1
  Be  Be8  1  0.00000000  0.39166800  0.10833200  1
  Be  Be9  1  0.00000000  0.89166800  0.39166800  1
