# generated using pymatgen
data_Li5CaGe4
_symmetry_space_group_name_H-M   'P 1'
_cell_length_a   4.46091509
_cell_length_b   4.46180582
_cell_length_c   10.01117229
_cell_angle_alpha   89.75706482
_cell_angle_beta   90.00000000
_cell_angle_gamma   90.00000000
_symmetry_Int_Tables_number   1
_chemical_formula_structural   Li5CaGe4
_chemical_formula_sum   'Li5 Ca1 Ge4'
_cell_volume   199.25794837
_cell_formula_units_Z   1
loop_
 _symmetry_equiv_pos_site_id
 _symmetry_equiv_pos_as_xyz
  1  'x, y, z'
loop_
 _atom_site_type_symbol
 _atom_site_label
 _atom_site_symmetry_multiplicity
 _atom_site_fract_x
 _atom_site_fract_y
 _atom_site_fract_z
 _atom_site_occupancy
  Ca  Ca0  1  0.25000000  0.25026301  0.25379800  1
  Li  Li1  1  0.74999999  0.74973703  0.74620200  1
  Li  Li2  1  0.25000000  0.74934503  0.49999100  1
  Li  Li3  1  0.74999999  0.75794503  0.12720902  1
  Li  Li4  1  0.74999999  0.25065501  0.50000899  1
  Li  Li5  1  0.25000000  0.24205501  0.87279098  1
  Ge  Ge6  1  0.74999999  0.26116901  0.99966098  1
  Ge  Ge7  1  0.25000000  0.24847901  0.62332699  1
  Ge  Ge8  1  0.74999999  0.75152103  0.37667301  1
  Ge  Ge9  1  0.25000000  0.73883103  0.00033902  1
