# generated using pymatgen
data_BaNb2O6
_symmetry_space_group_name_H-M   'P 1'
_cell_length_a   7.44081211
_cell_length_b   7.72001886
_cell_length_c   7.72001886
_cell_angle_alpha   61.50386429
_cell_angle_beta   61.18934250
_cell_angle_gamma   61.18934250
_symmetry_Int_Tables_number   1
_chemical_formula_structural   BaNb2O6
_chemical_formula_sum   'Ba2 Nb4 O12'
_cell_volume   322.69197127
_cell_formula_units_Z   2
loop_
 _symmetry_equiv_pos_site_id
 _symmetry_equiv_pos_as_xyz
  1  'x, y, z'
loop_
 _atom_site_type_symbol
 _atom_site_label
 _atom_site_symmetry_multiplicity
 _atom_site_fract_x
 _atom_site_fract_y
 _atom_site_fract_z
 _atom_site_occupancy
  Ba  Ba0  1  0.60956799  0.64043200  0.14043204  1
  Ba  Ba1  1  0.39043199  0.35956800  0.85956804  1
  Nb  Nb2  1  0.00000000  0.50000000  0.50000003  1
  Nb  Nb3  1  0.00000000  0.00000000  0.00000000  1
  Nb  Nb4  1  0.49999999  1.00000001  0.50000006  1
  Nb  Nb5  1  0.00000001  1.00000001  0.50000004  1
  O  O6  1  0.07762900  0.67237100  0.17237103  1
  O  O7  1  0.69905398  0.05094600  0.55094603  1
  O  O8  1  0.08734300  0.06149000  0.18023201  1
  O  O9  1  0.67093499  0.68023300  0.56149005  1
  O  O10  1  0.67093498  0.06149100  0.18023202  1
  O  O11  1  0.08734300  0.68023200  0.56149004  1
  O  O12  1  0.92237098  0.32762900  0.82762905  1
  O  O13  1  0.30094600  0.94905401  0.44905405  1
  O  O14  1  0.91265698  0.93851001  0.81976807  1
  O  O15  1  0.32906499  0.31976700  0.43851003  1
  O  O16  1  0.32906500  0.93850901  0.81976806  1
  O  O17  1  0.91265698  0.31976800  0.43851004  1
