# generated using pymatgen
data_Ce(FeSi)2
_symmetry_space_group_name_H-M   'P 1'
_cell_length_a   3.92703605
_cell_length_b   3.92703605
_cell_length_c   5.73598909
_cell_angle_alpha   110.01801300
_cell_angle_beta   110.01801300
_cell_angle_gamma   90.00000000
_symmetry_Int_Tables_number   1
_chemical_formula_structural   Ce(FeSi)2
_chemical_formula_sum   'Ce1 Fe2 Si2'
_cell_volume   77.40168854
_cell_formula_units_Z   1
loop_
 _symmetry_equiv_pos_site_id
 _symmetry_equiv_pos_as_xyz
  1  'x, y, z'
loop_
 _atom_site_type_symbol
 _atom_site_label
 _atom_site_symmetry_multiplicity
 _atom_site_fract_x
 _atom_site_fract_y
 _atom_site_fract_z
 _atom_site_occupancy
  Ce  Ce0  1  0.00000000  0.00000000  0.00000000  1
  Fe  Fe1  1  0.75000001  0.25000000  0.50000001  1
  Fe  Fe2  1  0.25000002  0.75000000  0.50000002  1
  Si  Si3  1  0.37400501  0.37400500  0.74801000  1
  Si  Si4  1  0.62599502  0.62599500  0.25199003  1
