# generated using pymatgen
data_Ce3Cd
_symmetry_space_group_name_H-M   'P 1'
_cell_length_a   5.67254591
_cell_length_b   7.11170197
_cell_length_c   7.11170149
_cell_angle_alpha   120.00000000
_cell_angle_beta   90.00000000
_cell_angle_gamma   90.00000000
_symmetry_Int_Tables_number   1
_chemical_formula_structural   Ce3Cd
_chemical_formula_sum   'Ce6 Cd2'
_cell_volume   248.45956368
_cell_formula_units_Z   2
loop_
 _symmetry_equiv_pos_site_id
 _symmetry_equiv_pos_as_xyz
  1  'x, y, z'
loop_
 _atom_site_type_symbol
 _atom_site_label
 _atom_site_symmetry_multiplicity
 _atom_site_fract_x
 _atom_site_fract_y
 _atom_site_fract_z
 _atom_site_occupancy
  Ce  Ce0  1  0.75000001  0.82823598  0.17176296  1
  Ce  Ce1  1  0.75000001  0.34352699  0.17176298  1
  Ce  Ce2  1  0.75000001  0.82823598  0.65647196  1
  Ce  Ce3  1  0.25000000  0.17176400  0.82823699  1
  Ce  Ce4  1  0.25000000  0.65647299  0.82823697  1
  Ce  Ce5  1  0.25000000  0.17176400  0.34352799  1
  Cd  Cd6  1  0.25000000  0.66666665  0.33333330  1
  Cd  Cd7  1  0.75000001  0.33333333  0.66666665  1
