# generated using pymatgen
data_Fe4BRh5
_symmetry_space_group_name_H-M   'P 1'
_cell_length_a   3.05790710
_cell_length_b   8.43748093
_cell_length_c   8.43748093
_cell_angle_alpha   90.00000000
_cell_angle_beta   90.00000000
_cell_angle_gamma   90.00000000
_symmetry_Int_Tables_number   1
_chemical_formula_structural   Fe4BRh5
_chemical_formula_sum   'Fe8 B2 Rh10'
_cell_volume   217.69572272
_cell_formula_units_Z   2
loop_
 _symmetry_equiv_pos_site_id
 _symmetry_equiv_pos_as_xyz
  1  'x, y, z'
loop_
 _atom_site_type_symbol
 _atom_site_label
 _atom_site_symmetry_multiplicity
 _atom_site_fract_x
 _atom_site_fract_y
 _atom_site_fract_z
 _atom_site_occupancy
  Fe  Fe0  1  0.00000000  0.00000000  0.00000000  1
  Fe  Fe1  1  0.00000000  0.50000000  0.50000000  1
  Fe  Fe2  1  0.00000000  0.82532501  0.32532500  1
  Fe  Fe3  1  0.99999997  0.32532500  0.17467500  1
  Fe  Fe4  1  0.99999997  0.67467501  0.82532501  1
  Fe  Fe5  1  0.00000000  0.17467500  0.67467501  1
  Fe  Fe6  1  0.49999998  0.50000000  -0.00000000  1
  Fe  Fe7  1  0.49999998  0.00000000  0.50000000  1
  B  B8  1  0.49999998  0.07081300  0.22053500  1
  B  B9  1  0.49999998  0.22053500  0.92918701  1
  Rh  Rh10  1  0.49999998  0.77946501  0.07081300  1
  Rh  Rh11  1  0.49999998  0.92918701  0.77946501  1
  Rh  Rh12  1  0.49999998  0.42918700  0.72053501  1
  Rh  Rh13  1  0.49999998  0.57081300  0.27946500  1
  Rh  Rh14  1  0.49999998  0.72053501  0.57081300  1
  Rh  Rh15  1  0.49999998  0.27946500  0.42918700  1
  Rh  Rh16  1  0.00000000  0.62011001  0.12011000  1
  Rh  Rh17  1  0.00000000  0.12011000  0.37989000  1
  Rh  Rh18  1  0.00000000  0.87989001  0.62011001  1
  Rh  Rh19  1  0.00000000  0.37989000  0.87989001  1
