# generated using pymatgen
data_PrMg
_symmetry_space_group_name_H-M   'P 1'
_cell_length_a   4.83884811
_cell_length_b   4.83884811
_cell_length_c   5.85898781
_cell_angle_alpha   114.38980103
_cell_angle_beta   114.38980103
_cell_angle_gamma   90.00000000
_symmetry_Int_Tables_number   1
_chemical_formula_structural   PrMg
_chemical_formula_sum   'Pr2 Mg2'
_cell_volume   111.36153466
_cell_formula_units_Z   2
loop_
 _symmetry_equiv_pos_site_id
 _symmetry_equiv_pos_as_xyz
  1  'x, y, z'
loop_
 _atom_site_type_symbol
 _atom_site_label
 _atom_site_symmetry_multiplicity
 _atom_site_fract_x
 _atom_site_fract_y
 _atom_site_fract_z
 _atom_site_occupancy
  Pr  Pr0  1  0.74999999  0.25000000  0.50000004  1
  Pr  Pr1  1  0.25000001  0.74999999  0.50000004  1
  Mg  Mg2  1  0.50000000  0.49999999  0.00000002  1
  Mg  Mg3  1  0.00000000  0.00000000  0.00000000  1
