# generated using pymatgen
data_Eu2BHO6
_symmetry_space_group_name_H-M   'P 1'
_cell_length_a   3.76110101
_cell_length_b   5.37376499
_cell_length_c   5.37376499
_cell_angle_alpha   90.00000000
_cell_angle_beta   90.00000000
_cell_angle_gamma   90.00000000
_symmetry_Int_Tables_number   1
_chemical_formula_structural   Eu2BHO6
_chemical_formula_sum   'Eu2 B1 H1 O6'
_cell_volume   108.61063088
_cell_formula_units_Z   1
loop_
 _symmetry_equiv_pos_site_id
 _symmetry_equiv_pos_as_xyz
  1  'x, y, z'
loop_
 _atom_site_type_symbol
 _atom_site_label
 _atom_site_symmetry_multiplicity
 _atom_site_fract_x
 _atom_site_fract_y
 _atom_site_fract_z
 _atom_site_occupancy
  Eu  Eu0  1  0.00000000  0.00000000  0.00000000  1
  Eu  Eu1  1  0.00000000  0.50000000  0.50000000  1
  H  H2  1  0.50000000  0.36321100  0.13678900  1
  B  B3  1  0.50000000  0.13678900  0.63678900  1
  O  O4  1  0.50000000  0.63678900  0.86321100  1
  O  O5  1  0.50000000  0.86321100  0.36321100  1
  O  O6  1  0.50000000  0.33821400  0.83821400  1
  O  O7  1  0.50000000  0.66178600  0.16178600  1
  O  O8  1  0.50000000  0.83821400  0.66178600  1
  O  O9  1  0.50000000  0.16178600  0.33821400  1
