# generated using pymatgen
data_NaSr4PrMn2O12
_symmetry_space_group_name_H-M   'P 1'
_cell_length_a   6.02487803
_cell_length_b   6.06584120
_cell_length_c   8.56013584
_cell_angle_alpha   90.51217651
_cell_angle_beta   89.89047241
_cell_angle_gamma   89.69831085
_symmetry_Int_Tables_number   1
_chemical_formula_structural   NaSr4PrMn2O12
_chemical_formula_sum   'Na1 Sr4 Pr1 Mn2 O12'
_cell_volume   312.82088916
_cell_formula_units_Z   1
loop_
 _symmetry_equiv_pos_site_id
 _symmetry_equiv_pos_as_xyz
  1  'x, y, z'
loop_
 _atom_site_type_symbol
 _atom_site_label
 _atom_site_symmetry_multiplicity
 _atom_site_fract_x
 _atom_site_fract_y
 _atom_site_fract_z
 _atom_site_occupancy
  Sr  Sr0  1  0.75135898  0.25322000  0.49753099  1
  Sr  Sr1  1  0.25118496  0.75339899  0.99791394  1
  Sr  Sr2  1  0.24893996  0.74713299  0.50236596  1
  Sr  Sr3  1  0.74325898  0.24431900  0.00573401  1
  Pr  Pr4  1  0.75040095  0.75006299  0.24867599  1
  Na  Na5  1  0.24926898  0.25028100  0.75133396  1
  Mn  Mn6  1  0.74997795  0.75007599  0.75162096  1
  Mn  Mn7  1  0.25089598  0.25033300  0.24784099  1
  O  O8  1  0.22426198  0.27806400  0.47993298  1
  O  O9  1  0.72451895  0.78609799  0.98064395  1
  O  O10  1  0.00737794  0.95374798  0.75189094  1
  O  O11  1  0.51249297  0.45059299  0.24595799  1
  O  O12  1  0.77598496  0.72138999  0.51993498  1
  O  O13  1  0.28474799  0.22219300  0.01905900  1
  O  O14  1  0.98892299  0.04941100  0.24342001  1
  O  O15  1  0.49251197  0.54603199  0.74983396  1
  O  O16  1  0.45419594  0.99464798  0.27474597  1
  O  O17  1  0.94832297  0.49019599  0.78202997  1
  O  O18  1  0.54693200  0.00617500  0.72690398  1
  O  O19  1  0.04444197  0.50262899  0.22263098  1
