# generated using pymatgen
data_Na2S
_symmetry_space_group_name_H-M   'P 1'
_cell_length_a   4.74468994
_cell_length_b   7.09391212
_cell_length_c   8.71767235
_cell_angle_alpha   90.00000000
_cell_angle_beta   90.00000000
_cell_angle_gamma   90.00000000
_symmetry_Int_Tables_number   1
_chemical_formula_structural   Na2S
_chemical_formula_sum   'Na8 S4'
_cell_volume   293.42302067
_cell_formula_units_Z   4
loop_
 _symmetry_equiv_pos_site_id
 _symmetry_equiv_pos_as_xyz
  1  'x, y, z'
loop_
 _atom_site_type_symbol
 _atom_site_label
 _atom_site_symmetry_multiplicity
 _atom_site_fract_x
 _atom_site_fract_y
 _atom_site_fract_z
 _atom_site_occupancy
  Na  Na0  1  0.75000001  0.64404499  0.42037398  1
  Na  Na1  1  0.25000000  0.35595499  0.57962598  1
  Na  Na2  1  0.75000001  0.14404500  0.07962600  1
  Na  Na3  1  0.25000000  0.85595498  0.92037396  1
  Na  Na4  1  0.75000001  0.51042799  0.83235497  1
  Na  Na5  1  0.25000000  0.48957199  0.16764499  1
  Na  Na6  1  0.75000001  0.01042800  0.66764497  1
  Na  Na7  1  0.25000000  0.98957198  0.33235499  1
  S  S8  1  0.75000001  0.24083800  0.40593898  1
  S  S9  1  0.25000000  0.75916199  0.59406098  1
  S  S10  1  0.75000001  0.74083799  0.09406100  1
  S  S11  1  0.25000000  0.25916200  0.90593896  1
