# generated using pymatgen
data_CeSi2
_symmetry_space_group_name_H-M   'P 1'
_cell_length_a   4.50008917
_cell_length_b   6.40614986
_cell_length_c   7.70805216
_cell_angle_alpha   90.00000000
_cell_angle_beta   90.00000000
_cell_angle_gamma   90.00000000
_symmetry_Int_Tables_number   1
_chemical_formula_structural   CeSi2
_chemical_formula_sum   'Ce4 Si8'
_cell_volume   222.20962084
_cell_formula_units_Z   4
loop_
 _symmetry_equiv_pos_site_id
 _symmetry_equiv_pos_as_xyz
  1  'x, y, z'
loop_
 _atom_site_type_symbol
 _atom_site_label
 _atom_site_symmetry_multiplicity
 _atom_site_fract_x
 _atom_site_fract_y
 _atom_site_fract_z
 _atom_site_occupancy
  Ce  Ce0  1  0.24999999  0.48934601  0.71108099  1
  Ce  Ce1  1  0.74999997  0.51065401  0.28891899  1
  Ce  Ce2  1  0.24999999  0.98934602  0.78891898  1
  Ce  Ce3  1  0.74999997  0.01065400  0.21108100  1
  Si  Si4  1  0.24999999  0.30568401  0.08548400  1
  Si  Si5  1  0.74999997  0.69431601  0.91451598  1
  Si  Si6  1  0.24999999  0.80568402  0.41451599  1
  Si  Si7  1  0.74999997  0.19431600  0.58548399  1
  Si  Si8  1  0.74999997  0.77333502  0.58046999  1
  Si  Si9  1  0.24999999  0.22666500  0.41952999  1
  Si  Si10  1  0.74999997  0.27333501  0.91952998  1
  Si  Si11  1  0.24999999  0.72666502  0.08047000  1
