# generated using pymatgen
data_EuCoN2
_symmetry_space_group_name_H-M   'P 1'
_cell_length_a   3.59979701
_cell_length_b   3.75653005
_cell_length_c   3.75653005
_cell_angle_alpha   106.15081024
_cell_angle_beta   90.00000000
_cell_angle_gamma   90.00000000
_symmetry_Int_Tables_number   1
_chemical_formula_structural   EuCoN2
_chemical_formula_sum   'Eu1 Co1 N2'
_cell_volume   48.79372440
_cell_formula_units_Z   1
loop_
 _symmetry_equiv_pos_site_id
 _symmetry_equiv_pos_as_xyz
  1  'x, y, z'
loop_
 _atom_site_type_symbol
 _atom_site_label
 _atom_site_symmetry_multiplicity
 _atom_site_fract_x
 _atom_site_fract_y
 _atom_site_fract_z
 _atom_site_occupancy
  Eu  Eu0  1  -0.00000000  0.00400100  0.99599902  1
  Co  Co1  1  0.50000000  0.62058801  0.37941202  1
  N  N2  1  0.50000000  0.15738700  0.53697501  1
  N  N3  1  0.50000000  0.46302501  0.84261302  1
