# generated using pymatgen
data_CeGaSi
_symmetry_space_group_name_H-M   'P 1'
_cell_length_a   4.17703199
_cell_length_b   4.35795212
_cell_length_c   7.36067343
_cell_angle_alpha   89.98976135
_cell_angle_beta   90.00000000
_cell_angle_gamma   90.00000000
_symmetry_Int_Tables_number   1
_chemical_formula_structural   CeGaSi
_chemical_formula_sum   'Ce2 Ga2 Si2'
_cell_volume   133.98858439
_cell_formula_units_Z   2
loop_
 _symmetry_equiv_pos_site_id
 _symmetry_equiv_pos_as_xyz
  1  'x, y, z'
loop_
 _atom_site_type_symbol
 _atom_site_label
 _atom_site_symmetry_multiplicity
 _atom_site_fract_x
 _atom_site_fract_y
 _atom_site_fract_z
 _atom_site_occupancy
  Ce  Ce0  1  0.00000000  0.00001000  0.01167700  1
  Ce  Ce1  1  0.00000000  0.50017903  0.49507799  1
  Ga  Ga2  1  0.50000000  0.49990203  0.83441699  1
  Ga  Ga3  1  0.50000000  0.49990003  0.17576999  1
  Si  Si4  1  0.50000000  0.00003200  0.65755200  1
  Si  Si5  1  0.50000000  0.99977805  0.32550497  1
