# generated using pymatgen
data_Na4SrLi2O8
_symmetry_space_group_name_H-M   'P 1'
_cell_length_a   3.80059981
_cell_length_b   3.80059981
_cell_length_c   15.50643730
_cell_angle_alpha   82.96076202
_cell_angle_beta   82.96076202
_cell_angle_gamma   60.00000381
_symmetry_Int_Tables_number   1
_chemical_formula_structural   Na4SrLi2O8
_chemical_formula_sum   'Na4 Sr1 Li2 O8'
_cell_volume   192.02359754
_cell_formula_units_Z   1
loop_
 _symmetry_equiv_pos_site_id
 _symmetry_equiv_pos_as_xyz
  1  'x, y, z'
loop_
 _atom_site_type_symbol
 _atom_site_label
 _atom_site_symmetry_multiplicity
 _atom_site_fract_x
 _atom_site_fract_y
 _atom_site_fract_z
 _atom_site_occupancy
  Li  Li0  1  0.99677398  0.99677399  0.00967798  1
  Na  Na1  1  0.59595499  0.59595499  0.21213499  1
  Na  Na2  1  0.20212200  0.20212200  0.39363399  1
  Na  Na3  1  0.80320099  0.80320099  0.59039698  1
  Na  Na4  1  0.40185699  0.40185700  0.79442899  1
  Sr  Sr5  1  0.05123400  0.05123400  0.84629799  1
  O  O6  1  0.85417298  0.85417299  0.43748098  1
  Li  Li7  1  0.45304199  0.45304200  0.64087399  1
  O  O8  1  0.64444899  0.64444899  0.06665299  1
  O  O9  1  0.24843500  0.24843500  0.25469499  1
  O  O10  1  0.34900899  0.34900900  0.95297299  1
  O  O11  1  0.15389800  0.15389800  0.53830599  1
  O  O12  1  0.75231099  0.75231099  0.74306698  1
  O  O13  1  0.94378498  0.94378499  0.16864498  1
  O  O14  1  0.54975399  0.54975399  0.35073799  1
