# generated using pymatgen
data_Na2FeO3
_symmetry_space_group_name_H-M   'P 1'
_cell_length_a   3.46259403
_cell_length_b   3.74137211
_cell_length_c   6.79330206
_cell_angle_alpha   105.98419189
_cell_angle_beta   104.76490784
_cell_angle_gamma   90.00000000
_symmetry_Int_Tables_number   1
_chemical_formula_structural   Na2FeO3
_chemical_formula_sum   'Na2 Fe1 O3'
_cell_volume   81.57659205
_cell_formula_units_Z   1
loop_
 _symmetry_equiv_pos_site_id
 _symmetry_equiv_pos_as_xyz
  1  'x, y, z'
loop_
 _atom_site_type_symbol
 _atom_site_label
 _atom_site_symmetry_multiplicity
 _atom_site_fract_x
 _atom_site_fract_y
 _atom_site_fract_z
 _atom_site_occupancy
  Na  Na0  1  0.35293800  0.35293799  0.70587599  1
  Na  Na1  1  0.64706200  0.64706198  0.29412400  1
  Fe  Fe2  1  0.00000000  0.00000000  0.00000000  1
  O  O3  1  0.16376900  0.16376900  0.32753800  1
  O  O4  1  0.83623101  0.83623098  0.67246200  1
  O  O5  1  0.00000000  0.49999999  0.00000000  1
