# generated using pymatgen
data_KF
_symmetry_space_group_name_H-M   'P 1'
_cell_length_a   7.03816795
_cell_length_b   7.17852592
_cell_length_c   9.65991974
_cell_angle_alpha   68.18799591
_cell_angle_beta   80.14779663
_cell_angle_gamma   90.00000000
_symmetry_Int_Tables_number   1
_chemical_formula_structural   KF
_chemical_formula_sum   'K8 F8'
_cell_volume   445.35182839
_cell_formula_units_Z   8
loop_
 _symmetry_equiv_pos_site_id
 _symmetry_equiv_pos_as_xyz
  1  'x, y, z'
loop_
 _atom_site_type_symbol
 _atom_site_label
 _atom_site_symmetry_multiplicity
 _atom_site_fract_x
 _atom_site_fract_y
 _atom_site_fract_z
 _atom_site_occupancy
  K  K0  1  0.71264299  0.34174800  0.50973403  1
  K  K1  1  0.78735699  0.85148200  0.49026605  1
  K  K2  1  0.28735699  0.65825200  0.49026604  1
  K  K3  1  0.21264300  0.14851800  0.50973403  1
  K  K4  1  0.72234799  0.75811100  0.14836303  1
  K  K5  1  0.77765199  0.90647400  0.85163707  1
  K  K6  1  0.27765200  0.24188900  0.85163704  1
  K  K7  1  0.22234800  0.09352600  0.14836301  1
  F  F8  1  0.82440999  0.44980800  0.76778405  1
  F  F9  1  0.67558999  0.21759200  0.23221602  1
  F  F10  1  0.17558999  0.55019200  0.23221603  1
  F  F11  1  0.32440999  0.78240800  0.76778406  1
  F  F12  1  0.65847699  0.65935800  0.39405204  1
  F  F13  1  0.84152300  0.05341000  0.60594803  1
  F  F14  1  0.34152300  0.34064200  0.60594804  1
  F  F15  1  0.15847699  0.94659000  0.39405205  1
