# generated using pymatgen
data_CaMnO3
_symmetry_space_group_name_H-M   'P 1'
_cell_length_a   5.61022329
_cell_length_b   5.67931747
_cell_length_c   7.91052389
_cell_angle_alpha   89.94236755
_cell_angle_beta   90.30168915
_cell_angle_gamma   89.54267120
_symmetry_Int_Tables_number   1
_chemical_formula_structural   CaMnO3
_chemical_formula_sum   'Ca4 Mn4 O12'
_cell_volume   252.03534302
_cell_formula_units_Z   4
loop_
 _symmetry_equiv_pos_site_id
 _symmetry_equiv_pos_as_xyz
  1  'x, y, z'
loop_
 _atom_site_type_symbol
 _atom_site_label
 _atom_site_symmetry_multiplicity
 _atom_site_fract_x
 _atom_site_fract_y
 _atom_site_fract_z
 _atom_site_occupancy
  Ca  Ca0  1  0.49027402  0.45705402  0.25121795  1
  Ca  Ca1  1  0.01137905  0.95853804  0.24844796  1
  Ca  Ca2  1  0.50974103  0.54295302  0.74878094  1
  Ca  Ca3  1  0.98863500  0.04145900  0.75156094  1
  Mn  Mn4  1  0.00000203  0.50001202  0.50001197  1
  Mn  Mn5  1  0.49999805  0.99999704  0.99999892  1
  Mn  Mn6  1  0.49993900  0.00004200  0.49998797  1
  Mn  Mn7  1  0.99998402  0.49998702  0.00001493  1
  O  O8  1  0.58825600  0.02237300  0.24711597  1
  O  O9  1  0.91178302  0.52291702  0.25187193  1
  O  O10  1  0.41175505  0.97761704  0.75287693  1
  O  O11  1  0.08822802  0.47707502  0.74812996  1
  O  O12  1  0.20640301  0.21505501  0.04715698  1
  O  O13  1  0.27932503  0.69995703  0.45090095  1
  O  O14  1  0.79360504  0.78493503  0.95283891  1
  O  O15  1  0.72068801  0.30003601  0.54909994  1
  O  O16  1  0.80895804  0.77131503  0.54512592  1
  O  O17  1  0.71022701  0.28631801  0.95432694  1
  O  O18  1  0.19103701  0.22868801  0.45486297  1
  O  O19  1  0.28978404  0.71367303  0.04566896  1
