# generated using pymatgen
data_Sr2CaTl3
_symmetry_space_group_name_H-M   'P 1'
_cell_length_a   4.21106386
_cell_length_b   7.83517647
_cell_length_c   8.45379734
_cell_angle_alpha   106.25944519
_cell_angle_beta   90.00000000
_cell_angle_gamma   105.58859253
_symmetry_Int_Tables_number   1
_chemical_formula_structural   Sr2CaTl3
_chemical_formula_sum   'Sr2 Ca1 Tl3'
_cell_volume   257.06717072
_cell_formula_units_Z   1
loop_
 _symmetry_equiv_pos_site_id
 _symmetry_equiv_pos_as_xyz
  1  'x, y, z'
loop_
 _atom_site_type_symbol
 _atom_site_label
 _atom_site_symmetry_multiplicity
 _atom_site_fract_x
 _atom_site_fract_y
 _atom_site_fract_z
 _atom_site_occupancy
  Sr  Sr0  1  0.14268098  0.28536199  0.07541398  1
  Sr  Sr1  1  0.85839797  0.71679598  0.43153596  1
  Ca  Ca2  1  0.14160198  0.28320399  0.56846398  1
  Tl  Tl3  1  0.85731897  0.71463798  0.92458596  1
  Tl  Tl4  1  0.49621194  0.99242398  0.24878094  1
  Tl  Tl5  1  0.50378802  0.00757600  0.75121900  1
