# generated using pymatgen
data_SmGa2
_symmetry_space_group_name_H-M   'P 1'
_cell_length_a   5.27318192
_cell_length_b   5.27318239
_cell_length_c   9.77134705
_cell_angle_alpha   90.00000000
_cell_angle_beta   90.00000000
_cell_angle_gamma   120.00000000
_symmetry_Int_Tables_number   1
_chemical_formula_structural   SmGa2
_chemical_formula_sum   'Sm4 Ga8'
_cell_volume   235.30470827
_cell_formula_units_Z   4
loop_
 _symmetry_equiv_pos_site_id
 _symmetry_equiv_pos_as_xyz
  1  'x, y, z'
loop_
 _atom_site_type_symbol
 _atom_site_label
 _atom_site_symmetry_multiplicity
 _atom_site_fract_x
 _atom_site_fract_y
 _atom_site_fract_z
 _atom_site_occupancy
  Sm  Sm0  1  0.66666669  0.33333334  0.56459300  1
  Sm  Sm1  1  0.33333337  0.66666668  0.43540700  1
  Sm  Sm2  1  0.33333337  0.66666668  0.06459300  1
  Sm  Sm3  1  0.66666669  0.33333334  0.93540700  1
  Ga  Ga4  1  0.00000000  0.00000000  0.50000000  1
  Ga  Ga5  1  0.00000000  0.00000000  0.00000000  1
  Ga  Ga6  1  0.16961402  0.33922801  0.75000000  1
  Ga  Ga7  1  0.16961404  0.83038602  0.75000000  1
  Ga  Ga8  1  0.66077205  0.83038602  0.75000000  1
  Ga  Ga9  1  0.83038604  0.66077201  0.25000000  1
  Ga  Ga10  1  0.83038602  0.16961400  0.25000000  1
  Ga  Ga11  1  0.33922801  0.16961400  0.25000000  1
