# generated using pymatgen
data_Li2CuP2
_symmetry_space_group_name_H-M   'P 1'
_cell_length_a   3.82338595
_cell_length_b   3.82338572
_cell_length_c   6.04109001
_cell_angle_alpha   90.00000000
_cell_angle_beta   90.00000000
_cell_angle_gamma   120.00000000
_symmetry_Int_Tables_number   1
_chemical_formula_structural   Li2CuP2
_chemical_formula_sum   'Li2 Cu1 P2'
_cell_volume   76.47899847
_cell_formula_units_Z   1
loop_
 _symmetry_equiv_pos_site_id
 _symmetry_equiv_pos_as_xyz
  1  'x, y, z'
loop_
 _atom_site_type_symbol
 _atom_site_label
 _atom_site_symmetry_multiplicity
 _atom_site_fract_x
 _atom_site_fract_y
 _atom_site_fract_z
 _atom_site_occupancy
  Li  Li0  1  0.33333330  0.66666663  0.74908700  1
  Li  Li1  1  0.66666665  0.33333332  0.25091300  1
  P  P2  1  0.66666665  0.33333332  0.85509300  1
  Cu  Cu3  1  0.00000000  0.00000000  0.50000000  1
  P  P4  1  0.33333330  0.66666663  0.14490700  1
