# generated using pymatgen
data_NaCu2
_symmetry_space_group_name_H-M   'P 1'
_cell_length_a   4.06683493
_cell_length_b   4.38392019
_cell_length_c   4.38411856
_cell_angle_alpha   120.00054932
_cell_angle_beta   90.00000000
_cell_angle_gamma   90.00000000
_symmetry_Int_Tables_number   1
_chemical_formula_structural   NaCu2
_chemical_formula_sum   'Na1 Cu2'
_cell_volume   67.69080857
_cell_formula_units_Z   1
loop_
 _symmetry_equiv_pos_site_id
 _symmetry_equiv_pos_as_xyz
  1  'x, y, z'
loop_
 _atom_site_type_symbol
 _atom_site_label
 _atom_site_symmetry_multiplicity
 _atom_site_fract_x
 _atom_site_fract_y
 _atom_site_fract_z
 _atom_site_occupancy
  Na  Na0  1  -0.00000000  0.99997897  0.00002102  1
  Cu  Cu1  1  0.50000001  0.33333332  0.66666666  1
  Cu  Cu2  1  0.50000001  0.66666665  0.33337368  1
