# generated using pymatgen
data_NaNbO3
_symmetry_space_group_name_H-M   'P 1'
_cell_length_a   5.79670000
_cell_length_b   5.84773493
_cell_length_c   8.21791363
_cell_angle_alpha   90.00000000
_cell_angle_beta   89.68272400
_cell_angle_gamma   90.00000000
_symmetry_Int_Tables_number   1
_chemical_formula_structural   NaNbO3
_chemical_formula_sum   'Na4 Nb4 O12'
_cell_volume   278.56299088
_cell_formula_units_Z   4
loop_
 _symmetry_equiv_pos_site_id
 _symmetry_equiv_pos_as_xyz
  1  'x, y, z'
loop_
 _atom_site_type_symbol
 _atom_site_label
 _atom_site_symmetry_multiplicity
 _atom_site_fract_x
 _atom_site_fract_y
 _atom_site_fract_z
 _atom_site_occupancy
  Na  Na0  1  0.99243100  0.03425800  0.74945907  1
  Na  Na1  1  0.50756900  0.53425801  0.75054105  1
  Na  Na2  1  0.49243100  0.46574201  0.24945903  1
  Na  Na3  1  0.00756900  0.96574201  0.25054101  1
  Nb  Nb4  1  0.50000000  0.00000000  0.50000004  1
  Nb  Nb5  1  -0.00000000  0.50000001  -0.00000000  1
  Nb  Nb6  1  0.50000000  0.00000000  0.00000002  1
  Nb  Nb7  1  -0.00000000  0.50000001  0.50000002  1
  O  O8  1  0.57167300  0.01788900  0.23555103  1
  O  O9  1  0.92832700  0.51788901  0.26444905  1
  O  O10  1  0.42832700  0.98211101  0.76444905  1
  O  O11  1  0.07167300  0.48211101  0.73555104  1
  O  O12  1  0.22941100  0.20189400  0.03706501  1
  O  O13  1  0.27058900  0.70189401  0.46293503  1
  O  O14  1  0.77058900  0.79810601  0.96293507  1
  O  O15  1  0.72941100  0.29810600  0.53706505  1
  O  O16  1  0.69940800  0.27185700  0.96104607  1
  O  O17  1  0.80059200  0.77185701  0.53895405  1
  O  O18  1  0.30059200  0.72814301  0.03895401  1
  O  O19  1  0.19940800  0.22814300  0.46104603  1
