# generated using pymatgen
data_Ce2Sn5Ru
_symmetry_space_group_name_H-M   'P 1'
_cell_length_a   6.96263599
_cell_length_b   8.25757790
_cell_length_c   8.25757790
_cell_angle_alpha   90.00000000
_cell_angle_beta   90.00000000
_cell_angle_gamma   90.00000000
_symmetry_Int_Tables_number   1
_chemical_formula_structural   Ce2Sn5Ru
_chemical_formula_sum   'Ce4 Sn10 Ru2'
_cell_volume   474.76538735
_cell_formula_units_Z   2
loop_
 _symmetry_equiv_pos_site_id
 _symmetry_equiv_pos_as_xyz
  1  'x, y, z'
loop_
 _atom_site_type_symbol
 _atom_site_label
 _atom_site_symmetry_multiplicity
 _atom_site_fract_x
 _atom_site_fract_y
 _atom_site_fract_z
 _atom_site_occupancy
  Ce  Ce0  1  0.50000000  0.50000001  0.50000001  1
  Ce  Ce1  1  0.00000000  0.50000001  0.50000001  1
  Ce  Ce2  1  0.50000000  0.00000000  0.00000000  1
  Ce  Ce3  1  0.50000000  0.50000001  0.00000000  1
  Sn  Sn4  1  0.00000000  0.00000000  0.50000001  1
  Sn  Sn5  1  0.50000000  0.00000000  0.50000001  1
  Sn  Sn6  1  0.00000000  0.50000001  0.00000000  1
  Sn  Sn7  1  0.00000000  0.00000000  0.00000000  1
  Sn  Sn8  1  0.24950000  0.17140000  0.67220701  1
  Sn  Sn9  1  0.75050000  0.67220701  0.17140000  1
  Sn  Sn10  1  0.75050000  0.32779300  0.82860001  1
  Sn  Sn11  1  0.24950000  0.82860001  0.32779300  1
  Sn  Sn12  1  0.24950000  0.67220701  0.82860001  1
  Sn  Sn13  1  0.75050000  0.17140000  0.32779300  1
  Ru  Ru14  1  0.75050000  0.82860001  0.67220701  1
  Ru  Ru15  1  0.24950000  0.32779300  0.17140000  1
