# generated using pymatgen
data_Li3NbO4
_symmetry_space_group_name_H-M   'P 1'
_cell_length_a   5.72688103
_cell_length_b   5.79754162
_cell_length_c   7.04705906
_cell_angle_alpha   106.29111481
_cell_angle_beta   99.31602478
_cell_angle_gamma   107.21377563
_symmetry_Int_Tables_number   1
_chemical_formula_structural   Li3NbO4
_chemical_formula_sum   'Li6 Nb2 O8'
_cell_volume   206.72722223
_cell_formula_units_Z   2
loop_
 _symmetry_equiv_pos_site_id
 _symmetry_equiv_pos_as_xyz
  1  'x, y, z'
loop_
 _atom_site_type_symbol
 _atom_site_label
 _atom_site_symmetry_multiplicity
 _atom_site_fract_x
 _atom_site_fract_y
 _atom_site_fract_z
 _atom_site_occupancy
  Li  Li0  1  0.35019900  0.18835401  0.72055897  1
  Li  Li1  1  0.64980101  0.81164602  0.27944094  1
  Li  Li2  1  0.00000001  0.50000001  -0.00000002  1
  Li  Li3  1  0.00000001  0.50000001  0.49999997  1
  Li  Li4  1  0.69614801  0.83619903  0.76649993  1
  Li  Li5  1  0.30385200  0.16380100  0.23349998  1
  Nb  Nb6  1  0.93483300  0.58604402  0.26187394  1
  Nb  Nb7  1  0.27066302  0.85201003  0.07636496  1
  O  O8  1  0.06221200  0.16903601  0.36634999  1
  O  O9  1  0.72933699  0.14799000  0.92363495  1
  O  O10  1  0.57628400  0.24125701  0.43970796  1
  O  O11  1  0.32425201  0.36902201  0.08991497  1
  O  O12  1  0.67574801  0.63097802  0.91008493  1
  O  O13  1  0.93778801  0.83096402  0.63364992  1
  O  O14  1  0.06516701  0.41395601  0.73812597  1
  O  O15  1  0.42371602  0.75874302  0.56029195  1
