# generated using pymatgen
data_Ta3Co5
_symmetry_space_group_name_H-M   'P 1'
_cell_length_a   4.48577213
_cell_length_b   5.55114603
_cell_length_c   5.55114555
_cell_angle_alpha   120.00000000
_cell_angle_beta   90.00000000
_cell_angle_gamma   90.00000000
_symmetry_Int_Tables_number   1
_chemical_formula_structural   Ta3Co5
_chemical_formula_sum   'Ta3 Co5'
_cell_volume   119.71073778
_cell_formula_units_Z   1
loop_
 _symmetry_equiv_pos_site_id
 _symmetry_equiv_pos_as_xyz
  1  'x, y, z'
loop_
 _atom_site_type_symbol
 _atom_site_label
 _atom_site_symmetry_multiplicity
 _atom_site_fract_x
 _atom_site_fract_y
 _atom_site_fract_z
 _atom_site_occupancy
  Ta  Ta0  1  0.74999998  0.82578298  0.17421596  1
  Ta  Ta1  1  0.74999998  0.34843299  0.17421598  1
  Co  Co2  1  0.74999998  0.82578298  0.65156597  1
  Ta  Ta3  1  0.24999999  0.17421699  0.82578400  1
  Co  Co4  1  0.24999999  0.65156698  0.82578398  1
  Co  Co5  1  0.24999999  0.17421699  0.34843399  1
  Co  Co6  1  0.24999999  0.66666665  0.33333330  1
  Co  Co7  1  0.74999998  0.33333332  0.66666666  1
