# generated using pymatgen
data_Sr2Fe3As3P
_symmetry_space_group_name_H-M   'P 1'
_cell_length_a   4.35867596
_cell_length_b   4.35867596
_cell_length_c   10.59935570
_cell_angle_alpha   101.86523438
_cell_angle_beta   101.86523438
_cell_angle_gamma   90.00000000
_symmetry_Int_Tables_number   1
_chemical_formula_structural   Sr2Fe3As3P
_chemical_formula_sum   'Sr2 Fe3 As3 P1'
_cell_volume   192.66624902
_cell_formula_units_Z   1
loop_
 _symmetry_equiv_pos_site_id
 _symmetry_equiv_pos_as_xyz
  1  'x, y, z'
loop_
 _atom_site_type_symbol
 _atom_site_label
 _atom_site_symmetry_multiplicity
 _atom_site_fract_x
 _atom_site_fract_y
 _atom_site_fract_z
 _atom_site_occupancy
  Sr  Sr0  1  0.58728898  0.58728898  0.17457702  1
  Sr  Sr1  1  0.41271099  0.41271199  0.82542303  1
  Fe  Fe2  1  0.00000000  0.00000000  0.00000000  1
  Fe  Fe3  1  0.25000100  0.74999998  0.50000003  1
  Fe  Fe4  1  0.74999897  0.24999999  0.50000002  1
  As  As5  1  0.17156100  0.17156000  0.34312101  1
  As  As6  1  0.82843998  0.82844098  0.65688004  1
  P  P7  1  0.50000000  0.99999897  0.00000002  1
  As  As8  1  0.00000001  0.49999899  0.00000001  1
