# generated using pymatgen
data_KF
_symmetry_space_group_name_H-M   'P 1'
_cell_length_a   6.52988386
_cell_length_b   6.56164789
_cell_length_c   6.68663359
_cell_angle_alpha   60.61642075
_cell_angle_beta   90.00000000
_cell_angle_gamma   90.00000000
_symmetry_Int_Tables_number   1
_chemical_formula_structural   KF
_chemical_formula_sum   'K5 F5'
_cell_volume   249.64378928
_cell_formula_units_Z   5
loop_
 _symmetry_equiv_pos_site_id
 _symmetry_equiv_pos_as_xyz
  1  'x, y, z'
loop_
 _atom_site_type_symbol
 _atom_site_label
 _atom_site_symmetry_multiplicity
 _atom_site_fract_x
 _atom_site_fract_y
 _atom_site_fract_z
 _atom_site_occupancy
  K  K0  1  0.67107101  0.54386100  0.25330302  1
  K  K1  1  0.32892901  0.20283600  0.25330301  1
  K  K2  1  0.32892901  0.79716400  0.74669703  1
  F  F3  1  0.67107101  0.45613900  0.74669702  1
  K  K4  1  0.17107100  0.29716400  0.74669701  1
  K  K5  1  0.82892902  0.95613900  0.74669703  1
  F  F6  1  0.82892902  0.04386100  0.25330300  1
  F  F7  1  0.17107100  0.70283600  0.25330302  1
  F  F8  1  0.00000000  0.50000000  0.00000001  1
  F  F9  1  0.50000001  0.00000000  -0.00000000  1
