# generated using pymatgen
data_KLiS2
_symmetry_space_group_name_H-M   'P 1'
_cell_length_a   6.15552998
_cell_length_b   7.81512070
_cell_length_c   12.84197521
_cell_angle_alpha   84.58406830
_cell_angle_beta   76.13326263
_cell_angle_gamma   66.80748749
_symmetry_Int_Tables_number   1
_chemical_formula_structural   KLiS2
_chemical_formula_sum   'K4 Li4 S8'
_cell_volume   551.30441841
_cell_formula_units_Z   4
loop_
 _symmetry_equiv_pos_site_id
 _symmetry_equiv_pos_as_xyz
  1  'x, y, z'
loop_
 _atom_site_type_symbol
 _atom_site_label
 _atom_site_symmetry_multiplicity
 _atom_site_fract_x
 _atom_site_fract_y
 _atom_site_fract_z
 _atom_site_occupancy
  K  K0  1  0.31954700  0.00000000  0.36090600  1
  K  K1  1  0.43045302  0.50000001  0.13909398  1
  K  K2  1  0.68045300  0.00000000  0.63909400  1
  K  K3  1  0.06954702  0.50000001  0.86090599  1
  Li  Li4  1  0.25000002  0.50000001  0.49999999  1
  Li  Li5  1  0.50000000  0.00000000  -0.00000000  1
  Li  Li6  1  0.75000002  0.50000001  0.49999999  1
  Li  Li7  1  0.00000000  0.00000000  0.00000000  1
  S  S8  1  0.31090903  0.70229801  0.61447598  1
  S  S9  1  0.12231701  0.20229800  0.11447599  1
  S  S10  1  0.67538501  0.20229800  0.88552400  1
  S  S11  1  0.76320703  0.79770201  0.11447597  1
  S  S12  1  0.62768301  0.29770200  0.38552399  1
  S  S13  1  0.98679303  0.70229801  0.38552398  1
  S  S14  1  0.07461501  0.29770200  0.61447600  1
  S  S15  1  0.43909103  0.79770201  0.88552398  1
