# generated using pymatgen
data_Sr2U2NiGeP3
_symmetry_space_group_name_H-M   'P 1'
_cell_length_a   4.22445011
_cell_length_b   4.22445011
_cell_length_c   10.50510788
_cell_angle_alpha   101.59932709
_cell_angle_beta   101.59932709
_cell_angle_gamma   90.00000000
_symmetry_Int_Tables_number   1
_chemical_formula_structural   Sr2U2NiGeP3
_chemical_formula_sum   'Sr2 U2 Ni1 Ge1 P3'
_cell_volume   179.73506217
_cell_formula_units_Z   1
loop_
 _symmetry_equiv_pos_site_id
 _symmetry_equiv_pos_as_xyz
  1  'x, y, z'
loop_
 _atom_site_type_symbol
 _atom_site_label
 _atom_site_symmetry_multiplicity
 _atom_site_fract_x
 _atom_site_fract_y
 _atom_site_fract_z
 _atom_site_occupancy
  Sr  Sr0  1  0.58902196  0.58902198  0.17804398  1
  Sr  Sr1  1  0.41097797  0.41097798  0.82195599  1
  U  U2  1  0.00000000  0.00000000  0.00000000  1
  U  U3  1  0.24999997  0.74999997  0.49999998  1
  Ge  Ge4  1  0.74999997  0.24999999  0.49999999  1
  Ni  Ni5  1  0.17494299  0.17494299  0.34988600  1
  P  P6  1  0.82505695  0.82505697  0.65011397  1
  P  P7  1  0.49999998  0.00000000  -0.00000001  1
  P  P8  1  -0.00000001  0.49999998  -0.00000001  1
