# generated using pymatgen
data_Na2TlHg3
_symmetry_space_group_name_H-M   'P 1'
_cell_length_a   6.07601976
_cell_length_b   6.07601976
_cell_length_c   6.53700304
_cell_angle_alpha   62.30657196
_cell_angle_beta   62.30657196
_cell_angle_gamma   60.00000381
_symmetry_Int_Tables_number   1
_chemical_formula_structural   Na2TlHg3
_chemical_formula_sum   'Na2 Tl1 Hg3'
_cell_volume   176.35765069
_cell_formula_units_Z   1
loop_
 _symmetry_equiv_pos_site_id
 _symmetry_equiv_pos_as_xyz
  1  'x, y, z'
loop_
 _atom_site_type_symbol
 _atom_site_label
 _atom_site_symmetry_multiplicity
 _atom_site_fract_x
 _atom_site_fract_y
 _atom_site_fract_z
 _atom_site_occupancy
  Na  Na0  1  0.16256999  0.49999999  0.49999999  1
  Na  Na1  1  0.83742997  0.16257000  0.49999999  1
  Tl  Tl2  1  0.49999997  0.83742998  0.49999999  1
  Hg  Hg3  1  0.33218099  0.33218099  0.00345700  1
  Hg  Hg4  1  0.66781897  0.66781898  0.99654298  1
  Hg  Hg5  1  0.00000000  0.00000000  0.00000000  1
