# generated using pymatgen
data_Pr
_symmetry_space_group_name_H-M   'P 1'
_cell_length_a   5.20242786
_cell_length_b   5.20242786
_cell_length_c   6.31431532
_cell_angle_alpha   114.32770538
_cell_angle_beta   114.32770538
_cell_angle_gamma   90.00000000
_symmetry_Int_Tables_number   1
_chemical_formula_structural   Pr
_chemical_formula_sum   Pr4
_cell_volume   138.90028056
_cell_formula_units_Z   4
loop_
 _symmetry_equiv_pos_site_id
 _symmetry_equiv_pos_as_xyz
  1  'x, y, z'
loop_
 _atom_site_type_symbol
 _atom_site_label
 _atom_site_symmetry_multiplicity
 _atom_site_fract_x
 _atom_site_fract_y
 _atom_site_fract_z
 _atom_site_occupancy
  Pr  Pr0  1  0.00000000  0.00000000  0.00000000  1
  Pr  Pr1  1  0.75000000  0.25000000  0.49999996  1
  Pr  Pr2  1  0.24999998  0.75000000  0.49999995  1
  Pr  Pr3  1  0.49999999  0.50000000  -0.00000003  1
