# generated using pymatgen
data_CeIn
_symmetry_space_group_name_H-M   'P 1'
_cell_length_a   4.86451578
_cell_length_b   6.40569305
_cell_length_c   16.61714172
_cell_angle_alpha   90.00000000
_cell_angle_beta   90.00000000
_cell_angle_gamma   90.00000000
_symmetry_Int_Tables_number   1
_chemical_formula_structural   CeIn
_chemical_formula_sum   'Ce8 In8'
_cell_volume   517.80002253
_cell_formula_units_Z   8
loop_
 _symmetry_equiv_pos_site_id
 _symmetry_equiv_pos_as_xyz
  1  'x, y, z'
loop_
 _atom_site_type_symbol
 _atom_site_label
 _atom_site_symmetry_multiplicity
 _atom_site_fract_x
 _atom_site_fract_y
 _atom_site_fract_z
 _atom_site_occupancy
  Ce  Ce0  1  0.25000001  0.75409799  0.53477901  1
  Ce  Ce1  1  0.75000003  0.24590200  0.46522101  1
  Ce  Ce2  1  0.75000003  0.25409800  0.96522102  1
  Ce  Ce3  1  0.25000001  0.74590199  0.03477900  1
  Ce  Ce4  1  0.25000001  0.98747399  0.78504701  1
  Ce  Ce5  1  0.75000003  0.01252600  0.21495300  1
  Ce  Ce6  1  0.75000003  0.48747400  0.71495301  1
  Ce  Ce7  1  0.25000001  0.51252600  0.28504700  1
  In  In8  1  0.25000001  0.24357300  0.60762201  1
  In  In9  1  0.75000003  0.75642699  0.39237801  1
  In  In10  1  0.75000003  0.74357299  0.89237801  1
  In  In11  1  0.25000001  0.25642700  0.10762200  1
  In  In12  1  0.25000001  0.49669500  0.85707601  1
  In  In13  1  0.75000003  0.50330500  0.14292400  1
  In  In14  1  0.75000003  0.99669499  0.64292401  1
  In  In15  1  0.25000001  0.00330500  0.35707601  1
