# generated using pymatgen
data_CaNiO3
_symmetry_space_group_name_H-M   'P 1'
_cell_length_a   5.45293140
_cell_length_b   5.60156393
_cell_length_c   7.83951807
_cell_angle_alpha   89.99727631
_cell_angle_beta   90.00192261
_cell_angle_gamma   89.99137115
_symmetry_Int_Tables_number   1
_chemical_formula_structural   CaNiO3
_chemical_formula_sum   'Ca4 Ni4 O12'
_cell_volume   239.45763629
_cell_formula_units_Z   4
loop_
 _symmetry_equiv_pos_site_id
 _symmetry_equiv_pos_as_xyz
  1  'x, y, z'
loop_
 _atom_site_type_symbol
 _atom_site_label
 _atom_site_symmetry_multiplicity
 _atom_site_fract_x
 _atom_site_fract_y
 _atom_site_fract_z
 _atom_site_occupancy
  Ca  Ca0  1  0.51570302  0.56521501  0.75002199  1
  Ca  Ca1  1  0.48429802  0.43478801  0.24997700  1
  Ca  Ca2  1  0.99591803  0.04065400  0.75001602  1
  Ca  Ca3  1  0.00406701  0.95934402  0.24998196  1
  Ni  Ni4  1  0.49999402  0.00001500  0.99999301  1
  Ni  Ni5  1  0.49997702  0.99999302  0.49999897  1
  Ni  Ni6  1  0.99999904  0.50000401  0.50000001  1
  Ni  Ni7  1  0.00000200  0.50001401  -0.00000002  1
  O  O8  1  0.90262303  0.53002701  0.25001201  1
  O  O9  1  0.09737401  0.46997001  0.74998798  1
  O  O10  1  0.41425502  0.97166702  0.74997197  1
  O  O11  1  0.58573602  0.02834400  0.25002302  1
  O  O12  1  0.29476901  0.69744502  0.45178298  1
  O  O13  1  0.70526803  0.30258101  0.95179500  1
  O  O14  1  0.29472501  0.69742102  0.04820298  1
  O  O15  1  0.70522803  0.30255601  0.54821401  1
  O  O16  1  0.19567901  0.20771400  0.04874700  1
  O  O17  1  0.80437103  0.79227902  0.54877199  1
  O  O18  1  0.19570401  0.20767300  0.45124799  1
  O  O19  1  0.80431103  0.79229502  0.95125399  1
