# generated using pymatgen
data_LaYbPt4
_symmetry_space_group_name_H-M   'P 1'
_cell_length_a   5.57595539
_cell_length_b   5.57595539
_cell_length_c   5.57595539
_cell_angle_alpha   60.00000000
_cell_angle_beta   60.00000000
_cell_angle_gamma   60.00000000
_symmetry_Int_Tables_number   1
_chemical_formula_structural   LaYbPt4
_chemical_formula_sum   'Yb1 La1 Pt4'
_cell_volume   122.58656450
_cell_formula_units_Z   1
loop_
 _symmetry_equiv_pos_site_id
 _symmetry_equiv_pos_as_xyz
  1  'x, y, z'
loop_
 _atom_site_type_symbol
 _atom_site_label
 _atom_site_symmetry_multiplicity
 _atom_site_fract_x
 _atom_site_fract_y
 _atom_site_fract_z
 _atom_site_occupancy
  Yb  Yb0  1  0.00000000  0.00000000  0.00000000  1
  La  La1  1  0.75000003  0.75000003  0.75000003  1
  Pt  Pt2  1  0.37493001  0.87521203  0.37492901  1
  Pt  Pt3  1  0.37493001  0.37492901  0.37492901  1
  Pt  Pt4  1  0.37493001  0.37492901  0.87521203  1
  Pt  Pt5  1  0.87521303  0.37492901  0.37492901  1
