# generated using pymatgen
data_VNi2O
_symmetry_space_group_name_H-M   'P 1'
_cell_length_a   5.38460875
_cell_length_b   5.38460875
_cell_length_c   5.75077057
_cell_angle_alpha   62.08480835
_cell_angle_beta   62.08480835
_cell_angle_gamma   59.99999237
_symmetry_Int_Tables_number   1
_chemical_formula_structural   VNi2O
_chemical_formula_sum   'V2 Ni4 O2'
_cell_volume   121.48115744
_cell_formula_units_Z   2
loop_
 _symmetry_equiv_pos_site_id
 _symmetry_equiv_pos_as_xyz
  1  'x, y, z'
loop_
 _atom_site_type_symbol
 _atom_site_label
 _atom_site_symmetry_multiplicity
 _atom_site_fract_x
 _atom_site_fract_y
 _atom_site_fract_z
 _atom_site_occupancy
  V  V0  1  0.50000002  0.49999999  0.49999999  1
  V  V1  1  0.00000000  0.00000000  0.00000000  1
  Ni  Ni2  1  0.90151601  0.21345700  0.21621798  1
  Ni  Ni3  1  0.66880903  0.90151599  0.21621797  1
  Ni  Ni4  1  0.78654301  0.33119100  0.78378199  1
  Ni  Ni5  1  0.33119100  0.09848400  0.78378201  1
  O  O6  1  0.09848403  0.78654299  0.78378199  1
  O  O7  1  0.21345702  0.66880899  0.21621798  1
