# generated using pymatgen
data_Ca2Cd
_symmetry_space_group_name_H-M   'P 1'
_cell_length_a   3.80553794
_cell_length_b   5.68844604
_cell_length_c   8.73644066
_cell_angle_alpha   90.00000000
_cell_angle_beta   102.57965851
_cell_angle_gamma   90.00000000
_symmetry_Int_Tables_number   1
_chemical_formula_structural   Ca2Cd
_chemical_formula_sum   'Ca4 Cd2'
_cell_volume   184.58289096
_cell_formula_units_Z   2
loop_
 _symmetry_equiv_pos_site_id
 _symmetry_equiv_pos_as_xyz
  1  'x, y, z'
loop_
 _atom_site_type_symbol
 _atom_site_label
 _atom_site_symmetry_multiplicity
 _atom_site_fract_x
 _atom_site_fract_y
 _atom_site_fract_z
 _atom_site_occupancy
  Ca  Ca0  1  0.98293300  0.00000000  0.96586599  1
  Ca  Ca1  1  0.64786500  0.00000000  0.29572999  1
  Ca  Ca2  1  0.79933600  0.50000000  0.59867199  1
  Ca  Ca3  1  0.32094700  0.99999999  0.64189400  1
  Cd  Cd4  1  0.11416400  0.50000000  0.22832800  1
  Cd  Cd5  1  0.46808800  0.50000000  0.93617601  1
