# generated using pymatgen
data_Ba2Y5Co(OsRh2)4
_symmetry_space_group_name_H-M   'P 1'
_cell_length_a   8.72847176
_cell_length_b   8.72847176
_cell_length_c   8.72847176
_cell_angle_alpha   107.03202820
_cell_angle_beta   107.03202820
_cell_angle_gamma   107.03203583
_symmetry_Int_Tables_number   1
_chemical_formula_structural   Ba2Y5Co(OsRh2)4
_chemical_formula_sum   'Ba2 Y5 Co1 Os4 Rh8'
_cell_volume   553.32481177
_cell_formula_units_Z   1
loop_
 _symmetry_equiv_pos_site_id
 _symmetry_equiv_pos_as_xyz
  1  'x, y, z'
loop_
 _atom_site_type_symbol
 _atom_site_label
 _atom_site_symmetry_multiplicity
 _atom_site_fract_x
 _atom_site_fract_y
 _atom_site_fract_z
 _atom_site_occupancy
  Y  Y0  1  0.90515491  0.70113595  0.97678890  1
  Ba  Ba1  1  0.97678889  0.90515494  0.70113588  1
  Ba  Ba2  1  0.70113590  0.97678893  0.90515489  1
  Y  Y3  1  0.09484497  0.29886398  0.02321097  1
  Y  Y4  1  0.02321099  0.09484499  0.29886400  1
  Y  Y5  1  0.29886399  0.02321100  0.09484498  1
  Y  Y6  1  0.49999994  0.49999997  0.49999994  1
  Os  Os7  1  0.00000000  0.00000000  0.00000000  1
  Os  Os8  1  0.93020390  0.77997695  0.31980788  1
  Co  Co9  1  0.31980792  0.93020394  0.77997691  1
  Rh  Rh10  1  0.77997695  0.31980798  0.93020395  1
  Os  Os11  1  0.06979598  0.22002298  0.68019199  1
  Rh  Rh12  1  0.68019197  0.06979600  0.22002296  1
  Os  Os13  1  0.22002294  0.68019195  0.06979593  1
  Rh  Rh14  1  0.54149093  0.61454496  0.83557293  1
  Rh  Rh15  1  0.83557293  0.54149096  0.61454492  1
  Rh  Rh16  1  0.61454491  0.83557294  0.54149090  1
  Rh  Rh17  1  0.45850895  0.38545497  0.16442694  1
  Rh  Rh18  1  0.16442696  0.45850897  0.38545496  1
  Rh  Rh19  1  0.38545497  0.16442699  0.45850897  1
