# generated using pymatgen
data_Li5NO6
_symmetry_space_group_name_H-M   'P 1'
_cell_length_a   4.72606182
_cell_length_b   4.72908020
_cell_length_c   7.02492857
_cell_angle_alpha   109.66941833
_cell_angle_beta   109.13269806
_cell_angle_gamma   90.00000000
_symmetry_Int_Tables_number   1
_chemical_formula_structural   Li5NO6
_chemical_formula_sum   'Li5 N1 O6'
_cell_volume   138.60054242
_cell_formula_units_Z   1
loop_
 _symmetry_equiv_pos_site_id
 _symmetry_equiv_pos_as_xyz
  1  'x, y, z'
loop_
 _atom_site_type_symbol
 _atom_site_label
 _atom_site_symmetry_multiplicity
 _atom_site_fract_x
 _atom_site_fract_y
 _atom_site_fract_z
 _atom_site_occupancy
  Li  Li0  1  0.49999998  0.25326698  -0.00000003  1
  Li  Li1  1  -0.00000003  0.74918495  -0.00000004  1
  Li  Li2  1  0.78310698  0.03241500  0.61464595  1
  Li  Li3  1  0.21689298  0.41776897  0.38535396  1
  Li  Li4  1  0.52433895  0.77015495  0.60018592  1
  N  N5  1  0.47566098  0.16996899  0.39981396  1
  O  O6  1  0.71786897  0.37415497  0.84047493  1
  O  O7  1  0.12778295  0.97047493  0.83857092  1
  O  O8  1  0.07395098  0.33897298  0.60516796  1
  O  O9  1  0.28213097  0.53367996  0.15952495  1
  O  O10  1  0.92604895  0.73380495  0.39483191  1
  O  O11  1  0.87221698  0.13190399  0.16142995  1
