# generated using pymatgen
data_UCu7S5
_symmetry_space_group_name_H-M   'P 1'
_cell_length_a   6.73049212
_cell_length_b   6.73049212
_cell_length_c   6.73049259
_cell_angle_alpha   92.78943634
_cell_angle_beta   92.78943634
_cell_angle_gamma   92.78943634
_symmetry_Int_Tables_number   1
_chemical_formula_structural   UCu7S5
_chemical_formula_sum   'U1 Cu7 S5'
_cell_volume   303.76779351
_cell_formula_units_Z   1
loop_
 _symmetry_equiv_pos_site_id
 _symmetry_equiv_pos_as_xyz
  1  'x, y, z'
loop_
 _atom_site_type_symbol
 _atom_site_label
 _atom_site_symmetry_multiplicity
 _atom_site_fract_x
 _atom_site_fract_y
 _atom_site_fract_z
 _atom_site_occupancy
  U  U0  1  0.26317998  0.55618098  0.12942898  1
  Cu  Cu1  1  0.55618098  0.12942900  0.26317998  1
  Cu  Cu2  1  0.12942899  0.26317999  0.55618098  1
  Cu  Cu3  1  0.73681997  0.44381898  0.87057095  1
  Cu  Cu4  1  0.44381897  0.87057097  0.73681995  1
  Cu  Cu5  1  0.87057095  0.73681997  0.44381895  1
  Cu  Cu6  1  0.00000000  0.00000000  0.00000000  1
  Cu  Cu7  1  0.96498297  0.04124600  0.28856897  1
  S  S8  1  0.04124599  0.28856899  0.96498297  1
  S  S9  1  0.28856897  0.96498297  0.04124597  1
  S  S10  1  0.03501698  0.95875397  0.71143096  1
  S  S11  1  0.95875395  0.71143098  0.03501696  1
  S  S12  1  0.71143098  0.03501700  0.95875396  1
