# generated using pymatgen
data_K2NbO6
_symmetry_space_group_name_H-M   'P 1'
_cell_length_a   6.16968918
_cell_length_b   6.16968918
_cell_length_c   8.39346218
_cell_angle_alpha   90.00000000
_cell_angle_beta   90.00000000
_cell_angle_gamma   90.00000000
_symmetry_Int_Tables_number   1
_chemical_formula_structural   K2NbO6
_chemical_formula_sum   'K4 Nb2 O12'
_cell_volume   319.49767980
_cell_formula_units_Z   2
loop_
 _symmetry_equiv_pos_site_id
 _symmetry_equiv_pos_as_xyz
  1  'x, y, z'
loop_
 _atom_site_type_symbol
 _atom_site_label
 _atom_site_symmetry_multiplicity
 _atom_site_fract_x
 _atom_site_fract_y
 _atom_site_fract_z
 _atom_site_occupancy
  K  K0  1  0.49999999  0.49999999  -0.00000000  1
  K  K1  1  0.00000000  0.00000000  0.00000000  1
  K  K2  1  0.00000000  0.49999999  0.72628298  1
  K  K3  1  0.49999999  0.00000000  0.27371699  1
  Nb  Nb4  1  0.00000000  0.49999999  0.24113099  1
  Nb  Nb5  1  0.49999999  0.00000000  0.75886898  1
  O  O6  1  0.00000000  0.49999999  0.45572299  1
  O  O7  1  0.49999999  0.00000000  0.54427699  1
  O  O8  1  0.00000000  0.49999999  0.01832800  1
  O  O9  1  0.49999999  0.00000000  0.98167198  1
  O  O10  1  0.22616799  0.27383199  0.23232099  1
  O  O11  1  0.77383198  0.27383199  0.23232099  1
  O  O12  1  0.22616799  0.72616798  0.23232099  1
  O  O13  1  0.77383198  0.72616798  0.23232099  1
  O  O14  1  0.27383199  0.22616799  0.76767898  1
  O  O15  1  0.72616798  0.22616799  0.76767898  1
  O  O16  1  0.27383199  0.77383198  0.76767898  1
  O  O17  1  0.72616798  0.77383198  0.76767898  1
