# generated using pymatgen
data_Y4Ag2S7
_symmetry_space_group_name_H-M   'P 1'
_cell_length_a   7.50105715
_cell_length_b   7.50105715
_cell_length_c   7.88146591
_cell_angle_alpha   61.58419800
_cell_angle_beta   61.58419800
_cell_angle_gamma   60.00000763
_symmetry_Int_Tables_number   1
_chemical_formula_structural   Y4Ag2S7
_chemical_formula_sum   'Y4 Ag2 S7'
_cell_volume   320.87167917
_cell_formula_units_Z   1
loop_
 _symmetry_equiv_pos_site_id
 _symmetry_equiv_pos_as_xyz
  1  'x, y, z'
loop_
 _atom_site_type_symbol
 _atom_site_label
 _atom_site_symmetry_multiplicity
 _atom_site_fract_x
 _atom_site_fract_y
 _atom_site_fract_z
 _atom_site_occupancy
  Y  Y0  1  0.15868500  0.15868500  0.52394500  1
  Y  Y1  1  0.84131502  0.84131500  0.47605504  1
  Y  Y2  1  0.50000001  0.50000000  0.00000003  1
  Y  Y3  1  0.50000002  1.00000000  0.00000005  1
  Ag  Ag4  1  0.00000001  0.50000000  0.00000001  1
  Ag  Ag5  1  0.10332801  0.57665600  0.21668802  1
  S  S6  1  0.10332800  0.10332800  0.21668800  1
  S  S7  1  0.59623001  0.59623000  0.21131003  1
  S  S8  1  0.40377001  0.40377000  0.78869001  1
  S  S9  1  0.89667202  0.89667200  0.78331204  1
  S  S10  1  0.89667201  0.42334400  0.78331202  1
  S  S11  1  0.42334402  0.89667200  0.78331202  1
  S  S12  1  0.57665601  0.10332800  0.21668802  1
