# generated using pymatgen
data_LiFeO3
_symmetry_space_group_name_H-M   'P 1'
_cell_length_a   4.89837265
_cell_length_b   4.89837265
_cell_length_c   5.59387064
_cell_angle_alpha   64.03424835
_cell_angle_beta   64.03424835
_cell_angle_gamma   59.99999237
_symmetry_Int_Tables_number   1
_chemical_formula_structural   LiFeO3
_chemical_formula_sum   'Li2 Fe2 O6'
_cell_volume   100.28834178
_cell_formula_units_Z   2
loop_
 _symmetry_equiv_pos_site_id
 _symmetry_equiv_pos_as_xyz
  1  'x, y, z'
loop_
 _atom_site_type_symbol
 _atom_site_label
 _atom_site_symmetry_multiplicity
 _atom_site_fract_x
 _atom_site_fract_y
 _atom_site_fract_z
 _atom_site_occupancy
  Li  Li0  1  0.13330799  0.13330800  0.60007601  1
  Li  Li1  1  0.86669194  0.86669198  0.39992400  1
  Fe  Fe2  1  0.33851998  0.33851999  0.98444002  1
  Fe  Fe3  1  0.66147995  0.66147998  0.01555999  1
  O  O4  1  0.29664496  0.93566697  0.21823200  1
  O  O5  1  0.93566695  0.54945599  0.21823199  1
  O  O6  1  0.45054396  0.70335498  0.78176801  1
  O  O7  1  0.70335497  0.06433300  0.78176801  1
  O  O8  1  0.06433298  0.45054399  0.78176802  1
  O  O9  1  0.54945597  0.29664499  0.21823200  1
