# generated using pymatgen
data_NaAg2
_symmetry_space_group_name_H-M   'P 1'
_cell_length_a   4.26136589
_cell_length_b   4.26136589
_cell_length_c   8.68784046
_cell_angle_alpha   104.19654083
_cell_angle_beta   104.19654083
_cell_angle_gamma   90.00000000
_symmetry_Int_Tables_number   1
_chemical_formula_structural   NaAg2
_chemical_formula_sum   'Na2 Ag4'
_cell_volume   147.97156398
_cell_formula_units_Z   2
loop_
 _symmetry_equiv_pos_site_id
 _symmetry_equiv_pos_as_xyz
  1  'x, y, z'
loop_
 _atom_site_type_symbol
 _atom_site_label
 _atom_site_symmetry_multiplicity
 _atom_site_fract_x
 _atom_site_fract_y
 _atom_site_fract_z
 _atom_site_occupancy
  Na  Na0  1  0.67450401  0.67450402  0.34900798  1
  Na  Na1  1  0.32549601  0.32549601  0.65099198  1
  Ag  Ag2  1  -0.00000000  0.50000001  -0.00000000  1
  Ag  Ag3  1  0.50000001  0.00000000  -0.00000000  1
  Ag  Ag4  1  0.13650500  0.13650500  0.27300999  1
  Ag  Ag5  1  0.86349501  0.86349502  0.72698997  1
