# generated using pymatgen
data_K2Cu3S5
_symmetry_space_group_name_H-M   'P 1'
_cell_length_a   5.91437006
_cell_length_b   7.19642305
_cell_length_c   8.36143017
_cell_angle_alpha   90.00000000
_cell_angle_beta   107.59317780
_cell_angle_gamma   90.00000000
_symmetry_Int_Tables_number   1
_chemical_formula_structural   K2Cu3S5
_chemical_formula_sum   'K2 Cu3 S5'
_cell_volume   339.23599714
_cell_formula_units_Z   1
loop_
 _symmetry_equiv_pos_site_id
 _symmetry_equiv_pos_as_xyz
  1  'x, y, z'
loop_
 _atom_site_type_symbol
 _atom_site_label
 _atom_site_symmetry_multiplicity
 _atom_site_fract_x
 _atom_site_fract_y
 _atom_site_fract_z
 _atom_site_occupancy
  K  K0  1  0.67280998  0.74999999  0.29929598  1
  K  K1  1  0.32718999  0.25000000  0.70070398  1
  Cu  Cu2  1  0.92832898  0.74999999  0.87313296  1
  Cu  Cu3  1  0.07167100  0.25000000  0.12686700  1
  S  S4  1  0.33063299  0.74999999  0.88259798  1
  Cu  Cu5  1  0.66936698  0.25000000  0.11740198  1
  S  S6  1  0.18315900  0.49247600  0.32349699  1
  S  S7  1  0.81684098  0.99247599  0.67650297  1
  S  S8  1  0.18315900  0.00752400  0.32349699  1
  S  S9  1  0.81684098  0.50752400  0.67650297  1
