# generated using pymatgen
data_Sr2NbCrO6
_symmetry_space_group_name_H-M   'P 1'
_cell_length_a   5.54705811
_cell_length_b   5.73049879
_cell_length_c   7.90233755
_cell_angle_alpha   90.00000000
_cell_angle_beta   90.07389832
_cell_angle_gamma   90.00000000
_symmetry_Int_Tables_number   1
_chemical_formula_structural   Sr2NbCrO6
_chemical_formula_sum   'Sr4 Nb2 Cr2 O12'
_cell_volume   251.19463291
_cell_formula_units_Z   2
loop_
 _symmetry_equiv_pos_site_id
 _symmetry_equiv_pos_as_xyz
  1  'x, y, z'
loop_
 _atom_site_type_symbol
 _atom_site_label
 _atom_site_symmetry_multiplicity
 _atom_site_fract_x
 _atom_site_fract_y
 _atom_site_fract_z
 _atom_site_occupancy
  Sr  Sr0  1  0.98656298  0.55501802  0.24940802  1
  Sr  Sr1  1  0.48656299  0.94498203  0.74940801  1
  Sr  Sr2  1  0.01343700  0.44498202  0.75059200  1
  Sr  Sr3  1  0.51343699  0.05501800  0.25059201  1
  Nb  Nb4  1  0.49999999  0.50000002  0.50000001  1
  Nb  Nb5  1  0.00000000  0.00000000  0.00000000  1
  Cr  Cr6  1  0.00000000  0.00000000  0.50000000  1
  Cr  Cr7  1  0.49999999  0.50000002  0.00000001  1
  O  O8  1  0.70376399  0.79733203  0.45200701  1
  O  O9  1  0.20376400  0.70266803  0.95200701  1
  O  O10  1  0.29623599  0.20266801  0.54799301  1
  O  O11  1  0.79623598  0.29733201  0.04799301  1
  O  O12  1  0.09122400  0.97303004  0.25233700  1
  O  O13  1  0.59122399  0.52697002  0.75233701  1
  O  O14  1  0.90877598  0.02697000  0.74766302  1
  O  O15  1  0.40877599  0.47303002  0.24766301  1
  O  O16  1  0.80184098  0.29257601  0.45152701  1
  O  O17  1  0.30184099  0.20742401  0.95152701  1
  O  O18  1  0.19815900  0.70742403  0.54847300  1
  O  O19  1  0.69815899  0.79257603  0.04847301  1
