# generated using pymatgen
data_MgAg
_symmetry_space_group_name_H-M   'P 1'
_cell_length_a   3.30926204
_cell_length_b   3.30926204
_cell_length_c   6.96687889
_cell_angle_alpha   90.00000000
_cell_angle_beta   90.00000000
_cell_angle_gamma   90.00000000
_symmetry_Int_Tables_number   1
_chemical_formula_structural   MgAg
_chemical_formula_sum   'Mg2 Ag2'
_cell_volume   76.29579023
_cell_formula_units_Z   2
loop_
 _symmetry_equiv_pos_site_id
 _symmetry_equiv_pos_as_xyz
  1  'x, y, z'
loop_
 _atom_site_type_symbol
 _atom_site_label
 _atom_site_symmetry_multiplicity
 _atom_site_fract_x
 _atom_site_fract_y
 _atom_site_fract_z
 _atom_site_occupancy
  Mg  Mg0  1  0.49999999  0.49999999  0.00000000  1
  Mg  Mg1  1  0.49999999  0.49999999  0.50000001  1
  Ag  Ag2  1  0.00000000  0.00000000  0.76043701  1
  Ag  Ag3  1  0.00000000  0.00000000  0.23956300  1
