# generated using pymatgen
data_CeGa7Ge5
_symmetry_space_group_name_H-M   'P 1'
_cell_length_a   5.56046820
_cell_length_b   7.04040861
_cell_length_c   7.04040861
_cell_angle_alpha   81.37944794
_cell_angle_beta   66.74047089
_cell_angle_gamma   66.74047089
_symmetry_Int_Tables_number   1
_chemical_formula_structural   CeGa7Ge5
_chemical_formula_sum   'Ce1 Ga7 Ge5'
_cell_volume   232.63095730
_cell_formula_units_Z   1
loop_
 _symmetry_equiv_pos_site_id
 _symmetry_equiv_pos_as_xyz
  1  'x, y, z'
loop_
 _atom_site_type_symbol
 _atom_site_label
 _atom_site_symmetry_multiplicity
 _atom_site_fract_x
 _atom_site_fract_y
 _atom_site_fract_z
 _atom_site_occupancy
  Ce  Ce0  1  0.00000000  0.00000000  0.00000000  1
  Ga  Ga1  1  0.33773002  0.66227000  0.66226998  1
  Ga  Ga2  1  0.66226999  0.33773000  0.33773000  1
  Ga  Ga3  1  0.00000002  0.34144900  0.65855099  1
  Ga  Ga4  1  0.00000003  0.65855100  0.34144897  1
  Ga  Ga5  1  0.50000002  0.81833100  0.18166897  1
  Ga  Ga6  1  0.49999999  0.18166900  0.81833101  1
  Ga  Ga7  1  0.00000002  0.50000000  -0.00000002  1
  Ge  Ge8  1  0.50000000  0.50000000  -0.00000001  1
  Ge  Ge9  1  0.00000000  0.00000000  0.50000001  1
  Ge  Ge10  1  0.49999998  0.00000000  0.50000002  1
  Ge  Ge11  1  0.26190500  0.23809500  0.23809500  1
  Ge  Ge12  1  0.73809500  0.76190500  0.76190499  1
