# generated using pymatgen
data_SmSi2
_symmetry_space_group_name_H-M   'P 1'
_cell_length_a   3.87891006
_cell_length_b   4.15876579
_cell_length_c   7.20699120
_cell_angle_alpha   90.00260925
_cell_angle_beta   90.00000000
_cell_angle_gamma   90.00000000
_symmetry_Int_Tables_number   1
_chemical_formula_structural   SmSi2
_chemical_formula_sum   'Sm2 Si4'
_cell_volume   116.25942333
_cell_formula_units_Z   2
loop_
 _symmetry_equiv_pos_site_id
 _symmetry_equiv_pos_as_xyz
  1  'x, y, z'
loop_
 _atom_site_type_symbol
 _atom_site_label
 _atom_site_symmetry_multiplicity
 _atom_site_fract_x
 _atom_site_fract_y
 _atom_site_fract_z
 _atom_site_occupancy
  Sm  Sm0  1  -0.00000000  0.00005400  0.98204000  1
  Sm  Sm1  1  -0.00000000  0.49995097  0.52091499  1
  Si  Si2  1  0.49999999  0.49998497  0.83336799  1
  Si  Si3  1  0.49999999  0.49995697  0.15458598  1
  Si  Si4  1  0.49999999  0.99994495  0.67531297  1
  Si  Si5  1  0.49999999  0.99990795  0.33377697  1
