# generated using pymatgen
data_Ce4In2Si3
_symmetry_space_group_name_H-M   'P 1'
_cell_length_a   8.22815704
_cell_length_b   8.22815704
_cell_length_c   8.22815704
_cell_angle_alpha   74.37248230
_cell_angle_beta   69.76586151
_cell_angle_gamma   112.62885284
_symmetry_Int_Tables_number   1
_chemical_formula_structural   Ce4In2Si3
_chemical_formula_sum   'Ce8 In4 Si6'
_cell_volume   427.19508592
_cell_formula_units_Z   2
loop_
 _symmetry_equiv_pos_site_id
 _symmetry_equiv_pos_as_xyz
  1  'x, y, z'
loop_
 _atom_site_type_symbol
 _atom_site_label
 _atom_site_symmetry_multiplicity
 _atom_site_fract_x
 _atom_site_fract_y
 _atom_site_fract_z
 _atom_site_occupancy
  Ce  Ce0  1  0.80828088  0.48246894  0.32581208  1
  Ce  Ce1  1  0.80828092  0.13409298  0.67418803  1
  Ce  Ce2  1  0.39139495  0.20844597  0.81705100  1
  Ce  Ce3  1  0.02549697  0.20844597  0.18294901  1
  Ce  Ce4  1  0.97450284  0.79155390  0.81705110  1
  Ce  Ce5  1  0.60860486  0.79155390  0.18294912  1
  Ce  Ce6  1  0.19171889  0.86590689  0.32581209  1
  Ce  Ce7  1  0.19171893  0.51753093  0.67418803  1
  In  In8  1  0.70656991  0.26567697  0.02775407  1
  In  In9  1  0.29342990  0.73432290  0.97224604  1
  In  In10  1  0.70656986  0.73432390  0.55910609  1
  In  In11  1  0.29342995  0.26567597  0.44089402  1
  Si  Si12  1  0.15096693  0.49999993  0.34903305  1
  Si  Si13  1  0.84903288  0.49999993  0.65096707  1
  Si  Si14  1  -0.00000010  0.87547589  0.12452409  1
  Si  Si15  1  -0.00000001  0.12452398  0.87547596  1
  Si  Si16  1  0.49999991  0.49999993  1.00000003  1
  Si  Si17  1  0.49999985  0.99999987  0.50000011  1
