# generated using pymatgen
data_Li3CuO6
_symmetry_space_group_name_H-M   'P 1'
_cell_length_a   2.99721193
_cell_length_b   4.62560892
_cell_length_c   7.24224710
_cell_angle_alpha   92.04173279
_cell_angle_beta   101.94224548
_cell_angle_gamma   90.00000000
_symmetry_Int_Tables_number   1
_chemical_formula_structural   Li3CuO6
_chemical_formula_sum   'Li3 Cu1 O6'
_cell_volume   98.16773476
_cell_formula_units_Z   1
loop_
 _symmetry_equiv_pos_site_id
 _symmetry_equiv_pos_as_xyz
  1  'x, y, z'
loop_
 _atom_site_type_symbol
 _atom_site_label
 _atom_site_symmetry_multiplicity
 _atom_site_fract_x
 _atom_site_fract_y
 _atom_site_fract_z
 _atom_site_occupancy
  Li  Li0  1  0.99832205  0.99440802  0.99664406  1
  Li  Li1  1  0.34512002  0.47593201  0.69024003  1
  Li  Li2  1  0.65238903  0.51867001  0.30477803  1
  Cu  Cu3  1  0.23141202  0.94239802  0.46282404  1
  O  O4  1  0.56199103  0.81300502  0.12398204  1
  O  O5  1  0.43517602  0.17995100  0.87035203  1
  O  O6  1  0.10072501  0.30508101  0.20145001  1
  O  O7  1  0.89952904  0.68278901  0.79905805  1
  O  O8  1  0.22566202  0.72910202  0.45132403  1
  O  O9  1  0.76945103  0.29482601  0.53890203  1
