# generated using pymatgen
data_CaCd2Pd
_symmetry_space_group_name_H-M   'P 1'
_cell_length_a   4.58889198
_cell_length_b   5.87744761
_cell_length_c   7.72224903
_cell_angle_alpha   90.00000000
_cell_angle_beta   90.00000000
_cell_angle_gamma   112.97823334
_symmetry_Int_Tables_number   1
_chemical_formula_structural   CaCd2Pd
_chemical_formula_sum   'Ca2 Cd4 Pd2'
_cell_volume   191.75049041
_cell_formula_units_Z   2
loop_
 _symmetry_equiv_pos_site_id
 _symmetry_equiv_pos_as_xyz
  1  'x, y, z'
loop_
 _atom_site_type_symbol
 _atom_site_label
 _atom_site_symmetry_multiplicity
 _atom_site_fract_x
 _atom_site_fract_y
 _atom_site_fract_z
 _atom_site_occupancy
  Ca  Ca0  1  0.92415004  0.84829999  0.75000000  1
  Ca  Ca1  1  0.07585001  0.15170000  0.25000000  1
  Cd  Cd2  1  0.36587203  0.73174399  0.45002000  1
  Cd  Cd3  1  0.63412801  0.26825600  0.54998000  1
  Cd  Cd4  1  0.36587203  0.73174399  0.04998000  1
  Cd  Cd5  1  0.63412801  0.26825600  0.95002000  1
  Pd  Pd6  1  0.78893503  0.57786999  0.25000000  1
  Pd  Pd7  1  0.21106502  0.42212999  0.75000000  1
