# generated using pymatgen
data_YScCu7S6
_symmetry_space_group_name_H-M   'P 1'
_cell_length_a   3.58754206
_cell_length_b   9.95255375
_cell_length_c   9.95255375
_cell_angle_alpha   120.00000000
_cell_angle_beta   90.00000000
_cell_angle_gamma   90.00000000
_symmetry_Int_Tables_number   1
_chemical_formula_structural   YScCu7S6
_chemical_formula_sum   'Y1 Sc1 Cu7 S6'
_cell_volume   307.74903238
_cell_formula_units_Z   1
loop_
 _symmetry_equiv_pos_site_id
 _symmetry_equiv_pos_as_xyz
  1  'x, y, z'
loop_
 _atom_site_type_symbol
 _atom_site_label
 _atom_site_symmetry_multiplicity
 _atom_site_fract_x
 _atom_site_fract_y
 _atom_site_fract_z
 _atom_site_occupancy
  Y  Y0  1  0.49999999  0.00000000  -0.00000000  1
  Sc  Sc1  1  0.74951399  0.87050901  0.50779896  1
  Cu  Cu2  1  0.74951399  0.49220000  0.36270897  1
  Cu  Cu3  1  0.74951399  0.63729000  0.12948997  1
  Cu  Cu4  1  0.25048600  0.12949100  0.49220098  1
  Cu  Cu5  1  0.25048600  0.50780000  0.63729097  1
  Cu  Cu6  1  0.25048600  0.36271000  0.87050996  1
  Cu  Cu7  1  0.75010399  0.33333334  0.66666664  1
  Cu  Cu8  1  0.24989600  0.66666667  0.33333330  1
  S  S9  1  0.75175399  0.70009501  0.64948096  1
  S  S10  1  0.75175399  0.35051900  0.05061399  1
  S  S11  1  0.75175399  0.94938601  0.29990496  1
  S  S12  1  0.24824600  0.29990500  0.35051898  1
  S  S13  1  0.24824600  0.64948100  0.94938595  1
  S  S14  1  0.24824600  0.05061400  0.70009498  1
