# generated using pymatgen
data_Y2In3Ge5
_symmetry_space_group_name_H-M   'P 1'
_cell_length_a   4.61536407
_cell_length_b   4.61536407
_cell_length_c   10.69701195
_cell_angle_alpha   102.45844269
_cell_angle_beta   102.45844269
_cell_angle_gamma   90.00000000
_symmetry_Int_Tables_number   1
_chemical_formula_structural   Y2In3Ge5
_chemical_formula_sum   'Y2 In3 Ge5'
_cell_volume   216.99957113
_cell_formula_units_Z   1
loop_
 _symmetry_equiv_pos_site_id
 _symmetry_equiv_pos_as_xyz
  1  'x, y, z'
loop_
 _atom_site_type_symbol
 _atom_site_label
 _atom_site_symmetry_multiplicity
 _atom_site_fract_x
 _atom_site_fract_y
 _atom_site_fract_z
 _atom_site_occupancy
  Y  Y0  1  0.32578599  0.32578599  0.65157200  1
  Y  Y1  1  0.07578599  0.57578599  0.15157200  1
  In  In2  1  0.42421398  0.92421398  0.84842800  1
  In  In3  1  0.67421398  0.67421399  0.34842799  1
  Ge  Ge4  1  0.24999999  0.74999998  0.50000000  1
  In  In5  1  0.49999999  0.49999999  -0.00000001  1
  Ge  Ge6  1  0.82824598  0.82824598  0.65649199  1
  Ge  Ge7  1  0.57824599  0.07824600  0.15649200  1
  Ge  Ge8  1  0.92175398  0.42175399  0.84350800  1
  Ge  Ge9  1  0.17175399  0.17175400  0.34350800  1
