# generated using pymatgen
data_Y10NiSn7
_symmetry_space_group_name_H-M   'P 1'
_cell_length_a   6.04576302
_cell_length_b   8.92212963
_cell_length_c   8.92212963
_cell_angle_alpha   120.00000000
_cell_angle_beta   90.00000000
_cell_angle_gamma   90.00000000
_symmetry_Int_Tables_number   1
_chemical_formula_structural   Y10NiSn7
_chemical_formula_sum   'Y10 Ni1 Sn7'
_cell_volume   416.79145735
_cell_formula_units_Z   1
loop_
 _symmetry_equiv_pos_site_id
 _symmetry_equiv_pos_as_xyz
  1  'x, y, z'
loop_
 _atom_site_type_symbol
 _atom_site_label
 _atom_site_symmetry_multiplicity
 _atom_site_fract_x
 _atom_site_fract_y
 _atom_site_fract_z
 _atom_site_occupancy
  Y  Y0  1  -0.00000000  0.33333334  0.66666667  1
  Y  Y1  1  1.00000000  0.66666669  0.33333333  1
  Y  Y2  1  0.50000000  0.66666669  0.33333333  1
  Y  Y3  1  0.50000000  0.33333334  0.66666667  1
  Y  Y4  1  0.25000000  0.27910901  -0.00000000  1
  Y  Y5  1  0.25000000  0.72089102  0.72089100  1
  Y  Y6  1  0.25000000  0.00000000  0.27910901  1
  Y  Y7  1  0.75000000  0.72089102  -0.00000001  1
  Y  Y8  1  0.75000000  0.27910901  0.27910900  1
  Y  Y9  1  0.75000000  0.00000000  0.72089101  1
  Sn  Sn10  1  0.00000000  0.00000000  0.00000000  1
  Ni  Ni11  1  0.50000000  0.00000000  -0.00000000  1
  Sn  Sn12  1  0.25000000  0.62007502  1.00000001  1
  Sn  Sn13  1  0.25000000  0.37992501  0.37992500  1
  Sn  Sn14  1  0.25000000  0.00000000  0.62007501  1
  Sn  Sn15  1  0.75000000  0.37992501  -0.00000001  1
  Sn  Sn16  1  0.75000000  0.62007502  0.62007500  1
  Sn  Sn17  1  0.75000000  0.00000000  0.37992501  1
