# generated using pymatgen
data_Fe3Si
_symmetry_space_group_name_H-M   'P 1'
_cell_length_a   4.84761381
_cell_length_b   7.37999153
_cell_length_c   7.37999153
_cell_angle_alpha   83.80768585
_cell_angle_beta   70.82651520
_cell_angle_gamma   70.82651520
_symmetry_Int_Tables_number   1
_chemical_formula_structural   Fe3Si
_chemical_formula_sum   'Fe12 Si4'
_cell_volume   235.54280300
_cell_formula_units_Z   4
loop_
 _symmetry_equiv_pos_site_id
 _symmetry_equiv_pos_as_xyz
  1  'x, y, z'
loop_
 _atom_site_type_symbol
 _atom_site_label
 _atom_site_symmetry_multiplicity
 _atom_site_fract_x
 _atom_site_fract_y
 _atom_site_fract_z
 _atom_site_occupancy
  Fe  Fe0  1  0.67672496  0.99695599  0.18460394  1
  Fe  Fe1  1  0.85828505  0.00304400  0.81539594  1
  Fe  Fe2  1  0.32631895  0.81539599  0.99695593  1
  Fe  Fe3  1  0.13867099  0.18460400  0.00304399  1
  Fe  Fe4  1  0.64581001  0.35477100  0.35689495  1
  Fe  Fe5  1  0.35747497  0.64522899  0.64310495  1
  Fe  Fe6  1  0.99942001  0.64310499  0.35477093  1
  Fe  Fe7  1  0.99729603  0.35689500  0.64522893  1
  Fe  Fe8  1  0.06682692  0.99666699  0.40397595  1
  Fe  Fe9  1  0.46747003  0.00333300  0.59602396  1
  Fe  Fe10  1  0.93650601  0.59602399  0.99666691  1
  Fe  Fe11  1  0.52919700  0.40397600  0.00333297  1
  Si  Si12  1  0.21058199  0.28795400  0.29457697  1
  Si  Si13  1  0.79311299  0.71204599  0.70542292  1
  Si  Si14  1  0.50146497  0.70542299  0.28795395  1
  Si  Si15  1  0.49484101  0.29457700  0.71204595  1
