# generated using pymatgen
data_Ce5In3
_symmetry_space_group_name_H-M   'P 1'
_cell_length_a   5.61262703
_cell_length_b   7.17738008
_cell_length_c   7.17737961
_cell_angle_alpha   120.00000000
_cell_angle_beta   90.00000000
_cell_angle_gamma   90.00000000
_symmetry_Int_Tables_number   1
_chemical_formula_structural   Ce5In3
_chemical_formula_sum   'Ce5 In3'
_cell_volume   250.39674378
_cell_formula_units_Z   1
loop_
 _symmetry_equiv_pos_site_id
 _symmetry_equiv_pos_as_xyz
  1  'x, y, z'
loop_
 _atom_site_type_symbol
 _atom_site_label
 _atom_site_symmetry_multiplicity
 _atom_site_fract_x
 _atom_site_fract_y
 _atom_site_fract_z
 _atom_site_occupancy
  Ce  Ce0  1  0.25000000  0.66666665  0.33333331  1
  Ce  Ce1  1  0.75000000  0.33333332  0.66666666  1
  Ce  Ce2  1  0.75000000  0.83375198  0.16624797  1
  Ce  Ce3  1  0.75000000  0.33249599  0.16624799  1
  In  In4  1  0.75000000  0.83375198  0.66750398  1
  Ce  Ce5  1  0.25000000  0.16624800  0.83375200  1
  In  In6  1  0.25000000  0.66750398  0.83375198  1
  In  In7  1  0.25000000  0.16624800  0.33249600  1
