# generated using pymatgen
data_TiBe6Tc
_symmetry_space_group_name_H-M   'P 1'
_cell_length_a   4.06891918
_cell_length_b   4.99085188
_cell_length_c   4.99085236
_cell_angle_alpha   60.00000381
_cell_angle_beta   90.00000000
_cell_angle_gamma   90.00000000
_symmetry_Int_Tables_number   1
_chemical_formula_structural   TiBe6Tc
_chemical_formula_sum   'Ti1 Be6 Tc1'
_cell_volume   87.77263077
_cell_formula_units_Z   1
loop_
 _symmetry_equiv_pos_site_id
 _symmetry_equiv_pos_as_xyz
  1  'x, y, z'
loop_
 _atom_site_type_symbol
 _atom_site_label
 _atom_site_symmetry_multiplicity
 _atom_site_fract_x
 _atom_site_fract_y
 _atom_site_fract_z
 _atom_site_occupancy
  Be  Be0  1  0.24999999  0.33333334  0.33333334  1
  Ti  Ti1  1  0.74999997  0.66666667  0.66666669  1
  Be  Be2  1  0.74999997  0.66624601  0.16687702  1
  Be  Be3  1  0.74999997  0.16687700  0.16687700  1
  Be  Be4  1  0.74999997  0.16687700  0.66624600  1
  Be  Be5  1  0.24999999  0.33375400  0.83312301  1
  Be  Be6  1  0.24999999  0.83312301  0.83312302  1
  Tc  Tc7  1  0.24999999  0.83312301  0.33375403  1
