# generated using pymatgen
data_Li4YNiS7
_symmetry_space_group_name_H-M   'P 1'
_cell_length_a   7.24198961
_cell_length_b   7.24198961
_cell_length_c   7.24198961
_cell_angle_alpha   60.00000000
_cell_angle_beta   60.00000000
_cell_angle_gamma   60.00000000
_symmetry_Int_Tables_number   1
_chemical_formula_structural   Li4YNiS7
_chemical_formula_sum   'Li4 Y1 Ni1 S7'
_cell_volume   268.57073941
_cell_formula_units_Z   1
loop_
 _symmetry_equiv_pos_site_id
 _symmetry_equiv_pos_as_xyz
  1  'x, y, z'
loop_
 _atom_site_type_symbol
 _atom_site_label
 _atom_site_symmetry_multiplicity
 _atom_site_fract_x
 _atom_site_fract_y
 _atom_site_fract_z
 _atom_site_occupancy
  Li  Li0  1  0.39610200  0.81169401  0.39610200  1
  Li  Li1  1  0.81169401  0.39610200  0.39610200  1
  Li  Li2  1  0.39610200  0.39610200  0.81169401  1
  Li  Li3  1  0.39610200  0.39610200  0.39610200  1
  Y  Y4  1  0.00000000  0.00000000  0.00000000  1
  Ni  Ni5  1  0.58690600  0.13769800  0.13769800  1
  S  S6  1  0.13769800  0.13769800  0.58690600  1
  S  S7  1  0.13769800  0.13769800  0.13769800  1
  S  S8  1  0.13769800  0.58690600  0.13769800  1
  S  S9  1  0.10635500  0.63121500  0.63121500  1
  S  S10  1  0.63121500  0.63121500  0.10635500  1
  S  S11  1  0.63121500  0.63121500  0.63121500  1
  S  S12  1  0.63121500  0.10635500  0.63121500  1
