# generated using pymatgen
data_Zr
_symmetry_space_group_name_H-M   'P 1'
_cell_length_a   4.26240206
_cell_length_b   5.81551123
_cell_length_c   10.02140713
_cell_angle_alpha   95.94441986
_cell_angle_beta   90.00000000
_cell_angle_gamma   90.00000000
_symmetry_Int_Tables_number   1
_chemical_formula_structural   Zr
_chemical_formula_sum   Zr8
_cell_volume   247.07536128
_cell_formula_units_Z   8
loop_
 _symmetry_equiv_pos_site_id
 _symmetry_equiv_pos_as_xyz
  1  'x, y, z'
loop_
 _atom_site_type_symbol
 _atom_site_label
 _atom_site_symmetry_multiplicity
 _atom_site_fract_x
 _atom_site_fract_y
 _atom_site_fract_z
 _atom_site_occupancy
  Zr  Zr0  1  0.74999999  0.27643699  0.65279598  1
  Zr  Zr1  1  0.25000000  0.72356297  0.34720398  1
  Zr  Zr2  1  0.74999999  0.76065897  0.55862097  1
  Zr  Zr3  1  0.25000000  0.23934099  0.44137898  1
  Zr  Zr4  1  0.74999999  0.48090798  0.17856499  1
  Zr  Zr5  1  0.25000000  0.51909198  0.82143497  1
  Zr  Zr6  1  0.74999999  0.89016696  0.16983598  1
  Zr  Zr7  1  0.25000000  0.10983300  0.83016398  1
