# generated using pymatgen
data_Li2Cu
_symmetry_space_group_name_H-M   'P 1'
_cell_length_a   3.93559027
_cell_length_b   3.93559027
_cell_length_c   6.68543100
_cell_angle_alpha   72.88198853
_cell_angle_beta   72.88198853
_cell_angle_gamma   59.99999619
_symmetry_Int_Tables_number   1
_chemical_formula_structural   Li2Cu
_chemical_formula_sum   'Li4 Cu2'
_cell_volume   84.33831891
_cell_formula_units_Z   2
loop_
 _symmetry_equiv_pos_site_id
 _symmetry_equiv_pos_as_xyz
  1  'x, y, z'
loop_
 _atom_site_type_symbol
 _atom_site_label
 _atom_site_symmetry_multiplicity
 _atom_site_fract_x
 _atom_site_fract_y
 _atom_site_fract_z
 _atom_site_occupancy
  Li  Li0  1  0.00000000  0.00000000  0.00000000  1
  Li  Li1  1  0.49999996  0.49999999  0.50000004  1
  Li  Li2  1  0.61360695  0.61360699  0.15917904  1
  Li  Li3  1  0.13381699  0.13381700  0.59854902  1
  Cu  Cu4  1  0.86618293  0.86618298  0.40145106  1
  Cu  Cu5  1  0.38639297  0.38639299  0.84082104  1
