# generated using pymatgen
data_Ho2Ga3
_symmetry_space_group_name_H-M   'P 1'
_cell_length_a   3.76541209
_cell_length_b   7.28493690
_cell_length_c   7.28493690
_cell_angle_alpha   90.00000000
_cell_angle_beta   90.00000000
_cell_angle_gamma   90.00000000
_symmetry_Int_Tables_number   1
_chemical_formula_structural   Ho2Ga3
_chemical_formula_sum   'Ho4 Ga6'
_cell_volume   199.83157085
_cell_formula_units_Z   2
loop_
 _symmetry_equiv_pos_site_id
 _symmetry_equiv_pos_as_xyz
  1  'x, y, z'
loop_
 _atom_site_type_symbol
 _atom_site_label
 _atom_site_symmetry_multiplicity
 _atom_site_fract_x
 _atom_site_fract_y
 _atom_site_fract_z
 _atom_site_occupancy
  Ho  Ho0  1  0.49999999  0.67423101  0.17423100  1
  Ho  Ho1  1  0.49999999  0.32576900  0.82576901  1
  Ho  Ho2  1  0.49999999  0.17423100  0.32576900  1
  Ho  Ho3  1  0.49999999  0.82576901  0.67423101  1
  Ga  Ga4  1  0.00000000  0.00000000  0.00000000  1
  Ga  Ga5  1  0.00000000  0.50000001  0.50000001  1
  Ga  Ga6  1  0.00000000  0.11910100  0.61910101  1
  Ga  Ga7  1  0.00000000  0.88089901  0.38089900  1
  Ga  Ga8  1  0.00000000  0.61910101  0.88089901  1
  Ga  Ga9  1  0.00000000  0.38089900  0.11910100  1
