# generated using pymatgen
data_DyNi5
_symmetry_space_group_name_H-M   'P 1'
_cell_length_a   5.48891020
_cell_length_b   5.48890972
_cell_length_c   7.76005888
_cell_angle_alpha   90.00000000
_cell_angle_beta   90.00000000
_cell_angle_gamma   120.00000000
_symmetry_Int_Tables_number   1
_chemical_formula_structural   DyNi5
_chemical_formula_sum   'Dy2 Ni10'
_cell_volume   202.47334675
_cell_formula_units_Z   2
loop_
 _symmetry_equiv_pos_site_id
 _symmetry_equiv_pos_as_xyz
  1  'x, y, z'
loop_
 _atom_site_type_symbol
 _atom_site_label
 _atom_site_symmetry_multiplicity
 _atom_site_fract_x
 _atom_site_fract_y
 _atom_site_fract_z
 _atom_site_occupancy
  Dy  Dy0  1  0.00000000  0.00000000  0.50000001  1
  Dy  Dy1  1  0.00000000  0.00000000  0.00000000  1
  Ni  Ni2  1  0.66666663  0.33333332  -0.00000000  1
  Ni  Ni3  1  0.33333329  0.66666663  -0.00000000  1
  Ni  Ni4  1  0.66666663  0.33333332  0.50000001  1
  Ni  Ni5  1  0.33333329  0.66666663  0.50000001  1
  Ni  Ni6  1  0.49999996  0.49999997  0.79987301  1
  Ni  Ni7  1  0.49999996  0.49999997  0.20012700  1
  Ni  Ni8  1  -0.00000003  0.49999997  0.79987301  1
  Ni  Ni9  1  -0.00000003  0.49999997  0.20012700  1
  Ni  Ni10  1  0.49999998  0.00000000  0.79987301  1
  Ni  Ni11  1  0.49999998  0.00000000  0.20012700  1
