# generated using pymatgen
data_SnS
_symmetry_space_group_name_H-M   'P 1'
_cell_length_a   7.13048840
_cell_length_b   7.13048840
_cell_length_c   7.56556177
_cell_angle_alpha   61.88476563
_cell_angle_beta   61.88476563
_cell_angle_gamma   59.99999619
_symmetry_Int_Tables_number   1
_chemical_formula_structural   SnS
_chemical_formula_sum   'Sn5 S5'
_cell_volume   279.49020055
_cell_formula_units_Z   5
loop_
 _symmetry_equiv_pos_site_id
 _symmetry_equiv_pos_as_xyz
  1  'x, y, z'
loop_
 _atom_site_type_symbol
 _atom_site_label
 _atom_site_symmetry_multiplicity
 _atom_site_fract_x
 _atom_site_fract_y
 _atom_site_fract_z
 _atom_site_occupancy
  Sn  Sn0  1  0.19967099  0.19967100  0.40098700  1
  Sn  Sn1  1  0.49999999  0.50000000  0.49999999  1
  Sn  Sn2  1  0.80032898  0.80032900  0.59901298  1
  Sn  Sn3  1  0.00000000  0.00000000  0.00000000  1
  Sn  Sn4  1  0.77706399  0.10687200  0.74214700  1
  S  S5  1  0.10687199  0.37391700  0.74214700  1
  S  S6  1  0.37391698  0.77706400  0.74214699  1
  S  S7  1  0.62608299  0.22293600  0.25785299  1
  S  S8  1  0.89312798  0.62608300  0.25785298  1
  S  S9  1  0.22293598  0.89312800  0.25785299  1
