# generated using pymatgen
data_Ce3Sn5
_symmetry_space_group_name_H-M   'P 1'
_cell_length_a   5.66065979
_cell_length_b   6.70213223
_cell_length_c   6.70213175
_cell_angle_alpha   120.00000000
_cell_angle_beta   90.00000000
_cell_angle_gamma   90.00000000
_symmetry_Int_Tables_number   1
_chemical_formula_structural   Ce3Sn5
_chemical_formula_sum   'Ce3 Sn5'
_cell_volume   220.20320637
_cell_formula_units_Z   1
loop_
 _symmetry_equiv_pos_site_id
 _symmetry_equiv_pos_as_xyz
  1  'x, y, z'
loop_
 _atom_site_type_symbol
 _atom_site_label
 _atom_site_symmetry_multiplicity
 _atom_site_fract_x
 _atom_site_fract_y
 _atom_site_fract_z
 _atom_site_occupancy
  Ce  Ce0  1  0.75000003  0.33333331  0.66666663  1
  Ce  Ce1  1  0.25000001  0.66666663  0.33333329  1
  Ce  Ce2  1  0.25000001  0.17555799  0.35111598  1
  Sn  Sn3  1  0.25000001  0.64888296  0.82444094  1
  Sn  Sn4  1  0.25000001  0.17555799  0.82444096  1
  Sn  Sn5  1  0.75000003  0.82444195  0.64888394  1
  Sn  Sn6  1  0.75000003  0.35111698  0.17555898  1
  Sn  Sn7  1  0.75000003  0.82444195  0.17555895  1
