# generated using pymatgen
data_YbCu2
_symmetry_space_group_name_H-M   'P 1'
_cell_length_a   4.08101177
_cell_length_b   4.12133121
_cell_length_c   4.12145758
_cell_angle_alpha   60.01502991
_cell_angle_beta   90.00000000
_cell_angle_gamma   90.00000000
_symmetry_Int_Tables_number   1
_chemical_formula_structural   YbCu2
_chemical_formula_sum   'Yb1 Cu2'
_cell_volume   60.04164552
_cell_formula_units_Z   1
loop_
 _symmetry_equiv_pos_site_id
 _symmetry_equiv_pos_as_xyz
  1  'x, y, z'
loop_
 _atom_site_type_symbol
 _atom_site_label
 _atom_site_symmetry_multiplicity
 _atom_site_fract_x
 _atom_site_fract_y
 _atom_site_fract_z
 _atom_site_occupancy
  Yb  Yb0  1  -0.00000000  0.99996697  0.00024098  1
  Cu  Cu1  1  0.50000003  0.33381699  0.33303199  1
  Cu  Cu2  1  0.50000003  0.66621598  0.66682698  1
