# generated using pymatgen
data_NaSrTi2(Ni2O5)2
_symmetry_space_group_name_H-M   'P 1'
_cell_length_a   5.59767818
_cell_length_b   5.59767818
_cell_length_c   8.05995750
_cell_angle_alpha   90.00000000
_cell_angle_beta   90.00000000
_cell_angle_gamma   89.96967316
_symmetry_Int_Tables_number   1
_chemical_formula_structural   NaSrTi2(Ni2O5)2
_chemical_formula_sum   'Na1 Sr1 Ti2 Ni4 O10'
_cell_volume   252.55068158
_cell_formula_units_Z   1
loop_
 _symmetry_equiv_pos_site_id
 _symmetry_equiv_pos_as_xyz
  1  'x, y, z'
loop_
 _atom_site_type_symbol
 _atom_site_label
 _atom_site_symmetry_multiplicity
 _atom_site_fract_x
 _atom_site_fract_y
 _atom_site_fract_z
 _atom_site_occupancy
  Sr  Sr0  1  0.99529499  0.99529501  0.00000000  1
  Na  Na1  1  0.50086217  0.50086218  0.49999998  1
  Ti  Ti2  1  0.99989105  0.49902865  0.25017452  1
  Ti  Ti3  1  0.99989105  0.49902865  0.74982545  1
  Ni  Ni4  1  0.49902863  0.99989106  0.74982545  1
  Ni  Ni5  1  0.49902863  0.99989106  0.25017452  1
  Ni  Ni6  1  0.72348473  0.27622415  0.25446842  1
  Ni  Ni7  1  0.27622414  0.72348474  0.25446842  1
  O  O8  1  0.27622414  0.72348474  0.74553155  1
  O  O9  1  0.72348473  0.27622415  0.74553155  1
  O  O10  1  0.23285493  0.23285493  0.22857277  1
  O  O11  1  0.76112566  0.76112568  0.27238957  1
  O  O12  1  0.76112566  0.76112568  0.72761040  1
  O  O13  1  0.23285493  0.23285493  0.77142720  1
  O  O14  1  0.98470248  0.53272938  0.99999997  1
  O  O15  1  0.02650980  0.47548241  0.49999998  1
  O  O16  1  0.53272936  0.98470249  0.99999997  1
  O  O17  1  0.47548241  0.02650981  0.49999998  1
