# generated using pymatgen
data_Ba3La5O8
_symmetry_space_group_name_H-M   'P 1'
_cell_length_a   3.94106507
_cell_length_b   8.07855129
_cell_length_c   10.75581169
_cell_angle_alpha   90.00000000
_cell_angle_beta   90.00000000
_cell_angle_gamma   90.00000000
_symmetry_Int_Tables_number   1
_chemical_formula_structural   Ba3La5O8
_chemical_formula_sum   'Ba3 La5 O8'
_cell_volume   342.44456883
_cell_formula_units_Z   1
loop_
 _symmetry_equiv_pos_site_id
 _symmetry_equiv_pos_as_xyz
  1  'x, y, z'
loop_
 _atom_site_type_symbol
 _atom_site_label
 _atom_site_symmetry_multiplicity
 _atom_site_fract_x
 _atom_site_fract_y
 _atom_site_fract_z
 _atom_site_occupancy
  La  La0  1  0.25000000  0.99220796  0.38914701  1
  Ba  Ba1  1  0.25000000  0.49220798  0.11085300  1
  Ba  Ba2  1  0.74999999  0.00779200  0.61085302  1
  Ba  Ba3  1  0.74999999  0.50779198  0.88914703  1
  La  La4  1  0.74999999  0.86755397  0.13605300  1
  La  La5  1  0.25000000  0.63244598  0.63605302  1
  La  La6  1  0.25000000  0.13244600  0.86394702  1
  La  La7  1  0.74999999  0.36755399  0.36394701  1
  O  O8  1  0.25000000  0.22747199  0.56227002  1
  O  O9  1  0.25000000  0.15967199  0.17925801  1
  O  O10  1  0.74999999  0.34032799  0.67925802  1
  O  O11  1  0.25000000  0.65967198  0.32074201  1
  O  O12  1  0.74999999  0.77252797  0.43773001  1
  O  O13  1  0.25000000  0.72747197  0.93773003  1
  O  O14  1  0.74999999  0.27252799  0.06227000  1
  O  O15  1  0.74999999  0.84032797  0.82074202  1
