# generated using pymatgen
data_Ba4Tl3Au
_symmetry_space_group_name_H-M   'P 1'
_cell_length_a   5.65869999
_cell_length_b   5.65869999
_cell_length_c   12.44790173
_cell_angle_alpha   90.00000000
_cell_angle_beta   90.00000000
_cell_angle_gamma   120.00000000
_symmetry_Int_Tables_number   1
_chemical_formula_structural   Ba4Tl3Au
_chemical_formula_sum   'Ba4 Tl3 Au1'
_cell_volume   345.19152238
_cell_formula_units_Z   1
loop_
 _symmetry_equiv_pos_site_id
 _symmetry_equiv_pos_as_xyz
  1  'x, y, z'
loop_
 _atom_site_type_symbol
 _atom_site_label
 _atom_site_symmetry_multiplicity
 _atom_site_fract_x
 _atom_site_fract_y
 _atom_site_fract_z
 _atom_site_occupancy
  Ba  Ba0  1  0.00000000  0.00000000  0.00000000  1
  Ba  Ba1  1  0.00000000  0.00000000  0.50000001  1
  Ba  Ba2  1  0.66666667  0.33333334  0.75000002  1
  Ba  Ba3  1  0.33333334  0.66666667  0.25000001  1
  Tl  Tl4  1  0.66666667  0.33333334  0.36396101  1
  Tl  Tl5  1  0.33333334  0.66666667  0.86396102  1
  Tl  Tl6  1  0.33333334  0.66666667  0.63603901  1
  Au  Au7  1  0.66666667  0.33333334  0.13603900  1
