# generated using pymatgen
data_Li3Mn3WO9
_symmetry_space_group_name_H-M   'P 1'
_cell_length_a   5.32735014
_cell_length_b   5.46987247
_cell_length_c   6.45043230
_cell_angle_alpha   91.05194092
_cell_angle_beta   114.38998413
_cell_angle_gamma   90.00000000
_symmetry_Int_Tables_number   1
_chemical_formula_structural   Li3Mn3WO9
_chemical_formula_sum   'Li3 Mn3 W1 O9'
_cell_volume   171.15555022
_cell_formula_units_Z   1
loop_
 _symmetry_equiv_pos_site_id
 _symmetry_equiv_pos_as_xyz
  1  'x, y, z'
loop_
 _atom_site_type_symbol
 _atom_site_label
 _atom_site_symmetry_multiplicity
 _atom_site_fract_x
 _atom_site_fract_y
 _atom_site_fract_z
 _atom_site_occupancy
  Mn  Mn0  1  0.50000001  0.49999999  0.50000004  1
  Li  Li1  1  0.00000003  0.99999999  0.50000006  1
  Li  Li2  1  0.84873301  0.53829999  0.18981106  1
  Li  Li3  1  0.34107800  0.03830000  0.18981101  1
  Mn  Mn4  1  0.65892202  0.96169999  0.81018907  1
  Mn  Mn5  1  0.15126701  0.46170000  0.81018902  1
  W  W6  1  0.70796302  0.90606999  0.17670208  1
  O  O7  1  0.46873901  0.40607000  0.17670204  1
  O  O8  1  0.30702602  0.83782999  0.43852606  1
  O  O9  1  0.13150001  0.33783000  0.43852602  1
  O  O10  1  0.86850001  0.66216999  0.56147406  1
  O  O11  1  0.69297400  0.16217000  0.56147402  1
  O  O12  1  0.53126101  0.59392999  0.82329804  1
  O  O13  1  0.29203700  0.09393000  0.82329800  1
  O  O14  1  0.04542903  0.74999999  0.00000005  1
  O  O15  1  0.95457100  0.25000000  0.00000004  1
