# generated using pymatgen
data_Pr2Si3Ge
_symmetry_space_group_name_H-M   'P 1'
_cell_length_a   4.07407188
_cell_length_b   4.20123386
_cell_length_c   7.79372168
_cell_angle_alpha   105.63610840
_cell_angle_beta   105.15129852
_cell_angle_gamma   90.00000000
_symmetry_Int_Tables_number   1
_chemical_formula_structural   Pr2Si3Ge
_chemical_formula_sum   'Pr2 Si3 Ge1'
_cell_volume   123.63958870
_cell_formula_units_Z   1
loop_
 _symmetry_equiv_pos_site_id
 _symmetry_equiv_pos_as_xyz
  1  'x, y, z'
loop_
 _atom_site_type_symbol
 _atom_site_label
 _atom_site_symmetry_multiplicity
 _atom_site_fract_x
 _atom_site_fract_y
 _atom_site_fract_z
 _atom_site_occupancy
  Pr  Pr0  1  0.75252101  0.25252100  0.50504199  1
  Pr  Pr1  1  0.99833900  0.99833902  0.99667798  1
  Si  Si2  1  0.41711700  0.41711701  0.83423400  1
  Si  Si3  1  0.16833899  0.66833901  0.33667798  1
  Ge  Ge4  1  0.58134500  0.58134501  0.16268998  1
  Si  Si5  1  0.33233899  0.83233901  0.66467798  1
