# generated using pymatgen
data_Zn2TeO6
_symmetry_space_group_name_H-M   'P 1'
_cell_length_a   7.20794249
_cell_length_b   7.20794249
_cell_length_c   7.20794249
_cell_angle_alpha   60.00000000
_cell_angle_beta   60.00000000
_cell_angle_gamma   60.00000000
_symmetry_Int_Tables_number   1
_chemical_formula_structural   Zn2TeO6
_chemical_formula_sum   'Zn4 Te2 O12'
_cell_volume   264.80058490
_cell_formula_units_Z   2
loop_
 _symmetry_equiv_pos_site_id
 _symmetry_equiv_pos_as_xyz
  1  'x, y, z'
loop_
 _atom_site_type_symbol
 _atom_site_label
 _atom_site_symmetry_multiplicity
 _atom_site_fract_x
 _atom_site_fract_y
 _atom_site_fract_z
 _atom_site_occupancy
  Zn  Zn0  1  0.00000000  0.00000000  0.00000000  1
  Zn  Zn1  1  0.75000000  0.75000000  0.75000000  1
  Zn  Zn2  1  0.37500000  0.37500000  0.37500000  1
  Zn  Zn3  1  0.37500000  0.37500000  0.87500000  1
  Te  Te4  1  0.37500000  0.87500000  0.37500000  1
  Te  Te5  1  0.87500000  0.37500000  0.37500000  1
  O  O6  1  0.30842600  0.69157400  0.30842600  1
  O  O7  1  0.69157400  0.30842600  0.69157400  1
  O  O8  1  0.30842600  0.30842600  0.69157400  1
  O  O9  1  0.30842600  0.69157400  0.69157400  1
  O  O10  1  0.05842600  0.44157400  0.05842600  1
  O  O11  1  0.05842600  0.44157400  0.44157400  1
  O  O12  1  0.69157400  0.69157400  0.30842600  1
  O  O13  1  0.44157400  0.05842600  0.44157400  1
  O  O14  1  0.05842600  0.05842600  0.44157400  1
  O  O15  1  0.44157400  0.05842600  0.05842600  1
  O  O16  1  0.69157400  0.30842600  0.30842600  1
  O  O17  1  0.44157400  0.44157400  0.05842600  1
