# generated using pymatgen
data_Rb6S4ClO
_symmetry_space_group_name_H-M   'P 1'
_cell_length_a   7.00097561
_cell_length_b   7.00097561
_cell_length_c   9.91498566
_cell_angle_alpha   75.98825073
_cell_angle_beta   75.98825073
_cell_angle_gamma   89.18466187
_symmetry_Int_Tables_number   1
_chemical_formula_structural   Rb6S4ClO
_chemical_formula_sum   'Rb6 S4 Cl1 O1'
_cell_volume   456.97200929
_cell_formula_units_Z   1
loop_
 _symmetry_equiv_pos_site_id
 _symmetry_equiv_pos_as_xyz
  1  'x, y, z'
loop_
 _atom_site_type_symbol
 _atom_site_label
 _atom_site_symmetry_multiplicity
 _atom_site_fract_x
 _atom_site_fract_y
 _atom_site_fract_z
 _atom_site_occupancy
  Rb  Rb0  1  0.34217806  0.65782201  0.24999995  1
  Rb  Rb1  1  0.65782204  0.34217801  0.74999996  1
  Rb  Rb2  1  0.15295202  0.25644600  0.02134498  1
  Rb  Rb3  1  0.74355408  0.84704801  0.47865492  1
  Rb  Rb4  1  0.84704807  0.74355401  0.97865494  1
  Rb  Rb5  1  0.25644602  0.15295200  0.52134499  1
  Cl  Cl6  1  0.71255903  0.28744100  0.24999995  1
  O  O7  1  0.28744106  0.71255901  0.74999996  1
  S  S8  1  0.83355704  0.40269201  0.35034894  1
  S  S9  1  0.59730802  0.16644300  0.14965096  1
  S  S10  1  0.40269207  0.83355701  0.85034895  1
  S  S11  1  0.16644305  0.59730801  0.64965097  1
