# generated using pymatgen
data_NaSiO4
_symmetry_space_group_name_H-M   'P 1'
_cell_length_a   6.16762877
_cell_length_b   6.16762877
_cell_length_c   6.16762877
_cell_angle_alpha   105.84779358
_cell_angle_beta   105.84779358
_cell_angle_gamma   116.98995972
_symmetry_Int_Tables_number   1
_chemical_formula_structural   NaSiO4
_chemical_formula_sum   'Na2 Si2 O8'
_cell_volume   178.24477689
_cell_formula_units_Z   2
loop_
 _symmetry_equiv_pos_site_id
 _symmetry_equiv_pos_as_xyz
  1  'x, y, z'
loop_
 _atom_site_type_symbol
 _atom_site_label
 _atom_site_symmetry_multiplicity
 _atom_site_fract_x
 _atom_site_fract_y
 _atom_site_fract_z
 _atom_site_occupancy
  Na  Na0  1  0.00000000  0.00000000  0.00000000  1
  Na  Na1  1  0.75000001  0.25000000  0.49999999  1
  Si  Si2  1  0.24999997  0.75000000  0.49999998  1
  Si  Si3  1  0.49999999  0.50000000  -0.00000004  1
  O  O4  1  0.66874997  0.84902000  0.18026995  1
  O  O5  1  0.59901997  0.91875000  0.68026997  1
  O  O6  1  0.23847996  0.91875000  0.31972996  1
  O  O7  1  0.66874999  0.48848000  0.81972999  1
  O  O8  1  0.15097999  0.33125000  0.81973001  1
  O  O9  1  0.08124998  0.40098000  0.31972999  1
  O  O10  1  0.08124996  0.76152000  0.68026999  1
  O  O11  1  0.51152000  0.33125000  0.18026998  1
