# generated using pymatgen
data_LaClO
_symmetry_space_group_name_H-M   'P 1'
_cell_length_a   3.86016703
_cell_length_b   3.86016703
_cell_length_c   9.89424133
_cell_angle_alpha   90.00000000
_cell_angle_beta   90.00000000
_cell_angle_gamma   90.00000000
_symmetry_Int_Tables_number   1
_chemical_formula_structural   LaClO
_chemical_formula_sum   'La2 Cl2 O2'
_cell_volume   147.43299652
_cell_formula_units_Z   2
loop_
 _symmetry_equiv_pos_site_id
 _symmetry_equiv_pos_as_xyz
  1  'x, y, z'
loop_
 _atom_site_type_symbol
 _atom_site_label
 _atom_site_symmetry_multiplicity
 _atom_site_fract_x
 _atom_site_fract_y
 _atom_site_fract_z
 _atom_site_occupancy
  La  La0  1  0.00000000  0.50000000  0.39344699  1
  La  La1  1  0.50000000  0.00000000  0.60655298  1
  Cl  Cl2  1  0.50000000  0.00000000  0.19864799  1
  Cl  Cl3  1  0.00000000  0.50000000  0.80135197  1
  O  O4  1  0.00000000  0.00000000  0.49999998  1
  O  O5  1  0.50000000  0.50000000  0.49999998  1
