# generated using pymatgen
data_Mn9Ni7
_symmetry_space_group_name_H-M   'P 1'
_cell_length_a   4.42688608
_cell_length_b   6.73805571
_cell_length_c   6.75724459
_cell_angle_alpha   83.61121368
_cell_angle_beta   70.87889862
_cell_angle_gamma   70.82231903
_symmetry_Int_Tables_number   1
_chemical_formula_structural   Mn9Ni7
_chemical_formula_sum   'Mn9 Ni7'
_cell_volume   179.86878836
_cell_formula_units_Z   1
loop_
 _symmetry_equiv_pos_site_id
 _symmetry_equiv_pos_as_xyz
  1  'x, y, z'
loop_
 _atom_site_type_symbol
 _atom_site_label
 _atom_site_symmetry_multiplicity
 _atom_site_fract_x
 _atom_site_fract_y
 _atom_site_fract_z
 _atom_site_occupancy
  Mn  Mn0  1  0.93232901  0.60874797  0.05254000  1
  Mn  Mn1  1  0.59361701  0.39125198  0.94745998  1
  Mn  Mn2  1  0.04700002  0.32100799  0.60979798  1
  Mn  Mn3  1  0.97780602  0.67899197  0.39020200  1
  Mn  Mn4  1  0.34239703  0.62004897  0.67536098  1
  Mn  Mn5  1  0.63780701  0.37995098  0.32463900  1
  Mn  Mn6  1  0.87049004  0.97437495  0.81987898  1
  Mn  Mn7  1  0.66474398  0.02562500  0.18012101  1
  Ni  Ni8  1  0.30252105  0.81709896  0.02781498  1
  Mn  Mn9  1  0.14743501  0.18290099  0.97218498  1
  Ni  Ni10  1  0.46102505  0.94910396  0.60665797  1
  Ni  Ni11  1  0.01678700  0.05089600  0.39334199  1
  Ni  Ni12  1  0.54484600  0.25554599  0.66557099  1
  Ni  Ni13  1  0.46596304  0.74445397  0.33442898  1
  Ni  Ni14  1  0.79197402  0.65787097  0.75341498  1
  Ni  Ni15  1  0.20326002  0.34212898  0.24658499  1
