# generated using pymatgen
data_K3LaO6
_symmetry_space_group_name_H-M   'P 1'
_cell_length_a   6.53651524
_cell_length_b   6.53651524
_cell_length_c   9.46651554
_cell_angle_alpha   90.00000000
_cell_angle_beta   90.00000000
_cell_angle_gamma   90.00000000
_symmetry_Int_Tables_number   1
_chemical_formula_structural   K3LaO6
_chemical_formula_sum   'K6 La2 O12'
_cell_volume   404.46664053
_cell_formula_units_Z   2
loop_
 _symmetry_equiv_pos_site_id
 _symmetry_equiv_pos_as_xyz
  1  'x, y, z'
loop_
 _atom_site_type_symbol
 _atom_site_label
 _atom_site_symmetry_multiplicity
 _atom_site_fract_x
 _atom_site_fract_y
 _atom_site_fract_z
 _atom_site_occupancy
  K  K0  1  0.00000000  0.49999998  0.25000001  1
  K  K1  1  0.00000000  0.49999998  0.75000004  1
  K  K2  1  0.49999998  0.00000000  0.25000001  1
  K  K3  1  0.49999998  0.00000000  0.75000004  1
  K  K4  1  0.00000000  0.00000000  0.50000002  1
  K  K5  1  0.49999998  0.49999998  0.00000000  1
  La  La6  1  0.00000000  0.00000000  0.00000000  1
  La  La7  1  0.49999998  0.49999998  0.50000002  1
  O  O8  1  0.14277599  0.27740399  0.00000000  1
  O  O9  1  0.85722397  0.72259597  -0.00000000  1
  O  O10  1  0.72259597  0.14277599  0.00000000  1
  O  O11  1  0.35722399  0.77740397  0.50000002  1
  O  O12  1  0.27740399  0.85722397  -0.00000000  1
  O  O13  1  0.64277598  0.22259599  0.50000002  1
  O  O14  1  0.77740397  0.64277598  0.50000002  1
  O  O15  1  0.22259599  0.35722399  0.50000002  1
  O  O16  1  0.00000000  0.00000000  0.21575001  1
  O  O17  1  0.00000000  0.00000000  0.78425004  1
  O  O18  1  0.49999998  0.49999998  0.28425001  1
  O  O19  1  0.49999998  0.49999998  0.71575003  1
