# generated using pymatgen
data_Ag2Te3
_symmetry_space_group_name_H-M   'P 1'
_cell_length_a   4.22278261
_cell_length_b   4.22278261
_cell_length_c   18.33123970
_cell_angle_alpha   83.38600159
_cell_angle_beta   83.38600159
_cell_angle_gamma   59.99999237
_symmetry_Int_Tables_number   1
_chemical_formula_structural   Ag2Te3
_chemical_formula_sum   'Ag4 Te6'
_cell_volume   280.57210587
_cell_formula_units_Z   2
loop_
 _symmetry_equiv_pos_site_id
 _symmetry_equiv_pos_as_xyz
  1  'x, y, z'
loop_
 _atom_site_type_symbol
 _atom_site_label
 _atom_site_symmetry_multiplicity
 _atom_site_fract_x
 _atom_site_fract_y
 _atom_site_fract_z
 _atom_site_occupancy
  Ag  Ag0  1  0.40755697  0.40755699  0.77732897  1
  Ag  Ag1  1  0.80315294  0.80315297  0.59054096  1
  Ag  Ag2  1  0.20268599  0.20268599  0.39194199  1
  Ag  Ag3  1  0.60240996  0.60240998  0.19276998  1
  Te  Te4  1  0.00198700  0.00198700  0.99403898  1
  Te  Te5  1  0.49668996  0.49668998  0.50992997  1
  Te  Te6  1  0.89634794  0.89634797  0.31095597  1
  Te  Te7  1  0.29600098  0.29600099  0.11199699  1
  Te  Te8  1  0.69560495  0.69560498  0.91318496  1
  Te  Te9  1  0.10104099  0.10104100  0.69687698  1
