# generated using pymatgen
data_Li6SiO8
_symmetry_space_group_name_H-M   'P 1'
_cell_length_a   5.29122210
_cell_length_b   5.29122210
_cell_length_c   6.42030096
_cell_angle_alpha   89.48133850
_cell_angle_beta   89.48133850
_cell_angle_gamma   87.62213898
_symmetry_Int_Tables_number   1
_chemical_formula_structural   Li6SiO8
_chemical_formula_sum   'Li6 Si1 O8'
_cell_volume   179.58046025
_cell_formula_units_Z   1
loop_
 _symmetry_equiv_pos_site_id
 _symmetry_equiv_pos_as_xyz
  1  'x, y, z'
loop_
 _atom_site_type_symbol
 _atom_site_label
 _atom_site_symmetry_multiplicity
 _atom_site_fract_x
 _atom_site_fract_y
 _atom_site_fract_z
 _atom_site_occupancy
  Li  Li0  1  0.30787699  0.31061200  0.75154905  1
  Li  Li1  1  0.68938799  0.69212299  0.24845107  1
  Li  Li2  1  0.82006499  0.17993500  0.50000006  1
  Li  Li3  1  0.31546699  0.32379300  0.24148803  1
  Li  Li4  1  0.67620699  0.68453299  0.75851208  1
  Li  Li5  1  0.18285699  0.81714299  0.50000006  1
  Si  Si6  1  0.82615399  0.17384600  1.00000007  1
  O  O7  1  0.12791500  0.22976100  0.00318002  1
  O  O8  1  0.21191100  0.12980400  0.49246803  1
  O  O9  1  0.31398199  0.68653599  0.70586207  1
  O  O10  1  0.31346399  0.68601799  0.29413805  1
  O  O11  1  0.70158099  0.30543200  0.78560607  1
  O  O12  1  0.69456799  0.29841900  0.21439405  1
  O  O13  1  0.77023898  0.87208499  0.99682010  1
  O  O14  1  0.87019598  0.78808899  0.50753209  1
