# generated using pymatgen
data_La3Ga4
_symmetry_space_group_name_H-M   'P 1'
_cell_length_a   4.50823021
_cell_length_b   4.98257780
_cell_length_c   10.57473278
_cell_angle_alpha   103.62633514
_cell_angle_beta   102.30762482
_cell_angle_gamma   90.00000000
_symmetry_Int_Tables_number   1
_chemical_formula_structural   La3Ga4
_chemical_formula_sum   'La3 Ga4'
_cell_volume   225.22886277
_cell_formula_units_Z   1
loop_
 _symmetry_equiv_pos_site_id
 _symmetry_equiv_pos_as_xyz
  1  'x, y, z'
loop_
 _atom_site_type_symbol
 _atom_site_label
 _atom_site_symmetry_multiplicity
 _atom_site_fract_x
 _atom_site_fract_y
 _atom_site_fract_z
 _atom_site_occupancy
  La  La0  1  0.81765394  0.81765403  0.63530798  1
  La  La1  1  0.18234599  0.18234601  0.36469200  1
  La  La2  1  0.49999997  0.00000000  -0.00000001  1
  Ga  Ga3  1  0.06336399  0.56336402  0.12672800  1
  Ga  Ga4  1  0.93663594  0.43663602  0.87327198  1
  Ga  Ga5  1  0.64161495  0.64161503  0.28322998  1
  Ga  Ga6  1  0.35838497  0.35838501  0.71677000  1
