# generated using pymatgen
data_Li4Mn4WO11
_symmetry_space_group_name_H-M   'P 1'
_cell_length_a   5.24959183
_cell_length_b   5.70154238
_cell_length_c   7.89129686
_cell_angle_alpha   96.89946747
_cell_angle_beta   89.86537170
_cell_angle_gamma   89.69238281
_symmetry_Int_Tables_number   1
_chemical_formula_structural   Li4Mn4WO11
_chemical_formula_sum   'Li4 Mn4 W1 O11'
_cell_volume   234.47774873
_cell_formula_units_Z   1
loop_
 _symmetry_equiv_pos_site_id
 _symmetry_equiv_pos_as_xyz
  1  'x, y, z'
loop_
 _atom_site_type_symbol
 _atom_site_label
 _atom_site_symmetry_multiplicity
 _atom_site_fract_x
 _atom_site_fract_y
 _atom_site_fract_z
 _atom_site_occupancy
  Li  Li0  1  0.99943203  0.57522598  0.70399797  1
  Li  Li1  1  0.50073702  0.09337900  0.21169999  1
  Li  Li2  1  0.00444599  0.56972098  0.21936199  1
  Li  Li3  1  0.49259802  0.07331700  0.70762599  1
  Mn  Mn4  1  0.50054601  0.50883498  0.48775998  1
  Mn  Mn5  1  0.01133300  0.00937600  0.48395900  1
  Mn  Mn6  1  0.49933001  0.53717498  0.98100498  1
  Mn  Mn7  1  0.99845903  0.01035800  0.99081397  1
  O  O8  1  0.30578100  0.80169097  0.57072998  1
  W  W9  1  0.13769399  0.95789096  0.24875498  1
  O  O10  1  0.31012701  0.12348400  0.93878899  1
  O  O11  1  0.20336900  0.29409499  0.58096699  1
  O  O12  1  0.84850802  0.28112499  0.09342998  1
  O  O13  1  0.35521301  0.46294998  0.27502899  1
  O  O14  1  0.62636401  0.50848298  0.75057598  1
  O  O15  1  0.15650600  0.67148197  0.94382598  1
  O  O16  1  0.81633902  0.67376397  0.44471497  1
  O  O17  1  0.69259601  0.81875897  0.07416598  1
  O  O18  1  0.85560802  0.99222196  0.77412997  1
  O  O19  1  0.68501302  0.17906799  0.44746398  1
