# generated using pymatgen
data_Li2CoO3
_symmetry_space_group_name_H-M   'P 1'
_cell_length_a   5.09100914
_cell_length_b   5.10306740
_cell_length_c   5.10666656
_cell_angle_alpha   79.00720978
_cell_angle_beta   73.41905212
_cell_angle_gamma   63.97566986
_symmetry_Int_Tables_number   1
_chemical_formula_structural   Li2CoO3
_chemical_formula_sum   'Li4 Co2 O6'
_cell_volume   113.93018412
_cell_formula_units_Z   2
loop_
 _symmetry_equiv_pos_site_id
 _symmetry_equiv_pos_as_xyz
  1  'x, y, z'
loop_
 _atom_site_type_symbol
 _atom_site_label
 _atom_site_symmetry_multiplicity
 _atom_site_fract_x
 _atom_site_fract_y
 _atom_site_fract_z
 _atom_site_occupancy
  Li  Li0  1  0.85753898  0.31224298  0.49261005  1
  Li  Li1  1  0.14246101  0.68775696  0.50739006  1
  Li  Li2  1  0.49999998  0.00000000  0.50000003  1
  Li  Li3  1  0.33224399  0.33294498  0.99927706  1
  Co  Co4  1  0.66775599  0.66705496  0.00072305  1
  Co  Co5  1  0.00000000  0.00000000  0.00000000  1
  O  O6  1  0.23946399  0.01888400  0.23366601  1
  O  O7  1  0.59971098  0.32865098  0.21592704  1
  O  O8  1  0.90011998  0.67958196  0.23722307  1
  O  O9  1  0.40028900  0.67134896  0.78407307  1
  O  O10  1  0.76053599  0.98111594  0.76633410  1
  O  O11  1  0.09988000  0.32041798  0.76277705  1
