# generated using pymatgen
data_Ce4Ge13
_symmetry_space_group_name_H-M   'P 1'
_cell_length_a   5.81146812
_cell_length_b   5.81295490
_cell_length_c   10.62825584
_cell_angle_alpha   90.00000000
_cell_angle_beta   105.86651611
_cell_angle_gamma   90.00000000
_symmetry_Int_Tables_number   1
_chemical_formula_structural   Ce4Ge13
_chemical_formula_sum   'Ce4 Ge13'
_cell_volume   345.36259769
_cell_formula_units_Z   1
loop_
 _symmetry_equiv_pos_site_id
 _symmetry_equiv_pos_as_xyz
  1  'x, y, z'
loop_
 _atom_site_type_symbol
 _atom_site_label
 _atom_site_symmetry_multiplicity
 _atom_site_fract_x
 _atom_site_fract_y
 _atom_site_fract_z
 _atom_site_occupancy
  Ce  Ce0  1  0.62280000  0.00000000  0.24560003  1
  Ce  Ce1  1  0.12203600  0.50000001  0.24407201  1
  Ce  Ce2  1  0.87857100  0.50000001  0.75714205  1
  Ce  Ce3  1  0.37812100  0.00000000  0.75624203  1
  Ge  Ge4  1  0.99415000  0.24445300  0.49903805  1
  Ge  Ge5  1  0.50488800  0.75554701  0.49903803  1
  Ge  Ge6  1  0.50488800  0.24445300  0.49903803  1
  Ge  Ge7  1  0.99415000  0.75554701  0.49903805  1
  Ge  Ge8  1  0.43698000  0.50000001  0.87396004  1
  Ge  Ge9  1  0.82498300  0.00000000  0.64996605  1
  Ge  Ge10  1  0.31733900  0.50000001  0.63467803  1
  Ge  Ge11  1  0.67745000  0.50000001  0.35490003  1
  Ge  Ge12  1  0.17733400  0.00000000  0.35466802  1
  Ge  Ge13  1  0.76378500  0.76501901  0.00325403  1
  Ge  Ge14  1  0.23946900  0.23498100  0.00325401  1
  Ge  Ge15  1  0.76378500  0.23498100  0.00325403  1
  Ge  Ge16  1  0.23946900  0.76501901  0.00325401  1
