# generated using pymatgen
data_CeSi2
_symmetry_space_group_name_H-M   'P 1'
_cell_length_a   3.98552895
_cell_length_b   6.88349915
_cell_length_c   7.74532604
_cell_angle_alpha   90.00000000
_cell_angle_beta   90.00000000
_cell_angle_gamma   90.00000000
_symmetry_Int_Tables_number   1
_chemical_formula_structural   CeSi2
_chemical_formula_sum   'Ce4 Si8'
_cell_volume   212.48825732
_cell_formula_units_Z   4
loop_
 _symmetry_equiv_pos_site_id
 _symmetry_equiv_pos_as_xyz
  1  'x, y, z'
loop_
 _atom_site_type_symbol
 _atom_site_label
 _atom_site_symmetry_multiplicity
 _atom_site_fract_x
 _atom_site_fract_y
 _atom_site_fract_z
 _atom_site_occupancy
  Ce  Ce0  1  0.25000000  0.03139700  0.18723300  1
  Ce  Ce1  1  0.75000001  0.96860298  0.81276700  1
  Ce  Ce2  1  0.25000000  0.53139699  0.31276700  1
  Ce  Ce3  1  0.75000001  0.46860299  0.68723300  1
  Si  Si4  1  0.25000000  0.74916898  0.62326500  1
  Si  Si5  1  0.75000001  0.25083099  0.37673500  1
  Si  Si6  1  0.25000000  0.24916899  0.87673500  1
  Si  Si7  1  0.75000001  0.75083098  0.12326500  1
  Si  Si8  1  0.75000001  0.35255699  0.06113100  1
  Si  Si9  1  0.25000000  0.64744299  0.93886899  1
  Si  Si10  1  0.75000001  0.85255698  0.43886900  1
  Si  Si11  1  0.25000000  0.14744300  0.56113100  1
