# generated using pymatgen
data_Li2Se
_symmetry_space_group_name_H-M   'P 1'
_cell_length_a   3.85643792
_cell_length_b   3.85643792
_cell_length_c   7.33126688
_cell_angle_alpha   74.75108337
_cell_angle_beta   74.75108337
_cell_angle_gamma   60.00000000
_symmetry_Int_Tables_number   1
_chemical_formula_structural   Li2Se
_chemical_formula_sum   'Li2 Se1'
_cell_volume   89.96409256
_cell_formula_units_Z   1
loop_
 _symmetry_equiv_pos_site_id
 _symmetry_equiv_pos_as_xyz
  1  'x, y, z'
loop_
 _atom_site_type_symbol
 _atom_site_label
 _atom_site_symmetry_multiplicity
 _atom_site_fract_x
 _atom_site_fract_y
 _atom_site_fract_z
 _atom_site_occupancy
  Li  Li0  1  0.26776900  0.26776900  0.19669302  1
  Li  Li1  1  0.73223100  0.73223101  0.80330707  1
  Se  Se2  1  0.00000000  0.00000000  0.00000000  1
