# generated using pymatgen
data_Pr2Ga2Pd
_symmetry_space_group_name_H-M   'P 1'
_cell_length_a   4.02136421
_cell_length_b   5.63015795
_cell_length_c   5.66225052
_cell_angle_alpha   119.81269073
_cell_angle_beta   110.79975891
_cell_angle_gamma   90.00000000
_symmetry_Int_Tables_number   1
_chemical_formula_structural   Pr2Ga2Pd
_chemical_formula_sum   'Pr2 Ga2 Pd1'
_cell_volume   101.48982331
_cell_formula_units_Z   1
loop_
 _symmetry_equiv_pos_site_id
 _symmetry_equiv_pos_as_xyz
  1  'x, y, z'
loop_
 _atom_site_type_symbol
 _atom_site_label
 _atom_site_symmetry_multiplicity
 _atom_site_fract_x
 _atom_site_fract_y
 _atom_site_fract_z
 _atom_site_occupancy
  Pr  Pr0  1  0.80176300  0.30176302  0.60352605  1
  Pr  Pr1  1  0.19823705  0.69823704  0.39647407  1
  Ga  Ga2  1  0.00000000  0.00000000  0.00000000  1
  Ga  Ga3  1  0.50000005  0.73037004  0.00000009  1
  Pd  Pd4  1  0.50000001  0.26963002  0.00000005  1
