# generated using pymatgen
data_LiCa2CuO2
_symmetry_space_group_name_H-M   'P 1'
_cell_length_a   6.06426001
_cell_length_b   6.06426001
_cell_length_c   6.98023748
_cell_angle_alpha   115.57032013
_cell_angle_beta   115.57032013
_cell_angle_gamma   90.36526489
_symmetry_Int_Tables_number   1
_chemical_formula_structural   LiCa2CuO2
_chemical_formula_sum   'Li2 Ca4 Cu2 O4'
_cell_volume   202.93833341
_cell_formula_units_Z   2
loop_
 _symmetry_equiv_pos_site_id
 _symmetry_equiv_pos_as_xyz
  1  'x, y, z'
loop_
 _atom_site_type_symbol
 _atom_site_label
 _atom_site_symmetry_multiplicity
 _atom_site_fract_x
 _atom_site_fract_y
 _atom_site_fract_z
 _atom_site_occupancy
  Ca  Ca0  1  0.63919493  0.63919497  0.27838996  1
  Ca  Ca1  1  0.88919495  0.38919498  0.77838996  1
  Ca  Ca2  1  0.36080496  0.36080498  0.72160997  1
  Ca  Ca3  1  0.61080498  0.11080500  0.22160999  1
  Li  Li4  1  0.62499992  0.87499996  0.74999994  1
  Li  Li5  1  0.12499993  0.87499996  0.24999996  1
  Cu  Cu6  1  0.12499993  0.87499996  0.74999995  1
  Cu  Cu7  1  0.12499997  0.37499998  0.24999998  1
  O  O8  1  0.97961897  0.02038100  0.49999998  1
  O  O9  1  0.52038095  0.47961898  0.49999997  1
  O  O10  1  0.27038094  0.72961897  0.99999995  1
  O  O11  1  0.72961896  0.27038099  0.99999997  1
