# generated using pymatgen
data_ZnCo2NiS6
_symmetry_space_group_name_H-M   'P 1'
_cell_length_a   5.99374390
_cell_length_b   6.01412773
_cell_length_c   7.16583443
_cell_angle_alpha   82.58426666
_cell_angle_beta   73.96612549
_cell_angle_gamma   60.72989273
_symmetry_Int_Tables_number   1
_chemical_formula_structural   ZnCo2NiS6
_chemical_formula_sum   'Zn1 Co2 Ni1 S6'
_cell_volume   216.55716221
_cell_formula_units_Z   1
loop_
 _symmetry_equiv_pos_site_id
 _symmetry_equiv_pos_as_xyz
  1  'x, y, z'
loop_
 _atom_site_type_symbol
 _atom_site_label
 _atom_site_symmetry_multiplicity
 _atom_site_fract_x
 _atom_site_fract_y
 _atom_site_fract_z
 _atom_site_occupancy
  Zn  Zn0  1  0.34874301  0.34843001  0.98921898  1
  Co  Co1  1  0.59332702  0.66590102  0.20461100  1
  Co  Co2  1  0.05090100  0.00086500  0.83851099  1
  Ni  Ni3  1  0.95051202  0.99474903  0.15736600  1
  S  S4  1  0.57261701  0.30178501  0.24351401  1
  S  S5  1  0.11123501  0.30788101  0.77319498  1
  S  S6  1  0.73545701  0.03160600  0.76350901  1
  S  S7  1  0.22848800  0.04276000  0.23844100  1
  S  S8  1  0.95896302  0.65112502  0.24334001  1
  S  S9  1  0.38575601  0.65289602  0.76029498  1
