# generated using pymatgen
data_CaCoN2
_symmetry_space_group_name_H-M   'P 1'
_cell_length_a   3.50562310
_cell_length_b   3.73578477
_cell_length_c   3.73578477
_cell_angle_alpha   105.89347076
_cell_angle_beta   90.00000000
_cell_angle_gamma   90.00000000
_symmetry_Int_Tables_number   1
_chemical_formula_structural   CaCoN2
_chemical_formula_sum   'Ca1 Co1 N2'
_cell_volume   47.05451289
_cell_formula_units_Z   1
loop_
 _symmetry_equiv_pos_site_id
 _symmetry_equiv_pos_as_xyz
  1  'x, y, z'
loop_
 _atom_site_type_symbol
 _atom_site_label
 _atom_site_symmetry_multiplicity
 _atom_site_fract_x
 _atom_site_fract_y
 _atom_site_fract_z
 _atom_site_occupancy
  Ca  Ca0  1  0.99999997  0.00301600  0.99698399  1
  Co  Co1  1  0.49999999  0.61406799  0.38593199  1
  N  N2  1  0.49999999  0.45526199  0.85034698  1
  N  N3  1  0.49999999  0.14965300  0.54473799  1
