# generated using pymatgen
data_LiCa3(MoO3)4
_symmetry_space_group_name_H-M   'P 1'
_cell_length_a   6.33476543
_cell_length_b   7.43632221
_cell_length_c   7.43632221
_cell_angle_alpha   81.91295624
_cell_angle_beta   72.54185486
_cell_angle_gamma   72.54185486
_symmetry_Int_Tables_number   1
_chemical_formula_structural   LiCa3(MoO3)4
_chemical_formula_sum   'Li1 Ca3 Mo4 O12'
_cell_volume   318.28149855
_cell_formula_units_Z   1
loop_
 _symmetry_equiv_pos_site_id
 _symmetry_equiv_pos_as_xyz
  1  'x, y, z'
loop_
 _atom_site_type_symbol
 _atom_site_label
 _atom_site_symmetry_multiplicity
 _atom_site_fract_x
 _atom_site_fract_y
 _atom_site_fract_z
 _atom_site_occupancy
  Li  Li0  1  0.25000004  0.90561402  0.09438600  1
  Ca  Ca1  1  0.74999998  0.09438600  0.90561405  1
  Ca  Ca2  1  0.75000001  0.71131601  0.28868403  1
  Ca  Ca3  1  0.25000000  0.28868401  0.71131603  1
  Mo  Mo4  1  0.71537898  0.20564800  0.37669303  1
  Mo  Mo5  1  0.78462100  0.62330701  0.79435204  1
  Mo  Mo6  1  0.28462103  0.79435202  0.62330702  1
  Mo  Mo7  1  0.21537901  0.37669301  0.20564801  1
  O  O8  1  0.91267298  0.36352401  0.33065804  1
  O  O9  1  0.65901798  0.13252800  0.62567904  1
  O  O10  1  0.58732701  0.66934201  0.63647603  1
  O  O11  1  0.84098199  0.37432101  0.86747205  1
  O  O12  1  0.66336801  0.78056602  0.99287904  1
  O  O13  1  0.83663197  0.00712100  0.21943404  1
  O  O14  1  0.16336804  0.99287902  0.78056602  1
  O  O15  1  0.34098203  0.86747202  0.37432101  1
  O  O16  1  0.08732703  0.63647601  0.66934202  1
  O  O17  1  0.15901803  0.62567901  0.13252800  1
  O  O18  1  0.41267300  0.33065801  0.36352402  1
  O  O19  1  0.33663200  0.21943400  0.00712101  1
