# generated using pymatgen
data_RhO2
_symmetry_space_group_name_H-M   'P 1'
_cell_length_a   5.16057205
_cell_length_b   5.16057158
_cell_length_c   11.36091137
_cell_angle_alpha   90.00000000
_cell_angle_beta   90.00000000
_cell_angle_gamma   120.00000000
_symmetry_Int_Tables_number   1
_chemical_formula_structural   RhO2
_chemical_formula_sum   'Rh6 O12'
_cell_volume   262.02302456
_cell_formula_units_Z   6
loop_
 _symmetry_equiv_pos_site_id
 _symmetry_equiv_pos_as_xyz
  1  'x, y, z'
loop_
 _atom_site_type_symbol
 _atom_site_label
 _atom_site_symmetry_multiplicity
 _atom_site_fract_x
 _atom_site_fract_y
 _atom_site_fract_z
 _atom_site_occupancy
  Rh  Rh0  1  0.99999996  0.49999999  0.16666699  1
  Rh  Rh1  1  0.49999997  0.49999999  0.49999998  1
  Rh  Rh2  1  0.49999999  0.00000000  0.83333297  1
  Rh  Rh3  1  0.49999999  0.00000000  0.33333332  1
  Rh  Rh4  1  0.99999996  0.49999999  0.66666664  1
  Rh  Rh5  1  0.49999997  0.49999999  -0.00000000  1
  O  O6  1  0.80646996  0.58017199  0.58925098  1
  O  O7  1  0.77370196  0.58017199  0.07741500  1
  O  O8  1  0.19352998  0.41982799  0.58925098  1
  O  O9  1  0.77370198  0.19353000  0.25591799  1
  O  O10  1  0.80646998  0.22629800  0.74408198  1
  O  O11  1  0.41982798  0.22629800  0.92258497  1
  O  O12  1  0.22629798  0.41982799  0.07741500  1
  O  O13  1  0.58017196  0.77370199  0.92258497  1
  O  O14  1  0.41982799  0.19353000  0.41074899  1
  O  O15  1  0.19352996  0.77370199  0.74408198  1
  O  O16  1  0.22629796  0.80646999  0.25591799  1
  O  O17  1  0.58017195  0.80646999  0.41074899  1
