# generated using pymatgen
data_Pr2Se3
_symmetry_space_group_name_H-M   'P 1'
_cell_length_a   7.00727606
_cell_length_b   7.49535179
_cell_length_c   11.21033096
_cell_angle_alpha   90.00000000
_cell_angle_beta   90.00000000
_cell_angle_gamma   90.00000000
_symmetry_Int_Tables_number   1
_chemical_formula_structural   Pr2Se3
_chemical_formula_sum   'Pr8 Se12'
_cell_volume   588.78899338
_cell_formula_units_Z   4
loop_
 _symmetry_equiv_pos_site_id
 _symmetry_equiv_pos_as_xyz
  1  'x, y, z'
loop_
 _atom_site_type_symbol
 _atom_site_label
 _atom_site_symmetry_multiplicity
 _atom_site_fract_x
 _atom_site_fract_y
 _atom_site_fract_z
 _atom_site_occupancy
  Pr  Pr0  1  0.25000000  0.25708201  0.41368800  1
  Pr  Pr1  1  0.74999999  0.74291802  0.58631200  1
  Pr  Pr2  1  0.25000000  0.75708202  0.08631200  1
  Pr  Pr3  1  0.74999999  0.24291801  0.91368800  1
  Pr  Pr4  1  0.25000000  0.52521301  0.75507000  1
  Pr  Pr5  1  0.74999999  0.47478701  0.24493000  1
  Pr  Pr6  1  0.25000000  0.02521300  0.74493000  1
  Pr  Pr7  1  0.74999999  0.97478703  0.25507000  1
  Se  Se8  1  0.01236100  0.62379402  0.34020300  1
  Se  Se9  1  0.51236100  0.37620601  0.65979700  1
  Se  Se10  1  0.48763900  0.12379400  0.15979700  1
  Se  Se11  1  0.98763899  0.87620602  0.84020300  1
  Se  Se12  1  0.98763899  0.37620601  0.65979700  1
  Se  Se13  1  0.48763900  0.62379402  0.34020300  1
  Se  Se14  1  0.51236100  0.87620602  0.84020300  1
  Se  Se15  1  0.01236100  0.12379400  0.15979700  1
  Se  Se16  1  0.74999999  0.12818900  0.44209300  1
  Se  Se17  1  0.25000000  0.87181102  0.55790700  1
  Se  Se18  1  0.74999999  0.62818902  0.05790700  1
  Se  Se19  1  0.25000000  0.37181101  0.94209300  1
