# generated using pymatgen
data_Ca2CuSn
_symmetry_space_group_name_H-M   'P 1'
_cell_length_a   4.13196802
_cell_length_b   6.52200747
_cell_length_c   8.80597019
_cell_angle_alpha   90.00000000
_cell_angle_beta   90.00000000
_cell_angle_gamma   108.46777344
_symmetry_Int_Tables_number   1
_chemical_formula_structural   Ca2CuSn
_chemical_formula_sum   'Ca4 Cu2 Sn2'
_cell_volume   225.08870080
_cell_formula_units_Z   2
loop_
 _symmetry_equiv_pos_site_id
 _symmetry_equiv_pos_as_xyz
  1  'x, y, z'
loop_
 _atom_site_type_symbol
 _atom_site_label
 _atom_site_symmetry_multiplicity
 _atom_site_fract_x
 _atom_site_fract_y
 _atom_site_fract_z
 _atom_site_occupancy
  Ca  Ca0  1  0.60766301  0.21532600  0.44960599  1
  Ca  Ca1  1  0.39233704  0.78467400  0.94960598  1
  Ca  Ca2  1  0.60766301  0.21532600  0.05039400  1
  Ca  Ca3  1  0.39233704  0.78467400  0.55039399  1
  Cu  Cu4  1  0.08583001  0.17166000  0.24999999  1
  Sn  Sn5  1  0.91417004  0.82834000  0.74999998  1
  Cu  Cu6  1  0.83155003  0.66310000  0.24999999  1
  Sn  Sn7  1  0.16845002  0.33690000  0.74999998  1
