# generated using pymatgen
data_Sr2Y(CoSi)7
_symmetry_space_group_name_H-M   'P 1'
_cell_length_a   5.56422806
_cell_length_b   5.65754986
_cell_length_c   9.03364277
_cell_angle_alpha   81.28925323
_cell_angle_beta   72.06291199
_cell_angle_gamma   60.54417038
_symmetry_Int_Tables_number   1
_chemical_formula_structural   Sr2Y(CoSi)7
_chemical_formula_sum   'Sr2 Y1 Co7 Si7'
_cell_volume   235.58261204
_cell_formula_units_Z   1
loop_
 _symmetry_equiv_pos_site_id
 _symmetry_equiv_pos_as_xyz
  1  'x, y, z'
loop_
 _atom_site_type_symbol
 _atom_site_label
 _atom_site_symmetry_multiplicity
 _atom_site_fract_x
 _atom_site_fract_y
 _atom_site_fract_z
 _atom_site_occupancy
  Sr  Sr0  1  0.31686500  0.00000000  0.36627001  1
  Sr  Sr1  1  0.49999999  0.00000000  0.00000000  1
  Y  Y2  1  0.68313499  1.00000000  0.63373004  1
  Co  Co3  1  0.83497399  0.33005200  1.00000004  1
  Co  Co4  1  0.66809999  0.32218500  0.34161502  1
  Co  Co5  1  0.99028499  0.67781500  0.34161503  1
  Co  Co6  1  0.00971500  0.32218500  0.65838502  1
  Co  Co7  1  0.33190000  0.67781500  0.65838503  1
  Co  Co8  1  0.16502600  0.66994800  0.00000001  1
  Co  Co9  1  0.41526599  0.50000000  0.16946802  1
  Si  Si10  1  0.58473399  0.50000000  0.83053204  1
  Si  Si11  1  0.25000000  0.50000000  0.50000002  1
  Si  Si12  1  0.08729300  1.00000000  0.82541404  1
  Si  Si13  1  0.91270699  0.00000000  0.17458601  1
  Si  Si14  1  0.91526599  0.50000000  0.16946802  1
  Si  Si15  1  0.08473400  0.50000000  0.83053203  1
  Si  Si16  1  0.74999999  0.50000000  0.50000003  1
