# generated using pymatgen
data_CaBi(HO2)4
_symmetry_space_group_name_H-M   'P 1'
_cell_length_a   4.98868990
_cell_length_b   5.95498514
_cell_length_c   6.88009691
_cell_angle_alpha   90.00000000
_cell_angle_beta   90.00000000
_cell_angle_gamma   95.47891998
_symmetry_Int_Tables_number   1
_chemical_formula_structural   CaBi(HO2)4
_chemical_formula_sum   'Ca1 Bi1 H4 O8'
_cell_volume   203.45720785
_cell_formula_units_Z   1
loop_
 _symmetry_equiv_pos_site_id
 _symmetry_equiv_pos_as_xyz
  1  'x, y, z'
loop_
 _atom_site_type_symbol
 _atom_site_label
 _atom_site_symmetry_multiplicity
 _atom_site_fract_x
 _atom_site_fract_y
 _atom_site_fract_z
 _atom_site_occupancy
  Ca  Ca0  1  0.49345102  0.25752299  0.20575600  1
  Bi  Bi1  1  0.49345103  0.75752298  0.79424401  1
  H  H2  1  0.51905201  0.01151000  0.47525801  1
  H  H3  1  0.51905202  0.51150999  0.52474201  1
  H  H4  1  0.00319601  0.24461399  0.80164001  1
  H  H5  1  0.00319602  0.74461398  0.19836000  1
  O  O6  1  0.75233903  0.38766299  0.06921900  1
  O  O7  1  0.24995101  0.10623800  0.06764900  1
  O  O8  1  0.24995102  0.60623798  0.93235101  1
  O  O9  1  0.75233904  0.88766298  0.93078101  1
  O  O10  1  0.63911201  0.05688100  0.35142800  1
  O  O11  1  0.35889902  0.44756999  0.35471800  1
  O  O12  1  0.35889903  0.94756997  0.64528201  1
  O  O13  1  0.63911203  0.55688099  0.64857201  1
