# generated using pymatgen
data_SrLiTiCu3O8
_symmetry_space_group_name_H-M   'P 1'
_cell_length_a   6.37707615
_cell_length_b   6.90436602
_cell_length_c   6.37707615
_cell_angle_alpha   117.50427246
_cell_angle_beta   90.00000000
_cell_angle_gamma   117.50427246
_symmetry_Int_Tables_number   1
_chemical_formula_structural   SrLiTiCu3O8
_chemical_formula_sum   'Sr1 Li1 Ti1 Cu3 O8'
_cell_volume   212.62601773
_cell_formula_units_Z   1
loop_
 _symmetry_equiv_pos_site_id
 _symmetry_equiv_pos_as_xyz
  1  'x, y, z'
loop_
 _atom_site_type_symbol
 _atom_site_label
 _atom_site_symmetry_multiplicity
 _atom_site_fract_x
 _atom_site_fract_y
 _atom_site_fract_z
 _atom_site_occupancy
  Sr  Sr0  1  0.25000001  0.50000001  0.74999999  1
  Li  Li1  1  0.00000000  0.00000000  0.00000000  1
  Ti  Ti2  1  0.12500002  0.75000001  0.37500001  1
  Cu  Cu3  1  0.62499999  0.25000000  0.37500000  1
  Cu  Cu4  1  0.62499999  0.25000000  0.87499999  1
  Cu  Cu5  1  0.62500000  0.75000001  0.37500001  1
  O  O6  1  0.64445800  0.58611601  0.02964301  1
  O  O7  1  0.80647298  0.08611700  0.39445899  1
  O  O8  1  0.27964400  0.08611600  0.69165799  1
  O  O9  1  0.30834202  0.91388302  0.19352702  1
  O  O10  1  0.94165799  0.58611701  0.55647300  1
  O  O11  1  0.97035599  0.41388401  0.05834201  1
  O  O12  1  0.44352700  0.41388301  0.35554100  1
  O  O13  1  0.60554201  0.91388402  0.72035701  1
