# generated using pymatgen
data_Li2Fe4P3
_symmetry_space_group_name_H-M   'P 1'
_cell_length_a   3.61118388
_cell_length_b   6.02513599
_cell_length_c   6.02513504
_cell_angle_alpha   120.00000763
_cell_angle_beta   90.00000000
_cell_angle_gamma   90.00000000
_symmetry_Int_Tables_number   1
_chemical_formula_structural   Li2Fe4P3
_chemical_formula_sum   'Li2 Fe4 P3'
_cell_volume   113.53083724
_cell_formula_units_Z   1
loop_
 _symmetry_equiv_pos_site_id
 _symmetry_equiv_pos_as_xyz
  1  'x, y, z'
loop_
 _atom_site_type_symbol
 _atom_site_label
 _atom_site_symmetry_multiplicity
 _atom_site_fract_x
 _atom_site_fract_y
 _atom_site_fract_z
 _atom_site_occupancy
  Li  Li0  1  0.50000002  0.59052902  0.00000004  1
  Li  Li1  1  0.50000002  0.40947102  0.40947105  1
  Fe  Fe2  1  0.50000002  0.00000000  0.59052902  1
  Fe  Fe3  1  -0.00000000  0.24280101  0.00000002  1
  Fe  Fe4  1  -0.00000000  0.75719903  0.75719908  1
  Fe  Fe5  1  -0.00000000  0.00000000  0.24280101  1
  P  P6  1  0.50000002  0.00000000  -0.00000000  1
  P  P7  1  -0.00000000  0.33333335  0.66666672  1
  P  P8  1  -0.00000000  0.66666669  0.33333340  1
