# generated using pymatgen
data_YbInAu
_symmetry_space_group_name_H-M   'P 1'
_cell_length_a   4.59633493
_cell_length_b   7.82278776
_cell_length_c   8.53059101
_cell_angle_alpha   90.00000000
_cell_angle_beta   90.00000000
_cell_angle_gamma   90.00000000
_symmetry_Int_Tables_number   1
_chemical_formula_structural   YbInAu
_chemical_formula_sum   'Yb4 In4 Au4'
_cell_volume   306.72723278
_cell_formula_units_Z   4
loop_
 _symmetry_equiv_pos_site_id
 _symmetry_equiv_pos_as_xyz
  1  'x, y, z'
loop_
 _atom_site_type_symbol
 _atom_site_label
 _atom_site_symmetry_multiplicity
 _atom_site_fract_x
 _atom_site_fract_y
 _atom_site_fract_z
 _atom_site_occupancy
  Yb  Yb0  1  0.25000000  0.01497400  0.18346200  1
  Yb  Yb1  1  0.25000000  0.51497402  0.31653800  1
  Yb  Yb2  1  0.75000001  0.48502601  0.68346200  1
  Yb  Yb3  1  0.75000001  0.98502603  0.81653800  1
  In  In4  1  0.75000001  0.35687501  0.06374600  1
  In  In5  1  0.25000000  0.64312502  0.93625400  1
  In  In6  1  0.75000001  0.85687503  0.43625400  1
  In  In7  1  0.25000000  0.14312500  0.56374600  1
  Au  Au8  1  0.75000001  0.21874501  0.39049000  1
  Au  Au9  1  0.25000000  0.28125501  0.89049000  1
  Au  Au10  1  0.25000000  0.78125502  0.60951000  1
  Au  Au11  1  0.75000001  0.71874502  0.10951000  1
