# generated using pymatgen
data_Cu7AgS11
_symmetry_space_group_name_H-M   'P 1'
_cell_length_a   5.92671061
_cell_length_b   8.75355434
_cell_length_c   8.75355434
_cell_angle_alpha   71.75820923
_cell_angle_beta   70.28794861
_cell_angle_gamma   70.28794861
_symmetry_Int_Tables_number   1
_chemical_formula_structural   Cu7AgS11
_chemical_formula_sum   'Cu7 Ag1 S11'
_cell_volume   392.16239599
_cell_formula_units_Z   1
loop_
 _symmetry_equiv_pos_site_id
 _symmetry_equiv_pos_as_xyz
  1  'x, y, z'
loop_
 _atom_site_type_symbol
 _atom_site_label
 _atom_site_symmetry_multiplicity
 _atom_site_fract_x
 _atom_site_fract_y
 _atom_site_fract_z
 _atom_site_occupancy
  Cu  Cu0  1  0.74719199  0.41548200  0.08086899  1
  Cu  Cu1  1  0.25456699  0.24303600  0.24303600  1
  Cu  Cu2  1  0.74719200  0.08086900  0.41548199  1
  Cu  Cu3  1  0.25280797  0.91913101  0.58451801  1
  Cu  Cu4  1  0.74543298  0.75696400  0.75696400  1
  Cu  Cu5  1  0.25280798  0.58451800  0.91913101  1
  Cu  Cu6  1  0.99999999  0.50000000  0.49999999  1
  Ag  Ag7  1  0.47176098  0.69414100  0.03037700  1
  S  S8  1  0.97107099  0.52607500  0.19228899  1
  S  S9  1  0.47365999  0.35835500  0.35835500  1
  S  S10  1  0.02562700  0.13766800  0.13766800  1
  S  S11  1  0.52823897  0.96962301  0.30585900  1
  S  S12  1  0.97107100  0.19228900  0.52607499  1
  S  S13  1  0.47176100  0.03037700  0.69414100  1
  S  S14  1  0.02892898  0.80771100  0.47392501  1
  S  S15  1  0.97437298  0.86233201  0.86233200  1
  S  S16  1  0.52633998  0.64164500  0.64164500  1
  S  S17  1  0.02892899  0.47392500  0.80771101  1
  S  S18  1  0.52823899  0.30585900  0.96962300  1
