# generated using pymatgen
data_ErMgAl4
_symmetry_space_group_name_H-M   'P 1'
_cell_length_a   3.94755602
_cell_length_b   3.94755602
_cell_length_c   8.61517429
_cell_angle_alpha   90.00000000
_cell_angle_beta   90.00000000
_cell_angle_gamma   90.00000000
_symmetry_Int_Tables_number   1
_chemical_formula_structural   ErMgAl4
_chemical_formula_sum   'Er1 Mg1 Al4'
_cell_volume   134.25197132
_cell_formula_units_Z   1
loop_
 _symmetry_equiv_pos_site_id
 _symmetry_equiv_pos_as_xyz
  1  'x, y, z'
loop_
 _atom_site_type_symbol
 _atom_site_label
 _atom_site_symmetry_multiplicity
 _atom_site_fract_x
 _atom_site_fract_y
 _atom_site_fract_z
 _atom_site_occupancy
  Mg  Mg0  1  0.50000000  0.00000000  0.73917997  1
  Er  Er1  1  0.00000000  0.50000000  0.26081999  1
  Al  Al2  1  0.50000000  0.00000000  0.38228099  1
  Al  Al3  1  0.00000000  0.50000000  0.61771898  1
  Al  Al4  1  0.00000000  0.00000000  0.00000000  1
  Al  Al5  1  0.50000000  0.50000000  0.00000000  1
