# generated using pymatgen
data_Zr10Sn3Pt5
_symmetry_space_group_name_H-M   'P 1'
_cell_length_a   5.78670788
_cell_length_b   8.60098171
_cell_length_c   8.60098171
_cell_angle_alpha   120.00000000
_cell_angle_beta   90.00000000
_cell_angle_gamma   90.00000000
_symmetry_Int_Tables_number   1
_chemical_formula_structural   Zr10Sn3Pt5
_chemical_formula_sum   'Zr10 Sn3 Pt5'
_cell_volume   370.73043373
_cell_formula_units_Z   1
loop_
 _symmetry_equiv_pos_site_id
 _symmetry_equiv_pos_as_xyz
  1  'x, y, z'
loop_
 _atom_site_type_symbol
 _atom_site_label
 _atom_site_symmetry_multiplicity
 _atom_site_fract_x
 _atom_site_fract_y
 _atom_site_fract_z
 _atom_site_occupancy
  Zr  Zr0  1  0.75000002  0.26911201  1.00000004  1
  Zr  Zr1  1  0.25000001  0.26911201  0.26911201  1
  Zr  Zr2  1  0.75000002  1.00000004  0.26911202  1
  Zr  Zr3  1  0.25000001  0.00000000  0.73088803  1
  Zr  Zr4  1  0.25000001  0.73088803  1.00000005  1
  Zr  Zr5  1  0.75000002  0.73088803  0.73088804  1
  Zr  Zr6  1  0.50000001  0.66666669  0.33333335  1
  Zr  Zr7  1  1.00000002  0.33333335  0.66666670  1
  Zr  Zr8  1  0.50000001  0.33333335  0.66666670  1
  Zr  Zr9  1  1.00000002  0.66666669  0.33333335  1
  Sn  Sn10  1  0.00000000  0.00000000  0.00000000  1
  Sn  Sn11  1  0.50000001  0.00000000  -0.00000000  1
  Sn  Sn12  1  0.25000001  0.61395902  0.61395903  1
  Pt  Pt13  1  0.75000002  0.61395902  0.00000000  1
  Pt  Pt14  1  0.75000002  0.00000000  0.61395903  1
  Pt  Pt15  1  0.25000001  1.00000004  0.38604102  1
  Pt  Pt16  1  0.25000001  0.38604101  0.00000000  1
  Pt  Pt17  1  0.75000002  0.38604101  0.38604102  1
