# generated using pymatgen
data_Li2O2
_symmetry_space_group_name_H-M   'P 1'
_cell_length_a   3.42175674
_cell_length_b   5.89752245
_cell_length_c   6.41040754
_cell_angle_alpha   117.29249573
_cell_angle_beta   105.47426605
_cell_angle_gamma   90.00350952
_symmetry_Int_Tables_number   1
_chemical_formula_structural   Li2O2
_chemical_formula_sum   'Li4 O4'
_cell_volume   109.65590175
_cell_formula_units_Z   2
loop_
 _symmetry_equiv_pos_site_id
 _symmetry_equiv_pos_as_xyz
  1  'x, y, z'
loop_
 _atom_site_type_symbol
 _atom_site_label
 _atom_site_symmetry_multiplicity
 _atom_site_fract_x
 _atom_site_fract_y
 _atom_site_fract_z
 _atom_site_occupancy
  Li  Li0  1  0.74870902  0.07938000  0.49741602  1
  Li  Li1  1  0.24808197  0.58435299  0.49630801  1
  Li  Li2  1  0.99798299  0.66130798  0.99596603  1
  Li  Li3  1  0.50564900  0.17660500  0.01110901  1
  O  O4  1  0.95359401  0.28210599  0.90705103  1
  O  O5  1  0.44154197  0.77710998  0.88311001  1
  O  O6  1  0.17986896  0.82449398  0.35980800  1
  O  O7  1  0.69057300  0.38064399  0.38123202  1
