# generated using pymatgen
data_BaCaHO3
_symmetry_space_group_name_H-M   'P 1'
_cell_length_a   3.72471499
_cell_length_b   4.12154102
_cell_length_c   6.64283085
_cell_angle_alpha   80.88728333
_cell_angle_beta   73.71855164
_cell_angle_gamma   63.13694382
_symmetry_Int_Tables_number   1
_chemical_formula_structural   BaCaHO3
_chemical_formula_sum   'Ba1 Ca1 H1 O3'
_cell_volume   87.26510498
_cell_formula_units_Z   1
loop_
 _symmetry_equiv_pos_site_id
 _symmetry_equiv_pos_as_xyz
  1  'x, y, z'
loop_
 _atom_site_type_symbol
 _atom_site_label
 _atom_site_symmetry_multiplicity
 _atom_site_fract_x
 _atom_site_fract_y
 _atom_site_fract_z
 _atom_site_occupancy
  Ca  Ca0  1  0.50000002  0.50000001  0.50000000  1
  Ba  Ba1  1  0.00000000  0.00000000  0.00000000  1
  H  H2  1  0.19910502  0.40987701  0.19191399  1
  O  O3  1  0.69530704  0.90356601  0.70581999  1
  O  O4  1  0.80089503  0.59012301  0.80808600  1
  O  O5  1  0.30469301  0.09643400  0.29418000  1
