# generated using pymatgen
data_Na6Ag2Au
_symmetry_space_group_name_H-M   'P 1'
_cell_length_a   4.31746197
_cell_length_b   8.32569218
_cell_length_c   8.32569122
_cell_angle_alpha   120.00000000
_cell_angle_beta   90.00000000
_cell_angle_gamma   90.00000000
_symmetry_Int_Tables_number   1
_chemical_formula_structural   Na6Ag2Au
_chemical_formula_sum   'Na6 Ag2 Au1'
_cell_volume   259.17899538
_cell_formula_units_Z   1
loop_
 _symmetry_equiv_pos_site_id
 _symmetry_equiv_pos_as_xyz
  1  'x, y, z'
loop_
 _atom_site_type_symbol
 _atom_site_label
 _atom_site_symmetry_multiplicity
 _atom_site_fract_x
 _atom_site_fract_y
 _atom_site_fract_z
 _atom_site_occupancy
  Na  Na0  1  0.50000000  0.76604096  0.76604097  1
  Na  Na1  1  0.50000000  0.00000000  0.23395900  1
  Na  Na2  1  0.50000000  0.23395899  -0.00000001  1
  Na  Na3  1  1.00000001  0.39607898  0.39607898  1
  Na  Na4  1  0.00000000  0.00000000  0.60392101  1
  Na  Na5  1  -0.00000000  0.60392097  -0.00000003  1
  Au  Au6  1  0.00000000  0.00000000  0.00000000  1
  Ag  Ag7  1  0.50000000  0.66666663  0.33333330  1
  Ag  Ag8  1  0.50000000  0.33333332  0.66666666  1
