# generated using pymatgen
data_Ce(SiRu)2
_symmetry_space_group_name_H-M   'P 1'
_cell_length_a   4.04907799
_cell_length_b   4.04907799
_cell_length_c   5.59515047
_cell_angle_alpha   111.21312714
_cell_angle_beta   111.21312714
_cell_angle_gamma   90.00000000
_symmetry_Int_Tables_number   1
_chemical_formula_structural   Ce(SiRu)2
_chemical_formula_sum   'Ce1 Si2 Ru2'
_cell_volume   78.81253051
_cell_formula_units_Z   1
loop_
 _symmetry_equiv_pos_site_id
 _symmetry_equiv_pos_as_xyz
  1  'x, y, z'
loop_
 _atom_site_type_symbol
 _atom_site_label
 _atom_site_symmetry_multiplicity
 _atom_site_fract_x
 _atom_site_fract_y
 _atom_site_fract_z
 _atom_site_occupancy
  Ce  Ce0  1  0.00000000  0.00000000  0.00000000  1
  Si  Si1  1  0.63011599  0.63011600  0.26023198  1
  Si  Si2  1  0.36988400  0.36988400  0.73976798  1
  Ru  Ru3  1  0.24999999  0.75000000  0.49999998  1
  Ru  Ru4  1  0.75000000  0.25000000  0.49999998  1
