# generated using pymatgen
data_Ce2FeSi7
_symmetry_space_group_name_H-M   'P 1'
_cell_length_a   4.17046022
_cell_length_b   4.17046022
_cell_length_c   9.89471245
_cell_angle_alpha   90.00000000
_cell_angle_beta   90.00000000
_cell_angle_gamma   90.00000000
_symmetry_Int_Tables_number   1
_chemical_formula_structural   Ce2FeSi7
_chemical_formula_sum   'Ce2 Fe1 Si7'
_cell_volume   172.09614596
_cell_formula_units_Z   1
loop_
 _symmetry_equiv_pos_site_id
 _symmetry_equiv_pos_as_xyz
  1  'x, y, z'
loop_
 _atom_site_type_symbol
 _atom_site_label
 _atom_site_symmetry_multiplicity
 _atom_site_fract_x
 _atom_site_fract_y
 _atom_site_fract_z
 _atom_site_occupancy
  Ce  Ce0  1  0.00000000  0.49999997  0.25565699  1
  Ce  Ce1  1  0.49999997  0.00000000  0.74434297  1
  Fe  Fe2  1  0.00000000  0.00000000  0.49999998  1
  Si  Si3  1  0.49999997  0.49999997  0.49999998  1
  Si  Si4  1  0.00000000  0.49999997  0.86977296  1
  Si  Si5  1  0.49999997  0.00000000  0.13022699  1
  Si  Si6  1  0.00000000  0.00000000  0.00000000  1
  Si  Si7  1  0.49999997  0.49999997  0.00000000  1
  Si  Si8  1  0.00000000  0.49999997  0.62728897  1
  Si  Si9  1  0.49999997  0.00000000  0.37271098  1
