# generated using pymatgen
data_La2NbC3
_symmetry_space_group_name_H-M   'P 1'
_cell_length_a   4.06332207
_cell_length_b   4.06332207
_cell_length_c   6.92525911
_cell_angle_alpha   90.00000000
_cell_angle_beta   90.00000000
_cell_angle_gamma   90.00000000
_symmetry_Int_Tables_number   1
_chemical_formula_structural   La2NbC3
_chemical_formula_sum   'La2 Nb1 C3'
_cell_volume   114.34008770
_cell_formula_units_Z   1
loop_
 _symmetry_equiv_pos_site_id
 _symmetry_equiv_pos_as_xyz
  1  'x, y, z'
loop_
 _atom_site_type_symbol
 _atom_site_label
 _atom_site_symmetry_multiplicity
 _atom_site_fract_x
 _atom_site_fract_y
 _atom_site_fract_z
 _atom_site_occupancy
  La  La0  1  0.00000000  0.49999999  0.82741899  1
  La  La1  1  0.49999999  0.00000000  0.17258100  1
  Nb  Nb2  1  0.49999999  0.00000000  0.63106199  1
  C  C3  1  0.00000000  0.49999999  0.36893799  1
  C  C4  1  0.00000000  0.00000000  0.00000000  1
  C  C5  1  0.49999999  0.49999999  0.00000000  1
