# generated using pymatgen
data_Li2NiO4
_symmetry_space_group_name_H-M   'P 1'
_cell_length_a   5.84727859
_cell_length_b   5.85025024
_cell_length_c   5.85170841
_cell_angle_alpha   91.73655701
_cell_angle_beta   118.92742157
_cell_angle_gamma   119.02659607
_symmetry_Int_Tables_number   1
_chemical_formula_structural   Li2NiO4
_chemical_formula_sum   'Li4 Ni2 O8'
_cell_volume   143.71651099
_cell_formula_units_Z   2
loop_
 _symmetry_equiv_pos_site_id
 _symmetry_equiv_pos_as_xyz
  1  'x, y, z'
loop_
 _atom_site_type_symbol
 _atom_site_label
 _atom_site_symmetry_multiplicity
 _atom_site_fract_x
 _atom_site_fract_y
 _atom_site_fract_z
 _atom_site_occupancy
  Li  Li0  1  0.99945681  0.99963596  0.99915678  1
  Li  Li1  1  0.77760691  0.37778098  0.15537791  1
  Li  Li2  1  0.22125789  0.62150397  0.84282787  1
  Li  Li3  1  0.99940781  0.99961496  0.49894780  1
  Ni  Ni4  1  0.49942882  0.99978996  0.49901882  1
  Ni  Ni5  1  0.49932490  0.49958898  0.49896589  1
  O  O6  1  0.04786287  0.79366897  0.28714388  1
  O  O7  1  0.05187396  0.24971399  0.30148195  1
  O  O8  1  0.49305994  0.23914299  0.28645293  1
  O  O9  1  0.49733186  0.76589097  0.26338986  1
  O  O10  1  0.95116293  0.20574899  0.71114890  1
  O  O11  1  0.94710585  0.74956797  0.69686383  1
  O  O12  1  0.50585986  0.76026697  0.71168884  1
  O  O13  1  0.50150395  0.23324999  0.73454692  1
