# generated using pymatgen
data_EuSiCN
_symmetry_space_group_name_H-M   'P 1'
_cell_length_a   3.63355088
_cell_length_b   3.76664114
_cell_length_c   3.76664114
_cell_angle_alpha   106.28825378
_cell_angle_beta   90.00000000
_cell_angle_gamma   90.00000000
_symmetry_Int_Tables_number   1
_chemical_formula_structural   EuSiCN
_chemical_formula_sum   'Eu1 Si1 C1 N1'
_cell_volume   49.48218892
_cell_formula_units_Z   1
loop_
 _symmetry_equiv_pos_site_id
 _symmetry_equiv_pos_as_xyz
  1  'x, y, z'
loop_
 _atom_site_type_symbol
 _atom_site_label
 _atom_site_symmetry_multiplicity
 _atom_site_fract_x
 _atom_site_fract_y
 _atom_site_fract_z
 _atom_site_occupancy
  Eu  Eu0  1  -0.00000000  0.00214200  0.99785799  1
  Si  Si1  1  0.50000002  0.38808800  0.61191199  1
  C  C2  1  0.50000002  0.84982499  0.45505499  1
  N  N3  1  0.50000002  0.54494499  0.15017499  1
