# generated using pymatgen
data_Ba4Cu2O7
_symmetry_space_group_name_H-M   'P 1'
_cell_length_a   6.13618851
_cell_length_b   6.13618851
_cell_length_c   7.37666655
_cell_angle_alpha   80.25469208
_cell_angle_beta   80.25469208
_cell_angle_gamma   62.25017166
_symmetry_Int_Tables_number   1
_chemical_formula_structural   Ba4Cu2O7
_chemical_formula_sum   'Ba4 Cu2 O7'
_cell_volume   240.95434717
_cell_formula_units_Z   1
loop_
 _symmetry_equiv_pos_site_id
 _symmetry_equiv_pos_as_xyz
  1  'x, y, z'
loop_
 _atom_site_type_symbol
 _atom_site_label
 _atom_site_symmetry_multiplicity
 _atom_site_fract_x
 _atom_site_fract_y
 _atom_site_fract_z
 _atom_site_occupancy
  Ba  Ba0  1  0.32069101  0.32069100  0.70170799  1
  Ba  Ba1  1  0.67930901  0.67930900  0.29829196  1
  Ba  Ba2  1  0.00000000  0.00000000  0.50000001  1
  Ba  Ba3  1  0.00000000  0.00000000  0.00000000  1
  Cu  Cu4  1  0.36449601  0.36449600  0.20142898  1
  Cu  Cu5  1  0.63550401  0.63550400  0.79857097  1
  O  O6  1  0.21513500  0.21513500  0.14068799  1
  O  O7  1  0.16135201  0.60502400  0.32710198  1
  O  O8  1  0.78486501  0.78486500  0.85931196  1
  O  O9  1  0.39497601  0.83864800  0.67289797  1
  O  O10  1  0.60502400  0.16135200  0.32710198  1
  O  O11  1  0.50000001  0.50000000  -0.00000004  1
  O  O12  1  0.83864801  0.39497600  0.67289797  1
