# generated using pymatgen
data_Na2CuBiSe5
_symmetry_space_group_name_H-M   'P 1'
_cell_length_a   3.72341990
_cell_length_b   7.65155363
_cell_length_c   7.65155411
_cell_angle_alpha   118.27228546
_cell_angle_beta   90.00000000
_cell_angle_gamma   90.00000000
_symmetry_Int_Tables_number   1
_chemical_formula_structural   Na2CuBiSe5
_chemical_formula_sum   'Na2 Cu1 Bi1 Se5'
_cell_volume   191.98731432
_cell_formula_units_Z   1
loop_
 _symmetry_equiv_pos_site_id
 _symmetry_equiv_pos_as_xyz
  1  'x, y, z'
loop_
 _atom_site_type_symbol
 _atom_site_label
 _atom_site_symmetry_multiplicity
 _atom_site_fract_x
 _atom_site_fract_y
 _atom_site_fract_z
 _atom_site_occupancy
  Na  Na0  1  1.00000003  0.59066500  0.59066501  1
  Na  Na1  1  1.00000003  0.39427100  0.01460600  1
  Bi  Bi2  1  1.00000003  0.01460500  0.39427001  1
  Cu  Cu3  1  0.50000001  0.72981300  0.99550502  1
  Se  Se4  1  0.50000001  0.99550500  0.72981301  1
  Se  Se5  1  0.50000001  0.33707700  0.68651001  1
  Se  Se6  1  0.50000001  0.68651000  0.33707701  1
  Se  Se7  1  1.00000003  0.97735100  0.97735102  1
  Se  Se8  1  0.50000001  0.27410400  0.27410401  1
