# generated using pymatgen
data_Fe
_symmetry_space_group_name_H-M   'P 1'
_cell_length_a   5.16617584
_cell_length_b   7.76297474
_cell_length_c   7.76297474
_cell_angle_alpha   83.64323425
_cell_angle_beta   70.56455231
_cell_angle_gamma   70.56455231
_symmetry_Int_Tables_number   1
_chemical_formula_structural   Fe
_chemical_formula_sum   Fe16
_cell_volume   276.86276528
_cell_formula_units_Z   16
loop_
 _symmetry_equiv_pos_site_id
 _symmetry_equiv_pos_as_xyz
  1  'x, y, z'
loop_
 _atom_site_type_symbol
 _atom_site_label
 _atom_site_symmetry_multiplicity
 _atom_site_fract_x
 _atom_site_fract_y
 _atom_site_fract_z
 _atom_site_occupancy
  Fe  Fe0  1  0.32117601  0.81898902  0.01764895  1
  Fe  Fe1  1  0.15781501  0.18101100  0.98235100  1
  Fe  Fe2  1  0.66117502  0.01764900  0.18101099  1
  Fe  Fe3  1  0.85983403  0.98235102  0.81898895  1
  Fe  Fe4  1  0.34254601  0.62416801  0.66087897  1
  Fe  Fe5  1  0.62759302  0.37583201  0.33912098  1
  Fe  Fe6  1  0.99657504  0.66087901  0.37583196  1
  Fe  Fe7  1  0.03328600  0.33912101  0.62416799  1
  Fe  Fe8  1  0.94026303  0.59502101  0.02895496  1
  Fe  Fe9  1  0.56423902  0.40497901  0.97104499  1
  Fe  Fe10  1  0.03078200  0.02895500  0.40497900  1
  Fe  Fe11  1  0.46471602  0.97104502  0.59502095  1
  Fe  Fe12  1  0.77260203  0.67624301  0.73924097  1
  Fe  Fe13  1  0.18808601  0.32375701  0.26075898  1
  Fe  Fe14  1  0.48815702  0.73924101  0.32375696  1
  Fe  Fe15  1  0.55115602  0.26075901  0.67624299  1
