# generated using pymatgen
data_Ba2NbCoO6
_symmetry_space_group_name_H-M   'P 1'
_cell_length_a   6.13304615
_cell_length_b   6.13304615
_cell_length_c   6.13304663
_cell_angle_alpha   60.36925888
_cell_angle_beta   60.36925888
_cell_angle_gamma   60.36924744
_symmetry_Int_Tables_number   1
_chemical_formula_structural   Ba2NbCoO6
_chemical_formula_sum   'Ba2 Nb1 Co1 O6'
_cell_volume   164.48488405
_cell_formula_units_Z   1
loop_
 _symmetry_equiv_pos_site_id
 _symmetry_equiv_pos_as_xyz
  1  'x, y, z'
loop_
 _atom_site_type_symbol
 _atom_site_label
 _atom_site_symmetry_multiplicity
 _atom_site_fract_x
 _atom_site_fract_y
 _atom_site_fract_z
 _atom_site_occupancy
  Ba  Ba0  1  0.74883796  0.74883801  0.74883804  1
  Ba  Ba1  1  0.25116199  0.25116200  0.25116201  1
  Nb  Nb2  1  0.49999997  0.50000000  0.50000003  1
  Co  Co3  1  0.00000000  0.00000000  0.00000000  1
  O  O4  1  0.78153498  0.27275700  0.68019702  1
  O  O5  1  0.68019696  0.78153501  0.27275706  1
  O  O6  1  0.27275696  0.68019701  0.78153502  1
  O  O7  1  0.21846496  0.72724301  0.31980304  1
  O  O8  1  0.72724298  0.31980300  0.21846504  1
  O  O9  1  0.31980299  0.21846500  0.72724300  1
