# generated using pymatgen
data_HfTiPd2
_symmetry_space_group_name_H-M   'P 1'
_cell_length_a   4.31503057
_cell_length_b   4.31502295
_cell_length_c   4.31492043
_cell_angle_alpha   119.99817657
_cell_angle_beta   119.99691010
_cell_angle_gamma   90.00446320
_symmetry_Int_Tables_number   1
_chemical_formula_structural   HfTiPd2
_chemical_formula_sum   'Hf1 Ti1 Pd2'
_cell_volume   56.81200493
_cell_formula_units_Z   1
loop_
 _symmetry_equiv_pos_site_id
 _symmetry_equiv_pos_as_xyz
  1  'x, y, z'
loop_
 _atom_site_type_symbol
 _atom_site_label
 _atom_site_symmetry_multiplicity
 _atom_site_fract_x
 _atom_site_fract_y
 _atom_site_fract_z
 _atom_site_occupancy
  Ti  Ti0  1  0.00000714  0.99999709  0.99999516  1
  Hf  Hf1  1  0.49999309  0.50000304  0.00000508  1
  Pd  Pd2  1  0.75000307  0.25000102  0.50000204  1
  Pd  Pd3  1  0.25000011  0.75000006  0.50000012  1
