# generated using pymatgen
data_MgGa
_symmetry_space_group_name_H-M   'P 1'
_cell_length_a   4.10968590
_cell_length_b   4.27570200
_cell_length_c   8.47985458
_cell_angle_alpha   104.60237122
_cell_angle_beta   90.00000000
_cell_angle_gamma   90.00000000
_symmetry_Int_Tables_number   1
_chemical_formula_structural   MgGa
_chemical_formula_sum   'Mg3 Ga3'
_cell_volume   144.19315299
_cell_formula_units_Z   3
loop_
 _symmetry_equiv_pos_site_id
 _symmetry_equiv_pos_as_xyz
  1  'x, y, z'
loop_
 _atom_site_type_symbol
 _atom_site_label
 _atom_site_symmetry_multiplicity
 _atom_site_fract_x
 _atom_site_fract_y
 _atom_site_fract_z
 _atom_site_occupancy
  Mg  Mg0  1  0.25000001  0.09439000  0.18878001  1
  Mg  Mg1  1  0.75000002  0.90561001  0.81122005  1
  Mg  Mg2  1  0.25000001  0.74493701  0.48987403  1
  Ga  Ga3  1  0.75000002  0.25506300  0.51012603  1
  Ga  Ga4  1  0.25000001  0.44708900  0.89417805  1
  Ga  Ga5  1  0.75000002  0.55291100  0.10582201  1
