# generated using pymatgen
data_NaLiCuBiO6
_symmetry_space_group_name_H-M   'P 1'
_cell_length_a   5.56469202
_cell_length_b   5.56469202
_cell_length_c   5.61355305
_cell_angle_alpha   60.28751755
_cell_angle_beta   60.28751755
_cell_angle_gamma   60.00000000
_symmetry_Int_Tables_number   1
_chemical_formula_structural   NaLiCuBiO6
_chemical_formula_sum   'Na1 Li1 Cu1 Bi1 O6'
_cell_volume   123.44652255
_cell_formula_units_Z   1
loop_
 _symmetry_equiv_pos_site_id
 _symmetry_equiv_pos_as_xyz
  1  'x, y, z'
loop_
 _atom_site_type_symbol
 _atom_site_label
 _atom_site_symmetry_multiplicity
 _atom_site_fract_x
 _atom_site_fract_y
 _atom_site_fract_z
 _atom_site_occupancy
  Na  Na0  1  0.23897999  0.23898000  0.28305999  1
  Li  Li1  1  0.49271398  0.49271399  0.52185798  1
  Cu  Cu2  1  0.99545695  0.99545699  0.01362900  1
  Bi  Bi3  1  0.71265497  0.71265499  0.86203497  1
  O  O4  1  0.33006899  0.16552500  0.75579997  1
  O  O5  1  0.16552498  0.74860599  0.75579997  1
  O  O6  1  0.74860598  0.33006900  0.75579997  1
  O  O7  1  0.80609398  0.27430400  0.23100599  1
  O  O8  1  0.27430398  0.68859599  0.23100599  1
  O  O9  1  0.68859596  0.80609399  0.23100599  1
