# generated using pymatgen
data_Eu3BiO6
_symmetry_space_group_name_H-M   'P 1'
_cell_length_a   7.17817783
_cell_length_b   7.17817783
_cell_length_c   7.17817783
_cell_angle_alpha   109.47122192
_cell_angle_beta   109.47122192
_cell_angle_gamma   109.47122192
_symmetry_Int_Tables_number   1
_chemical_formula_structural   Eu3BiO6
_chemical_formula_sum   'Eu6 Bi2 O12'
_cell_volume   284.72180537
_cell_formula_units_Z   2
loop_
 _symmetry_equiv_pos_site_id
 _symmetry_equiv_pos_as_xyz
  1  'x, y, z'
loop_
 _atom_site_type_symbol
 _atom_site_label
 _atom_site_symmetry_multiplicity
 _atom_site_fract_x
 _atom_site_fract_y
 _atom_site_fract_z
 _atom_site_occupancy
  Eu  Eu0  1  0.39861204  0.39861203  0.89861205  1
  Eu  Eu1  1  0.00000003  0.50000003  0.10138803  1
  Eu  Eu2  1  0.60138802  0.00000000  0.00000001  1
  Eu  Eu3  1  0.50000005  0.60138804  0.50000006  1
  Eu  Eu4  1  0.10138800  0.00000000  0.00000000  1
  Eu  Eu5  1  0.50000002  0.10138801  0.50000003  1
  Bi  Bi6  1  0.00000003  0.50000003  0.60138804  1
  Bi  Bi7  1  0.89861209  0.89861206  0.39861208  1
  O  O8  1  0.95571204  0.20571201  0.75000005  1
  O  O9  1  0.79428803  0.04428800  0.75000004  1
  O  O10  1  0.45571206  0.75000005  0.20571206  1
  O  O11  1  0.75000007  0.70571204  0.95571208  1
  O  O12  1  0.04428802  0.25000002  0.29428802  1
  O  O13  1  0.25000006  0.79428805  0.54428806  1
  O  O14  1  0.54428804  0.29428802  0.25000004  1
  O  O15  1  0.75000006  0.54428803  0.79428807  1
  O  O16  1  0.70571205  0.45571203  0.25000005  1
  O  O17  1  0.29428806  0.75000005  0.04428805  1
  O  O18  1  0.20571202  0.25000002  0.45571203  1
  O  O19  1  0.25000007  0.95571206  0.70571208  1
