# generated using pymatgen
data_Yb3Mg4Si7
_symmetry_space_group_name_H-M   'P 1'
_cell_length_a   4.40635204
_cell_length_b   8.35661697
_cell_length_c   8.35661697
_cell_angle_alpha   69.88582611
_cell_angle_beta   74.71356964
_cell_angle_gamma   74.71356964
_symmetry_Int_Tables_number   1
_chemical_formula_structural   Yb3Mg4Si7
_chemical_formula_sum   'Yb3 Mg4 Si7'
_cell_volume   273.58914204
_cell_formula_units_Z   1
loop_
 _symmetry_equiv_pos_site_id
 _symmetry_equiv_pos_as_xyz
  1  'x, y, z'
loop_
 _atom_site_type_symbol
 _atom_site_label
 _atom_site_symmetry_multiplicity
 _atom_site_fract_x
 _atom_site_fract_y
 _atom_site_fract_z
 _atom_site_occupancy
  Yb  Yb0  1  0.49999999  0.50000002  0.50000001  1
  Yb  Yb1  1  0.20475499  0.79524503  0.79524502  1
  Yb  Yb2  1  0.79524499  0.20475501  0.20475500  1
  Mg  Mg3  1  0.35766000  0.36177901  0.92290003  1
  Mg  Mg4  1  0.64233999  0.63822102  0.07710000  1
  Mg  Mg5  1  0.35765999  0.92290003  0.36177901  1
  Mg  Mg6  1  0.64233999  0.07710000  0.63822102  1
  Si  Si7  1  0.15768300  0.47386802  0.21076601  1
  Si  Si8  1  0.84231699  0.52613202  0.78923402  1
  Si  Si9  1  0.15768300  0.21076601  0.47386802  1
  Si  Si10  1  0.84231699  0.78923403  0.52613201  1
  Si  Si11  1  0.50000000  0.00000000  -0.00000000  1
  Si  Si12  1  -0.00000000  0.81077803  0.18922200  1
  Si  Si13  1  -0.00000000  0.18922201  0.81077803  1
