# generated using pymatgen
data_Y(Al2Fe)4
_symmetry_space_group_name_H-M   'P 1'
_cell_length_a   5.21292877
_cell_length_b   6.82931805
_cell_length_c   6.82931852
_cell_angle_alpha   81.62433624
_cell_angle_beta   67.56356812
_cell_angle_gamma   67.56357574
_symmetry_Int_Tables_number   1
_chemical_formula_structural   Y(Al2Fe)4
_chemical_formula_sum   'Y1 Al8 Fe4'
_cell_volume   207.71399357
_cell_formula_units_Z   1
loop_
 _symmetry_equiv_pos_site_id
 _symmetry_equiv_pos_as_xyz
  1  'x, y, z'
loop_
 _atom_site_type_symbol
 _atom_site_label
 _atom_site_symmetry_multiplicity
 _atom_site_fract_x
 _atom_site_fract_y
 _atom_site_fract_z
 _atom_site_occupancy
  Y  Y0  1  0.00000000  0.00000000  0.00000000  1
  Al  Al1  1  0.50000003  0.00000000  0.49999998  1
  Al  Al2  1  0.00000000  0.00000000  0.50000000  1
  Al  Al3  1  0.49999998  0.50000002  1.00000003  1
  Al  Al4  1  1.00000001  0.50000002  0.00000001  1
  Al  Al5  1  0.34080195  0.65919803  0.65919805  1
  Al  Al6  1  0.65919800  0.34080201  0.34080201  1
  Al  Al7  1  -0.00000007  0.65919803  0.34080206  1
  Al  Al8  1  -0.00000004  0.34080201  0.65919804  1
  Fe  Fe9  1  0.27173799  0.22826201  0.22826201  1
  Fe  Fe10  1  0.72826196  0.77173803  0.77173805  1
  Fe  Fe11  1  0.50000001  0.22826201  0.77173801  1
  Fe  Fe12  1  0.49999995  0.77173803  0.22826205  1
