# generated using pymatgen
data_Y2Sn3Rh
_symmetry_space_group_name_H-M   'P 1'
_cell_length_a   4.44575024
_cell_length_b   7.37128592
_cell_length_c   8.30320454
_cell_angle_alpha   90.00000000
_cell_angle_beta   90.00000000
_cell_angle_gamma   90.00000000
_symmetry_Int_Tables_number   1
_chemical_formula_structural   Y2Sn3Rh
_chemical_formula_sum   'Y4 Sn6 Rh2'
_cell_volume   272.10345317
_cell_formula_units_Z   2
loop_
 _symmetry_equiv_pos_site_id
 _symmetry_equiv_pos_as_xyz
  1  'x, y, z'
loop_
 _atom_site_type_symbol
 _atom_site_label
 _atom_site_symmetry_multiplicity
 _atom_site_fract_x
 _atom_site_fract_y
 _atom_site_fract_z
 _atom_site_occupancy
  Y  Y0  1  0.00000000  0.40039100  0.25000001  1
  Y  Y1  1  0.00000000  0.59960901  0.75000004  1
  Y  Y2  1  0.00000000  0.00000000  0.00000000  1
  Y  Y3  1  0.00000000  0.00000000  0.50000003  1
  Sn  Sn4  1  0.49999997  0.30630400  0.55381703  1
  Sn  Sn5  1  0.49999997  0.69369601  0.44618302  1
  Sn  Sn6  1  0.49999997  0.30630400  0.94618305  1
  Sn  Sn7  1  0.49999997  0.69369601  0.05381700  1
  Sn  Sn8  1  0.49999997  0.05752400  0.25000001  1
  Sn  Sn9  1  0.49999997  0.94247601  0.75000004  1
  Rh  Rh10  1  0.00000000  0.77679801  0.25000001  1
  Rh  Rh11  1  0.00000000  0.22320200  0.75000004  1
