# generated using pymatgen
data_Sr2CaLa3CuBiO12
_symmetry_space_group_name_H-M   'P 1'
_cell_length_a   7.01502991
_cell_length_b   7.01502991
_cell_length_c   7.01502991
_cell_angle_alpha   92.77863312
_cell_angle_beta   92.77863312
_cell_angle_gamma   92.77863312
_symmetry_Int_Tables_number   1
_chemical_formula_structural   Sr2CaLa3CuBiO12
_chemical_formula_sum   'Sr2 Ca1 La3 Cu1 Bi1 O12'
_cell_volume   343.95561691
_cell_formula_units_Z   1
loop_
 _symmetry_equiv_pos_site_id
 _symmetry_equiv_pos_as_xyz
  1  'x, y, z'
loop_
 _atom_site_type_symbol
 _atom_site_label
 _atom_site_symmetry_multiplicity
 _atom_site_fract_x
 _atom_site_fract_y
 _atom_site_fract_z
 _atom_site_occupancy
  Sr  Sr0  1  0.00000000  0.00000000  0.00000000  1
  Sr  Sr1  1  0.50000002  0.50000000  0.50000000  1
  Ca  Ca2  1  0.55279100  0.06850100  0.25075500  1
  La  La3  1  0.06850101  0.25075500  0.55279101  1
  La  La4  1  0.74924502  0.44720900  0.93149900  1
  La  La5  1  0.25075503  0.55279100  0.06850100  1
  Bi  Bi6  1  0.93149904  0.74924500  0.44720899  1
  Cu  Cu7  1  0.44720905  0.93149900  0.74924500  1
  O  O8  1  0.69099300  0.07363400  0.92527501  1
  O  O9  1  0.92636600  0.07472500  0.30900700  1
  O  O10  1  0.39987501  0.18771800  0.52578100  1
  O  O11  1  0.07472502  0.30900700  0.92636601  1
  O  O12  1  0.52578102  0.39987500  0.18771800  1
  O  O13  1  0.81228202  0.47421900  0.60012500  1
  O  O14  1  0.18771803  0.52578100  0.39987500  1
  O  O15  1  0.47421903  0.60012500  0.81228200  1
  O  O16  1  0.92527503  0.69099300  0.07363399  1
  O  O17  1  0.60012504  0.81228200  0.47421900  1
  O  O18  1  0.07363405  0.92527500  0.69099300  1
  O  O19  1  0.30900705  0.92636600  0.07472499  1
