# generated using pymatgen
data_YAl2
_symmetry_space_group_name_H-M   'P 1'
_cell_length_a   5.56713009
_cell_length_b   5.56713009
_cell_length_c   9.65998459
_cell_angle_alpha   73.25252533
_cell_angle_beta   73.25252533
_cell_angle_gamma   60.00000000
_symmetry_Int_Tables_number   1
_chemical_formula_structural   YAl2
_chemical_formula_sum   'Y4 Al8'
_cell_volume   244.50707099
_cell_formula_units_Z   4
loop_
 _symmetry_equiv_pos_site_id
 _symmetry_equiv_pos_as_xyz
  1  'x, y, z'
loop_
 _atom_site_type_symbol
 _atom_site_label
 _atom_site_symmetry_multiplicity
 _atom_site_fract_x
 _atom_site_fract_y
 _atom_site_fract_z
 _atom_site_occupancy
  Y  Y0  1  0.62508095  0.62508098  0.12475704  1
  Y  Y1  1  0.00354400  0.00354400  0.98936796  1
  Y  Y2  1  0.49701496  0.49701499  0.50895502  1
  Y  Y3  1  0.12484099  0.12484100  0.62547698  1
  Al  Al4  1  0.06234398  0.56333099  0.81099399  1
  Al  Al5  1  0.56097997  0.06237200  0.31427601  1
  Al  Al6  1  0.56333097  0.06234400  0.81099399  1
  Al  Al7  1  0.06237198  0.56097999  0.31427601  1
  Al  Al8  1  0.81226694  0.81226698  0.56319904  1
  Al  Al9  1  0.31252098  0.31252099  0.06243702  1
  Al  Al10  1  0.56333096  0.56333099  0.81099401  1
  Al  Al11  1  0.06237200  0.06237200  0.31427599  1
