# generated using pymatgen
data_Pr3Ni3Sb4
_symmetry_space_group_name_H-M   'P 1'
_cell_length_a   8.31851673
_cell_length_b   8.31851673
_cell_length_c   8.31851673
_cell_angle_alpha   109.47122192
_cell_angle_beta   109.47122192
_cell_angle_gamma   109.47122192
_symmetry_Int_Tables_number   1
_chemical_formula_structural   Pr3Ni3Sb4
_chemical_formula_sum   'Pr6 Ni6 Sb8'
_cell_volume   443.11430639
_cell_formula_units_Z   2
loop_
 _symmetry_equiv_pos_site_id
 _symmetry_equiv_pos_as_xyz
  1  'x, y, z'
loop_
 _atom_site_type_symbol
 _atom_site_label
 _atom_site_symmetry_multiplicity
 _atom_site_fract_x
 _atom_site_fract_y
 _atom_site_fract_z
 _atom_site_occupancy
  Pr  Pr0  1  0.37500005  0.62500004  0.75000006  1
  Pr  Pr1  1  0.87500008  0.75000005  0.62500008  1
  Pr  Pr2  1  0.62500004  0.25000002  0.87500005  1
  Pr  Pr3  1  0.75000003  0.12500001  0.37500003  1
  Pr  Pr4  1  0.25000003  0.37500002  0.12500003  1
  Pr  Pr5  1  0.12500006  0.87500006  0.25000006  1
  Ni  Ni6  1  0.75000007  0.62500004  0.87500008  1
  Ni  Ni7  1  0.62500005  0.37500002  0.25000004  1
  Ni  Ni8  1  0.87500004  0.12500001  0.75000005  1
  Ni  Ni9  1  0.12500002  0.25000002  0.37500003  1
  Ni  Ni10  1  0.37500006  0.75000005  0.12500005  1
  Ni  Ni11  1  0.25000006  0.87500006  0.62500007  1
  Sb  Sb12  1  0.50000007  0.84074606  0.50000007  1
  Sb  Sb13  1  0.00000003  0.50000003  0.84074605  1
  Sb  Sb14  1  0.15925402  0.15925401  0.65925403  1
  Sb  Sb15  1  0.34074601  0.00000000  0.00000001  1
  Sb  Sb16  1  0.84074603  0.00000000  0.00000002  1
  Sb  Sb17  1  0.00000003  0.50000003  0.34074604  1
  Sb  Sb18  1  0.65925406  0.65925404  0.15925406  1
  Sb  Sb19  1  0.50000004  0.34074602  0.50000004  1
