# generated using pymatgen
data_Pr5Fe13
_symmetry_space_group_name_H-M   'P 1'
_cell_length_a   4.21762800
_cell_length_b   9.29621315
_cell_length_c   9.29621410
_cell_angle_alpha   119.97182465
_cell_angle_beta   90.00000000
_cell_angle_gamma   90.00000000
_symmetry_Int_Tables_number   1
_chemical_formula_structural   Pr5Fe13
_chemical_formula_sum   'Pr5 Fe13'
_cell_volume   315.74343274
_cell_formula_units_Z   1
loop_
 _symmetry_equiv_pos_site_id
 _symmetry_equiv_pos_as_xyz
  1  'x, y, z'
loop_
 _atom_site_type_symbol
 _atom_site_label
 _atom_site_symmetry_multiplicity
 _atom_site_fract_x
 _atom_site_fract_y
 _atom_site_fract_z
 _atom_site_occupancy
  Pr  Pr0  1  0.50000000  0.66666670  0.33324670  1
  Pr  Pr1  1  0.50000000  0.33333335  0.66675333  1
  Pr  Pr2  1  -0.00000000  0.99993005  0.99993003  1
  Pr  Pr3  1  1.00000000  0.79319404  0.16750705  1
  Fe  Fe4  1  -0.00000000  0.83277504  0.62585703  1
  Fe  Fe5  1  -0.00000000  0.37402102  0.20685902  1
  Pr  Pr6  1  -0.00000000  0.16750701  0.79319398  1
  Fe  Fe7  1  -0.00000000  0.62585803  0.83277601  1
  Fe  Fe8  1  1.00000000  0.20685901  0.37402100  1
  Fe  Fe9  1  0.50000000  0.70367303  0.70367302  1
  Fe  Fe10  1  0.50000000  0.29633501  0.00003402  1
  Fe  Fe11  1  0.50000000  0.00003400  0.29633499  1
  Fe  Fe12  1  0.50000000  0.25281901  0.25281901  1
  Fe  Fe13  1  0.50000000  0.74705904  0.99994601  1
  Fe  Fe14  1  0.50000000  0.99994605  0.74705904  1
  Fe  Fe15  1  -0.00000000  0.52916003  0.52916001  1
  Fe  Fe16  1  1.00000000  0.47103202  0.99992199  1
  Fe  Fe17  1  1.00000000  0.99992205  0.47103205  1
