# generated using pymatgen
data_RbCoNi2As
_symmetry_space_group_name_H-M   'P 1'
_cell_length_a   4.06126022
_cell_length_b   4.06126022
_cell_length_c   7.64843130
_cell_angle_alpha   105.39644623
_cell_angle_beta   105.39644623
_cell_angle_gamma   90.00000000
_symmetry_Int_Tables_number   1
_chemical_formula_structural   RbCoNi2As
_chemical_formula_sum   'Rb1 Co1 Ni2 As1'
_cell_volume   116.92207251
_cell_formula_units_Z   1
loop_
 _symmetry_equiv_pos_site_id
 _symmetry_equiv_pos_as_xyz
  1  'x, y, z'
loop_
 _atom_site_type_symbol
 _atom_site_label
 _atom_site_symmetry_multiplicity
 _atom_site_fract_x
 _atom_site_fract_y
 _atom_site_fract_z
 _atom_site_occupancy
  Rb  Rb0  1  0.00000000  0.00000000  0.00000000  1
  Co  Co1  1  0.34693799  0.34693799  0.69387600  1
  As  As2  1  0.65306199  0.65306197  0.30612402  1
  Ni  Ni3  1  0.74999997  0.24999999  0.50000001  1
  Ni  Ni4  1  0.25000001  0.74999997  0.50000001  1
