# generated using pymatgen
data_LiBeNO
_symmetry_space_group_name_H-M   'P 1'
_cell_length_a   2.82385206
_cell_length_b   2.82385206
_cell_length_c   9.05375290
_cell_angle_alpha   90.00000000
_cell_angle_beta   90.00000000
_cell_angle_gamma   90.00000000
_symmetry_Int_Tables_number   1
_chemical_formula_structural   LiBeNO
_chemical_formula_sum   'Li2 Be2 N2 O2'
_cell_volume   72.19589739
_cell_formula_units_Z   2
loop_
 _symmetry_equiv_pos_site_id
 _symmetry_equiv_pos_as_xyz
  1  'x, y, z'
loop_
 _atom_site_type_symbol
 _atom_site_label
 _atom_site_symmetry_multiplicity
 _atom_site_fract_x
 _atom_site_fract_y
 _atom_site_fract_z
 _atom_site_occupancy
  Be  Be0  1  0.49999999  0.49999999  0.26817400  1
  Li  Li1  1  0.00000000  0.00000000  0.50000001  1
  Be  Be2  1  0.49999999  0.49999999  0.73182601  1
  Li  Li3  1  0.00000000  0.00000000  0.00000000  1
  O  O4  1  0.49999999  0.49999999  0.00000000  1
  N  N5  1  0.00000000  0.00000000  0.27110600  1
  N  N6  1  0.49999999  0.49999999  0.50000001  1
  O  O7  1  0.00000000  0.00000000  0.72889401  1
