# generated using pymatgen
data_Li2FeCu2S2O
_symmetry_space_group_name_H-M   'P 1'
_cell_length_a   3.66959906
_cell_length_b   6.58698893
_cell_length_c   6.66071749
_cell_angle_alpha   111.02436829
_cell_angle_beta   90.00000000
_cell_angle_gamma   90.00000000
_symmetry_Int_Tables_number   1
_chemical_formula_structural   Li2FeCu2S2O
_chemical_formula_sum   'Li2 Fe1 Cu2 S2 O1'
_cell_volume   150.28213351
_cell_formula_units_Z   1
loop_
 _symmetry_equiv_pos_site_id
 _symmetry_equiv_pos_as_xyz
  1  'x, y, z'
loop_
 _atom_site_type_symbol
 _atom_site_label
 _atom_site_symmetry_multiplicity
 _atom_site_fract_x
 _atom_site_fract_y
 _atom_site_fract_z
 _atom_site_occupancy
  Li  Li0  1  0.00000000  0.00000000  0.50000002  1
  Li  Li1  1  0.49999999  0.50000001  0.50000004  1
  Fe  Fe2  1  -0.00000000  0.50000001  0.00000002  1
  Cu  Cu3  1  0.49999999  0.00000000  1.00000003  1
  O  O4  1  0.49999999  0.86104802  0.67448806  1
  Cu  Cu5  1  -0.00000000  0.58473001  0.32500303  1
  S  S6  1  0.49999999  0.13895200  0.32551202  1
  S  S7  1  -0.00000000  0.41527001  0.67499704  1
