# generated using pymatgen
data_Ce2GaPd7
_symmetry_space_group_name_H-M   'P 1'
_cell_length_a   4.42214394
_cell_length_b   6.14396000
_cell_length_c   7.88104582
_cell_angle_alpha   112.94165039
_cell_angle_beta   106.29337311
_cell_angle_gamma   90.00000000
_symmetry_Int_Tables_number   1
_chemical_formula_structural   Ce2GaPd7
_chemical_formula_sum   'Ce2 Ga1 Pd7'
_cell_volume   187.81356420
_cell_formula_units_Z   1
loop_
 _symmetry_equiv_pos_site_id
 _symmetry_equiv_pos_as_xyz
  1  'x, y, z'
loop_
 _atom_site_type_symbol
 _atom_site_label
 _atom_site_symmetry_multiplicity
 _atom_site_fract_x
 _atom_site_fract_y
 _atom_site_fract_z
 _atom_site_occupancy
  Ce  Ce0  1  0.10887503  0.85887502  0.21775003  1
  Ce  Ce1  1  0.89112503  0.14112500  0.78225000  1
  Ga  Ga2  1  0.50000001  0.00000000  0.99999998  1
  Pd  Pd3  1  0.50000003  0.50000001  0.00000003  1
  Pd  Pd4  1  0.88654704  0.63654701  0.77309402  1
  Pd  Pd5  1  0.11345302  0.36345301  0.22690601  1
  Pd  Pd6  1  0.30103803  0.78138002  0.60207502  1
  Pd  Pd7  1  0.69896202  0.21862000  0.39792501  1
  Pd  Pd8  1  0.69896304  0.67930501  0.39792603  1
  Pd  Pd9  1  0.30103702  0.32069501  0.60207400  1
