# generated using pymatgen
data_Y3Sn5
_symmetry_space_group_name_H-M   'P 1'
_cell_length_a   5.27843618
_cell_length_b   6.71115208
_cell_length_c   6.71115208
_cell_angle_alpha   120.00000000
_cell_angle_beta   90.00000000
_cell_angle_gamma   90.00000000
_symmetry_Int_Tables_number   1
_chemical_formula_structural   Y3Sn5
_chemical_formula_sum   'Y3 Sn5'
_cell_volume   205.88754132
_cell_formula_units_Z   1
loop_
 _symmetry_equiv_pos_site_id
 _symmetry_equiv_pos_as_xyz
  1  'x, y, z'
loop_
 _atom_site_type_symbol
 _atom_site_label
 _atom_site_symmetry_multiplicity
 _atom_site_fract_x
 _atom_site_fract_y
 _atom_site_fract_z
 _atom_site_occupancy
  Y  Y0  1  0.74999997  0.18371700  0.81628398  1
  Y  Y1  1  0.24999999  0.81628299  0.63256597  1
  Y  Y2  1  0.24999999  0.36743299  0.18371599  1
  Sn  Sn3  1  0.74999997  0.63256699  0.81628397  1
  Sn  Sn4  1  0.74999997  0.18371700  0.36743399  1
  Sn  Sn5  1  0.24999999  0.81628299  0.18371599  1
  Sn  Sn6  1  0.74999997  0.66666666  0.33333332  1
  Sn  Sn7  1  0.24999999  0.33333333  0.66666665  1
