# generated using pymatgen
data_Ba2NaNbO6
_symmetry_space_group_name_H-M   'P 1'
_cell_length_a   6.13693237
_cell_length_b   6.13693237
_cell_length_c   6.18689203
_cell_angle_alpha   90.31684875
_cell_angle_beta   119.49222565
_cell_angle_gamma   119.87514496
_symmetry_Int_Tables_number   1
_chemical_formula_structural   Ba2NaNbO6
_chemical_formula_sum   'Ba2 Na1 Nb1 O6'
_cell_volume   165.87610236
_cell_formula_units_Z   1
loop_
 _symmetry_equiv_pos_site_id
 _symmetry_equiv_pos_as_xyz
  1  'x, y, z'
loop_
 _atom_site_type_symbol
 _atom_site_label
 _atom_site_symmetry_multiplicity
 _atom_site_fract_x
 _atom_site_fract_y
 _atom_site_fract_z
 _atom_site_occupancy
  Ba  Ba0  1  0.50696190  0.75190995  0.25887192  1
  Ba  Ba1  1  0.49303797  0.24808998  0.74112799  1
  Na  Na2  1  0.00000000  0.00000000  0.00000000  1
  Nb  Nb3  1  0.99999994  0.49999997  0.49999996  1
  O  O4  1  0.00526390  0.76892295  0.31145292  1
  O  O5  1  0.45746991  0.69381096  0.68854694  1
  O  O6  1  0.99473598  0.23107699  0.68854700  1
  O  O7  1  0.54252996  0.30618898  0.31145298  1
  O  O8  1  0.06814590  0.72710596  0.79525193  1
  O  O9  1  0.93185397  0.27289398  0.20474798  1
