# generated using pymatgen
data_Sr4Bi3
_symmetry_space_group_name_H-M   'P 1'
_cell_length_a   8.53539848
_cell_length_b   8.53539848
_cell_length_c   8.53539848
_cell_angle_alpha   70.79492950
_cell_angle_beta   70.39553833
_cell_angle_gamma   109.60446167
_symmetry_Int_Tables_number   1
_chemical_formula_structural   Sr4Bi3
_chemical_formula_sum   'Sr8 Bi6'
_cell_volume   478.67689404
_cell_formula_units_Z   2
loop_
 _symmetry_equiv_pos_site_id
 _symmetry_equiv_pos_as_xyz
  1  'x, y, z'
loop_
 _atom_site_type_symbol
 _atom_site_label
 _atom_site_symmetry_multiplicity
 _atom_site_fract_x
 _atom_site_fract_y
 _atom_site_fract_z
 _atom_site_occupancy
  Sr  Sr0  1  0.24983306  0.87893405  0.72970792  1
  Sr  Sr1  1  0.75016701  0.02045900  0.37089899  1
  Sr  Sr2  1  0.10864202  0.22954101  0.52029198  1
  Sr  Sr3  1  0.89135803  0.37106602  0.87910096  1
  Sr  Sr4  1  0.74983304  0.52029203  0.37106594  1
  Sr  Sr5  1  0.25016706  0.87910105  0.22954091  1
  Sr  Sr6  1  0.60864205  0.72970804  0.02045892  1
  Sr  Sr7  1  0.39135803  0.37089902  0.87893396  1
  Bi  Bi8  1  0.50000002  0.25000001  0.24999997  1
  Bi  Bi9  1  0.00000000  0.00000000  0.00000000  1
  Bi  Bi10  1  0.62593201  0.12500001  0.74906798  1
  Bi  Bi11  1  0.37406804  0.62500003  0.50093194  1
  Bi  Bi12  1  0.87406805  0.74906804  0.62499992  1
  Bi  Bi13  1  0.12593203  0.50093203  0.12499995  1
