# generated using pymatgen
data_CeSi2
_symmetry_space_group_name_H-M   'P 1'
_cell_length_a   4.17782402
_cell_length_b   6.78575993
_cell_length_c   8.02690220
_cell_angle_alpha   90.00000000
_cell_angle_beta   90.00000000
_cell_angle_gamma   90.00000000
_symmetry_Int_Tables_number   1
_chemical_formula_structural   CeSi2
_chemical_formula_sum   'Ce4 Si8'
_cell_volume   227.56035607
_cell_formula_units_Z   4
loop_
 _symmetry_equiv_pos_site_id
 _symmetry_equiv_pos_as_xyz
  1  'x, y, z'
loop_
 _atom_site_type_symbol
 _atom_site_label
 _atom_site_symmetry_multiplicity
 _atom_site_fract_x
 _atom_site_fract_y
 _atom_site_fract_z
 _atom_site_occupancy
  Ce  Ce0  1  0.25000000  0.53120801  0.18230500  1
  Ce  Ce1  1  0.75000000  0.46879201  0.81769498  1
  Ce  Ce2  1  0.75000000  0.96879201  0.68230498  1
  Ce  Ce3  1  0.25000000  0.03120800  0.31769499  1
  Si  Si4  1  0.25000000  0.64420101  0.56235099  1
  Si  Si5  1  0.75000000  0.35579900  0.43764899  1
  Si  Si6  1  0.75000000  0.85579901  0.06235100  1
  Si  Si7  1  0.25000000  0.14420100  0.93764898  1
  Si  Si8  1  0.25000000  0.75512101  0.87775498  1
  Si  Si9  1  0.75000000  0.24487900  0.12224500  1
  Si  Si10  1  0.75000000  0.74487901  0.37775499  1
  Si  Si11  1  0.25000000  0.25512100  0.62224498  1
