# generated using pymatgen
data_Ba3Ti(RuO4)2
_symmetry_space_group_name_H-M   'P 1'
_cell_length_a   5.68969011
_cell_length_b   5.79512930
_cell_length_c   7.04239416
_cell_angle_alpha   91.48356628
_cell_angle_beta   90.00000000
_cell_angle_gamma   119.39993286
_symmetry_Int_Tables_number   1
_chemical_formula_structural   Ba3Ti(RuO4)2
_chemical_formula_sum   'Ba3 Ti1 Ru2 O8'
_cell_volume   202.21122404
_cell_formula_units_Z   1
loop_
 _symmetry_equiv_pos_site_id
 _symmetry_equiv_pos_as_xyz
  1  'x, y, z'
loop_
 _atom_site_type_symbol
 _atom_site_label
 _atom_site_symmetry_multiplicity
 _atom_site_fract_x
 _atom_site_fract_y
 _atom_site_fract_z
 _atom_site_occupancy
  Ba  Ba0  1  0.33452897  0.66905800  0.16731098  1
  Ba  Ba1  1  0.66547098  0.33094200  0.83268901  1
  Ba  Ba2  1  0.00000000  0.00000000  0.50000001  1
  Ti  Ti3  1  0.31768697  0.63537400  0.68403199  1
  Ru  Ru4  1  0.68231297  0.36462600  0.31596799  1
  Ru  Ru5  1  0.00000000  0.00000000  0.00000000  1
  O  O6  1  0.33527399  0.16282900  0.17286900  1
  O  O7  1  0.49999997  0.50000000  0.49999999  1
  O  O8  1  0.82755498  0.16282900  0.17286900  1
  O  O9  1  -0.00000002  0.50000000  0.49999999  1
  O  O10  1  0.66472596  0.83717100  0.82713099  1
  O  O11  1  0.83355696  0.66711400  0.16139698  1
  O  O12  1  0.17244497  0.83717100  0.82713099  1
  O  O13  1  0.16644298  0.33288600  0.83860301  1
