# generated using pymatgen
data_SrLi(H3O4)2
_symmetry_space_group_name_H-M   'P 1'
_cell_length_a   5.11684179
_cell_length_b   5.11684179
_cell_length_c   6.87598848
_cell_angle_alpha   111.84397888
_cell_angle_beta   111.84397888
_cell_angle_gamma   90.00000000
_symmetry_Int_Tables_number   1
_chemical_formula_structural   SrLi(H3O4)2
_chemical_formula_sum   'Sr1 Li1 H6 O8'
_cell_volume   153.08830157
_cell_formula_units_Z   1
loop_
 _symmetry_equiv_pos_site_id
 _symmetry_equiv_pos_as_xyz
  1  'x, y, z'
loop_
 _atom_site_type_symbol
 _atom_site_label
 _atom_site_symmetry_multiplicity
 _atom_site_fract_x
 _atom_site_fract_y
 _atom_site_fract_z
 _atom_site_occupancy
  Sr  Sr0  1  0.24999996  0.75000000  0.49999993  1
  Li  Li1  1  0.00000000  0.00000000  0.00000000  1
  H  H2  1  0.01018097  0.51018100  0.02036196  1
  H  H3  1  0.48981895  0.98981901  0.97963790  1
  H  H4  1  0.52101098  0.44029100  0.21614294  1
  H  H5  1  0.22414797  0.47898900  0.78385695  1
  H  H6  1  0.55970899  0.30486800  0.78385694  1
  H  H7  1  0.69513196  0.77585200  0.21614291  1
  O  O8  1  0.41047599  0.27590400  0.33589696  1
  O  O9  1  0.94000698  0.58952400  0.66410290  1
  O  O10  1  0.72409601  0.07457900  0.66410295  1
  O  O11  1  0.92542101  0.05999300  0.33589695  1
  O  O12  1  0.33765898  0.33579500  0.20005696  1
  O  O13  1  0.13573796  0.66234100  0.79994294  1
  O  O14  1  0.66420500  0.13760200  0.79994295  1
  O  O15  1  0.86239796  0.86426200  0.20005689  1
