# generated using pymatgen
data_CeGe2
_symmetry_space_group_name_H-M   'P 1'
_cell_length_a   4.44504595
_cell_length_b   7.51124620
_cell_length_c   11.49385262
_cell_angle_alpha   109.07167053
_cell_angle_beta   101.14929962
_cell_angle_gamma   90.00000000
_symmetry_Int_Tables_number   1
_chemical_formula_structural   CeGe2
_chemical_formula_sum   'Ce6 Ge12'
_cell_volume   355.01856095
_cell_formula_units_Z   6
loop_
 _symmetry_equiv_pos_site_id
 _symmetry_equiv_pos_as_xyz
  1  'x, y, z'
loop_
 _atom_site_type_symbol
 _atom_site_label
 _atom_site_symmetry_multiplicity
 _atom_site_fract_x
 _atom_site_fract_y
 _atom_site_fract_z
 _atom_site_occupancy
  Ce  Ce0  1  0.00000001  0.53720099  0.00000002  1
  Ce  Ce1  1  0.50000002  0.94975799  0.00000003  1
  Ce  Ce2  1  0.33601502  0.88097899  0.67203100  1
  Ce  Ce3  1  0.66398401  0.20894800  0.32796799  1
  Ce  Ce4  1  0.16872901  0.61377999  0.33745801  1
  Ce  Ce5  1  0.83127101  0.27632200  0.66254198  1
  Ge  Ge6  1  0.93763701  0.09459700  0.87527497  1
  Ge  Ge7  1  0.23096300  0.06385000  0.46192598  1
  Ge  Ge8  1  0.06236200  0.21932200  0.12472400  1
  Ge  Ge9  1  0.60121202  0.76054999  0.20242402  1
  Ge  Ge10  1  0.39878901  0.55812699  0.79757699  1
  Ge  Ge11  1  0.76903802  0.60192499  0.53807500  1
  Ge  Ge12  1  0.42906901  0.26106300  0.85813798  1
  Ge  Ge13  1  0.57093101  0.40292500  0.14186201  1
  Ge  Ge14  1  0.10412002  0.93134199  0.20824002  1
  Ge  Ge15  1  0.73043502  0.89073699  0.46086901  1
  Ge  Ge16  1  0.89588002  0.72310199  0.79175999  1
  Ge  Ge17  1  0.26956601  0.42986800  0.53913199  1
