# generated using pymatgen
data_MnFe12
_symmetry_space_group_name_H-M   'P 1'
_cell_length_a   4.97837210
_cell_length_b   6.46111774
_cell_length_c   6.47991467
_cell_angle_alpha   80.18041992
_cell_angle_beta   67.85163879
_cell_angle_gamma   67.89008331
_symmetry_Int_Tables_number   1
_chemical_formula_structural   MnFe12
_chemical_formula_sum   'Mn1 Fe12'
_cell_volume   178.75585663
_cell_formula_units_Z   1
loop_
 _symmetry_equiv_pos_site_id
 _symmetry_equiv_pos_as_xyz
  1  'x, y, z'
loop_
 _atom_site_type_symbol
 _atom_site_label
 _atom_site_symmetry_multiplicity
 _atom_site_fract_x
 _atom_site_fract_y
 _atom_site_fract_z
 _atom_site_occupancy
  Mn  Mn0  1  0.00000000  0.00000000  0.00000000  1
  Fe  Fe1  1  0.67520487  0.82888503  0.82390207  1
  Fe  Fe2  1  0.32479497  0.17111501  0.17609802  1
  Fe  Fe3  1  0.00312691  0.66652902  0.33747005  1
  Fe  Fe4  1  0.99687293  0.33347101  0.66253004  1
  Fe  Fe5  1  0.66186494  0.33846201  0.34373104  1
  Fe  Fe6  1  0.33813490  0.66153802  0.65626905  1
  Fe  Fe7  1  0.49999998  0.00000000  0.50000001  1
  Fe  Fe8  1  -0.00000006  0.50000002  0.00000004  1
  Fe  Fe9  1  0.49999992  0.50000002  0.00000005  1
  Fe  Fe10  1  0.48898095  0.24775501  0.75782802  1
  Fe  Fe11  1  0.51101889  0.75224503  0.24217207  1
  Fe  Fe12  1  0.00000000  0.00000000  0.49999999  1
