# generated using pymatgen
data_BaLaGeO6
_symmetry_space_group_name_H-M   'P 1'
_cell_length_a   7.43514824
_cell_length_b   7.43619061
_cell_length_c   7.52080154
_cell_angle_alpha   119.59401703
_cell_angle_beta   90.00000000
_cell_angle_gamma   119.99536133
_symmetry_Int_Tables_number   1
_chemical_formula_structural   BaLaGeO6
_chemical_formula_sum   'Ba2 La2 Ge2 O12'
_cell_volume   295.84027186
_cell_formula_units_Z   2
loop_
 _symmetry_equiv_pos_site_id
 _symmetry_equiv_pos_as_xyz
  1  'x, y, z'
loop_
 _atom_site_type_symbol
 _atom_site_label
 _atom_site_symmetry_multiplicity
 _atom_site_fract_x
 _atom_site_fract_y
 _atom_site_fract_z
 _atom_site_occupancy
  Ba  Ba0  1  0.10947200  0.27468702  0.88915404  1
  Ba  Ba1  1  0.83478499  0.72531304  0.11084606  1
  La  La2  1  0.49750598  0.00000000  1.00000002  1
  La  La3  1  0.49718499  0.50028503  0.49966405  1
  Ge  Ge4  1  0.99689998  0.49971503  0.50033605  1
  Ge  Ge5  1  0.49796798  0.00000000  0.50000001  1
  O  O6  1  0.80768098  0.61673504  0.55529506  1
  O  O7  1  0.43884100  0.87462005  0.20006307  1
  O  O8  1  0.43866299  0.26538702  0.20032603  1
  O  O9  1  0.80739798  0.24629601  0.55456903  1
  O  O10  1  0.82434698  0.26259701  0.20021602  1
  O  O11  1  0.43882899  0.24769901  0.55606903  1
  O  O12  1  0.19094600  0.38326502  0.44470504  1
  O  O13  1  0.56422098  0.12538001  0.79993703  1
  O  O14  1  0.56174999  0.73740304  0.79978408  1
  O  O15  1  0.19113001  0.75230104  0.44393107  1
  O  O16  1  0.17327601  0.73461304  0.79967408  1
  O  O17  1  0.56110199  0.75370404  0.44543107  1
