# generated using pymatgen
data_Li3CoS3
_symmetry_space_group_name_H-M   'P 1'
_cell_length_a   7.01464224
_cell_length_b   7.01464224
_cell_length_c   7.01464224
_cell_angle_alpha   60.00000000
_cell_angle_beta   60.00000000
_cell_angle_gamma   60.00000000
_symmetry_Int_Tables_number   1
_chemical_formula_structural   Li3CoS3
_chemical_formula_sum   'Li6 Co2 S6'
_cell_volume   244.06279483
_cell_formula_units_Z   2
loop_
 _symmetry_equiv_pos_site_id
 _symmetry_equiv_pos_as_xyz
  1  'x, y, z'
loop_
 _atom_site_type_symbol
 _atom_site_label
 _atom_site_symmetry_multiplicity
 _atom_site_fract_x
 _atom_site_fract_y
 _atom_site_fract_z
 _atom_site_occupancy
  Li  Li0  1  0.00000000  0.00000000  0.00000000  1
  Li  Li1  1  0.74999999  0.74999999  0.74999999  1
  Li  Li2  1  0.87499998  0.37499999  0.37499999  1
  Li  Li3  1  0.37499999  0.87499998  0.37499999  1
  Li  Li4  1  0.37499999  0.37499999  0.87499998  1
  Li  Li5  1  0.37499999  0.37499999  0.37499999  1
  Co  Co6  1  0.61456799  0.15629800  0.61456699  1
  Co  Co7  1  0.15629900  0.61456699  0.61456699  1
  S  S8  1  0.59370099  0.13543300  0.13543300  1
  S  S9  1  0.13543200  0.59370199  0.13543300  1
  S  S10  1  0.61456799  0.61456699  0.61456699  1
  S  S11  1  0.61456799  0.61456699  0.15629800  1
  S  S12  1  0.13543200  0.13543300  0.59370199  1
  S  S13  1  0.13543200  0.13543300  0.13543300  1
