# generated using pymatgen
data_Li3CoO4
_symmetry_space_group_name_H-M   'P 1'
_cell_length_a   5.85488749
_cell_length_b   5.87466431
_cell_length_c   5.86962557
_cell_angle_alpha   119.40541840
_cell_angle_beta   90.00000763
_cell_angle_gamma   119.88869476
_symmetry_Int_Tables_number   1
_chemical_formula_structural   Li3CoO4
_chemical_formula_sum   'Li6 Co2 O8'
_cell_volume   144.26399458
_cell_formula_units_Z   2
loop_
 _symmetry_equiv_pos_site_id
 _symmetry_equiv_pos_as_xyz
  1  'x, y, z'
loop_
 _atom_site_type_symbol
 _atom_site_label
 _atom_site_symmetry_multiplicity
 _atom_site_fract_x
 _atom_site_fract_y
 _atom_site_fract_z
 _atom_site_occupancy
  Li  Li0  1  0.50000003  0.50000004  0.50000002  1
  Li  Li1  1  0.00000000  0.00000000  0.49999998  1
  Li  Li2  1  0.00000003  0.50000004  0.50000002  1
  Li  Li3  1  0.50000000  0.00000000  0.00000001  1
  Li  Li4  1  0.50000000  0.00000000  0.49999999  1
  Li  Li5  1  0.00000000  0.00000000  0.00000000  1
  Co  Co6  1  0.50000003  0.50000004  0.00000004  1
  Co  Co7  1  0.00000003  0.50000004  0.00000003  1
  O  O8  1  0.25925203  0.51850405  0.77926601  1
  O  O9  1  0.74320006  0.99892109  0.75511105  1
  O  O10  1  0.25572206  0.99892109  0.75511104  1
  O  O11  1  0.75099104  0.50198204  0.77552201  1
  O  O12  1  0.24900903  0.49801804  0.22447803  1
  O  O13  1  0.74427801  0.00107900  0.24488900  1
  O  O14  1  0.25680000  0.00107900  0.24488899  1
  O  O15  1  0.74074804  0.48149604  0.22073403  1
