# generated using pymatgen
data_Cs2NaCuCl6
_symmetry_space_group_name_H-M   'P 1'
_cell_length_a   7.37227583
_cell_length_b   7.37227535
_cell_length_c   7.37227535
_cell_angle_alpha   60.00000000
_cell_angle_beta   59.99999619
_cell_angle_gamma   60.00000381
_symmetry_Int_Tables_number   1
_chemical_formula_structural   Cs2NaCuCl6
_chemical_formula_sum   'Cs2 Na1 Cu1 Cl6'
_cell_volume   283.32811559
_cell_formula_units_Z   1
loop_
 _symmetry_equiv_pos_site_id
 _symmetry_equiv_pos_as_xyz
  1  'x, y, z'
loop_
 _atom_site_type_symbol
 _atom_site_label
 _atom_site_symmetry_multiplicity
 _atom_site_fract_x
 _atom_site_fract_y
 _atom_site_fract_z
 _atom_site_occupancy
  Cs  Cs0  1  0.75000001  0.75000002  0.74999999  1
  Cs  Cs1  1  0.25000000  0.25000001  0.25000000  1
  Na  Na2  1  0.00000000  0.00000000  0.00000000  1
  Cu  Cu3  1  0.50000000  0.50000001  0.49999999  1
  Cl  Cl4  1  0.26227701  0.73772302  0.73772298  1
  Cl  Cl5  1  0.73772301  0.73772302  0.26227699  1
  Cl  Cl6  1  0.73772299  0.26227701  0.26227700  1
  Cl  Cl7  1  0.26227701  0.73772302  0.26227699  1
  Cl  Cl8  1  0.73772299  0.26227701  0.73772299  1
  Cl  Cl9  1  0.26227700  0.26227701  0.73772299  1
