# generated using pymatgen
data_Mg
_symmetry_space_group_name_H-M   'P 1'
_cell_length_a   3.12340999
_cell_length_b   4.97807503
_cell_length_c   8.01159096
_cell_angle_alpha   90.00000000
_cell_angle_beta   101.24067688
_cell_angle_gamma   90.00000000
_symmetry_Int_Tables_number   1
_chemical_formula_structural   Mg
_chemical_formula_sum   Mg6
_cell_volume   122.17917553
_cell_formula_units_Z   6
loop_
 _symmetry_equiv_pos_site_id
 _symmetry_equiv_pos_as_xyz
  1  'x, y, z'
loop_
 _atom_site_type_symbol
 _atom_site_label
 _atom_site_symmetry_multiplicity
 _atom_site_fract_x
 _atom_site_fract_y
 _atom_site_fract_z
 _atom_site_occupancy
  Mg  Mg0  1  0.00083300  0.50000000  0.00166600  1
  Mg  Mg1  1  0.66697901  0.50000000  0.33395802  1
  Mg  Mg2  1  0.33358400  0.50000000  0.66716803  1
  Mg  Mg3  1  0.55502401  0.00000000  0.11004801  1
  Mg  Mg4  1  0.88908801  0.00000000  0.77817604  1
  Mg  Mg5  1  0.22115000  0.99999999  0.44230002  1
