# generated using pymatgen
data_K3LiNb3S5
_symmetry_space_group_name_H-M   'P 1'
_cell_length_a   5.09981012
_cell_length_b   5.09981012
_cell_length_c   13.70841694
_cell_angle_alpha   100.72003174
_cell_angle_beta   100.72003174
_cell_angle_gamma   90.00000000
_symmetry_Int_Tables_number   1
_chemical_formula_structural   K3LiNb3S5
_chemical_formula_sum   'K3 Li1 Nb3 S5'
_cell_volume   343.97241148
_cell_formula_units_Z   1
loop_
 _symmetry_equiv_pos_site_id
 _symmetry_equiv_pos_as_xyz
  1  'x, y, z'
loop_
 _atom_site_type_symbol
 _atom_site_label
 _atom_site_symmetry_multiplicity
 _atom_site_fract_x
 _atom_site_fract_y
 _atom_site_fract_z
 _atom_site_occupancy
  K  K0  1  0.18308499  0.18308499  0.36616999  1
  K  K1  1  0.81691496  0.81691497  0.63382996  1
  K  K2  1  0.00000000  0.00000000  0.00000000  1
  Li  Li3  1  0.40161598  0.40161599  0.80323197  1
  Nb  Nb4  1  0.59838397  0.59838398  0.19676798  1
  Nb  Nb5  1  0.40403698  0.90403697  0.80807396  1
  Nb  Nb6  1  0.90403697  0.40403699  0.80807396  1
  S  S7  1  0.59596298  0.09596300  0.19192599  1
  S  S8  1  0.09596299  0.59596298  0.19192599  1
  S  S9  1  0.69278697  0.69278698  0.38557397  1
  S  S10  1  0.49999998  0.49999998  -0.00000001  1
  S  S11  1  0.30721299  0.30721299  0.61442598  1
