# generated using pymatgen
data_Sr2LaNbO6
_symmetry_space_group_name_H-M   'P 1'
_cell_length_a   6.06131124
_cell_length_b   6.10939407
_cell_length_c   8.58579922
_cell_angle_alpha   89.82239532
_cell_angle_beta   90.15422058
_cell_angle_gamma   89.97402191
_symmetry_Int_Tables_number   1
_chemical_formula_structural   Sr2LaNbO6
_chemical_formula_sum   'Sr4 La2 Nb2 O12'
_cell_volume   317.93749394
_cell_formula_units_Z   2
loop_
 _symmetry_equiv_pos_site_id
 _symmetry_equiv_pos_as_xyz
  1  'x, y, z'
loop_
 _atom_site_type_symbol
 _atom_site_label
 _atom_site_symmetry_multiplicity
 _atom_site_fract_x
 _atom_site_fract_y
 _atom_site_fract_z
 _atom_site_occupancy
  Sr  Sr0  1  0.49384805  0.52805587  0.75000324  1
  Sr  Sr1  1  0.50615191  0.47194415  0.24999678  1
  Sr  Sr2  1  0.00707910  0.03335816  0.74949552  1
  Sr  Sr3  1  0.99292086  0.96664186  0.25050450  1
  La  La4  1  0.99999997  0.50000001  -0.00000002  1
  La  La5  1  0.49999999  0.00000000  0.49999999  1
  Nb  Nb6  1  0.49999999  0.00000000  -0.00000002  1
  Nb  Nb7  1  0.99999997  0.50000001  0.49999999  1
  O  O8  1  0.77843428  0.20354949  0.04620801  1
  O  O9  1  0.72504900  0.70884093  0.46645843  1
  O  O10  1  0.22156568  0.79645053  0.95379201  1
  O  O11  1  0.27495096  0.29115909  0.53354158  1
  O  O12  1  0.70755329  0.72581825  0.03695587  1
  O  O13  1  0.79852579  0.22074238  0.45420867  1
  O  O14  1  0.29244667  0.27418177  0.96304414  1
  O  O15  1  0.20147417  0.77925763  0.54579135  1
  O  O16  1  0.58715878  0.99062780  0.75956531  1
  O  O17  1  0.93217914  0.46309643  0.74103095  1
  O  O18  1  0.41284118  0.00937222  0.24043471  1
  O  O19  1  0.06782082  0.53690359  0.25896907  1
