# generated using pymatgen
data_Be2W
_symmetry_space_group_name_H-M   'P 1'
_cell_length_a   4.00882006
_cell_length_b   4.00882101
_cell_length_c   5.09322691
_cell_angle_alpha   90.00000000
_cell_angle_beta   90.00000000
_cell_angle_gamma   119.99999237
_symmetry_Int_Tables_number   1
_chemical_formula_structural   Be2W
_chemical_formula_sum   'Be4 W2'
_cell_volume   70.88542027
_cell_formula_units_Z   2
loop_
 _symmetry_equiv_pos_site_id
 _symmetry_equiv_pos_as_xyz
  1  'x, y, z'
loop_
 _atom_site_type_symbol
 _atom_site_label
 _atom_site_symmetry_multiplicity
 _atom_site_fract_x
 _atom_site_fract_y
 _atom_site_fract_z
 _atom_site_occupancy
  Be  Be0  1  0.00000000  0.00000000  0.50000001  1
  Be  Be1  1  0.00000000  0.00000000  0.00000000  1
  Be  Be2  1  0.66666666  0.33333332  0.75000001  1
  Be  Be3  1  0.33333333  0.66666665  0.25000000  1
  W  W4  1  0.66666666  0.33333332  0.25000000  1
  W  W5  1  0.33333333  0.66666665  0.75000001  1
