# generated using pymatgen
data_La2In2Pd3
_symmetry_space_group_name_H-M   'P 1'
_cell_length_a   7.67224789
_cell_length_b   7.67224789
_cell_length_c   7.67224789
_cell_angle_alpha   107.59292603
_cell_angle_beta   107.59292603
_cell_angle_gamma   113.29688263
_symmetry_Int_Tables_number   1
_chemical_formula_structural   La2In2Pd3
_chemical_formula_sum   'La4 In4 Pd6'
_cell_volume   346.48234349
_cell_formula_units_Z   2
loop_
 _symmetry_equiv_pos_site_id
 _symmetry_equiv_pos_as_xyz
  1  'x, y, z'
loop_
 _atom_site_type_symbol
 _atom_site_label
 _atom_site_symmetry_multiplicity
 _atom_site_fract_x
 _atom_site_fract_y
 _atom_site_fract_z
 _atom_site_occupancy
  La  La0  1  0.24999999  0.24999999  0.99999995  1
  La  La1  1  0.74999997  0.74999997  0.99999989  1
  La  La2  1  0.14140300  0.35859699  0.49999996  1
  In  In3  1  0.64140298  0.14140299  0.78280594  1
  In  In4  1  0.35859699  0.85859697  0.21719392  1
  La  La5  1  0.85859697  0.64140298  0.49999989  1
  In  In6  1  0.31736299  0.81736297  0.80451791  1
  Pd  Pd7  1  0.51284498  0.31736399  0.49999994  1
  In  In8  1  0.01284500  0.51284498  0.19548196  1
  Pd  Pd9  1  0.81736297  0.01284400  0.49999994  1
  Pd  Pd10  1  0.48715498  0.68263598  0.49999992  1
  Pd  Pd11  1  0.98715496  0.48715498  0.80451789  1
  Pd  Pd12  1  0.68263697  0.18263699  0.19548194  1
  Pd  Pd13  1  0.18263700  0.98715596  0.49999992  1
