# generated using pymatgen
data_Y2BiS3
_symmetry_space_group_name_H-M   'P 1'
_cell_length_a   4.13758898
_cell_length_b   4.13758898
_cell_length_c   8.37903690
_cell_angle_alpha   90.00000000
_cell_angle_beta   90.00000000
_cell_angle_gamma   90.00000000
_symmetry_Int_Tables_number   1
_chemical_formula_structural   Y2BiS3
_chemical_formula_sum   'Y2 Bi1 S3'
_cell_volume   143.44611669
_cell_formula_units_Z   1
loop_
 _symmetry_equiv_pos_site_id
 _symmetry_equiv_pos_as_xyz
  1  'x, y, z'
loop_
 _atom_site_type_symbol
 _atom_site_label
 _atom_site_symmetry_multiplicity
 _atom_site_fract_x
 _atom_site_fract_y
 _atom_site_fract_z
 _atom_site_occupancy
  Y  Y0  1  0.00000000  0.50000000  0.69740401  1
  Y  Y1  1  0.50000000  0.00000000  0.30259600  1
  Bi  Bi2  1  0.50000000  0.50000000  -0.00000000  1
  S  S3  1  0.00000000  0.00000000  0.00000000  1
  S  S4  1  0.00000000  0.50000000  0.35556000  1
  S  S5  1  0.50000000  0.00000000  0.64444001  1
