# generated using pymatgen
data_LiMnO2
_symmetry_space_group_name_H-M   'P 1'
_cell_length_a   6.15600872
_cell_length_b   6.15804911
_cell_length_c   6.22857285
_cell_angle_alpha   60.76424026
_cell_angle_beta   88.47090912
_cell_angle_gamma   118.59850311
_symmetry_Int_Tables_number   1
_chemical_formula_structural   LiMnO2
_chemical_formula_sum   'Li4 Mn4 O8'
_cell_volume   170.12833841
_cell_formula_units_Z   4
loop_
 _symmetry_equiv_pos_site_id
 _symmetry_equiv_pos_as_xyz
  1  'x, y, z'
loop_
 _atom_site_type_symbol
 _atom_site_label
 _atom_site_symmetry_multiplicity
 _atom_site_fract_x
 _atom_site_fract_y
 _atom_site_fract_z
 _atom_site_occupancy
  Li  Li0  1  0.99986404  0.49997902  0.50026902  1
  Li  Li1  1  0.49973506  0.99975704  0.00028498  1
  Li  Li2  1  0.99984604  0.49997202  0.00019100  1
  Li  Li3  1  0.50018503  0.49984502  0.49981201  1
  Mn  Mn4  1  0.00057000  0.00029700  0.49984901  1
  Mn  Mn5  1  0.50039501  0.00025400  0.49968502  1
  Mn  Mn6  1  0.00005900  0.00053500  0.99958103  1
  Mn  Mn7  1  0.49990503  0.50000502  0.99988402  1
  O  O8  1  0.74175703  0.51137102  0.74616402  1
  O  O9  1  0.25814903  0.48857902  0.25379600  1
  O  O10  1  0.25097000  0.01615900  0.73426002  1
  O  O11  1  0.74906606  0.98344204  0.26616699  1
  O  O12  1  0.26740300  0.02093100  0.23247701  1
  O  O13  1  0.74677303  0.50010302  0.23226500  1
  O  O14  1  0.25297803  0.49985902  0.76759801  1
  O  O15  1  0.73234506  0.97891404  0.76771700  1
