# generated using pymatgen
data_BaSr3Bi3TeO8
_symmetry_space_group_name_H-M   'P 1'
_cell_length_a   3.98710918
_cell_length_b   3.98710918
_cell_length_c   16.03831482
_cell_angle_alpha   90.00000000
_cell_angle_beta   90.00000000
_cell_angle_gamma   89.99524689
_symmetry_Int_Tables_number   1
_chemical_formula_structural   BaSr3Bi3TeO8
_chemical_formula_sum   'Ba1 Sr3 Bi3 Te1 O8'
_cell_volume   254.96172568
_cell_formula_units_Z   1
loop_
 _symmetry_equiv_pos_site_id
 _symmetry_equiv_pos_as_xyz
  1  'x, y, z'
loop_
 _atom_site_type_symbol
 _atom_site_label
 _atom_site_symmetry_multiplicity
 _atom_site_fract_x
 _atom_site_fract_y
 _atom_site_fract_z
 _atom_site_occupancy
  Ba  Ba0  1  0.50798703  0.49201301  0.34935700  1
  Sr  Sr1  1  0.50798703  0.49201301  0.65064301  1
  Sr  Sr2  1  0.01362004  0.98638002  0.50000001  1
  Sr  Sr3  1  0.00167704  0.99832302  0.22150600  1
  Bi  Bi4  1  0.00167704  0.99832302  0.77849401  1
  Bi  Bi5  1  0.50026403  0.49973601  0.11919000  1
  Bi  Bi6  1  0.50026403  0.49973601  0.88081001  1
  Te  Te7  1  0.00056804  0.99943202  1.00000001  1
  O  O8  1  0.01275504  0.98724502  0.37623200  1
  O  O9  1  0.01275504  0.98724502  0.62376801  1
  O  O10  1  0.50124905  0.99926602  0.21065000  1
  O  O11  1  0.00073402  0.49875101  0.21065000  1
  O  O12  1  0.50124905  0.99926602  0.78935001  1
  O  O13  1  0.00073402  0.49875101  0.78935001  1
  O  O14  1  0.51635005  0.97687102  0.50000001  1
  O  O15  1  0.02312902  0.48365001  0.50000001  1
