# generated using pymatgen
data_BaTlAu
_symmetry_space_group_name_H-M   'P 1'
_cell_length_a   4.94864702
_cell_length_b   8.23367786
_cell_length_c   8.69123840
_cell_angle_alpha   90.00000000
_cell_angle_beta   90.00000000
_cell_angle_gamma   90.00000000
_symmetry_Int_Tables_number   1
_chemical_formula_structural   BaTlAu
_chemical_formula_sum   'Ba4 Tl4 Au4'
_cell_volume   354.12942315
_cell_formula_units_Z   4
loop_
 _symmetry_equiv_pos_site_id
 _symmetry_equiv_pos_as_xyz
  1  'x, y, z'
loop_
 _atom_site_type_symbol
 _atom_site_label
 _atom_site_symmetry_multiplicity
 _atom_site_fract_x
 _atom_site_fract_y
 _atom_site_fract_z
 _atom_site_occupancy
  Ba  Ba0  1  0.75000000  0.49688301  0.70859097  1
  Ba  Ba1  1  0.25000000  0.50311701  0.29140899  1
  Ba  Ba2  1  0.75000000  0.99688302  0.79140896  1
  Ba  Ba3  1  0.25000000  0.00311700  0.20859099  1
  Tl  Tl4  1  0.75000000  0.33708501  0.07490700  1
  Tl  Tl5  1  0.25000000  0.66291501  0.92509296  1
  Tl  Tl6  1  0.75000000  0.83708501  0.42509298  1
  Tl  Tl7  1  0.25000000  0.16291500  0.57490697  1
  Au  Au8  1  0.75000000  0.72377301  0.09381300  1
  Au  Au9  1  0.25000000  0.27622700  0.90618696  1
  Au  Au10  1  0.75000000  0.22377300  0.40618698  1
  Au  Au11  1  0.25000000  0.77622701  0.59381297  1
