# generated using pymatgen
data_Li6CoS7
_symmetry_space_group_name_H-M   'P 1'
_cell_length_a   7.36724377
_cell_length_b   7.47417116
_cell_length_c   7.47420883
_cell_angle_alpha   119.62583923
_cell_angle_beta   119.52706146
_cell_angle_gamma   60.47448730
_symmetry_Int_Tables_number   1
_chemical_formula_structural   Li6CoS7
_chemical_formula_sum   'Li6 Co1 S7'
_cell_volume   293.91484339
_cell_formula_units_Z   1
loop_
 _symmetry_equiv_pos_site_id
 _symmetry_equiv_pos_as_xyz
  1  'x, y, z'
loop_
 _atom_site_type_symbol
 _atom_site_label
 _atom_site_symmetry_multiplicity
 _atom_site_fract_x
 _atom_site_fract_y
 _atom_site_fract_z
 _atom_site_occupancy
  Li  Li0  1  0.12571604  0.62426900  0.87576506  1
  Li  Li1  1  0.87421505  0.37577400  0.12426106  1
  Li  Li2  1  0.00014505  0.99983100  0.49981407  1
  Li  Li3  1  0.49997307  0.99999100  0.49997509  1
  Li  Li4  1  0.50002304  0.50001400  0.50004506  1
  Li  Li5  1  0.49996402  0.00003200  0.00002902  1
  S  S6  1  0.25086002  0.21719400  0.71892704  1
  Co  Co7  1  0.27791102  0.22914700  0.27093903  1
  S  S8  1  0.76387104  0.22911800  0.27091606  1
  S  S9  1  0.74915704  0.21890300  0.71718707  1
  S  S10  1  0.23612205  0.77089500  0.72911207  1
  S  S11  1  0.25088305  0.78105900  0.28280506  1
  S  S12  1  0.74911707  0.78281400  0.28108108  1
  S  S13  1  0.72204106  0.77095900  0.72914710  1
