# generated using pymatgen
data_SmSi3
_symmetry_space_group_name_H-M   'P 1'
_cell_length_a   4.05226994
_cell_length_b   5.54406500
_cell_length_c   6.88461113
_cell_angle_alpha   90.00000000
_cell_angle_beta   90.00000000
_cell_angle_gamma   111.43590546
_symmetry_Int_Tables_number   1
_chemical_formula_structural   SmSi3
_chemical_formula_sum   'Sm2 Si6'
_cell_volume   143.97101170
_cell_formula_units_Z   2
loop_
 _symmetry_equiv_pos_site_id
 _symmetry_equiv_pos_as_xyz
  1  'x, y, z'
loop_
 _atom_site_type_symbol
 _atom_site_label
 _atom_site_symmetry_multiplicity
 _atom_site_fract_x
 _atom_site_fract_y
 _atom_site_fract_z
 _atom_site_occupancy
  Sm  Sm0  1  0.05988800  0.11977599  0.25000000  1
  Sm  Sm1  1  0.94011199  0.88022396  0.74999999  1
  Si  Si2  1  0.34088898  0.68177797  0.05486700  1
  Si  Si3  1  0.65911100  0.31822198  0.94513298  1
  Si  Si4  1  0.65911100  0.31822198  0.55486699  1
  Si  Si5  1  0.34088898  0.68177797  0.44513299  1
  Si  Si6  1  0.78343399  0.56686797  0.25000000  1
  Si  Si7  1  0.21656599  0.43313198  0.74999999  1
