# generated using pymatgen
data_Sr(MgSi2)2
_symmetry_space_group_name_H-M   'P 1'
_cell_length_a   4.12558460
_cell_length_b   4.12558460
_cell_length_c   8.98203564
_cell_angle_alpha   76.72309113
_cell_angle_beta   76.72309113
_cell_angle_gamma   59.99999237
_symmetry_Int_Tables_number   1
_chemical_formula_structural   Sr(MgSi2)2
_chemical_formula_sum   'Sr1 Mg2 Si4'
_cell_volume   127.65631724
_cell_formula_units_Z   1
loop_
 _symmetry_equiv_pos_site_id
 _symmetry_equiv_pos_as_xyz
  1  'x, y, z'
loop_
 _atom_site_type_symbol
 _atom_site_label
 _atom_site_symmetry_multiplicity
 _atom_site_fract_x
 _atom_site_fract_y
 _atom_site_fract_z
 _atom_site_occupancy
  Sr  Sr0  1  0.00000000  0.00000000  0.00000000  1
  Mg  Mg1  1  0.14552799  0.14552800  0.56341602  1
  Mg  Mg2  1  0.85447195  0.85447197  0.43658400  1
  Si  Si3  1  0.44594398  0.44594398  0.66216802  1
  Si  Si4  1  0.55405597  0.55405598  0.33783200  1
  Si  Si5  1  0.24156199  0.24156199  0.27531401  1
  Si  Si6  1  0.75843796  0.75843797  0.72468602  1
