# generated using pymatgen
data_LuGa2
_symmetry_space_group_name_H-M   'P 1'
_cell_length_a   4.02621412
_cell_length_b   7.34040594
_cell_length_c   7.34040594
_cell_angle_alpha   120.00000000
_cell_angle_beta   90.00000000
_cell_angle_gamma   90.00000000
_symmetry_Int_Tables_number   1
_chemical_formula_structural   LuGa2
_chemical_formula_sum   'Lu3 Ga6'
_cell_volume   187.87442122
_cell_formula_units_Z   3
loop_
 _symmetry_equiv_pos_site_id
 _symmetry_equiv_pos_as_xyz
  1  'x, y, z'
loop_
 _atom_site_type_symbol
 _atom_site_label
 _atom_site_symmetry_multiplicity
 _atom_site_fract_x
 _atom_site_fract_y
 _atom_site_fract_z
 _atom_site_occupancy
  Lu  Lu0  1  0.99999997  0.00000000  0.58446000  1
  Lu  Lu1  1  -0.00000000  0.58446000  1.00000000  1
  Lu  Lu2  1  -0.00000000  0.41554000  0.41554000  1
  Ga  Ga3  1  0.49999998  0.24791900  1.00000000  1
  Ga  Ga4  1  0.49999998  0.00000000  0.24791900  1
  Ga  Ga5  1  0.49999998  0.75208100  0.75208100  1
  Ga  Ga6  1  0.49999998  0.66666667  0.33333333  1
  Ga  Ga7  1  0.00000000  0.00000000  0.00000000  1
  Ga  Ga8  1  0.49999998  0.33333334  0.66666666  1
