# generated using pymatgen
data_MgIn2Pd
_symmetry_space_group_name_H-M   'P 1'
_cell_length_a   4.94835806
_cell_length_b   5.31827211
_cell_length_c   6.08450222
_cell_angle_alpha   90.00000000
_cell_angle_beta   90.00000000
_cell_angle_gamma   90.00000000
_symmetry_Int_Tables_number   1
_chemical_formula_structural   MgIn2Pd
_chemical_formula_sum   'Mg2 In4 Pd2'
_cell_volume   160.12410886
_cell_formula_units_Z   2
loop_
 _symmetry_equiv_pos_site_id
 _symmetry_equiv_pos_as_xyz
  1  'x, y, z'
loop_
 _atom_site_type_symbol
 _atom_site_label
 _atom_site_symmetry_multiplicity
 _atom_site_fract_x
 _atom_site_fract_y
 _atom_site_fract_z
 _atom_site_occupancy
  Mg  Mg0  1  0.49999999  0.32982899  -0.00000000  1
  Mg  Mg1  1  0.00000000  0.67017099  0.49999998  1
  In  In2  1  0.00000000  0.15589200  0.25223299  1
  In  In3  1  0.49999999  0.84410798  0.24776699  1
  In  In4  1  0.00000000  0.15589200  0.74776697  1
  In  In5  1  0.49999999  0.84410798  0.75223297  1
  Pd  Pd6  1  0.00000000  0.66905299  0.00000000  1
  Pd  Pd7  1  0.49999999  0.33094699  0.49999998  1
