# generated using pymatgen
data_Sc2FeSi3
_symmetry_space_group_name_H-M   'P 1'
_cell_length_a   4.95752525
_cell_length_b   4.95752525
_cell_length_c   4.95752525
_cell_angle_alpha   60.99440765
_cell_angle_beta   60.99440765
_cell_angle_gamma   60.99441147
_symmetry_Int_Tables_number   1
_chemical_formula_structural   Sc2FeSi3
_chemical_formula_sum   'Sc2 Fe1 Si3'
_cell_volume   88.08471561
_cell_formula_units_Z   1
loop_
 _symmetry_equiv_pos_site_id
 _symmetry_equiv_pos_as_xyz
  1  'x, y, z'
loop_
 _atom_site_type_symbol
 _atom_site_label
 _atom_site_symmetry_multiplicity
 _atom_site_fract_x
 _atom_site_fract_y
 _atom_site_fract_z
 _atom_site_occupancy
  Sc  Sc0  1  0.37465199  0.37465201  0.37465200  1
  Sc  Sc1  1  0.62534799  0.62534801  0.62534800  1
  Fe  Fe2  1  0.00000000  0.00000000  0.00000000  1
  Si  Si3  1  0.50000001  0.00000000  -0.00000001  1
  Si  Si4  1  -0.00000001  0.50000001  1.00000001  1
  Si  Si5  1  0.00000000  0.00000000  0.50000001  1
