# generated using pymatgen
data_Ba2IO3
_symmetry_space_group_name_H-M   'P 1'
_cell_length_a   3.23692012
_cell_length_b   5.60931110
_cell_length_c   13.07117176
_cell_angle_alpha   90.00000000
_cell_angle_beta   90.00000000
_cell_angle_gamma   90.00000000
_symmetry_Int_Tables_number   1
_chemical_formula_structural   Ba2IO3
_chemical_formula_sum   'Ba4 I2 O6'
_cell_volume   237.33185347
_cell_formula_units_Z   2
loop_
 _symmetry_equiv_pos_site_id
 _symmetry_equiv_pos_as_xyz
  1  'x, y, z'
loop_
 _atom_site_type_symbol
 _atom_site_label
 _atom_site_symmetry_multiplicity
 _atom_site_fract_x
 _atom_site_fract_y
 _atom_site_fract_z
 _atom_site_occupancy
  Ba  Ba0  1  0.49999998  0.82801598  0.50000001  1
  Ba  Ba1  1  0.00000000  0.33853799  0.50000001  1
  Ba  Ba2  1  -0.00000000  0.66652999  -0.00000000  1
  Ba  Ba3  1  0.49999998  0.16659400  0.00000000  1
  I  I4  1  0.49999998  0.83323698  0.88090102  1
  I  I5  1  -0.00000000  0.33333333  0.88090702  1
  O  O6  1  0.00000000  0.66131099  0.62235701  1
  O  O7  1  0.49999998  0.17229400  0.61879401  1
  O  O8  1  0.00000000  0.66131099  0.37764301  1
  O  O9  1  0.49999998  0.17229400  0.38120601  1
  O  O10  1  0.49999998  0.83323698  0.11909900  1
  O  O11  1  -0.00000000  0.33333333  0.11909300  1
