# generated using pymatgen
data_Li4Cu3O5
_symmetry_space_group_name_H-M   'P 1'
_cell_length_a   5.22970200
_cell_length_b   5.26989889
_cell_length_c   6.56481171
_cell_angle_alpha   113.30915833
_cell_angle_beta   113.11557007
_cell_angle_gamma   90.81742096
_symmetry_Int_Tables_number   1
_chemical_formula_structural   Li4Cu3O5
_chemical_formula_sum   'Li4 Cu3 O5'
_cell_volume   149.70670198
_cell_formula_units_Z   1
loop_
 _symmetry_equiv_pos_site_id
 _symmetry_equiv_pos_as_xyz
  1  'x, y, z'
loop_
 _atom_site_type_symbol
 _atom_site_label
 _atom_site_symmetry_multiplicity
 _atom_site_fract_x
 _atom_site_fract_y
 _atom_site_fract_z
 _atom_site_occupancy
  Li  Li0  1  0.62956702  0.37956699  0.75913398  1
  Li  Li1  1  0.37043302  0.62043299  0.24086599  1
  Li  Li2  1  0.87578602  0.12578600  0.25157196  1
  Li  Li3  1  0.12421402  0.87421399  0.74842800  1
  O  O4  1  0.87827502  0.17589500  0.91487496  1
  Cu  Cu5  1  0.17522801  0.54237599  0.41262300  1
  Cu  Cu6  1  0.46340001  0.26102000  0.08512498  1
  Cu  Cu7  1  0.73739503  0.87024699  0.41262297  1
  O  O8  1  0.12172502  0.82410499  0.08512500  1
  O  O9  1  0.53660002  0.73897999  0.91487498  1
  O  O10  1  0.26260501  0.12975300  0.58737699  1
  O  O11  1  0.82477202  0.45762399  0.58737697  1
