# generated using pymatgen
data_Pr5In8Au7
_symmetry_space_group_name_H-M   'P 1'
_cell_length_a   6.10927916
_cell_length_b   6.24027014
_cell_length_c   13.17837143
_cell_angle_alpha   90.00000000
_cell_angle_beta   90.00000000
_cell_angle_gamma   90.00000000
_symmetry_Int_Tables_number   1
_chemical_formula_structural   Pr5In8Au7
_chemical_formula_sum   'Pr5 In8 Au7'
_cell_volume   502.40633214
_cell_formula_units_Z   1
loop_
 _symmetry_equiv_pos_site_id
 _symmetry_equiv_pos_as_xyz
  1  'x, y, z'
loop_
 _atom_site_type_symbol
 _atom_site_label
 _atom_site_symmetry_multiplicity
 _atom_site_fract_x
 _atom_site_fract_y
 _atom_site_fract_z
 _atom_site_occupancy
  Pr  Pr0  1  0.24999999  0.50493399  0.30793199  1
  Pr  Pr1  1  0.74999998  0.49506599  0.69206798  1
  Pr  Pr2  1  0.24999999  0.00493400  0.69206798  1
  Pr  Pr3  1  0.74999998  0.99506598  0.30793199  1
  Pr  Pr4  1  -0.00000000  0.74999998  0.90685097  1
  In  In5  1  -0.00000000  0.24999999  0.09314900  1
  In  In6  1  0.49999999  0.24999999  0.09314900  1
  In  In7  1  0.49999999  0.74999998  0.90685097  1
  In  In8  1  -0.00000000  0.74999998  0.50138498  1
  In  In9  1  -0.00000000  0.24999999  0.49861498  1
  In  In10  1  0.49999999  0.24999999  0.49861498  1
  In  In11  1  0.49999999  0.74999998  0.50138498  1
  In  In12  1  0.24999999  0.59969799  0.06176800  1
  Au  Au13  1  0.74999998  0.40030199  0.93823197  1
  Au  Au14  1  0.24999999  0.09969800  0.93823197  1
  Au  Au15  1  0.74999998  0.90030198  0.06176800  1
  Au  Au16  1  0.24999999  0.99890798  0.21877099  1
  Au  Au17  1  0.74999998  0.00109200  0.78122897  1
  Au  Au18  1  0.24999999  0.49890799  0.78122897  1
  Au  Au19  1  0.74999998  0.50109199  0.21877099  1
