# generated using pymatgen
data_La11Sn5
_symmetry_space_group_name_H-M   'P 1'
_cell_length_a   7.58187199
_cell_length_b   9.77769756
_cell_length_c   9.77769852
_cell_angle_alpha   60.00000381
_cell_angle_beta   90.00000000
_cell_angle_gamma   90.00000000
_symmetry_Int_Tables_number   1
_chemical_formula_structural   La11Sn5
_chemical_formula_sum   'La11 Sn5'
_cell_volume   627.74077306
_cell_formula_units_Z   1
loop_
 _symmetry_equiv_pos_site_id
 _symmetry_equiv_pos_as_xyz
  1  'x, y, z'
loop_
 _atom_site_type_symbol
 _atom_site_label
 _atom_site_symmetry_multiplicity
 _atom_site_fract_x
 _atom_site_fract_y
 _atom_site_fract_z
 _atom_site_occupancy
  La  La0  1  1.00000000  0.33333335  0.33333335  1
  La  La1  1  0.50000000  0.66666669  0.66666671  1
  La  La2  1  1.00000000  0.66666669  0.66666671  1
  La  La3  1  0.50000000  0.33333335  0.33333335  1
  La  La4  1  0.75000000  0.00000000  0.25121801  1
  La  La5  1  0.25000000  0.25121801  1.00000005  1
  La  La6  1  0.25000000  0.74878203  0.25121802  1
  La  La7  1  0.75000000  0.25121801  0.74878204  1
  La  La8  1  0.75000000  0.74878203  1.00000006  1
  La  La9  1  0.25000000  0.00000000  0.74878204  1
  Sn  Sn10  1  0.75000000  0.00000000  0.60871203  1
  La  La11  1  0.25000000  0.60871202  0.00000001  1
  Sn  Sn12  1  0.25000000  0.39128802  0.60871203  1
  Sn  Sn13  1  0.75000000  0.60871202  0.39128802  1
  Sn  Sn14  1  0.75000000  0.39128802  1.00000005  1
  Sn  Sn15  1  0.25000000  0.00000000  0.39128802  1
