# generated using pymatgen
data_CeGe3
_symmetry_space_group_name_H-M   'P 1'
_cell_length_a   4.42558193
_cell_length_b   9.01677799
_cell_length_c   9.49064445
_cell_angle_alpha   118.36163330
_cell_angle_beta   103.48288727
_cell_angle_gamma   90.00000000
_symmetry_Int_Tables_number   1
_chemical_formula_structural   CeGe3
_chemical_formula_sum   'Ce4 Ge12'
_cell_volume   321.34964290
_cell_formula_units_Z   4
loop_
 _symmetry_equiv_pos_site_id
 _symmetry_equiv_pos_as_xyz
  1  'x, y, z'
loop_
 _atom_site_type_symbol
 _atom_site_label
 _atom_site_symmetry_multiplicity
 _atom_site_fract_x
 _atom_site_fract_y
 _atom_site_fract_z
 _atom_site_occupancy
  Ce  Ce0  1  -0.00000006  0.74120098  -0.00000003  1
  Ce  Ce1  1  -0.00000002  0.25879899  -0.00000001  1
  Ce  Ce2  1  0.20313495  0.70313499  0.40626995  1
  Ce  Ce3  1  0.79686498  0.29686499  0.59372994  1
  Ge  Ge4  1  0.57984699  0.07984700  0.15969397  1
  Ge  Ge5  1  0.42015293  0.92015298  0.84030592  1
  Ge  Ge6  1  0.57527696  0.57527699  0.15055395  1
  Ge  Ge7  1  0.42472297  0.42472299  0.84944594  1
  Ge  Ge8  1  0.80609293  0.95308898  0.61218591  1
  Ge  Ge9  1  0.19390700  0.04691100  0.38781398  1
  Ge  Ge10  1  0.80609295  0.65909699  0.61218593  1
  Ge  Ge11  1  0.19390697  0.34090299  0.38781396  1
  Ge  Ge12  1  0.64794493  0.89498298  0.29588993  1
  Ge  Ge13  1  0.35205499  0.10501700  0.70410996  1
  Ge  Ge14  1  0.64794497  0.40090699  0.29588995  1
  Ge  Ge15  1  0.35205495  0.59909299  0.70410994  1
