# generated using pymatgen
data_Li3YO4
_symmetry_space_group_name_H-M   'P 1'
_cell_length_a   4.74578953
_cell_length_b   4.74578953
_cell_length_c   5.72537518
_cell_angle_alpha   114.48483276
_cell_angle_beta   114.48483276
_cell_angle_gamma   89.99999237
_symmetry_Int_Tables_number   1
_chemical_formula_structural   Li3YO4
_chemical_formula_sum   'Li3 Y1 O4'
_cell_volume   104.47792863
_cell_formula_units_Z   1
loop_
 _symmetry_equiv_pos_site_id
 _symmetry_equiv_pos_as_xyz
  1  'x, y, z'
loop_
 _atom_site_type_symbol
 _atom_site_label
 _atom_site_symmetry_multiplicity
 _atom_site_fract_x
 _atom_site_fract_y
 _atom_site_fract_z
 _atom_site_occupancy
  Li  Li0  1  0.75000006  0.25000000  0.50000002  1
  Li  Li1  1  0.00000000  0.00000000  0.00000000  1
  Li  Li2  1  0.25000008  0.75000000  0.50000002  1
  Y  Y3  1  0.50000007  0.50000000  0.00000004  1
  O  O4  1  0.87500013  0.92447599  0.25000006  1
  O  O5  1  0.37500005  0.32552400  0.25000002  1
  O  O6  1  0.67447605  0.12500000  0.74999901  1
  O  O7  1  0.07552406  0.62500000  0.75000100  1
