# generated using pymatgen
data_CeFe2SiGe
_symmetry_space_group_name_H-M   'P 1'
_cell_length_a   4.20509386
_cell_length_b   4.20509386
_cell_length_c   9.69007587
_cell_angle_alpha   90.00000000
_cell_angle_beta   90.00000000
_cell_angle_gamma   90.00000000
_symmetry_Int_Tables_number   1
_chemical_formula_structural   CeFe2SiGe
_chemical_formula_sum   'Ce2 Fe4 Si2 Ge2'
_cell_volume   171.34781298
_cell_formula_units_Z   2
loop_
 _symmetry_equiv_pos_site_id
 _symmetry_equiv_pos_as_xyz
  1  'x, y, z'
loop_
 _atom_site_type_symbol
 _atom_site_label
 _atom_site_symmetry_multiplicity
 _atom_site_fract_x
 _atom_site_fract_y
 _atom_site_fract_z
 _atom_site_occupancy
  Ce  Ce0  1  0.50000002  0.00000000  0.75042901  1
  Ce  Ce1  1  0.00000000  0.50000002  0.24957100  1
  Fe  Fe2  1  0.00000000  0.50000002  0.88127901  1
  Fe  Fe3  1  0.50000002  0.00000000  0.38263100  1
  Fe  Fe4  1  0.50000002  0.00000000  0.11872100  1
  Fe  Fe5  1  0.00000000  0.50000002  0.61736901  1
  Si  Si6  1  0.50000002  0.50000002  0.00000000  1
  Ge  Ge7  1  0.00000000  0.00000000  0.50000001  1
  Si  Si8  1  0.00000000  0.00000000  0.00000000  1
  Ge  Ge9  1  0.50000002  0.50000002  0.50000001  1
