# generated using pymatgen
data_Sr3NdMg2(SiO6)2
_symmetry_space_group_name_H-M   'P 1'
_cell_length_a   5.60745621
_cell_length_b   7.56076908
_cell_length_c   7.56076908
_cell_angle_alpha   106.70394897
_cell_angle_beta   90.00000000
_cell_angle_gamma   90.00000000
_symmetry_Int_Tables_number   1
_chemical_formula_structural   Sr3NdMg2(SiO6)2
_chemical_formula_sum   'Sr3 Nd1 Mg2 Si2 O12'
_cell_volume   307.02510596
_cell_formula_units_Z   1
loop_
 _symmetry_equiv_pos_site_id
 _symmetry_equiv_pos_as_xyz
  1  'x, y, z'
loop_
 _atom_site_type_symbol
 _atom_site_label
 _atom_site_symmetry_multiplicity
 _atom_site_fract_x
 _atom_site_fract_y
 _atom_site_fract_z
 _atom_site_occupancy
  Sr  Sr0  1  0.23803799  0.09223000  0.30602801  1
  Sr  Sr1  1  0.23803799  0.69397202  0.90777003  1
  Sr  Sr2  1  0.73803797  0.30602801  0.09223001  1
  Nd  Nd3  1  0.73803797  0.90777003  0.69397203  1
  Mg  Mg4  1  0.74810697  0.41081201  0.58918802  1
  Mg  Mg5  1  0.24810699  0.58918802  0.41081202  1
  Si  Si6  1  0.19534799  0.18225901  0.81774102  1
  Si  Si7  1  0.69534797  0.81774103  0.18225901  1
  O  O8  1  0.48820398  0.34399701  0.34966301  1
  O  O9  1  0.08200800  0.08879100  0.59795002  1
  O  O10  1  0.58200798  0.59795002  0.08879101  1
  O  O11  1  0.48820398  0.65033702  0.65600303  1
  O  O12  1  0.00278800  0.81816703  0.18183301  1
  O  O13  1  0.98820396  0.65600302  0.65033703  1
  O  O14  1  0.50278798  0.18183301  0.81816702  1
  O  O15  1  0.98820396  0.34966301  0.34399701  1
  O  O16  1  0.56325898  0.94701703  0.05298301  1
  O  O17  1  0.58200798  0.91120903  0.40205002  1
  O  O18  1  0.06325900  0.05298300  0.94701703  1
  O  O19  1  0.08200800  0.40205001  0.91120903  1
