# generated using pymatgen
data_Pr5Cu2P7
_symmetry_space_group_name_H-M   'P 1'
_cell_length_a   7.33203030
_cell_length_b   7.33203030
_cell_length_c   7.37420988
_cell_angle_alpha   108.52597046
_cell_angle_beta   110.06635284
_cell_angle_gamma   109.59416962
_symmetry_Int_Tables_number   1
_chemical_formula_structural   Pr5Cu2P7
_chemical_formula_sum   'Pr5 Cu2 P7'
_cell_volume   305.97928003
_cell_formula_units_Z   1
loop_
 _symmetry_equiv_pos_site_id
 _symmetry_equiv_pos_as_xyz
  1  'x, y, z'
loop_
 _atom_site_type_symbol
 _atom_site_label
 _atom_site_symmetry_multiplicity
 _atom_site_fract_x
 _atom_site_fract_y
 _atom_site_fract_z
 _atom_site_occupancy
  Pr  Pr0  1  0.99224498  0.74834800  0.74059298  1
  Pr  Pr1  1  0.00775500  0.25165200  0.25940701  1
  Pr  Pr2  1  0.50601300  0.77405400  0.28006701  1
  Pr  Pr3  1  0.49398699  0.22594600  0.71993298  1
  Pr  Pr4  1  0.00000000  0.00000000  0.49999999  1
  Cu  Cu5  1  0.49999999  0.50000000  0.49999999  1
  P  P6  1  0.22514201  0.97330600  0.19844803  1
  Cu  Cu7  1  0.77485798  0.02669400  0.80155196  1
  P  P8  1  0.77684898  0.27684900  0.49999998  1
  P  P9  1  0.22315100  0.72315100  0.50000001  1
  P  P10  1  0.49944899  0.25550200  0.19706699  1
  P  P11  1  0.94156498  0.69761800  0.19706699  1
  P  P12  1  0.50055100  0.74449800  0.80293300  1
  P  P13  1  0.05843500  0.30238200  0.80293300  1
