# generated using pymatgen
data_BaGaP
_symmetry_space_group_name_H-M   'P 1'
_cell_length_a   6.74981308
_cell_length_b   6.74981308
_cell_length_c   6.74981308
_cell_angle_alpha   90.00000000
_cell_angle_beta   90.00000000
_cell_angle_gamma   90.00000000
_symmetry_Int_Tables_number   1
_chemical_formula_structural   BaGaP
_chemical_formula_sum   'Ba4 Ga4 P4'
_cell_volume   307.52132606
_cell_formula_units_Z   4
loop_
 _symmetry_equiv_pos_site_id
 _symmetry_equiv_pos_as_xyz
  1  'x, y, z'
loop_
 _atom_site_type_symbol
 _atom_site_label
 _atom_site_symmetry_multiplicity
 _atom_site_fract_x
 _atom_site_fract_y
 _atom_site_fract_z
 _atom_site_occupancy
  Ba  Ba0  1  0.36760400  0.86760399  0.63239599  1
  Ba  Ba1  1  0.86760399  0.63239599  0.36760400  1
  Ba  Ba2  1  0.63239599  0.36760400  0.86760399  1
  Ba  Ba3  1  0.13239600  0.13239600  0.13239600  1
  Ga  Ga4  1  0.65621999  0.15622000  0.34378000  1
  Ga  Ga5  1  0.15622000  0.34378000  0.65621999  1
  Ga  Ga6  1  0.34378000  0.65621999  0.15622000  1
  Ga  Ga7  1  0.84377999  0.84377999  0.84377999  1
  P  P8  1  0.09453300  0.59453299  0.90546699  1
  P  P9  1  0.59453299  0.90546699  0.09453300  1
  P  P10  1  0.90546699  0.09453300  0.59453299  1
  P  P11  1  0.40546700  0.40546700  0.40546700  1
