# generated using pymatgen
data_TiCl2
_symmetry_space_group_name_H-M   'P 1'
_cell_length_a   3.81933403
_cell_length_b   3.81930590
_cell_length_c   6.56383419
_cell_angle_alpha   90.00000763
_cell_angle_beta   90.00518799
_cell_angle_gamma   119.99976349
_symmetry_Int_Tables_number   1
_chemical_formula_structural   TiCl2
_chemical_formula_sum   'Ti1 Cl2'
_cell_volume   82.92039303
_cell_formula_units_Z   1
loop_
 _symmetry_equiv_pos_site_id
 _symmetry_equiv_pos_as_xyz
  1  'x, y, z'
loop_
 _atom_site_type_symbol
 _atom_site_label
 _atom_site_symmetry_multiplicity
 _atom_site_fract_x
 _atom_site_fract_y
 _atom_site_fract_z
 _atom_site_occupancy
  Ti  Ti0  1  0.00001000  0.00000500  0.96996697  1
  Cl  Cl1  1  0.33333338  0.66666670  0.25641202  1
  Cl  Cl2  1  0.66666668  0.33333335  0.77362099  1
