# generated using pymatgen
data_Yb3MgCd2
_symmetry_space_group_name_H-M   'P 1'
_cell_length_a   5.43786812
_cell_length_b   5.43786812
_cell_length_c   6.76374817
_cell_angle_alpha   90.00000000
_cell_angle_beta   90.00000000
_cell_angle_gamma   120.00000000
_symmetry_Int_Tables_number   1
_chemical_formula_structural   Yb3MgCd2
_chemical_formula_sum   'Yb3 Mg1 Cd2'
_cell_volume   173.21097343
_cell_formula_units_Z   1
loop_
 _symmetry_equiv_pos_site_id
 _symmetry_equiv_pos_as_xyz
  1  'x, y, z'
loop_
 _atom_site_type_symbol
 _atom_site_label
 _atom_site_symmetry_multiplicity
 _atom_site_fract_x
 _atom_site_fract_y
 _atom_site_fract_z
 _atom_site_occupancy
  Yb  Yb0  1  0.00000000  0.00000000  0.00000000  1
  Yb  Yb1  1  0.00000000  0.00000000  0.49999999  1
  Yb  Yb2  1  0.66666666  0.33333334  0.24999999  1
  Mg  Mg3  1  0.33333334  0.66666668  0.74999998  1
  Cd  Cd4  1  0.66666666  0.33333334  0.74999998  1
  Cd  Cd5  1  0.33333334  0.66666668  0.24999999  1
