# generated using pymatgen
data_Ho2Ga3
_symmetry_space_group_name_H-M   'P 1'
_cell_length_a   4.27580404
_cell_length_b   5.45325232
_cell_length_c   5.45325232
_cell_angle_alpha   62.19895172
_cell_angle_beta   66.91840363
_cell_angle_gamma   66.91840363
_symmetry_Int_Tables_number   1
_chemical_formula_structural   Ho2Ga3
_chemical_formula_sum   'Ho2 Ga3'
_cell_volume   99.99522020
_cell_formula_units_Z   1
loop_
 _symmetry_equiv_pos_site_id
 _symmetry_equiv_pos_as_xyz
  1  'x, y, z'
loop_
 _atom_site_type_symbol
 _atom_site_label
 _atom_site_symmetry_multiplicity
 _atom_site_fract_x
 _atom_site_fract_y
 _atom_site_fract_z
 _atom_site_occupancy
  Ho  Ho0  1  0.20389299  0.29610702  0.29610701  1
  Ho  Ho1  1  0.79610699  0.70389304  0.70389301  1
  Ga  Ga2  1  0.49999999  0.71363604  0.28636400  1
  Ga  Ga3  1  0.49999999  0.28636401  0.71363602  1
  Ga  Ga4  1  0.00000000  0.00000000  0.00000000  1
