# generated using pymatgen
data_MgGa
_symmetry_space_group_name_H-M   'P 1'
_cell_length_a   3.01040769
_cell_length_b   3.01040769
_cell_length_c   9.73836708
_cell_angle_alpha   81.10845947
_cell_angle_beta   81.10845947
_cell_angle_gamma   60.00000763
_symmetry_Int_Tables_number   1
_chemical_formula_structural   MgGa
_chemical_formula_sum   'Mg2 Ga2'
_cell_volume   75.20348286
_cell_formula_units_Z   2
loop_
 _symmetry_equiv_pos_site_id
 _symmetry_equiv_pos_as_xyz
  1  'x, y, z'
loop_
 _atom_site_type_symbol
 _atom_site_label
 _atom_site_symmetry_multiplicity
 _atom_site_fract_x
 _atom_site_fract_y
 _atom_site_fract_z
 _atom_site_occupancy
  Mg  Mg0  1  0.00000000  0.00000000  0.00000000  1
  Mg  Mg1  1  0.24854500  0.24854500  0.25436500  1
  Ga  Ga2  1  0.50000000  0.50000000  0.49999999  1
  Ga  Ga3  1  0.75145500  0.75145499  0.74563499  1
