# generated using pymatgen
data_Mg
_symmetry_space_group_name_H-M   'P 1'
_cell_length_a   5.81238794
_cell_length_b   8.55131817
_cell_length_c   8.55131817
_cell_angle_alpha   120.00000000
_cell_angle_beta   90.00000000
_cell_angle_gamma   90.00000000
_symmetry_Int_Tables_number   1
_chemical_formula_structural   Mg
_chemical_formula_sum   Mg16
_cell_volume   368.08774292
_cell_formula_units_Z   16
loop_
 _symmetry_equiv_pos_site_id
 _symmetry_equiv_pos_as_xyz
  1  'x, y, z'
loop_
 _atom_site_type_symbol
 _atom_site_label
 _atom_site_symmetry_multiplicity
 _atom_site_fract_x
 _atom_site_fract_y
 _atom_site_fract_z
 _atom_site_occupancy
  Mg  Mg0  1  1.00000001  0.66666666  0.33333336  1
  Mg  Mg1  1  0.50000000  0.33333333  0.66666669  1
  Mg  Mg2  1  -0.00000000  0.33333333  0.66666669  1
  Mg  Mg3  1  0.50000000  0.66666666  0.33333336  1
  Mg  Mg4  1  0.75000001  0.75339800  0.75339803  1
  Mg  Mg5  1  0.25000000  0.75339800  1.00000004  1
  Mg  Mg6  1  0.25000000  0.00000000  0.75339801  1
  Mg  Mg7  1  0.75000001  0.00000000  0.24660200  1
  Mg  Mg8  1  0.75000001  0.24660200  1.00000003  1
  Mg  Mg9  1  0.25000000  0.24660200  0.24660201  1
  Mg  Mg10  1  0.75000001  0.39181500  0.39181502  1
  Mg  Mg11  1  0.25000000  0.39181500  1.00000003  1
  Mg  Mg12  1  0.25000000  0.00000000  0.39181501  1
  Mg  Mg13  1  0.75000001  0.00000000  0.60818501  1
  Mg  Mg14  1  0.75000001  0.60818500  1.00000003  1
  Mg  Mg15  1  0.25000000  0.60818500  0.60818503  1
