# generated using pymatgen
data_Tb7(GePd3)2
_symmetry_space_group_name_H-M   'P 1'
_cell_length_a   3.71035600
_cell_length_b   10.85721970
_cell_length_c   10.85848713
_cell_angle_alpha   119.97612762
_cell_angle_beta   90.00000000
_cell_angle_gamma   89.99762726
_symmetry_Int_Tables_number   1
_chemical_formula_structural   Tb7(GePd3)2
_chemical_formula_sum   'Tb7 Ge2 Pd6'
_cell_volume   378.91219223
_cell_formula_units_Z   1
loop_
 _symmetry_equiv_pos_site_id
 _symmetry_equiv_pos_as_xyz
  1  'x, y, z'
loop_
 _atom_site_type_symbol
 _atom_site_label
 _atom_site_symmetry_multiplicity
 _atom_site_fract_x
 _atom_site_fract_y
 _atom_site_fract_z
 _atom_site_occupancy
  Tb  Tb0  1  0.50000000  0.00000000  1.00000004  1
  Tb  Tb1  1  0.25150016  0.61200801  0.51078199  1
  Tb  Tb2  1  0.25149923  0.89876302  0.38802897  1
  Tb  Tb3  1  0.25150012  0.48920201  0.10121098  1
  Tb  Tb4  1  0.74850010  0.38799201  0.48921801  1
  Tb  Tb5  1  0.74850103  0.10123700  0.61197103  1
  Tb  Tb6  1  0.74850013  0.51079801  0.89878902  1
  Pd  Pd7  1  0.24671824  0.93679302  0.66204598  1
  Pd  Pd8  1  0.24668018  0.72524201  0.06316697  1
  Ge  Ge9  1  0.24672509  0.33804001  0.27481300  1
  Pd  Pd10  1  0.75328202  0.06320700  0.33795402  1
  Pd  Pd11  1  0.75332007  0.27475800  0.93683303  1
  Ge  Ge12  1  0.75327517  0.66196001  0.72518700  1
  Pd  Pd13  1  0.24946308  0.33333334  0.66666668  1
  Pd  Pd14  1  0.75053717  0.66666668  0.33329899  1
