# generated using pymatgen
data_DyAlSi
_symmetry_space_group_name_H-M   'P 1'
_cell_length_a   5.37972212
_cell_length_b   5.37972212
_cell_length_c   5.37972212
_cell_angle_alpha   88.52400970
_cell_angle_beta   60.80511093
_cell_angle_gamma   119.10818481
_symmetry_Int_Tables_number   1
_chemical_formula_structural   DyAlSi
_chemical_formula_sum   'Dy2 Al2 Si2'
_cell_volume   111.46602285
_cell_formula_units_Z   2
loop_
 _symmetry_equiv_pos_site_id
 _symmetry_equiv_pos_as_xyz
  1  'x, y, z'
loop_
 _atom_site_type_symbol
 _atom_site_label
 _atom_site_symmetry_multiplicity
 _atom_site_fract_x
 _atom_site_fract_y
 _atom_site_fract_z
 _atom_site_occupancy
  Dy  Dy0  1  0.25000002  0.37598800  0.87401198  1
  Dy  Dy1  1  0.75000003  0.62401200  0.12598798  1
  Al  Al2  1  0.50000000  0.00000000  0.99999997  1
  Al  Al3  1  0.00000000  0.00000000  0.49999999  1
  Si  Si4  1  0.00000002  0.50000000  0.49999999  1
  Si  Si5  1  0.50000000  0.00000000  0.49999998  1
