# generated using pymatgen
data_YMn7Ge5
_symmetry_space_group_name_H-M   'P 1'
_cell_length_a   5.49069786
_cell_length_b   7.25303411
_cell_length_c   7.25303411
_cell_angle_alpha   82.11760712
_cell_angle_beta   67.75855255
_cell_angle_gamma   67.75855255
_symmetry_Int_Tables_number   1
_chemical_formula_structural   YMn7Ge5
_chemical_formula_sum   'Y1 Mn7 Ge5'
_cell_volume   247.45700920
_cell_formula_units_Z   1
loop_
 _symmetry_equiv_pos_site_id
 _symmetry_equiv_pos_as_xyz
  1  'x, y, z'
loop_
 _atom_site_type_symbol
 _atom_site_label
 _atom_site_symmetry_multiplicity
 _atom_site_fract_x
 _atom_site_fract_y
 _atom_site_fract_z
 _atom_site_occupancy
  Y  Y0  1  1.00000004  0.00026900  0.99973097  1
  Mn  Mn1  1  1.00000000  0.65756201  0.34243798  1
  Mn  Mn2  1  -0.00000002  0.33425001  0.66575001  1
  Mn  Mn3  1  0.34127397  0.64558501  0.67186801  1
  Mn  Mn4  1  0.65872600  0.32813301  0.35441499  1
  Mn  Mn5  1  0.49999997  0.77829902  0.22170100  1
  Mn  Mn6  1  0.30375400  0.20896900  0.18352300  1
  Mn  Mn7  1  0.69624597  0.81647702  0.79103100  1
  Ge  Ge8  1  0.49311302  0.00630700  0.50420699  1
  Ge  Ge9  1  0.99637304  0.00630700  0.50420697  1
  Ge  Ge10  1  0.00362696  0.49579301  0.99369302  1
  Ge  Ge11  1  0.50688699  0.49579301  0.99369300  1
  Ge  Ge12  1  0.50000000  0.22625800  0.77374199  1
