# generated using pymatgen
data_Mn7AlSi8
_symmetry_space_group_name_H-M   'P 1'
_cell_length_a   4.78868532
_cell_length_b   7.08648586
_cell_length_c   7.08648586
_cell_angle_alpha   73.66893005
_cell_angle_beta   71.45112610
_cell_angle_gamma   71.45112610
_symmetry_Int_Tables_number   1
_chemical_formula_structural   Mn7AlSi8
_chemical_formula_sum   'Mn7 Al1 Si8'
_cell_volume   211.76563563
_cell_formula_units_Z   1
loop_
 _symmetry_equiv_pos_site_id
 _symmetry_equiv_pos_as_xyz
  1  'x, y, z'
loop_
 _atom_site_type_symbol
 _atom_site_label
 _atom_site_symmetry_multiplicity
 _atom_site_fract_x
 _atom_site_fract_y
 _atom_site_fract_z
 _atom_site_occupancy
  Mn  Mn0  1  0.09042499  0.31334001  0.01237398  1
  Mn  Mn1  1  0.09042500  0.01237400  0.31334000  1
  Mn  Mn2  1  0.90957496  0.98762603  0.68665993  1
  Mn  Mn3  1  0.90957496  0.68666002  0.98762595  1
  Mn  Mn4  1  0.87161697  0.63609502  0.63609495  1
  Mn  Mn5  1  0.35514497  0.92264703  0.92264695  1
  Al  Al6  1  0.49999998  0.34133501  0.65866498  1
  Mn  Mn7  1  0.49999997  0.65866502  0.34133496  1
  Si  Si8  1  0.12838299  0.36390501  0.36390498  1
  Si  Si9  1  0.49999998  0.50000002  -0.00000004  1
  Si  Si10  1  0.49999999  0.00000000  0.49999999  1
  Si  Si11  1  0.64485498  0.07735300  0.07735298  1
  Si  Si12  1  0.69940598  0.30077701  0.30077697  1
  Si  Si13  1  0.30059398  0.69922302  0.69922296  1
  Si  Si14  1  0.99999997  0.24733201  0.75266797  1
  Si  Si15  1  0.99999996  0.75266802  0.24733194  1
