# generated using pymatgen
data_KSn
_symmetry_space_group_name_H-M   'P 1'
_cell_length_a   10.09590912
_cell_length_b   10.09590912
_cell_length_c   10.09590912
_cell_angle_alpha   107.42806244
_cell_angle_beta   107.42806244
_cell_angle_gamma   107.42806244
_symmetry_Int_Tables_number   1
_chemical_formula_structural   KSn
_chemical_formula_sum   'K10 Sn10'
_cell_volume   846.79577483
_cell_formula_units_Z   10
loop_
 _symmetry_equiv_pos_site_id
 _symmetry_equiv_pos_as_xyz
  1  'x, y, z'
loop_
 _atom_site_type_symbol
 _atom_site_label
 _atom_site_symmetry_multiplicity
 _atom_site_fract_x
 _atom_site_fract_y
 _atom_site_fract_z
 _atom_site_occupancy
  K  K0  1  0.39588595  0.46575096  0.19543499  1
  K  K1  1  0.46575097  0.19543499  0.39588601  1
  K  K2  1  0.19543496  0.39588597  0.46575100  1
  K  K3  1  0.60383093  0.53333296  0.80611901  1
  K  K4  1  0.53333291  0.80611894  0.60383099  1
  K  K5  1  0.80611892  0.60383095  0.53333300  1
  K  K6  1  0.01312700  0.01312700  0.01312700  1
  Sn  Sn7  1  0.50225794  0.50225796  0.50225800  1
  K  K8  1  0.18397693  0.72907195  0.57514399  1
  Sn  Sn9  1  0.72907192  0.57514396  0.18397699  1
  K  K10  1  0.57514396  0.18397699  0.72907202  1
  K  K11  1  0.81630194  0.27111498  0.42473300  1
  Sn  Sn12  1  0.27111495  0.42473297  0.81630201  1
  Sn  Sn13  1  0.42473292  0.81630194  0.27111498  1
  Sn  Sn14  1  0.89417088  0.97516393  0.65937199  1
  Sn  Sn15  1  0.97516391  0.65937195  0.89417101  1
  Sn  Sn16  1  0.65937190  0.89417093  0.97516400  1
  Sn  Sn17  1  0.10708299  0.02327100  0.34948701  1
  Sn  Sn18  1  0.02327097  0.34948697  0.10708299  1
  Sn  Sn19  1  0.34948698  0.10708299  0.02327100  1
