# generated using pymatgen
data_BaMo(WO4)2
_symmetry_space_group_name_H-M   'P 1'
_cell_length_a   5.15558243
_cell_length_b   5.15558243
_cell_length_c   8.99487305
_cell_angle_alpha   87.17039490
_cell_angle_beta   87.17039490
_cell_angle_gamma   62.09232712
_symmetry_Int_Tables_number   1
_chemical_formula_structural   BaMo(WO4)2
_chemical_formula_sum   'Ba1 Mo1 W2 O8'
_cell_volume   210.92821635
_cell_formula_units_Z   1
loop_
 _symmetry_equiv_pos_site_id
 _symmetry_equiv_pos_as_xyz
  1  'x, y, z'
loop_
 _atom_site_type_symbol
 _atom_site_label
 _atom_site_symmetry_multiplicity
 _atom_site_fract_x
 _atom_site_fract_y
 _atom_site_fract_z
 _atom_site_occupancy
  Ba  Ba0  1  0.00000000  0.00000000  0.00000000  1
  Mo  Mo1  1  0.00000000  0.00000000  0.50000000  1
  W  W2  1  0.35625202  0.35625201  0.30778402  1
  W  W3  1  0.64374803  0.64374801  0.69221604  1
  O  O4  1  0.31374502  0.78431402  0.64850203  1
  O  O5  1  0.78874504  0.78874502  0.58209105  1
  O  O6  1  0.67881803  0.67881801  0.85248104  1
  O  O7  1  0.78431403  0.31374501  0.64850203  1
  O  O8  1  0.32118202  0.32118201  0.14751902  1
  O  O9  1  0.21125501  0.21125500  0.41790901  1
  O  O10  1  0.21568602  0.68625501  0.35149803  1
  O  O11  1  0.68625502  0.21568600  0.35149803  1
