# generated using pymatgen
data_Sm3AlO6
_symmetry_space_group_name_H-M   'P 1'
_cell_length_a   5.85250902
_cell_length_b   7.61824083
_cell_length_c   7.61824083
_cell_angle_alpha   102.96508026
_cell_angle_beta   90.00000000
_cell_angle_gamma   90.00000000
_symmetry_Int_Tables_number   1
_chemical_formula_structural   Sm3AlO6
_chemical_formula_sum   'Sm6 Al2 O12'
_cell_volume   331.00643974
_cell_formula_units_Z   2
loop_
 _symmetry_equiv_pos_site_id
 _symmetry_equiv_pos_as_xyz
  1  'x, y, z'
loop_
 _atom_site_type_symbol
 _atom_site_label
 _atom_site_symmetry_multiplicity
 _atom_site_fract_x
 _atom_site_fract_y
 _atom_site_fract_z
 _atom_site_occupancy
  Sm  Sm0  1  0.53134500  0.30072500  0.08799499  1
  Sm  Sm1  1  0.03134500  0.08799500  0.30072500  1
  Sm  Sm2  1  0.57046800  0.39629900  0.60370099  1
  Sm  Sm3  1  0.07046800  0.60370100  0.39629899  1
  Sm  Sm4  1  0.53134500  0.91200500  0.69927499  1
  Sm  Sm5  1  0.03134500  0.69927500  0.91200499  1
  Al  Al6  1  0.00161000  0.19370400  0.80629600  1
  Al  Al7  1  0.50161000  0.80629600  0.19370399  1
  O  O8  1  0.79874000  0.35358800  0.32519299  1
  O  O9  1  0.29874000  0.32519300  0.35358799  1
  O  O10  1  0.82315800  0.11062400  0.58080600  1
  O  O11  1  0.32315800  0.58080600  0.11062399  1
  O  O12  1  0.86151400  0.04236500  0.95763500  1
  O  O13  1  0.34597700  0.21537600  0.78462400  1
  O  O14  1  0.84597700  0.78462400  0.21537599  1
  O  O15  1  0.36151400  0.95763500  0.04236498  1
  O  O16  1  0.32315800  0.88937600  0.41919399  1
  O  O17  1  0.82315800  0.41919400  0.88937599  1
  O  O18  1  0.79874000  0.67480700  0.64641199  1
  O  O19  1  0.29874000  0.64641200  0.67480699  1
