# generated using pymatgen
data_LiAgS2
_symmetry_space_group_name_H-M   'P 1'
_cell_length_a   6.63714409
_cell_length_b   6.91604900
_cell_length_c   8.13552284
_cell_angle_alpha   90.00000000
_cell_angle_beta   90.00000000
_cell_angle_gamma   89.78028107
_symmetry_Int_Tables_number   1
_chemical_formula_structural   LiAgS2
_chemical_formula_sum   'Li4 Ag4 S8'
_cell_volume   373.44064399
_cell_formula_units_Z   4
loop_
 _symmetry_equiv_pos_site_id
 _symmetry_equiv_pos_as_xyz
  1  'x, y, z'
loop_
 _atom_site_type_symbol
 _atom_site_label
 _atom_site_symmetry_multiplicity
 _atom_site_fract_x
 _atom_site_fract_y
 _atom_site_fract_z
 _atom_site_occupancy
  Li  Li0  1  0.69672700  0.34033499  -0.00000000  1
  Li  Li1  1  0.19599098  0.65986298  0.50000001  1
  Li  Li2  1  0.69616898  0.82493797  0.75215301  1
  Li  Li3  1  0.69616898  0.82493797  0.24784700  1
  Ag  Ag4  1  0.19948900  0.17700399  0.75229901  1
  Ag  Ag5  1  0.19948900  0.17700399  0.24770100  1
  Ag  Ag6  1  0.69244800  0.32306599  0.50000001  1
  Ag  Ag7  1  0.19261098  0.67334098  -0.00000000  1
  S  S8  1  0.56473300  0.15755399  0.74466001  1
  S  S9  1  0.56473300  0.15755399  0.25534000  1
  S  S10  1  0.06107098  0.85050997  0.76589101  1
  S  S11  1  0.06107098  0.85050997  0.23410900  1
  S  S12  1  0.05894399  0.29806599  0.50000001  1
  S  S13  1  0.56193699  0.68300298  -0.00000000  1
  S  S14  1  0.59883399  0.66347498  0.50000001  1
  S  S15  1  0.07958499  0.33883899  -0.00000000  1
