# generated using pymatgen
data_Rb5PbW
_symmetry_space_group_name_H-M   'P 1'
_cell_length_a   6.20513678
_cell_length_b   6.20513678
_cell_length_c   17.81275940
_cell_angle_alpha   90.00000000
_cell_angle_beta   90.00000000
_cell_angle_gamma   119.28733063
_symmetry_Int_Tables_number   1
_chemical_formula_structural   Rb5PbW
_chemical_formula_sum   'Rb10 Pb2 W2'
_cell_volume   598.18949305
_cell_formula_units_Z   2
loop_
 _symmetry_equiv_pos_site_id
 _symmetry_equiv_pos_as_xyz
  1  'x, y, z'
loop_
 _atom_site_type_symbol
 _atom_site_label
 _atom_site_symmetry_multiplicity
 _atom_site_fract_x
 _atom_site_fract_y
 _atom_site_fract_z
 _atom_site_occupancy
  Rb  Rb0  1  0.89428402  0.22211200  0.10404200  1
  Rb  Rb1  1  0.22211196  0.89428401  0.89595803  1
  Rb  Rb2  1  0.10571596  0.77788801  0.60404202  1
  Rb  Rb3  1  0.77788802  0.10571600  0.39595801  1
  Rb  Rb4  1  0.56297299  0.56297300  -0.00000000  1
  Rb  Rb5  1  0.43702699  0.43702700  0.50000002  1
  Rb  Rb6  1  0.49392199  0.50607800  0.25000001  1
  Rb  Rb7  1  0.50607799  0.49392200  0.75000003  1
  Rb  Rb8  1  0.16379196  0.83620801  0.25000001  1
  Rb  Rb9  1  0.83620802  0.16379200  0.75000003  1
  W  W10  1  0.23718496  0.89642201  0.10639700  1
  Pb  Pb11  1  0.89642202  0.23718500  0.89360303  1
  Pb  Pb12  1  0.76281502  0.10357800  0.60639702  1
  W  W13  1  0.10357796  0.76281501  0.39360301  1
