# generated using pymatgen
data_Li3CuO6
_symmetry_space_group_name_H-M   'P 1'
_cell_length_a   5.73287630
_cell_length_b   5.86300898
_cell_length_c   6.49785995
_cell_angle_alpha   104.63364410
_cell_angle_beta   103.33374786
_cell_angle_gamma   91.84957886
_symmetry_Int_Tables_number   1
_chemical_formula_structural   Li3CuO6
_chemical_formula_sum   'Li6 Cu2 O12'
_cell_volume   204.67103575
_cell_formula_units_Z   2
loop_
 _symmetry_equiv_pos_site_id
 _symmetry_equiv_pos_as_xyz
  1  'x, y, z'
loop_
 _atom_site_type_symbol
 _atom_site_label
 _atom_site_symmetry_multiplicity
 _atom_site_fract_x
 _atom_site_fract_y
 _atom_site_fract_z
 _atom_site_occupancy
  Li  Li0  1  0.33336997  0.83334898  0.33333328  1
  Li  Li1  1  0.83336897  0.83334898  0.33333326  1
  Li  Li2  1  0.66125298  0.66028498  0.67295193  1
  Li  Li3  1  0.00540100  0.00640000  0.99373697  1
  Li  Li4  1  0.16124898  0.66028098  0.67294995  1
  Li  Li5  1  0.50540199  0.00640300  0.99373895  1
  Cu  Cu6  1  0.83332498  0.33333332  0.33333328  1
  Cu  Cu7  1  0.33333332  0.33333332  0.33333330  1
  O  O8  1  0.07647798  0.57763399  0.36690796  1
  O  O9  1  0.57647698  0.57763499  0.36690994  1
  O  O10  1  0.09022500  0.08905300  0.29975298  1
  O  O11  1  0.59022399  0.08905400  0.29975596  1
  O  O12  1  0.42139897  0.87884598  0.68465393  1
  O  O13  1  0.92140697  0.87883798  0.68465791  1
  O  O14  1  0.24522698  0.78780098  0.98199793  1
  O  O15  1  0.74521897  0.78781098  0.98199391  1
  O  O16  1  0.40276898  0.44759299  0.64917495  1
  O  O17  1  0.90277198  0.44758099  0.64917493  1
  O  O18  1  0.26388899  0.21905999  0.01748998  1
  O  O19  1  0.76388699  0.21907199  0.01748896  1
