# generated using pymatgen
data_ZnNi3P4
_symmetry_space_group_name_H-M   'P 1'
_cell_length_a   5.47383595
_cell_length_b   5.48828602
_cell_length_c   6.67511559
_cell_angle_alpha   114.27397919
_cell_angle_beta   114.20597076
_cell_angle_gamma   90.00000000
_symmetry_Int_Tables_number   1
_chemical_formula_structural   ZnNi3P4
_chemical_formula_sum   'Zn1 Ni3 P4'
_cell_volume   163.26958751
_cell_formula_units_Z   1
loop_
 _symmetry_equiv_pos_site_id
 _symmetry_equiv_pos_as_xyz
  1  'x, y, z'
loop_
 _atom_site_type_symbol
 _atom_site_label
 _atom_site_symmetry_multiplicity
 _atom_site_fract_x
 _atom_site_fract_y
 _atom_site_fract_z
 _atom_site_occupancy
  Zn  Zn0  1  0.25591999  0.75592098  0.51184097  1
  Ni  Ni1  1  0.49408000  0.49407899  0.98815898  1
  Ni  Ni2  1  0.76219901  0.26219799  0.52439700  1
  Ni  Ni3  1  0.98780100  0.98780197  0.97560297  1
  P  P4  1  0.37499999  0.87597598  0.24999996  1
  P  P5  1  0.87500001  0.37402399  0.24999999  1
  P  P6  1  0.61480700  0.62499998  0.74999998  1
  P  P7  1  0.13519300  0.12500000  0.75000000  1
