# generated using pymatgen
data_Ca3Zn3P4
_symmetry_space_group_name_H-M   'P 1'
_cell_length_a   4.09299183
_cell_length_b   4.09299183
_cell_length_c   14.33593941
_cell_angle_alpha   90.00000000
_cell_angle_beta   90.00000000
_cell_angle_gamma   120.00000000
_symmetry_Int_Tables_number   1
_chemical_formula_structural   Ca3Zn3P4
_chemical_formula_sum   'Ca3 Zn3 P4'
_cell_volume   207.98812687
_cell_formula_units_Z   1
loop_
 _symmetry_equiv_pos_site_id
 _symmetry_equiv_pos_as_xyz
  1  'x, y, z'
loop_
 _atom_site_type_symbol
 _atom_site_label
 _atom_site_symmetry_multiplicity
 _atom_site_fract_x
 _atom_site_fract_y
 _atom_site_fract_z
 _atom_site_occupancy
  Ca  Ca0  1  0.66666669  0.33333334  0.61710598  1
  Ca  Ca1  1  0.33333334  0.66666669  0.38289399  1
  Ca  Ca2  1  0.33333334  0.66666669  0.11710600  1
  Zn  Zn3  1  0.66666669  0.33333334  0.88289397  1
  Zn  Zn4  1  0.00000000  0.00000000  0.74999998  1
  Zn  Zn5  1  0.00000000  0.00000000  0.24999999  1
  P  P6  1  0.00000000  0.00000000  0.49999999  1
  P  P7  1  0.00000000  0.00000000  0.00000000  1
  P  P8  1  0.66666669  0.33333334  0.24999999  1
  P  P9  1  0.33333334  0.66666669  0.74999998  1
