# generated using pymatgen
data_Li2CuO4
_symmetry_space_group_name_H-M   'P 1'
_cell_length_a   5.77004194
_cell_length_b   5.77004194
_cell_length_c   5.83713818
_cell_angle_alpha   60.37952042
_cell_angle_beta   60.37952042
_cell_angle_gamma   60.00000381
_symmetry_Int_Tables_number   1
_chemical_formula_structural   Li2CuO4
_chemical_formula_sum   'Li4 Cu2 O8'
_cell_volume   138.20080180
_cell_formula_units_Z   2
loop_
 _symmetry_equiv_pos_site_id
 _symmetry_equiv_pos_as_xyz
  1  'x, y, z'
loop_
 _atom_site_type_symbol
 _atom_site_label
 _atom_site_symmetry_multiplicity
 _atom_site_fract_x
 _atom_site_fract_y
 _atom_site_fract_z
 _atom_site_occupancy
  Li  Li0  1  0.87863797  0.87863796  0.36408607  1
  Li  Li1  1  0.12136200  0.12136199  0.63591402  1
  Li  Li2  1  0.49999998  0.49999998  0.50000004  1
  Li  Li3  1  0.00000000  0.49999998  0.00000002  1
  Cu  Cu4  1  0.49999998  0.49999998  0.00000003  1
  Cu  Cu5  1  0.49999998  0.00000000  0.00000002  1
  O  O6  1  0.73802097  0.73802097  0.78593706  1
  O  O7  1  0.74416497  0.29199099  0.21967904  1
  O  O8  1  0.74416497  0.74416497  0.21967906  1
  O  O9  1  0.29199099  0.74416497  0.21967904  1
  O  O10  1  0.70800897  0.25583499  0.78032105  1
  O  O11  1  0.25583499  0.25583499  0.78032103  1
  O  O12  1  0.25583499  0.70800897  0.78032105  1
  O  O13  1  0.26197899  0.26197899  0.21406302  1
