# generated using pymatgen
data_NaTaFeS4
_symmetry_space_group_name_H-M   'P 1'
_cell_length_a   3.45726800
_cell_length_b   5.90342999
_cell_length_c   6.83725357
_cell_angle_alpha   89.90385437
_cell_angle_beta   90.00000000
_cell_angle_gamma   90.00000000
_symmetry_Int_Tables_number   1
_chemical_formula_structural   NaTaFeS4
_chemical_formula_sum   'Na1 Ta1 Fe1 S4'
_cell_volume   139.54636831
_cell_formula_units_Z   1
loop_
 _symmetry_equiv_pos_site_id
 _symmetry_equiv_pos_as_xyz
  1  'x, y, z'
loop_
 _atom_site_type_symbol
 _atom_site_label
 _atom_site_symmetry_multiplicity
 _atom_site_fract_x
 _atom_site_fract_y
 _atom_site_fract_z
 _atom_site_occupancy
  Na  Na0  1  0.00000000  0.00000000  0.50000000  1
  Ta  Ta1  1  0.50000000  0.50000000  -0.00000002  1
  Fe  Fe2  1  0.00000000  0.00000000  0.00000000  1
  S  S3  1  -0.00000000  0.33420500  0.19352699  1
  S  S4  1  0.50000000  0.83356700  0.19543997  1
  S  S5  1  0.50000000  0.16643300  0.80456000  1
  S  S6  1  0.00000000  0.66579500  0.80647298  1
