# generated using pymatgen
data_La7Y
_symmetry_space_group_name_H-M   'P 1'
_cell_length_a   5.98893595
_cell_length_b   7.41838980
_cell_length_c   7.41839075
_cell_angle_alpha   60.00000381
_cell_angle_beta   90.00000000
_cell_angle_gamma   90.00000000
_symmetry_Int_Tables_number   1
_chemical_formula_structural   La7Y
_chemical_formula_sum   'La7 Y1'
_cell_volume   285.43003543
_cell_formula_units_Z   1
loop_
 _symmetry_equiv_pos_site_id
 _symmetry_equiv_pos_as_xyz
  1  'x, y, z'
loop_
 _atom_site_type_symbol
 _atom_site_label
 _atom_site_symmetry_multiplicity
 _atom_site_fract_x
 _atom_site_fract_y
 _atom_site_fract_z
 _atom_site_occupancy
  La  La0  1  0.75000001  0.67324401  0.16337801  1
  La  La1  1  0.75000001  0.16337800  0.16337800  1
  La  La2  1  0.75000001  0.16337800  0.67324400  1
  La  La3  1  0.25000000  0.32675601  0.83662200  1
  La  La4  1  0.25000000  0.83662202  0.83662201  1
  La  La5  1  0.25000000  0.83662202  0.32675601  1
  La  La6  1  0.25000000  0.33333334  0.33333334  1
  Y  Y7  1  0.75000001  0.66666668  0.66666667  1
