# generated using pymatgen
data_Mn5(AsO)2
_symmetry_space_group_name_H-M   'P 1'
_cell_length_a   3.15670991
_cell_length_b   6.55071592
_cell_length_c   6.55071592
_cell_angle_alpha   86.67188263
_cell_angle_beta   76.05774689
_cell_angle_gamma   76.05774689
_symmetry_Int_Tables_number   1
_chemical_formula_structural   Mn5(AsO)2
_chemical_formula_sum   'Mn5 As2 O2'
_cell_volume   127.59634771
_cell_formula_units_Z   1
loop_
 _symmetry_equiv_pos_site_id
 _symmetry_equiv_pos_as_xyz
  1  'x, y, z'
loop_
 _atom_site_type_symbol
 _atom_site_label
 _atom_site_symmetry_multiplicity
 _atom_site_fract_x
 _atom_site_fract_y
 _atom_site_fract_z
 _atom_site_occupancy
  Mn  Mn0  1  0.37901411  0.92089501  0.32107702  1
  Mn  Mn1  1  0.29990904  0.32107700  0.07910501  1
  Mn  Mn2  1  0.00000000  0.00000000  0.00000000  1
  Mn  Mn3  1  0.62098602  0.07910500  0.67892303  1
  Mn  Mn4  1  0.70009109  0.67892301  0.92089504  1
  As  As5  1  0.72842503  0.20778700  0.33536303  1
  As  As6  1  0.93621305  0.33536200  0.79221304  1
  O  O7  1  0.27157509  0.79221301  0.66463702  1
  O  O8  1  0.06378707  0.66463801  0.20778701  1
