# generated using pymatgen
data_NaSiO4
_symmetry_space_group_name_H-M   'P 1'
_cell_length_a   6.16785765
_cell_length_b   6.16785765
_cell_length_c   6.16785765
_cell_angle_alpha   105.83789062
_cell_angle_beta   105.83789062
_cell_angle_gamma   117.01134491
_symmetry_Int_Tables_number   1
_chemical_formula_structural   NaSiO4
_chemical_formula_sum   'Na2 Si2 O8'
_cell_volume   178.25110447
_cell_formula_units_Z   2
loop_
 _symmetry_equiv_pos_site_id
 _symmetry_equiv_pos_as_xyz
  1  'x, y, z'
loop_
 _atom_site_type_symbol
 _atom_site_label
 _atom_site_symmetry_multiplicity
 _atom_site_fract_x
 _atom_site_fract_y
 _atom_site_fract_z
 _atom_site_occupancy
  Na  Na0  1  0.00000000  0.00000000  0.00000000  1
  Na  Na1  1  0.74999996  0.24999999  0.49999996  1
  Si  Si2  1  0.24999996  0.74999996  0.49999995  1
  Si  Si3  1  0.49999996  0.49999997  -0.00000003  1
  O  O4  1  0.66263995  0.84095395  0.17831394  1
  O  O5  1  0.59095295  0.91263895  0.67831293  1
  O  O6  1  0.23432596  0.91263995  0.32168595  1
  O  O7  1  0.66263996  0.48432597  0.82168694  1
  O  O8  1  0.15904698  0.33736098  0.82168696  1
  O  O9  1  0.08735998  0.40904598  0.32168597  1
  O  O10  1  0.08735997  0.76567396  0.67831295  1
  O  O11  1  0.51567397  0.33735998  0.17831397  1
