# generated using pymatgen
data_LiCuO3
_symmetry_space_group_name_H-M   'P 1'
_cell_length_a   6.44860506
_cell_length_b   6.44860506
_cell_length_c   6.44860506
_cell_angle_alpha   109.47122192
_cell_angle_beta   109.47122192
_cell_angle_gamma   109.47122192
_symmetry_Int_Tables_number   1
_chemical_formula_structural   LiCuO3
_chemical_formula_sum   'Li4 Cu4 O12'
_cell_volume   206.43124307
_cell_formula_units_Z   4
loop_
 _symmetry_equiv_pos_site_id
 _symmetry_equiv_pos_as_xyz
  1  'x, y, z'
loop_
 _atom_site_type_symbol
 _atom_site_label
 _atom_site_symmetry_multiplicity
 _atom_site_fract_x
 _atom_site_fract_y
 _atom_site_fract_z
 _atom_site_occupancy
  Li  Li0  1  0.00000000  0.00000000  0.00000000  1
  Li  Li1  1  0.00000000  0.00000000  0.50000002  1
  Cu  Cu2  1  1.00000008  0.50000004  1.00000009  1
  Li  Li3  1  0.50000002  0.00000000  0.50000003  1
  Li  Li4  1  0.50000002  0.00000000  0.00000001  1
  Cu  Cu5  1  0.50000005  0.50000004  0.50000006  1
  Cu  Cu6  1  1.00000008  0.50000004  0.50000007  1
  Cu  Cu7  1  0.50000005  0.50000004  0.00000004  1
  O  O8  1  0.68568608  0.81481906  0.50050508  1
  O  O9  1  0.31431407  0.81481906  0.12913306  1
  O  O10  1  0.81481907  0.50050504  0.68568607  1
  O  O11  1  0.81481904  0.12913301  0.31431404  1
  O  O12  1  0.87086708  0.68568605  0.18518107  1
  O  O13  1  0.31431403  0.18518101  0.49949504  1
  O  O14  1  0.49949504  0.31431402  0.18518104  1
  O  O15  1  0.68568604  0.18518101  0.87086706  1
  O  O16  1  0.18518104  0.49949504  0.31431404  1
  O  O17  1  0.50050507  0.68568605  0.81481908  1
  O  O18  1  0.12913303  0.31431402  0.81481905  1
  O  O19  1  0.18518106  0.87086707  0.68568608  1
