# generated using pymatgen
data_Ge4Bi
_symmetry_space_group_name_H-M   'P 1'
_cell_length_a   5.12608290
_cell_length_b   5.12608290
_cell_length_c   5.13044119
_cell_angle_alpha   90.00000000
_cell_angle_beta   90.00000000
_cell_angle_gamma   90.00000000
_symmetry_Int_Tables_number   1
_chemical_formula_structural   Ge4Bi
_chemical_formula_sum   'Ge4 Bi1'
_cell_volume   134.81119670
_cell_formula_units_Z   1
loop_
 _symmetry_equiv_pos_site_id
 _symmetry_equiv_pos_as_xyz
  1  'x, y, z'
loop_
 _atom_site_type_symbol
 _atom_site_label
 _atom_site_symmetry_multiplicity
 _atom_site_fract_x
 _atom_site_fract_y
 _atom_site_fract_z
 _atom_site_occupancy
  Bi  Bi0  1  0.00000000  0.00000000  0.99913696  1
  Ge  Ge1  1  0.50000001  0.50000001  0.48555898  1
  Ge  Ge2  1  0.00000000  0.50000001  0.48350598  1
  Ge  Ge3  1  0.50000001  0.50000001  0.98542296  1
  Ge  Ge4  1  0.50000001  0.00000000  0.48350598  1
