# generated using pymatgen
data_LaGa2Ni3
_symmetry_space_group_name_H-M   'P 1'
_cell_length_a   3.84837604
_cell_length_b   5.69713593
_cell_length_c   5.69713640
_cell_angle_alpha   120.00000000
_cell_angle_beta   90.00000000
_cell_angle_gamma   90.00000000
_symmetry_Int_Tables_number   1
_chemical_formula_structural   LaGa2Ni3
_chemical_formula_sum   'La1 Ga2 Ni3'
_cell_volume   108.17361217
_cell_formula_units_Z   1
loop_
 _symmetry_equiv_pos_site_id
 _symmetry_equiv_pos_as_xyz
  1  'x, y, z'
loop_
 _atom_site_type_symbol
 _atom_site_label
 _atom_site_symmetry_multiplicity
 _atom_site_fract_x
 _atom_site_fract_y
 _atom_site_fract_z
 _atom_site_occupancy
  La  La0  1  0.00000000  0.00000000  0.00000000  1
  Ga  Ga1  1  -0.00000000  0.66666669  0.33333337  1
  Ga  Ga2  1  0.99999999  0.33333335  0.66666669  1
  Ni  Ni3  1  0.50000000  0.50000002  0.50000003  1
  Ni  Ni4  1  0.50000000  0.00000000  0.50000000  1
  Ni  Ni5  1  0.50000000  0.50000002  1.00000003  1
