# generated using pymatgen
data_NaMnO2
_symmetry_space_group_name_H-M   'P 1'
_cell_length_a   5.29117489
_cell_length_b   5.81047010
_cell_length_c   8.19225025
_cell_angle_alpha   90.00000000
_cell_angle_beta   90.00000000
_cell_angle_gamma   90.00000000
_symmetry_Int_Tables_number   1
_chemical_formula_structural   NaMnO2
_chemical_formula_sum   'Na4 Mn4 O8'
_cell_volume   251.86429084
_cell_formula_units_Z   4
loop_
 _symmetry_equiv_pos_site_id
 _symmetry_equiv_pos_as_xyz
  1  'x, y, z'
loop_
 _atom_site_type_symbol
 _atom_site_label
 _atom_site_symmetry_multiplicity
 _atom_site_fract_x
 _atom_site_fract_y
 _atom_site_fract_z
 _atom_site_occupancy
  Na  Na0  1  0.02293500  0.04395900  0.63886098  1
  Na  Na1  1  0.52293501  0.45604099  0.63886098  1
  Na  Na2  1  0.52293501  0.95604098  0.36113899  1
  Na  Na3  1  0.02293500  0.54395899  0.36113899  1
  Mn  Mn4  1  0.99355402  0.09019300  0.09471800  1
  Mn  Mn5  1  0.49355401  0.90980698  0.90528197  1
  Mn  Mn6  1  0.49355401  0.40980699  0.09471800  1
  Mn  Mn7  1  0.99355402  0.59019299  0.90528197  1
  O  O8  1  0.64825701  0.62675499  0.95760197  1
  O  O9  1  0.14825700  0.37324499  0.04239800  1
  O  O10  1  0.14825700  0.87324498  0.95760197  1
  O  O11  1  0.64825701  0.12675500  0.04239800  1
  O  O12  1  0.52725301  0.97262098  0.69667298  1
  O  O13  1  0.52725301  0.47262099  0.30332699  1
  O  O14  1  0.02725300  0.52737899  0.69667298  1
  O  O15  1  0.02725300  0.02737900  0.30332699  1
