# generated using pymatgen
data_Ba3UO6
_symmetry_space_group_name_H-M   'P 1'
_cell_length_a   6.78890324
_cell_length_b   6.80142069
_cell_length_c   6.84587908
_cell_angle_alpha   78.90219879
_cell_angle_beta   79.63789368
_cell_angle_gamma   105.55747223
_symmetry_Int_Tables_number   1
_chemical_formula_structural   Ba3UO6
_chemical_formula_sum   'Ba3 U1 O6'
_cell_volume   289.72891141
_cell_formula_units_Z   1
loop_
 _symmetry_equiv_pos_site_id
 _symmetry_equiv_pos_as_xyz
  1  'x, y, z'
loop_
 _atom_site_type_symbol
 _atom_site_label
 _atom_site_symmetry_multiplicity
 _atom_site_fract_x
 _atom_site_fract_y
 _atom_site_fract_z
 _atom_site_occupancy
  Ba  Ba0  1  0.00000005  1.00000004  0.49999998  1
  Ba  Ba1  1  0.50000001  0.00000000  0.99999999  1
  Ba  Ba2  1  0.00000002  0.50000002  -0.00000001  1
  U  U3  1  0.00000000  0.00000000  0.00000000  1
  O  O4  1  0.05613704  0.77970803  0.22200799  1
  O  O5  1  0.94386303  0.22029201  0.77799200  1
  O  O6  1  0.78889502  0.07602600  0.21252202  1
  O  O7  1  0.21110505  0.92397403  0.78747797  1
  O  O8  1  0.76738605  0.77694503  0.92651899  1
  O  O9  1  0.23261402  0.22305501  0.07348100  1
