# generated using pymatgen
data_Ba9Ag7
_symmetry_space_group_name_H-M   'P 1'
_cell_length_a   6.66675806
_cell_length_b   6.94496679
_cell_length_c   12.88316536
_cell_angle_alpha   90.00000000
_cell_angle_beta   90.00000000
_cell_angle_gamma   90.00000000
_symmetry_Int_Tables_number   1
_chemical_formula_structural   Ba9Ag7
_chemical_formula_sum   'Ba9 Ag7'
_cell_volume   596.49588137
_cell_formula_units_Z   1
loop_
 _symmetry_equiv_pos_site_id
 _symmetry_equiv_pos_as_xyz
  1  'x, y, z'
loop_
 _atom_site_type_symbol
 _atom_site_label
 _atom_site_symmetry_multiplicity
 _atom_site_fract_x
 _atom_site_fract_y
 _atom_site_fract_z
 _atom_site_occupancy
  Ba  Ba0  1  0.55820899  0.00000000  -0.00000000  1
  Ba  Ba1  1  0.44179100  0.50000001  0.49999999  1
  Ba  Ba2  1  0.82801599  0.50000001  0.74685198  1
  Ba  Ba3  1  0.82801599  0.50000001  0.25314799  1
  Ba  Ba4  1  0.17198400  0.00000000  0.75314798  1
  Ba  Ba5  1  0.17198400  0.00000000  0.24685199  1
  Ba  Ba6  1  0.33279000  0.50000001  0.87805698  1
  Ba  Ba7  1  0.33279000  0.50000001  0.12194300  1
  Ag  Ag8  1  0.04006100  0.26829901  0.00000000  1
  Ag  Ag9  1  0.04006100  0.73170102  0.00000000  1
  Ba  Ba10  1  0.95993899  0.76829902  0.49999999  1
  Ag  Ag11  1  0.95993899  0.23170101  0.49999999  1
  Ag  Ag12  1  0.66720999  0.00000000  0.37805699  1
  Ag  Ag13  1  0.66720999  0.00000000  0.62194298  1
  Ag  Ag14  1  0.68728199  0.50000001  0.00000000  1
  Ag  Ag15  1  0.31271800  0.00000000  0.49999999  1
