# generated using pymatgen
data_PrGa3Ni
_symmetry_space_group_name_H-M   'P 1'
_cell_length_a   4.26507187
_cell_length_b   4.26507187
_cell_length_c   5.82770777
_cell_angle_alpha   111.46485901
_cell_angle_beta   111.46485901
_cell_angle_gamma   90.00000000
_symmetry_Int_Tables_number   1
_chemical_formula_structural   PrGa3Ni
_chemical_formula_sum   'Pr1 Ga3 Ni1'
_cell_volume   90.71148745
_cell_formula_units_Z   1
loop_
 _symmetry_equiv_pos_site_id
 _symmetry_equiv_pos_as_xyz
  1  'x, y, z'
loop_
 _atom_site_type_symbol
 _atom_site_label
 _atom_site_symmetry_multiplicity
 _atom_site_fract_x
 _atom_site_fract_y
 _atom_site_fract_z
 _atom_site_occupancy
  Pr  Pr0  1  0.00019000  0.00019000  0.00038000  1
  Ga  Ga1  1  0.41611102  0.41611102  0.83222201  1
  Ga  Ga2  1  0.26125502  0.76125503  0.52251001  1
  Ga  Ga3  1  0.76125503  0.26125501  0.52251001  1
  Ni  Ni4  1  0.65519003  0.65519002  0.31038001  1
