# generated using pymatgen
data_Ce2Ga9
_symmetry_space_group_name_H-M   'P 1'
_cell_length_a   4.66968584
_cell_length_b   4.66968584
_cell_length_c   12.12738991
_cell_angle_alpha   90.00000000
_cell_angle_beta   90.00000000
_cell_angle_gamma   90.00000000
_symmetry_Int_Tables_number   1
_chemical_formula_structural   Ce2Ga9
_chemical_formula_sum   'Ce2 Ga9'
_cell_volume   264.44945018
_cell_formula_units_Z   1
loop_
 _symmetry_equiv_pos_site_id
 _symmetry_equiv_pos_as_xyz
  1  'x, y, z'
loop_
 _atom_site_type_symbol
 _atom_site_label
 _atom_site_symmetry_multiplicity
 _atom_site_fract_x
 _atom_site_fract_y
 _atom_site_fract_z
 _atom_site_occupancy
  Ce  Ce0  1  0.50000002  0.50000002  0.69114801  1
  Ce  Ce1  1  0.50000002  0.50000002  0.30885200  1
  Ga  Ga2  1  0.00000000  0.50000002  0.50000000  1
  Ga  Ga3  1  0.50000002  0.00000000  0.50000000  1
  Ga  Ga4  1  0.00000000  0.50000002  0.87642801  1
  Ga  Ga5  1  0.50000002  0.00000000  0.87642801  1
  Ga  Ga6  1  0.00000000  0.50000002  0.12357200  1
  Ga  Ga7  1  0.50000002  0.00000000  0.12357200  1
  Ga  Ga8  1  0.00000000  0.00000000  0.69055501  1
  Ga  Ga9  1  0.00000000  0.00000000  0.30944500  1
  Ga  Ga10  1  0.50000002  0.50000002  0.00000000  1
