# generated using pymatgen
data_ZrSi3
_symmetry_space_group_name_H-M   'P 1'
_cell_length_a   5.08597517
_cell_length_b   5.77003813
_cell_length_c   5.77003765
_cell_angle_alpha   120.00000000
_cell_angle_beta   90.00000000
_cell_angle_gamma   90.00000000
_symmetry_Int_Tables_number   1
_chemical_formula_structural   ZrSi3
_chemical_formula_sum   'Zr2 Si6'
_cell_volume   146.64329056
_cell_formula_units_Z   2
loop_
 _symmetry_equiv_pos_site_id
 _symmetry_equiv_pos_as_xyz
  1  'x, y, z'
loop_
 _atom_site_type_symbol
 _atom_site_label
 _atom_site_symmetry_multiplicity
 _atom_site_fract_x
 _atom_site_fract_y
 _atom_site_fract_z
 _atom_site_occupancy
  Zr  Zr0  1  0.74999997  0.33333332  0.66666664  1
  Zr  Zr1  1  0.24999999  0.66666664  0.33333330  1
  Si  Si2  1  0.24999999  0.16534799  0.33069599  1
  Si  Si3  1  0.24999999  0.66930397  0.83465196  1
  Si  Si4  1  0.24999999  0.16534799  0.83465198  1
  Si  Si5  1  0.74999997  0.83465196  0.66930395  1
  Si  Si6  1  0.74999997  0.33069598  0.16534798  1
  Si  Si7  1  0.74999997  0.83465196  0.16534796  1
