# generated using pymatgen
data_Ba2EuGe9
_symmetry_space_group_name_H-M   'P 1'
_cell_length_a   6.46482801
_cell_length_b   6.46482801
_cell_length_c   9.01643085
_cell_angle_alpha   111.00826263
_cell_angle_beta   111.00826263
_cell_angle_gamma   90.00000000
_symmetry_Int_Tables_number   1
_chemical_formula_structural   Ba2EuGe9
_chemical_formula_sum   'Ba2 Eu1 Ge9'
_cell_volume   324.80965383
_cell_formula_units_Z   1
loop_
 _symmetry_equiv_pos_site_id
 _symmetry_equiv_pos_as_xyz
  1  'x, y, z'
loop_
 _atom_site_type_symbol
 _atom_site_label
 _atom_site_symmetry_multiplicity
 _atom_site_fract_x
 _atom_site_fract_y
 _atom_site_fract_z
 _atom_site_occupancy
  Ba  Ba0  1  0.00000000  0.00000000  0.00000000  1
  Ba  Ba1  1  0.12982198  0.62982199  0.25964398  1
  Eu  Eu2  1  0.37017797  0.87017798  0.74035596  1
  Ge  Ge3  1  0.77599997  0.56244999  0.55199996  1
  Ge  Ge4  1  0.08547699  0.39424599  0.78849199  1
  Ge  Ge5  1  0.70301498  0.39424599  0.78849197  1
  Ge  Ge6  1  0.77599996  0.98954998  0.55199995  1
  Ge  Ge7  1  0.01044999  0.22400000  0.44799999  1
  Ge  Ge8  1  0.43754999  0.22400000  0.44799998  1
  Ge  Ge9  1  0.60575398  0.29698499  0.21150798  1
  Ge  Ge10  1  0.60575396  0.91452298  0.21150795  1
  Ge  Ge11  1  0.49999998  0.49999999  -0.00000003  1
