# generated using pymatgen
data_Ce2In2Au3
_symmetry_space_group_name_H-M   'P 1'
_cell_length_a   6.23664188
_cell_length_b   7.45565605
_cell_length_c   8.68477058
_cell_angle_alpha   115.41917419
_cell_angle_beta   111.04224396
_cell_angle_gamma   90.00000000
_symmetry_Int_Tables_number   1
_chemical_formula_structural   Ce2In2Au3
_chemical_formula_sum   'Ce4 In4 Au6'
_cell_volume   334.67316057
_cell_formula_units_Z   2
loop_
 _symmetry_equiv_pos_site_id
 _symmetry_equiv_pos_as_xyz
  1  'x, y, z'
loop_
 _atom_site_type_symbol
 _atom_site_label
 _atom_site_symmetry_multiplicity
 _atom_site_fract_x
 _atom_site_fract_y
 _atom_site_fract_z
 _atom_site_occupancy
  Ce  Ce0  1  0.08451499  0.92507602  0.16903004  1
  Ce  Ce1  1  0.51579399  0.26579400  0.53158798  1
  Ce  Ce2  1  0.74999999  0.50000001  -0.00000001  1
  Ce  Ce3  1  0.41548499  0.75604601  0.83097001  1
  In  In4  1  0.91548499  0.07492400  0.83096995  1
  In  In5  1  0.48420599  0.73420601  0.46841201  1
  In  In6  1  0.98420599  0.73420601  0.46841198  1
  In  In7  1  0.01579400  0.26579400  0.53158801  1
  Au  Au8  1  0.58451499  0.24395400  0.16902998  1
  Au  Au9  1  0.24999999  0.50000001  0.00000001  1
  Au  Au10  1  0.87706199  0.64290701  0.75412398  1
  Au  Au11  1  0.62293799  0.88878301  0.24587601  1
  Au  Au12  1  0.37706200  0.11121700  0.75412398  1
  Au  Au13  1  0.12293800  0.35709301  0.24587601  1
