# generated using pymatgen
data_CsBaSr5O13
_symmetry_space_group_name_H-M   'P 1'
_cell_length_a   4.61056900
_cell_length_b   9.05741215
_cell_length_c   9.23121834
_cell_angle_alpha   112.71092987
_cell_angle_beta   90.00000000
_cell_angle_gamma   90.00000000
_symmetry_Int_Tables_number   1
_chemical_formula_structural   CsBaSr5O13
_chemical_formula_sum   'Cs1 Ba1 Sr5 O13'
_cell_volume   355.60455932
_cell_formula_units_Z   1
loop_
 _symmetry_equiv_pos_site_id
 _symmetry_equiv_pos_as_xyz
  1  'x, y, z'
loop_
 _atom_site_type_symbol
 _atom_site_label
 _atom_site_symmetry_multiplicity
 _atom_site_fract_x
 _atom_site_fract_y
 _atom_site_fract_z
 _atom_site_occupancy
  Ba  Ba0  1  0.07133100  0.23833099  0.14966899  1
  Sr  Sr1  1  0.07133100  0.76166897  0.35033098  1
  Sr  Sr2  1  0.92866900  0.76166897  0.85033100  1
  Sr  Sr3  1  0.92866900  0.23833099  0.64966902  1
  Sr  Sr4  1  0.38488500  0.18907499  0.09831599  1
  Sr  Sr5  1  0.38488500  0.81092497  0.40168398  1
  Cs  Cs6  1  0.61511500  0.81092497  0.90168400  1
  O  O7  1  0.61511500  0.18907499  0.59831602  1
  O  O8  1  0.91740200  0.28419099  0.02554499  1
  O  O9  1  0.91740200  0.71580897  0.47445498  1
  O  O10  1  0.08259800  0.71580897  0.97445501  1
  O  O11  1  0.08259800  0.28419099  0.52554501  1
  O  O12  1  0.08065500  0.38234099  0.30686199  1
  O  O13  1  0.08065500  0.61765898  0.19313798  1
  O  O14  1  0.91934500  0.61765898  0.69313800  1
  O  O15  1  0.91934500  0.38234099  0.80686202  1
  O  O16  1  0.91417200  0.09911600  0.17243400  1
  O  O17  1  0.91417200  0.90088397  0.32756597  1
  O  O18  1  0.08582800  0.90088397  0.82756599  1
  O  O19  1  0.08582800  0.09911600  0.67243402  1
