# generated using pymatgen
data_La2Cu7
_symmetry_space_group_name_H-M   'P 1'
_cell_length_a   7.01175737
_cell_length_b   7.01175737
_cell_length_c   7.50972700
_cell_angle_alpha   90.63313293
_cell_angle_beta   90.63313293
_cell_angle_gamma   117.84817505
_symmetry_Int_Tables_number   1
_chemical_formula_structural   La2Cu7
_chemical_formula_sum   'La4 Cu14'
_cell_volume   326.37977770
_cell_formula_units_Z   2
loop_
 _symmetry_equiv_pos_site_id
 _symmetry_equiv_pos_as_xyz
  1  'x, y, z'
loop_
 _atom_site_type_symbol
 _atom_site_label
 _atom_site_symmetry_multiplicity
 _atom_site_fract_x
 _atom_site_fract_y
 _atom_site_fract_z
 _atom_site_occupancy
  La  La0  1  0.35667502  0.67463100  0.99877895  1
  La  La1  1  0.32536902  0.64332500  0.50122095  1
  La  La2  1  0.67463100  0.35667500  0.49877895  1
  La  La3  1  0.64332500  0.32536900  0.00122095  1
  Cu  Cu4  1  0.03907503  0.96092500  0.24999995  1
  Cu  Cu5  1  0.96092499  0.03907500  0.74999995  1
  Cu  Cu6  1  0.87049199  0.07366900  0.04528495  1
  Cu  Cu7  1  0.92633099  0.12950800  0.45471495  1
  Cu  Cu8  1  0.12950803  0.92633100  0.95471495  1
  Cu  Cu9  1  0.07366903  0.87049200  0.54528495  1
  Cu  Cu10  1  0.99547300  0.38137700  0.76767793  1
  Cu  Cu11  1  0.61862299  0.00452700  0.73232197  1
  Cu  Cu12  1  0.29752001  0.30788000  0.23558297  1
  Cu  Cu13  1  0.69212001  0.70248000  0.26441693  1
  Cu  Cu14  1  0.70248001  0.69212000  0.76441693  1
  Cu  Cu15  1  0.30788000  0.29752000  0.73558297  1
  Cu  Cu16  1  0.38137703  0.99547300  0.26767793  1
  Cu  Cu17  1  0.00452702  0.61862300  0.23232197  1
