# generated using pymatgen
data_Li2CrS4
_symmetry_space_group_name_H-M   'P 1'
_cell_length_a   6.57813787
_cell_length_b   6.57813787
_cell_length_c   6.57813787
_cell_angle_alpha   60.00000000
_cell_angle_beta   60.00000000
_cell_angle_gamma   60.00000000
_symmetry_Int_Tables_number   1
_chemical_formula_structural   Li2CrS4
_chemical_formula_sum   'Li4 Cr2 S8'
_cell_volume   201.27689200
_cell_formula_units_Z   2
loop_
 _symmetry_equiv_pos_site_id
 _symmetry_equiv_pos_as_xyz
  1  'x, y, z'
loop_
 _atom_site_type_symbol
 _atom_site_label
 _atom_site_symmetry_multiplicity
 _atom_site_fract_x
 _atom_site_fract_y
 _atom_site_fract_z
 _atom_site_occupancy
  Li  Li0  1  0.37463701  0.87608702  0.37463801  1
  Li  Li1  1  0.37463701  0.37463801  0.37463801  1
  Li  Li2  1  0.37463701  0.37463801  0.87608702  1
  Li  Li3  1  0.87608602  0.37463801  0.37463801  1
  Cr  Cr4  1  0.75000002  0.75000002  0.75000002  1
  Cr  Cr5  1  0.00000000  0.00000000  0.00000000  1
  S  S6  1  0.13428100  0.59715901  0.13428000  1
  S  S7  1  0.13428100  0.13428000  0.13428000  1
  S  S8  1  0.13428100  0.13428000  0.59715901  1
  S  S9  1  0.59716001  0.13428000  0.13428000  1
  S  S10  1  0.61762601  0.14712400  0.61762501  1
  S  S11  1  0.61762601  0.61762501  0.61762501  1
  S  S12  1  0.61762601  0.61762501  0.14712400  1
  S  S13  1  0.14712500  0.61762501  0.61762501  1
