# generated using pymatgen
data_NaCuS
_symmetry_space_group_name_H-M   'P 1'
_cell_length_a   4.23589993
_cell_length_b   4.23589993
_cell_length_c   7.66151524
_cell_angle_alpha   106.04785156
_cell_angle_beta   106.04785156
_cell_angle_gamma   90.00000000
_symmetry_Int_Tables_number   1
_chemical_formula_structural   NaCuS
_chemical_formula_sum   'Na2 Cu2 S2'
_cell_volume   126.52875266
_cell_formula_units_Z   2
loop_
 _symmetry_equiv_pos_site_id
 _symmetry_equiv_pos_as_xyz
  1  'x, y, z'
loop_
 _atom_site_type_symbol
 _atom_site_label
 _atom_site_symmetry_multiplicity
 _atom_site_fract_x
 _atom_site_fract_y
 _atom_site_fract_z
 _atom_site_occupancy
  Na  Na0  1  0.86291500  0.86291501  0.72582996  1
  Na  Na1  1  1.00000000  0.50000000  0.99999996  1
  Cu  Cu2  1  0.49999999  1.00000001  0.99999996  1
  Cu  Cu3  1  0.13708500  0.13708500  0.27416999  1
  S  S4  1  0.65085200  0.65085201  0.30170397  1
  S  S5  1  0.34914800  0.34914800  0.69829598  1
