# generated using pymatgen
data_Ce3Sn
_symmetry_space_group_name_H-M   'P 1'
_cell_length_a   6.58412409
_cell_length_b   7.70701981
_cell_length_c   9.93796539
_cell_angle_alpha   90.00000000
_cell_angle_beta   90.00000000
_cell_angle_gamma   90.00000000
_symmetry_Int_Tables_number   1
_chemical_formula_structural   Ce3Sn
_chemical_formula_sum   'Ce12 Sn4'
_cell_volume   504.29186500
_cell_formula_units_Z   4
loop_
 _symmetry_equiv_pos_site_id
 _symmetry_equiv_pos_as_xyz
  1  'x, y, z'
loop_
 _atom_site_type_symbol
 _atom_site_label
 _atom_site_symmetry_multiplicity
 _atom_site_fract_x
 _atom_site_fract_y
 _atom_site_fract_z
 _atom_site_occupancy
  Ce  Ce0  1  0.33605000  0.67067202  0.06912900  1
  Ce  Ce1  1  0.16395000  0.17067200  0.43087098  1
  Ce  Ce2  1  0.66394999  0.32932801  0.56912898  1
  Ce  Ce3  1  0.83604999  0.82932802  0.93087096  1
  Ce  Ce4  1  0.66394999  0.32932801  0.93087096  1
  Ce  Ce5  1  0.83604999  0.82932802  0.56912898  1
  Ce  Ce6  1  0.33605000  0.67067202  0.43087098  1
  Ce  Ce7  1  0.16395000  0.17067200  0.06912900  1
  Ce  Ce8  1  0.85772999  0.54155801  0.24999999  1
  Ce  Ce9  1  0.64226999  0.04155800  0.24999999  1
  Ce  Ce10  1  0.14227000  0.45844201  0.74999997  1
  Ce  Ce11  1  0.35773000  0.95844202  0.74999997  1
  Sn  Sn12  1  0.05277000  0.88176902  0.24999999  1
  Sn  Sn13  1  0.44722999  0.38176901  0.24999999  1
  Sn  Sn14  1  0.94722999  0.11823100  0.74999997  1
  Sn  Sn15  1  0.55276999  0.61823102  0.74999997  1
