# generated using pymatgen
data_Nb2Fe4PW
_symmetry_space_group_name_H-M   'P 1'
_cell_length_a   3.62622690
_cell_length_b   3.62622690
_cell_length_c   13.04445934
_cell_angle_alpha   90.00000000
_cell_angle_beta   90.00000000
_cell_angle_gamma   90.00000000
_symmetry_Int_Tables_number   1
_chemical_formula_structural   Nb2Fe4PW
_chemical_formula_sum   'Nb2 Fe4 P1 W1'
_cell_volume   171.52839917
_cell_formula_units_Z   1
loop_
 _symmetry_equiv_pos_site_id
 _symmetry_equiv_pos_as_xyz
  1  'x, y, z'
loop_
 _atom_site_type_symbol
 _atom_site_label
 _atom_site_symmetry_multiplicity
 _atom_site_fract_x
 _atom_site_fract_y
 _atom_site_fract_z
 _atom_site_occupancy
  Nb  Nb0  1  0.50000001  0.00000000  0.00512400  1
  Fe  Fe1  1  0.50000001  0.00000000  0.49965899  1
  Nb  Nb2  1  0.00000000  0.50000001  0.00512400  1
  Fe  Fe3  1  0.00000000  0.50000001  0.49965899  1
  Fe  Fe4  1  0.00000000  0.00000000  0.64283998  1
  Fe  Fe5  1  0.50000001  0.50000001  0.35648999  1
  W  W6  1  0.50000001  0.50000001  0.86405198  1
  P  P7  1  0.00000000  0.00000000  0.12705300  1
