# generated using pymatgen
data_Mn7Cu11
_symmetry_space_group_name_H-M   'P 1'
_cell_length_a   4.48929405
_cell_length_b   4.49876165
_cell_length_c   12.68255424
_cell_angle_alpha   90.00000000
_cell_angle_beta   90.00000000
_cell_angle_gamma   119.82474518
_symmetry_Int_Tables_number   1
_chemical_formula_structural   Mn7Cu11
_chemical_formula_sum   'Mn7 Cu11'
_cell_volume   222.21463046
_cell_formula_units_Z   1
loop_
 _symmetry_equiv_pos_site_id
 _symmetry_equiv_pos_as_xyz
  1  'x, y, z'
loop_
 _atom_site_type_symbol
 _atom_site_label
 _atom_site_symmetry_multiplicity
 _atom_site_fract_x
 _atom_site_fract_y
 _atom_site_fract_z
 _atom_site_occupancy
  Mn  Mn0  1  0.00000002  0.50000000  0.75008399  1
  Mn  Mn1  1  0.50000002  0.50000000  0.41636499  1
  Mn  Mn2  1  0.50000002  0.50000000  0.91689798  1
  Mn  Mn3  1  0.50000004  1.00000000  0.08408100  1
  Mn  Mn4  1  0.50000004  1.00000000  0.58373699  1
  Mn  Mn5  1  0.00000002  0.50000000  0.24881100  1
  Mn  Mn6  1  0.16242901  0.32991400  0.08397000  1
  Cu  Cu7  1  0.16533801  0.32761600  0.58313999  1
  Cu  Cu8  1  0.67004103  0.83624100  0.24956500  1
  Cu  Cu9  1  0.67401503  0.83824200  0.74926699  1
  Cu  Cu10  1  0.16378804  0.83409100  0.41654299  1
  Cu  Cu11  1  0.16573904  0.83940400  0.91752698  1
  Cu  Cu12  1  0.83757102  0.67008600  0.08397000  1
  Cu  Cu13  1  0.83466202  0.67238400  0.58313999  1
  Cu  Cu14  1  0.32995900  0.16375900  0.24956500  1
  Cu  Cu15  1  0.32598500  0.16175800  0.74926699  1
  Cu  Cu16  1  0.83621200  0.16590900  0.41654299  1
  Cu  Cu17  1  0.83426100  0.16059600  0.91752698  1
