# generated using pymatgen
data_YMgPd
_symmetry_space_group_name_H-M   'P 1'
_cell_length_a   4.03706694
_cell_length_b   7.54600382
_cell_length_c   7.54600477
_cell_angle_alpha   120.00000000
_cell_angle_beta   90.00000000
_cell_angle_gamma   90.00000000
_symmetry_Int_Tables_number   1
_chemical_formula_structural   YMgPd
_chemical_formula_sum   'Y3 Mg3 Pd3'
_cell_volume   199.08139631
_cell_formula_units_Z   3
loop_
 _symmetry_equiv_pos_site_id
 _symmetry_equiv_pos_as_xyz
  1  'x, y, z'
loop_
 _atom_site_type_symbol
 _atom_site_label
 _atom_site_symmetry_multiplicity
 _atom_site_fract_x
 _atom_site_fract_y
 _atom_site_fract_z
 _atom_site_occupancy
  Y  Y0  1  0.50000001  0.59391103  0.00000004  1
  Y  Y1  1  0.50000001  0.40608902  0.40608902  1
  Y  Y2  1  0.50000001  0.00000000  0.59391100  1
  Mg  Mg3  1  -0.00000000  0.25718401  0.00000002  1
  Mg  Mg4  1  -0.00000000  0.74281604  0.74281604  1
  Mg  Mg5  1  0.00000000  0.00000000  0.25718400  1
  Pd  Pd6  1  -0.00000000  0.33333335  0.66666668  1
  Pd  Pd7  1  -0.00000000  0.66666670  0.33333337  1
  Pd  Pd8  1  0.50000001  0.00000000  -0.00000000  1
