# generated using pymatgen
data_PrGaGe3
_symmetry_space_group_name_H-M   'P 1'
_cell_length_a   4.25155210
_cell_length_b   4.25155210
_cell_length_c   5.82843924
_cell_angle_alpha   111.39064789
_cell_angle_beta   111.39064789
_cell_angle_gamma   90.00000000
_symmetry_Int_Tables_number   1
_chemical_formula_structural   PrGaGe3
_chemical_formula_sum   'Pr1 Ga1 Ge3'
_cell_volume   90.25702291
_cell_formula_units_Z   1
loop_
 _symmetry_equiv_pos_site_id
 _symmetry_equiv_pos_as_xyz
  1  'x, y, z'
loop_
 _atom_site_type_symbol
 _atom_site_label
 _atom_site_symmetry_multiplicity
 _atom_site_fract_x
 _atom_site_fract_y
 _atom_site_fract_z
 _atom_site_occupancy
  Pr  Pr0  1  0.00000000  0.00000000  0.00000000  1
  Ga  Ga1  1  0.62011203  0.62011200  0.24022406  1
  Ge  Ge2  1  0.37988802  0.37988800  0.75977603  1
  Ge  Ge3  1  0.75000001  0.25000000  0.50000004  1
  Ge  Ge4  1  0.25000004  0.75000001  0.50000005  1
