# generated using pymatgen
data_YTaC4
_symmetry_space_group_name_H-M   'P 1'
_cell_length_a   3.14845395
_cell_length_b   3.14845395
_cell_length_c   6.87379503
_cell_angle_alpha   90.00000000
_cell_angle_beta   90.00000000
_cell_angle_gamma   120.00000000
_symmetry_Int_Tables_number   1
_chemical_formula_structural   YTaC4
_chemical_formula_sum   'Y1 Ta1 C4'
_cell_volume   59.00949541
_cell_formula_units_Z   1
loop_
 _symmetry_equiv_pos_site_id
 _symmetry_equiv_pos_as_xyz
  1  'x, y, z'
loop_
 _atom_site_type_symbol
 _atom_site_label
 _atom_site_symmetry_multiplicity
 _atom_site_fract_x
 _atom_site_fract_y
 _atom_site_fract_z
 _atom_site_occupancy
  Y  Y0  1  0.00000000  0.00000000  0.50000000  1
  Ta  Ta1  1  0.00000000  0.00000000  0.00000000  1
  C  C2  1  0.33333332  0.66666664  0.24223200  1
  C  C3  1  0.33333332  0.66666664  0.75776800  1
  C  C4  1  0.66666667  0.33333332  0.24223200  1
  C  C5  1  0.66666667  0.33333332  0.75776800  1
