# generated using pymatgen
data_LiCuS3
_symmetry_space_group_name_H-M   'P 1'
_cell_length_a   5.77776194
_cell_length_b   5.77776241
_cell_length_c   12.25022411
_cell_angle_alpha   90.00000000
_cell_angle_beta   90.00000000
_cell_angle_gamma   120.00000000
_symmetry_Int_Tables_number   1
_chemical_formula_structural   LiCuS3
_chemical_formula_sum   'Li4 Cu4 S12'
_cell_volume   354.15549814
_cell_formula_units_Z   4
loop_
 _symmetry_equiv_pos_site_id
 _symmetry_equiv_pos_as_xyz
  1  'x, y, z'
loop_
 _atom_site_type_symbol
 _atom_site_label
 _atom_site_symmetry_multiplicity
 _atom_site_fract_x
 _atom_site_fract_y
 _atom_site_fract_z
 _atom_site_occupancy
  Li  Li0  1  0.00000000  0.00000000  0.50000000  1
  Li  Li1  1  0.00000000  0.00000000  0.00000000  1
  Li  Li2  1  0.66666669  0.33333333  0.00233900  1
  Li  Li3  1  0.33333336  0.66666666  0.99766099  1
  Cu  Cu4  1  0.33333336  0.66666666  0.50233900  1
  Cu  Cu5  1  0.66666669  0.33333333  0.49766100  1
  Cu  Cu6  1  0.66666669  0.33333333  0.74999999  1
  Cu  Cu7  1  0.33333336  0.66666666  0.25000000  1
  S  S8  1  0.66828701  0.00203800  0.62857899  1
  S  S9  1  0.33375101  0.33171300  0.62857899  1
  S  S10  1  0.99796203  0.66624900  0.62857899  1
  S  S11  1  0.66624904  0.99796200  0.37142100  1
  S  S12  1  0.00203802  0.66828700  0.37142100  1
  S  S13  1  0.33171301  0.33375100  0.37142100  1
  S  S14  1  0.33171304  0.99796200  0.12857900  1
  S  S15  1  0.66624903  0.66828700  0.12857900  1
  S  S16  1  0.00203801  0.33375100  0.12857900  1
  S  S17  1  0.33375100  0.00203800  0.87142099  1
  S  S18  1  0.99796202  0.33171300  0.87142099  1
  S  S19  1  0.66828703  0.66624900  0.87142099  1
