# generated using pymatgen
data_Ce2Tl
_symmetry_space_group_name_H-M   'P 1'
_cell_length_a   3.62358475
_cell_length_b   3.62358475
_cell_length_c   8.92622757
_cell_angle_alpha   78.28907776
_cell_angle_beta   78.28907776
_cell_angle_gamma   59.99998856
_symmetry_Int_Tables_number   1
_chemical_formula_structural   Ce2Tl
_chemical_formula_sum   'Ce2 Tl1'
_cell_volume   98.67498928
_cell_formula_units_Z   1
loop_
 _symmetry_equiv_pos_site_id
 _symmetry_equiv_pos_as_xyz
  1  'x, y, z'
loop_
 _atom_site_type_symbol
 _atom_site_label
 _atom_site_symmetry_multiplicity
 _atom_site_fract_x
 _atom_site_fract_y
 _atom_site_fract_z
 _atom_site_occupancy
  Ce  Ce0  1  0.00000000  0.00000000  0.00000000  1
  Ce  Ce1  1  0.77787002  0.77786998  0.66638998  1
  Tl  Tl2  1  0.22213000  0.22212999  0.33361000  1
