# generated using pymatgen
data_Sr3Li(CuO2)4
_symmetry_space_group_name_H-M   'P 1'
_cell_length_a   5.99718714
_cell_length_b   6.18923903
_cell_length_c   7.44251108
_cell_angle_alpha   90.00000000
_cell_angle_beta   90.00000000
_cell_angle_gamma   90.00000000
_symmetry_Int_Tables_number   1
_chemical_formula_structural   Sr3Li(CuO2)4
_chemical_formula_sum   'Sr3 Li1 Cu4 O8'
_cell_volume   276.25130996
_cell_formula_units_Z   1
loop_
 _symmetry_equiv_pos_site_id
 _symmetry_equiv_pos_as_xyz
  1  'x, y, z'
loop_
 _atom_site_type_symbol
 _atom_site_label
 _atom_site_symmetry_multiplicity
 _atom_site_fract_x
 _atom_site_fract_y
 _atom_site_fract_z
 _atom_site_occupancy
  Sr  Sr0  1  0.85115598  0.37797100  0.32456000  1
  Sr  Sr1  1  0.35115599  0.62202900  0.67543999  1
  Li  Li2  1  0.35115599  0.12202900  0.82455999  1
  Sr  Sr3  1  0.85115598  0.87797100  0.17544000  1
  Cu  Cu4  1  0.70132798  0.47141100  0.94838699  1
  Cu  Cu5  1  0.20132800  0.52858900  0.05161300  1
  Cu  Cu6  1  0.20132800  0.02858900  0.44838700  1
  Cu  Cu7  1  0.70132798  0.97141100  0.55161299  1
  O  O8  1  0.90181798  0.57575300  0.12704600  1
  O  O9  1  0.40181799  0.42424700  0.87295399  1
  O  O10  1  0.40181799  0.92424700  0.62704599  1
  O  O11  1  0.90181798  0.07575300  0.37295400  1
  O  O12  1  0.40157799  0.41821800  0.37828600  1
  O  O13  1  0.90157798  0.58178200  0.62171399  1
  O  O14  1  0.90157798  0.08178200  0.87828599  1
  O  O15  1  0.40157799  0.91821800  0.12171400  1
