# generated using pymatgen
data_Rb5Tl2Cu3S8
_symmetry_space_group_name_H-M   'P 1'
_cell_length_a   6.69293404
_cell_length_b   10.34207344
_cell_length_c   10.34207344
_cell_angle_alpha   73.83222961
_cell_angle_beta   71.12055969
_cell_angle_gamma   71.12055969
_symmetry_Int_Tables_number   1
_chemical_formula_structural   Rb5Tl2Cu3S8
_chemical_formula_sum   'Rb5 Tl2 Cu3 S8'
_cell_volume   628.72804879
_cell_formula_units_Z   1
loop_
 _symmetry_equiv_pos_site_id
 _symmetry_equiv_pos_as_xyz
  1  'x, y, z'
loop_
 _atom_site_type_symbol
 _atom_site_label
 _atom_site_symmetry_multiplicity
 _atom_site_fract_x
 _atom_site_fract_y
 _atom_site_fract_z
 _atom_site_occupancy
  Rb  Rb0  1  0.76757002  0.61981700  0.38018303  1
  Rb  Rb1  1  0.23243002  0.38018300  0.61981702  1
  Rb  Rb2  1  0.73242999  0.11981700  0.88018304  1
  Rb  Rb3  1  0.26757005  0.88018301  0.11981701  1
  Rb  Rb4  1  0.75000000  0.25000000  0.25000003  1
  Tl  Tl5  1  0.25000004  0.75000001  0.75000002  1
  Tl  Tl6  1  0.75002068  0.58333334  0.91664604  1
  Cu  Cu7  1  0.74997937  0.91666667  0.58335404  1
  Cu  Cu8  1  0.24997935  0.41666667  0.08335401  1
  Cu  Cu9  1  0.25002067  0.08333333  0.41664602  1
  S  S10  1  0.07725201  0.27509700  0.00924700  1
  S  S11  1  0.63840399  0.00924700  0.27509702  1
  S  S12  1  0.42274802  0.49075300  0.22490302  1
  S  S13  1  0.86159600  0.22490300  0.49075304  1
  S  S14  1  0.92274802  0.72490300  0.99075305  1
  S  S15  1  0.36159605  0.99075301  0.72490303  1
  S  S16  1  0.57725202  0.50924700  0.77509703  1
  S  S17  1  0.13840404  0.77509701  0.50924702  1
