# generated using pymatgen
data_CeSi4
_symmetry_space_group_name_H-M   'P 1'
_cell_length_a   3.92202401
_cell_length_b   3.92452598
_cell_length_c   10.67156315
_cell_angle_alpha   90.00000000
_cell_angle_beta   100.58887482
_cell_angle_gamma   90.00000000
_symmetry_Int_Tables_number   1
_chemical_formula_structural   CeSi4
_chemical_formula_sum   'Ce2 Si8'
_cell_volume   161.46047345
_cell_formula_units_Z   2
loop_
 _symmetry_equiv_pos_site_id
 _symmetry_equiv_pos_as_xyz
  1  'x, y, z'
loop_
 _atom_site_type_symbol
 _atom_site_label
 _atom_site_symmetry_multiplicity
 _atom_site_fract_x
 _atom_site_fract_y
 _atom_site_fract_z
 _atom_site_occupancy
  Ce  Ce0  1  0.66884599  0.50000000  0.33769201  1
  Ce  Ce1  1  0.33115400  0.50000000  0.66230802  1
  Si  Si2  1  0.55619800  0.00000000  0.11239600  1
  Si  Si3  1  0.44380200  0.00000000  0.88760403  1
  Si  Si4  1  0.78193399  0.00000000  0.56386802  1
  Si  Si5  1  0.21806600  0.00000000  0.43613202  1
  Si  Si6  1  0.05613300  0.50000000  0.11226600  1
  Si  Si7  1  0.94386699  0.50000000  0.88773403  1
  Si  Si8  1  0.88918299  0.00000000  0.77836602  1
  Si  Si9  1  0.11081700  0.00000000  0.22163401  1
