# generated using pymatgen
data_Na3LiO4
_symmetry_space_group_name_H-M   'P 1'
_cell_length_a   3.20809388
_cell_length_b   5.79284811
_cell_length_c   5.84974384
_cell_angle_alpha   90.00000000
_cell_angle_beta   90.00000000
_cell_angle_gamma   90.00000000
_symmetry_Int_Tables_number   1
_chemical_formula_structural   Na3LiO4
_chemical_formula_sum   'Na3 Li1 O4'
_cell_volume   108.71164297
_cell_formula_units_Z   1
loop_
 _symmetry_equiv_pos_site_id
 _symmetry_equiv_pos_as_xyz
  1  'x, y, z'
loop_
 _atom_site_type_symbol
 _atom_site_label
 _atom_site_symmetry_multiplicity
 _atom_site_fract_x
 _atom_site_fract_y
 _atom_site_fract_z
 _atom_site_occupancy
  Li  Li0  1  0.25000001  0.80225598  0.98969603  1
  Na  Na1  1  0.25000001  0.69774399  0.48969601  1
  Na  Na2  1  0.75000003  0.30225599  0.51030401  1
  Na  Na3  1  0.75000003  0.19774400  0.01030400  1
  O  O4  1  0.75000003  0.92316298  0.71977602  1
  O  O5  1  0.25000001  0.07683700  0.28022401  1
  O  O6  1  0.25000001  0.42316299  0.78022402  1
  O  O7  1  0.75000003  0.57683699  0.21977601  1
