# generated using pymatgen
data_ScCu3
_symmetry_space_group_name_H-M   'P 1'
_cell_length_a   5.56399822
_cell_length_b   5.56399822
_cell_length_c   5.56399822
_cell_angle_alpha   60.00000000
_cell_angle_beta   60.00000000
_cell_angle_gamma   60.00000000
_symmetry_Int_Tables_number   1
_chemical_formula_structural   ScCu3
_chemical_formula_sum   'Sc2 Cu6'
_cell_volume   121.79962463
_cell_formula_units_Z   2
loop_
 _symmetry_equiv_pos_site_id
 _symmetry_equiv_pos_as_xyz
  1  'x, y, z'
loop_
 _atom_site_type_symbol
 _atom_site_label
 _atom_site_symmetry_multiplicity
 _atom_site_fract_x
 _atom_site_fract_y
 _atom_site_fract_z
 _atom_site_occupancy
  Sc  Sc0  1  0.50000002  0.50000002  0.50000002  1
  Sc  Sc1  1  0.00000000  0.00000000  0.00000000  1
  Cu  Cu2  1  0.50000002  1.00000003  -0.00000000  1
  Cu  Cu3  1  0.50000002  1.00000003  0.50000002  1
  Cu  Cu4  1  -0.00000000  0.50000002  -0.00000000  1
  Cu  Cu5  1  -0.00000000  0.50000002  0.50000002  1
  Cu  Cu6  1  0.50000002  0.50000002  -0.00000000  1
  Cu  Cu7  1  -0.00000000  1.00000003  0.50000002  1
