# generated using pymatgen
data_InPt2
_symmetry_space_group_name_H-M   'P 1'
_cell_length_a   6.38227510
_cell_length_b   6.38227510
_cell_length_c   6.38227510
_cell_angle_alpha   90.00000000
_cell_angle_beta   90.00000000
_cell_angle_gamma   90.00000000
_symmetry_Int_Tables_number   1
_chemical_formula_structural   InPt2
_chemical_formula_sum   'In4 Pt8'
_cell_volume   259.97199138
_cell_formula_units_Z   4
loop_
 _symmetry_equiv_pos_site_id
 _symmetry_equiv_pos_as_xyz
  1  'x, y, z'
loop_
 _atom_site_type_symbol
 _atom_site_label
 _atom_site_symmetry_multiplicity
 _atom_site_fract_x
 _atom_site_fract_y
 _atom_site_fract_z
 _atom_site_occupancy
  In  In0  1  0.13013700  0.63013699  0.86986299  1
  In  In1  1  0.63013699  0.86986299  0.13013700  1
  In  In2  1  0.86986299  0.13013700  0.63013699  1
  In  In3  1  0.36986299  0.36986299  0.36986299  1
  Pt  Pt4  1  0.48551499  0.98551498  0.51448499  1
  Pt  Pt5  1  0.98551498  0.51448499  0.48551499  1
  Pt  Pt6  1  0.51448499  0.48551499  0.98551498  1
  Pt  Pt7  1  0.01448500  0.01448500  0.01448500  1
  Pt  Pt8  1  0.87974299  0.37974299  0.12025700  1
  Pt  Pt9  1  0.37974299  0.12025700  0.87974299  1
  Pt  Pt10  1  0.12025700  0.87974299  0.37974299  1
  Pt  Pt11  1  0.62025699  0.62025699  0.62025699  1
