# generated using pymatgen
data_Sr3CaPr2(BiO)4
_symmetry_space_group_name_H-M   'P 1'
_cell_length_a   4.39624596
_cell_length_b   6.92420483
_cell_length_c   9.55457401
_cell_angle_alpha   90.00000000
_cell_angle_beta   103.30059052
_cell_angle_gamma   90.00000000
_symmetry_Int_Tables_number   1
_chemical_formula_structural   Sr3CaPr2(BiO)4
_chemical_formula_sum   'Sr3 Ca1 Pr2 Bi4 O4'
_cell_volume   283.04457224
_cell_formula_units_Z   1
loop_
 _symmetry_equiv_pos_site_id
 _symmetry_equiv_pos_as_xyz
  1  'x, y, z'
loop_
 _atom_site_type_symbol
 _atom_site_label
 _atom_site_symmetry_multiplicity
 _atom_site_fract_x
 _atom_site_fract_y
 _atom_site_fract_z
 _atom_site_occupancy
  Pr  Pr0  1  0.80875801  0.43691001  0.61751601  1
  Sr  Sr1  1  0.19124200  0.56309001  0.38248400  1
  Sr  Sr2  1  0.80875801  0.06309000  0.61751601  1
  Sr  Sr3  1  0.19124200  0.93691002  0.38248400  1
  Ca  Ca4  1  0.55213701  0.75000002  0.10427400  1
  Pr  Pr5  1  0.44786301  0.25000001  0.89572601  1
  Bi  Bi6  1  0.34308900  0.75000002  0.68617801  1
  Bi  Bi7  1  0.65691101  0.25000001  0.31382201  1
  Bi  Bi8  1  0.93771601  0.93293302  0.87543201  1
  Bi  Bi9  1  0.06228400  0.06706700  0.12456800  1
  O  O10  1  0.93771601  0.56706701  0.87543201  1
  O  O11  1  0.06228400  0.43293301  0.12456800  1
  O  O12  1  0.72035801  0.75000002  0.44071601  1
  O  O13  1  0.27964200  0.25000001  0.55928401  1
