# generated using pymatgen
data_HoIn
_symmetry_space_group_name_H-M   'P 1'
_cell_length_a   4.62487507
_cell_length_b   4.62487507
_cell_length_c   13.09755135
_cell_angle_alpha   90.00000000
_cell_angle_beta   90.00000000
_cell_angle_gamma   90.00000000
_symmetry_Int_Tables_number   1
_chemical_formula_structural   HoIn
_chemical_formula_sum   'Ho4 In4'
_cell_volume   280.14967374
_cell_formula_units_Z   4
loop_
 _symmetry_equiv_pos_site_id
 _symmetry_equiv_pos_as_xyz
  1  'x, y, z'
loop_
 _atom_site_type_symbol
 _atom_site_label
 _atom_site_symmetry_multiplicity
 _atom_site_fract_x
 _atom_site_fract_y
 _atom_site_fract_z
 _atom_site_occupancy
  Ho  Ho0  1  0.00000000  0.00000000  0.00000000  1
  Ho  Ho1  1  0.00000000  0.00000000  0.24807999  1
  Ho  Ho2  1  0.49999999  0.49999999  -0.00000000  1
  In  In3  1  0.00000000  0.00000000  0.75191998  1
  Ho  Ho4  1  0.49999999  0.49999999  0.49999999  1
  In  In5  1  0.49999999  0.49999999  0.75020998  1
  In  In6  1  0.00000000  0.00000000  0.49999999  1
  In  In7  1  0.49999999  0.49999999  0.24978999  1
