# generated using pymatgen
data_Sr4Bi
_symmetry_space_group_name_H-M   'P 1'
_cell_length_a   3.31799603
_cell_length_b   3.31799603
_cell_length_c   14.78592682
_cell_angle_alpha   87.20407104
_cell_angle_beta   87.20407104
_cell_angle_gamma   62.37147522
_symmetry_Int_Tables_number   1
_chemical_formula_structural   Sr4Bi
_chemical_formula_sum   'Sr4 Bi1'
_cell_volume   143.98377535
_cell_formula_units_Z   1
loop_
 _symmetry_equiv_pos_site_id
 _symmetry_equiv_pos_as_xyz
  1  'x, y, z'
loop_
 _atom_site_type_symbol
 _atom_site_label
 _atom_site_symmetry_multiplicity
 _atom_site_fract_x
 _atom_site_fract_y
 _atom_site_fract_z
 _atom_site_occupancy
  Sr  Sr0  1  0.59979402  0.59979399  0.20401098  1
  Sr  Sr1  1  0.20160801  0.20160800  0.40176699  1
  Sr  Sr2  1  0.79839202  0.79839199  0.59823297  1
  Sr  Sr3  1  0.40020601  0.40020600  0.79598898  1
  Bi  Bi4  1  0.00000000  0.00000000  0.00000000  1
