# generated using pymatgen
data_Li4(MnCo2)3
_symmetry_space_group_name_H-M   'P 1'
_cell_length_a   4.94198895
_cell_length_b   5.02683353
_cell_length_c   7.81957722
_cell_angle_alpha   90.00104523
_cell_angle_beta   90.00135040
_cell_angle_gamma   60.58006668
_symmetry_Int_Tables_number   1
_chemical_formula_structural   Li4(MnCo2)3
_chemical_formula_sum   'Li4 Mn3 Co6'
_cell_volume   169.20731210
_cell_formula_units_Z   1
loop_
 _symmetry_equiv_pos_site_id
 _symmetry_equiv_pos_as_xyz
  1  'x, y, z'
loop_
 _atom_site_type_symbol
 _atom_site_label
 _atom_site_symmetry_multiplicity
 _atom_site_fract_x
 _atom_site_fract_y
 _atom_site_fract_z
 _atom_site_occupancy
  Mn  Mn0  1  0.99657302  0.99999398  0.00286196  1
  Li  Li1  1  0.99651202  0.99999498  0.50316394  1
  Li  Li2  1  0.68091401  0.63131399  0.00151297  1
  Li  Li3  1  0.31223901  0.36866399  0.00151499  1
  Mn  Mn4  1  0.49643401  0.00001100  0.24965197  1
  Li  Li5  1  0.49645001  0.50006399  0.25829097  1
  Co  Co6  1  0.99653702  0.49996999  0.25829795  1
  Mn  Mn7  1  0.65641701  0.68027298  0.50261496  1
  Co  Co8  1  0.33669901  0.31971399  0.50263597  1
  Co  Co9  1  0.49645201  0.00002300  0.75703996  1
  Co  Co10  1  0.49639201  0.50008499  0.74702696  1
  Co  Co11  1  0.99651802  0.49990999  0.74701794  1
  Co  Co12  1  0.49676302  0.99998298  0.02686998  1
