# generated using pymatgen
data_Sb6Pt
_symmetry_space_group_name_H-M   'P 1'
_cell_length_a   4.19346619
_cell_length_b   7.79765558
_cell_length_c   8.49258041
_cell_angle_alpha   80.63503265
_cell_angle_beta   75.70644379
_cell_angle_gamma   74.40161133
_symmetry_Int_Tables_number   1
_chemical_formula_structural   Sb6Pt
_chemical_formula_sum   'Sb6 Pt1'
_cell_volume   257.80860277
_cell_formula_units_Z   1
loop_
 _symmetry_equiv_pos_site_id
 _symmetry_equiv_pos_as_xyz
  1  'x, y, z'
loop_
 _atom_site_type_symbol
 _atom_site_label
 _atom_site_symmetry_multiplicity
 _atom_site_fract_x
 _atom_site_fract_y
 _atom_site_fract_z
 _atom_site_occupancy
  Sb  Sb0  1  0.63387999  0.13311100  0.59912896  1
  Sb  Sb1  1  0.36612003  0.86688901  0.40087093  1
  Pt  Pt2  1  0.42638000  0.27295000  0.87428995  1
  Sb  Sb3  1  0.57362002  0.72705001  0.12570994  1
  Sb  Sb4  1  0.00000000  0.00000000  0.00000000  1
  Sb  Sb5  1  0.81233801  0.77486901  0.60045492  1
  Sb  Sb6  1  0.18766201  0.22513100  0.39954497  1
