# generated using pymatgen
data_Ba4Tl3S5
_symmetry_space_group_name_H-M   'P 1'
_cell_length_a   4.81225014
_cell_length_b   8.47264481
_cell_length_c   9.80553055
_cell_angle_alpha   90.00000000
_cell_angle_beta   90.00000000
_cell_angle_gamma   90.00000000
_symmetry_Int_Tables_number   1
_chemical_formula_structural   Ba4Tl3S5
_chemical_formula_sum   'Ba4 Tl3 S5'
_cell_volume   399.79585828
_cell_formula_units_Z   1
loop_
 _symmetry_equiv_pos_site_id
 _symmetry_equiv_pos_as_xyz
  1  'x, y, z'
loop_
 _atom_site_type_symbol
 _atom_site_label
 _atom_site_symmetry_multiplicity
 _atom_site_fract_x
 _atom_site_fract_y
 _atom_site_fract_z
 _atom_site_occupancy
  Ba  Ba0  1  0.74999998  0.22622301  0.87198804  1
  Ba  Ba1  1  0.24999999  0.77377702  0.12801201  1
  Ba  Ba2  1  0.74999998  0.72622302  0.62801203  1
  Ba  Ba3  1  0.24999999  0.27377701  0.37198802  1
  Tl  Tl4  1  0.74999998  0.97341702  0.33305402  1
  Tl  Tl5  1  0.24999999  0.02658300  0.66694603  1
  Tl  Tl6  1  0.74999998  0.47341701  0.16694601  1
  S  S7  1  0.24999999  0.52658301  0.83305404  1
  S  S8  1  0.24999999  0.14490100  0.06469600  1
  S  S9  1  0.74999998  0.85509902  0.93530404  1
  S  S10  1  0.24999999  0.64490101  0.43530402  1
  S  S11  1  0.74999998  0.35509901  0.56469603  1
