# generated using pymatgen
data_Li5LuCoO7
_symmetry_space_group_name_H-M   'P 1'
_cell_length_a   6.59398699
_cell_length_b   6.59398699
_cell_length_c   6.59398699
_cell_angle_alpha   60.00000000
_cell_angle_beta   60.00000000
_cell_angle_gamma   60.00000000
_symmetry_Int_Tables_number   1
_chemical_formula_structural   Li5LuCoO7
_chemical_formula_sum   'Li5 Lu1 Co1 O7'
_cell_volume   202.73524658
_cell_formula_units_Z   1
loop_
 _symmetry_equiv_pos_site_id
 _symmetry_equiv_pos_as_xyz
  1  'x, y, z'
loop_
 _atom_site_type_symbol
 _atom_site_label
 _atom_site_symmetry_multiplicity
 _atom_site_fract_x
 _atom_site_fract_y
 _atom_site_fract_z
 _atom_site_occupancy
  Lu  Lu0  1  0.37500001  0.87500002  0.87500002  1
  Li  Li1  1  0.87500002  0.87500002  0.37500001  1
  Li  Li2  1  0.87500002  0.37500001  0.87500002  1
  Li  Li3  1  0.87500002  0.87500002  0.87500002  1
  Li  Li4  1  0.50000001  0.50000001  0.50000001  1
  Li  Li5  1  0.25000000  0.25000000  0.25000000  1
  Co  Co6  1  0.09736400  0.63421201  0.63421201  1
  O  O7  1  0.11578700  0.11578800  0.65263701  1
  O  O8  1  0.11578700  0.65263701  0.11578800  1
  O  O9  1  0.11578700  0.11578800  0.11578800  1
  O  O10  1  0.63421301  0.09736300  0.63421201  1
  O  O11  1  0.63421301  0.63421201  0.63421201  1
  O  O12  1  0.65263601  0.11578800  0.11578800  1
  O  O13  1  0.63421301  0.63421201  0.09736300  1
