# generated using pymatgen
data_HfNi3
_symmetry_space_group_name_H-M   'P 1'
_cell_length_a   4.70101595
_cell_length_b   5.38494396
_cell_length_c   5.38494444
_cell_angle_alpha   60.00000381
_cell_angle_beta   90.00000000
_cell_angle_gamma   90.00000000
_symmetry_Int_Tables_number   1
_chemical_formula_structural   HfNi3
_chemical_formula_sum   'Hf2 Ni6'
_cell_volume   118.05510938
_cell_formula_units_Z   2
loop_
 _symmetry_equiv_pos_site_id
 _symmetry_equiv_pos_as_xyz
  1  'x, y, z'
loop_
 _atom_site_type_symbol
 _atom_site_label
 _atom_site_symmetry_multiplicity
 _atom_site_fract_x
 _atom_site_fract_y
 _atom_site_fract_z
 _atom_site_occupancy
  Hf  Hf0  1  0.75000001  0.66666667  0.66666669  1
  Hf  Hf1  1  0.25000000  0.33333334  0.33333334  1
  Ni  Ni2  1  0.25000000  0.84421300  0.31157401  1
  Ni  Ni3  1  0.25000000  0.84421300  0.84421203  1
  Ni  Ni4  1  0.25000000  0.31157500  0.84421203  1
  Ni  Ni5  1  0.75000001  0.15578700  0.68842602  1
  Ni  Ni6  1  0.75000001  0.15578700  0.15578800  1
  Ni  Ni7  1  0.75000001  0.68842500  0.15578801  1
