# generated using pymatgen
data_PrNiO3
_symmetry_space_group_name_H-M   'P 1'
_cell_length_a   5.26975393
_cell_length_b   5.57494879
_cell_length_c   7.61208820
_cell_angle_alpha   90.00000000
_cell_angle_beta   90.00000000
_cell_angle_gamma   90.00000000
_symmetry_Int_Tables_number   1
_chemical_formula_structural   PrNiO3
_chemical_formula_sum   'Pr4 Ni4 O12'
_cell_volume   223.63255767
_cell_formula_units_Z   4
loop_
 _symmetry_equiv_pos_site_id
 _symmetry_equiv_pos_as_xyz
  1  'x, y, z'
loop_
 _atom_site_type_symbol
 _atom_site_label
 _atom_site_symmetry_multiplicity
 _atom_site_fract_x
 _atom_site_fract_y
 _atom_site_fract_z
 _atom_site_occupancy
  Pr  Pr0  1  0.01921900  0.43150602  0.24999999  1
  Pr  Pr1  1  0.98078101  0.56849402  0.74999998  1
  Pr  Pr2  1  0.51921901  0.06849400  0.74999998  1
  Pr  Pr3  1  0.48078101  0.93150604  0.24999999  1
  Ni  Ni4  1  0.00000000  0.00000000  0.00000000  1
  Ni  Ni5  1  0.50000001  0.50000002  -0.00000000  1
  Ni  Ni6  1  0.00000000  0.00000000  0.49999999  1
  Ni  Ni7  1  0.50000001  0.50000002  0.49999999  1
  O  O8  1  0.30704300  0.19455801  0.05853800  1
  O  O9  1  0.69295701  0.80544203  0.94146197  1
  O  O10  1  0.80704301  0.30544201  0.94146197  1
  O  O11  1  0.69295701  0.80544203  0.55853799  1
  O  O12  1  0.19295700  0.69455803  0.05853800  1
  O  O13  1  0.30704300  0.19455801  0.44146199  1
  O  O14  1  0.19295700  0.69455803  0.44146199  1
  O  O15  1  0.80704301  0.30544201  0.55853799  1
  O  O16  1  0.61470201  0.54123602  0.24999999  1
  O  O17  1  0.38529800  0.45876402  0.74999998  1
  O  O18  1  0.11470200  0.95876404  0.74999998  1
  O  O19  1  0.88529801  0.04123600  0.24999999  1
