# generated using pymatgen
data_NdSi4
_symmetry_space_group_name_H-M   'P 1'
_cell_length_a   5.74230385
_cell_length_b   8.44961929
_cell_length_c   8.44961929
_cell_angle_alpha   71.15682983
_cell_angle_beta   70.13551331
_cell_angle_gamma   70.13551331
_symmetry_Int_Tables_number   1
_chemical_formula_structural   NdSi4
_chemical_formula_sum   'Nd4 Si16'
_cell_volume   352.52009850
_cell_formula_units_Z   4
loop_
 _symmetry_equiv_pos_site_id
 _symmetry_equiv_pos_as_xyz
  1  'x, y, z'
loop_
 _atom_site_type_symbol
 _atom_site_label
 _atom_site_symmetry_multiplicity
 _atom_site_fract_x
 _atom_site_fract_y
 _atom_site_fract_z
 _atom_site_occupancy
  Nd  Nd0  1  0.13915998  0.59223801  0.12944296  1
  Nd  Nd1  1  0.86084002  0.40776201  0.87055693  1
  Nd  Nd2  1  0.63915902  0.12944400  0.59223796  1
  Nd  Nd3  1  0.36084097  0.87055602  0.40776193  1
  Si  Si4  1  0.75000001  0.50000001  0.49999994  1
  Si  Si5  1  0.24999999  0.50000001  0.49999996  1
  Si  Si6  1  0.95690100  0.79309902  0.79309891  1
  Si  Si7  1  0.54309902  0.20690100  0.20690096  1
  Si  Si8  1  0.04309899  0.20690100  0.20690099  1
  Si  Si9  1  0.45690098  0.79309902  0.79309893  1
  Si  Si10  1  0.41229801  0.26390101  0.91150296  1
  Si  Si11  1  0.58770199  0.73609902  0.08849693  1
  Si  Si12  1  0.91229900  0.91150302  0.26389991  1
  Si  Si13  1  0.08770100  0.08849700  0.73609999  1
  Si  Si14  1  0.74999998  1.00000002  -0.00000009  1
  Si  Si15  1  0.24999996  1.00000002  -0.00000006  1
  Si  Si16  1  0.35204099  0.55626201  0.73965595  1
  Si  Si17  1  0.64795901  0.44373801  0.26034395  1
  Si  Si18  1  0.85204100  0.73965602  0.55626192  1
  Si  Si19  1  0.14795899  0.26034401  0.44373798  1
