# generated using pymatgen
data_Na2Sr4Cu3O11
_symmetry_space_group_name_H-M   'P 1'
_cell_length_a   4.21571493
_cell_length_b   4.21571493
_cell_length_c   16.78091240
_cell_angle_alpha   90.00000000
_cell_angle_beta   90.00000000
_cell_angle_gamma   90.00000000
_symmetry_Int_Tables_number   1
_chemical_formula_structural   Na2Sr4Cu3O11
_chemical_formula_sum   'Na2 Sr4 Cu3 O11'
_cell_volume   298.23461039
_cell_formula_units_Z   1
loop_
 _symmetry_equiv_pos_site_id
 _symmetry_equiv_pos_as_xyz
  1  'x, y, z'
loop_
 _atom_site_type_symbol
 _atom_site_label
 _atom_site_symmetry_multiplicity
 _atom_site_fract_x
 _atom_site_fract_y
 _atom_site_fract_z
 _atom_site_occupancy
  Sr  Sr0  1  0.00000000  0.00000000  0.88379803  1
  Sr  Sr1  1  0.00000000  0.00000000  0.11620200  1
  Sr  Sr2  1  0.00000000  0.00000000  0.37290101  1
  Sr  Sr3  1  0.00000000  0.00000000  0.62709902  1
  Na  Na4  1  0.50000001  0.50000001  0.24636901  1
  Na  Na5  1  0.50000001  0.50000001  0.50000002  1
  Cu  Cu6  1  0.50000001  0.50000001  0.75363103  1
  Cu  Cu7  1  0.50000001  0.50000001  0.00000000  1
  O  O8  1  0.00000000  0.50000001  0.00000000  1
  Cu  Cu9  1  0.00000000  0.50000001  0.24701601  1
  O  O10  1  0.00000000  0.50000001  0.50000002  1
  O  O11  1  0.00000000  0.50000001  0.75298403  1
  O  O12  1  0.50000001  0.50000001  0.88367003  1
  O  O13  1  0.50000001  0.50000001  0.11633000  1
  O  O14  1  0.50000001  0.50000001  0.37293201  1
  O  O15  1  0.50000001  0.50000001  0.62706802  1
  O  O16  1  0.50000001  0.00000000  0.00000000  1
  O  O17  1  0.50000001  0.00000000  0.24701601  1
  O  O18  1  0.50000001  0.00000000  0.50000002  1
  O  O19  1  0.50000001  0.00000000  0.75298403  1
