# generated using pymatgen
data_Yb2Cd3Au
_symmetry_space_group_name_H-M   'P 1'
_cell_length_a   4.93032980
_cell_length_b   4.93032980
_cell_length_c   7.52155781
_cell_angle_alpha   90.00000000
_cell_angle_beta   90.00000000
_cell_angle_gamma   120.00000000
_symmetry_Int_Tables_number   1
_chemical_formula_structural   Yb2Cd3Au
_chemical_formula_sum   'Yb2 Cd3 Au1'
_cell_volume   158.33990190
_cell_formula_units_Z   1
loop_
 _symmetry_equiv_pos_site_id
 _symmetry_equiv_pos_as_xyz
  1  'x, y, z'
loop_
 _atom_site_type_symbol
 _atom_site_label
 _atom_site_symmetry_multiplicity
 _atom_site_fract_x
 _atom_site_fract_y
 _atom_site_fract_z
 _atom_site_occupancy
  Yb  Yb0  1  0.00000000  0.00000000  0.75000002  1
  Yb  Yb1  1  0.00000000  0.00000000  0.25000001  1
  Cd  Cd2  1  0.66666669  0.33333334  0.95844802  1
  Cd  Cd3  1  0.33333334  0.66666669  0.45844801  1
  Cd  Cd4  1  0.33333334  0.66666669  0.04155200  1
  Au  Au5  1  0.66666669  0.33333334  0.54155201  1
