# generated using pymatgen
data_Li5ScS7
_symmetry_space_group_name_H-M   'P 1'
_cell_length_a   7.44710016
_cell_length_b   7.44710016
_cell_length_c   7.44710016
_cell_angle_alpha   60.00000000
_cell_angle_beta   60.00000000
_cell_angle_gamma   60.00000000
_symmetry_Int_Tables_number   1
_chemical_formula_structural   Li5ScS7
_chemical_formula_sum   'Li5 Sc1 S7'
_cell_volume   292.04285634
_cell_formula_units_Z   1
loop_
 _symmetry_equiv_pos_site_id
 _symmetry_equiv_pos_as_xyz
  1  'x, y, z'
loop_
 _atom_site_type_symbol
 _atom_site_label
 _atom_site_symmetry_multiplicity
 _atom_site_fract_x
 _atom_site_fract_y
 _atom_site_fract_z
 _atom_site_occupancy
  Li  Li0  1  0.11502900  0.65491500  0.11502800  1
  Li  Li1  1  0.11502900  0.11502800  0.11502800  1
  Li  Li2  1  0.11502900  0.11502800  0.65491500  1
  Li  Li3  1  0.65491600  0.11502800  0.11502800  1
  Li  Li4  1  0.50000000  0.50000000  0.50000000  1
  Sc  Sc5  1  0.87686000  0.36942200  0.87685900  1
  S  S6  1  0.87686000  0.87685900  0.87685900  1
  S  S7  1  0.87686000  0.87685900  0.36942200  1
  S  S8  1  0.36942300  0.87685900  0.87685900  1
  S  S9  1  0.36584800  0.90245400  0.36584900  1
  S  S10  1  0.36584800  0.36584900  0.36584900  1
  S  S11  1  0.36584800  0.36584900  0.90245400  1
  S  S12  1  0.90245300  0.36584900  0.36584900  1
