# generated using pymatgen
data_Li2O
_symmetry_space_group_name_H-M   'P 1'
_cell_length_a   4.15148211
_cell_length_b   4.15148211
_cell_length_c   5.32276249
_cell_angle_alpha   112.95290375
_cell_angle_beta   112.95290375
_cell_angle_gamma   90.00000000
_symmetry_Int_Tables_number   1
_chemical_formula_structural   Li2O
_chemical_formula_sum   'Li4 O2'
_cell_volume   76.52408131
_cell_formula_units_Z   2
loop_
 _symmetry_equiv_pos_site_id
 _symmetry_equiv_pos_as_xyz
  1  'x, y, z'
loop_
 _atom_site_type_symbol
 _atom_site_label
 _atom_site_symmetry_multiplicity
 _atom_site_fract_x
 _atom_site_fract_y
 _atom_site_fract_z
 _atom_site_occupancy
  Li  Li0  1  0.48123496  0.98123496  0.96246996  1
  Li  Li1  1  0.73123495  0.73123497  0.46246996  1
  Li  Li2  1  0.01876499  0.51876498  0.03752998  1
  Li  Li3  1  0.26876498  0.26876499  0.53752999  1
  O  O4  1  0.24999997  0.74999997  0.49999997  1
  O  O5  1  0.49999997  0.49999998  -0.00000003  1
