# generated using pymatgen
data_LiMnS2
_symmetry_space_group_name_H-M   'P 1'
_cell_length_a   5.61496782
_cell_length_b   5.61496782
_cell_length_c   6.93526936
_cell_angle_alpha   113.87937927
_cell_angle_beta   113.87937927
_cell_angle_gamma   90.00000000
_symmetry_Int_Tables_number   1
_chemical_formula_structural   LiMnS2
_chemical_formula_sum   'Li2 Mn2 S4'
_cell_volume   179.27695201
_cell_formula_units_Z   2
loop_
 _symmetry_equiv_pos_site_id
 _symmetry_equiv_pos_as_xyz
  1  'x, y, z'
loop_
 _atom_site_type_symbol
 _atom_site_label
 _atom_site_symmetry_multiplicity
 _atom_site_fract_x
 _atom_site_fract_y
 _atom_site_fract_z
 _atom_site_occupancy
  Li  Li0  1  0.75000002  0.25000001  0.50000000  1
  Li  Li1  1  0.50000001  0.50000001  -0.00000001  1
  Mn  Mn2  1  0.25000000  0.75000002  0.50000000  1
  Mn  Mn3  1  0.00000000  0.00000000  0.00000000  1
  S  S4  1  0.12720300  0.63262702  0.75107201  1
  S  S5  1  0.62386902  0.11844500  0.75107201  1
  S  S6  1  0.36737301  0.37613101  0.24892800  1
  S  S7  1  0.88155501  0.87279702  0.24892799  1
