# generated using pymatgen
data_NaNbO4
_symmetry_space_group_name_H-M   'P 1'
_cell_length_a   4.02157211
_cell_length_b   5.64857912
_cell_length_c   7.53530693
_cell_angle_alpha   90.00000000
_cell_angle_beta   105.47682190
_cell_angle_gamma   90.00000000
_symmetry_Int_Tables_number   1
_chemical_formula_structural   NaNbO4
_chemical_formula_sum   'Na2 Nb2 O8'
_cell_volume   164.96629639
_cell_formula_units_Z   2
loop_
 _symmetry_equiv_pos_site_id
 _symmetry_equiv_pos_as_xyz
  1  'x, y, z'
loop_
 _atom_site_type_symbol
 _atom_site_label
 _atom_site_symmetry_multiplicity
 _atom_site_fract_x
 _atom_site_fract_y
 _atom_site_fract_z
 _atom_site_occupancy
  Na  Na0  1  0.65582397  0.12552600  0.31164797  1
  Na  Na1  1  0.34417598  0.62552599  0.68835198  1
  Nb  Nb2  1  0.91326696  0.17922600  0.82653395  1
  Nb  Nb3  1  0.08673300  0.67922599  0.17346599  1
  O  O4  1  0.83745496  0.88844598  0.67490996  1
  O  O5  1  0.16254499  0.38844599  0.32508999  1
  O  O6  1  0.96505696  0.51720099  0.93011395  1
  O  O7  1  0.03494300  0.01720100  0.06988600  1
  O  O8  1  0.41537998  0.19850600  0.83075997  1
  O  O9  1  0.58461997  0.69850599  0.16923998  1
  O  O10  1  0.79620596  0.37499499  0.59241196  1
  O  O11  1  0.20379399  0.87499498  0.40758799  1
