# generated using pymatgen
data_KCuO2
_symmetry_space_group_name_H-M   'P 1'
_cell_length_a   5.56584024
_cell_length_b   5.56572342
_cell_length_c   5.56866360
_cell_angle_alpha   61.75646210
_cell_angle_beta   61.69277954
_cell_angle_gamma   92.98579407
_symmetry_Int_Tables_number   1
_chemical_formula_structural   KCuO2
_chemical_formula_sum   'K2 Cu2 O4'
_cell_volume   125.00497968
_cell_formula_units_Z   2
loop_
 _symmetry_equiv_pos_site_id
 _symmetry_equiv_pos_as_xyz
  1  'x, y, z'
loop_
 _atom_site_type_symbol
 _atom_site_label
 _atom_site_symmetry_multiplicity
 _atom_site_fract_x
 _atom_site_fract_y
 _atom_site_fract_z
 _atom_site_occupancy
  K  K0  1  0.74999198  0.24999201  0.50000001  1
  K  K1  1  0.50007899  0.50007702  0.00000100  1
  Cu  Cu2  1  0.99986097  0.99986004  0.99999202  1
  Cu  Cu3  1  0.24999199  0.75000403  0.49998801  1
  O  O4  1  0.62546599  0.00923800  0.13907700  1
  O  O5  1  0.14830799  0.76453203  0.86092902  1
  O  O6  1  0.23497799  0.37417501  0.61716002  1
  O  O7  1  0.99132297  0.85212203  0.38285200  1
