# generated using pymatgen
data_SmFe12
_symmetry_space_group_name_H-M   'P 1'
_cell_length_a   4.94013786
_cell_length_b   6.49266148
_cell_length_c   6.49266148
_cell_angle_alpha   81.67808533
_cell_angle_beta   67.63905334
_cell_angle_gamma   67.63905334
_symmetry_Int_Tables_number   1
_chemical_formula_structural   SmFe12
_chemical_formula_sum   'Sm1 Fe12'
_cell_volume   178.10883058
_cell_formula_units_Z   1
loop_
 _symmetry_equiv_pos_site_id
 _symmetry_equiv_pos_as_xyz
  1  'x, y, z'
loop_
 _atom_site_type_symbol
 _atom_site_label
 _atom_site_symmetry_multiplicity
 _atom_site_fract_x
 _atom_site_fract_y
 _atom_site_fract_z
 _atom_site_occupancy
  Sm  Sm0  1  0.00000000  0.00000000  0.00000000  1
  Fe  Fe1  1  0.65490502  0.34509501  0.34509502  1
  Fe  Fe2  1  0.34509502  0.65490501  0.65490503  1
  Fe  Fe3  1  0.00000000  0.34509501  0.65490502  1
  Fe  Fe4  1  0.00000001  0.65490501  0.34509502  1
  Fe  Fe5  1  0.00000001  0.50000001  0.00000001  1
  Fe  Fe6  1  0.50000002  0.50000001  0.00000001  1
  Fe  Fe7  1  0.50000002  1.00000002  0.50000004  1
  Fe  Fe8  1  0.00000000  0.00000000  0.50000001  1
  Fe  Fe9  1  0.73280403  0.76719602  0.76719604  1
  Fe  Fe10  1  0.26719601  0.23280400  0.23280401  1
  Fe  Fe11  1  0.50000002  0.76719602  0.23280403  1
  Fe  Fe12  1  0.50000001  0.23280400  0.76719603  1
