# generated using pymatgen
data_Li
_symmetry_space_group_name_H-M   'P 1'
_cell_length_a   4.10628605
_cell_length_b   5.78480816
_cell_length_c   7.09709740
_cell_angle_alpha   114.05086517
_cell_angle_beta   106.81565094
_cell_angle_gamma   90.00000000
_symmetry_Int_Tables_number   1
_chemical_formula_structural   Li
_chemical_formula_sum   Li6
_cell_volume   146.01976096
_cell_formula_units_Z   6
loop_
 _symmetry_equiv_pos_site_id
 _symmetry_equiv_pos_as_xyz
  1  'x, y, z'
loop_
 _atom_site_type_symbol
 _atom_site_label
 _atom_site_symmetry_multiplicity
 _atom_site_fract_x
 _atom_site_fract_y
 _atom_site_fract_z
 _atom_site_occupancy
  Li  Li0  1  0.00000000  0.00000000  0.00000000  1
  Li  Li1  1  0.32937498  0.32937499  0.65874998  1
  Li  Li2  1  0.67062496  0.67062499  0.34124998  1
  Li  Li3  1  -0.00000001  0.49999999  0.00000001  1
  Li  Li4  1  0.33446597  0.83446599  0.66893199  1
  Li  Li5  1  0.66553398  0.16553400  0.33106797  1
