# generated using pymatgen
data_Y2Ga3
_symmetry_space_group_name_H-M   'P 1'
_cell_length_a   3.75176096
_cell_length_b   7.72835207
_cell_length_c   7.72835207
_cell_angle_alpha   90.00000000
_cell_angle_beta   90.00000000
_cell_angle_gamma   90.00000000
_symmetry_Int_Tables_number   1
_chemical_formula_structural   Y2Ga3
_chemical_formula_sum   'Y4 Ga6'
_cell_volume   224.08302402
_cell_formula_units_Z   2
loop_
 _symmetry_equiv_pos_site_id
 _symmetry_equiv_pos_as_xyz
  1  'x, y, z'
loop_
 _atom_site_type_symbol
 _atom_site_label
 _atom_site_symmetry_multiplicity
 _atom_site_fract_x
 _atom_site_fract_y
 _atom_site_fract_z
 _atom_site_occupancy
  Y  Y0  1  0.50000001  0.32623700  0.82623699  1
  Y  Y1  1  0.50000001  0.82623699  0.67376299  1
  Y  Y2  1  0.50000001  0.17376300  0.32623700  1
  Y  Y3  1  0.50000001  0.67376299  0.17376300  1
  Ga  Ga4  1  -0.00000000  0.50000000  0.50000000  1
  Ga  Ga5  1  0.00000000  0.00000000  0.00000000  1
  Ga  Ga6  1  0.00000000  0.12134700  0.62134699  1
  Ga  Ga7  1  0.00000000  0.62134699  0.87865299  1
  Ga  Ga8  1  0.00000000  0.87865299  0.37865300  1
  Ga  Ga9  1  -0.00000000  0.37865300  0.12134700  1
