# generated using pymatgen
data_LaMg3Si2
_symmetry_space_group_name_H-M   'P 1'
_cell_length_a   4.21249914
_cell_length_b   4.21249914
_cell_length_c   7.66087818
_cell_angle_alpha   90.00000000
_cell_angle_beta   90.00000000
_cell_angle_gamma   90.00000000
_symmetry_Int_Tables_number   1
_chemical_formula_structural   LaMg3Si2
_chemical_formula_sum   'La1 Mg3 Si2'
_cell_volume   135.94342494
_cell_formula_units_Z   1
loop_
 _symmetry_equiv_pos_site_id
 _symmetry_equiv_pos_as_xyz
  1  'x, y, z'
loop_
 _atom_site_type_symbol
 _atom_site_label
 _atom_site_symmetry_multiplicity
 _atom_site_fract_x
 _atom_site_fract_y
 _atom_site_fract_z
 _atom_site_occupancy
  La  La0  1  0.00000000  0.49999998  0.80137998  1
  Mg  Mg1  1  0.49999998  0.00000000  0.19862000  1
  Mg  Mg2  1  0.49999998  0.00000000  0.64020498  1
  Mg  Mg3  1  0.00000000  0.49999998  0.35979499  1
  Si  Si4  1  0.00000000  0.00000000  0.00000000  1
  Si  Si5  1  0.49999998  0.49999998  0.00000000  1
