# generated using pymatgen
data_Li7NbO10
_symmetry_space_group_name_H-M   'P 1'
_cell_length_a   4.87556601
_cell_length_b   4.87556601
_cell_length_c   9.78761578
_cell_angle_alpha   89.59885406
_cell_angle_beta   89.59885406
_cell_angle_gamma   91.83965302
_symmetry_Int_Tables_number   1
_chemical_formula_structural   Li7NbO10
_chemical_formula_sum   'Li7 Nb1 O10'
_cell_volume   232.53112723
_cell_formula_units_Z   1
loop_
 _symmetry_equiv_pos_site_id
 _symmetry_equiv_pos_as_xyz
  1  'x, y, z'
loop_
 _atom_site_type_symbol
 _atom_site_label
 _atom_site_symmetry_multiplicity
 _atom_site_fract_x
 _atom_site_fract_y
 _atom_site_fract_z
 _atom_site_occupancy
  Li  Li0  1  0.03224900  0.03224900  0.66294899  1
  Li  Li1  1  0.96775101  0.96775099  0.33705093  1
  Li  Li2  1  0.00000000  0.00000000  0.00000000  1
  Li  Li3  1  0.49597300  0.49597300  0.82252896  1
  Li  Li4  1  0.50000000  0.50000000  0.49999996  1
  Li  Li5  1  0.50402700  0.50402700  0.17747097  1
  Li  Li6  1  0.67358001  0.67358000  0.34373895  1
  O  O7  1  0.32642000  0.32642000  0.65626097  1
  O  O8  1  0.79704000  0.20296000  0.49999996  1
  Nb  Nb9  1  0.79285500  0.18555800  0.16808897  1
  O  O10  1  0.81444200  0.20714500  0.83191096  1
  O  O11  1  0.71956701  0.71956700  0.66134395  1
  O  O12  1  0.68928501  0.68928500  0.99310095  1
  O  O13  1  0.28043300  0.28043300  0.33865598  1
  O  O14  1  0.31071500  0.31071500  0.00689898  1
  O  O15  1  0.20296001  0.79703999  0.49999996  1
  O  O16  1  0.18555801  0.79285499  0.16808897  1
  O  O17  1  0.20714501  0.81444199  0.83191096  1
