# generated using pymatgen
data_Li2NiS4
_symmetry_space_group_name_H-M   'P 1'
_cell_length_a   6.98089457
_cell_length_b   6.98089457
_cell_length_c   6.98089457
_cell_angle_alpha   60.00000000
_cell_angle_beta   60.00000000
_cell_angle_gamma   60.00000000
_symmetry_Int_Tables_number   1
_chemical_formula_structural   Li2NiS4
_chemical_formula_sum   'Li4 Ni2 S8'
_cell_volume   240.55713266
_cell_formula_units_Z   2
loop_
 _symmetry_equiv_pos_site_id
 _symmetry_equiv_pos_as_xyz
  1  'x, y, z'
loop_
 _atom_site_type_symbol
 _atom_site_label
 _atom_site_symmetry_multiplicity
 _atom_site_fract_x
 _atom_site_fract_y
 _atom_site_fract_z
 _atom_site_occupancy
  Li  Li0  1  0.87500002  0.87500002  0.37500001  1
  Li  Li1  1  0.87500002  0.87500002  0.87500002  1
  Li  Li2  1  0.37500001  0.87500002  0.87500002  1
  Li  Li3  1  0.87500002  0.37500001  0.87500002  1
  Ni  Ni4  1  0.25000001  0.25000001  0.25000001  1
  Ni  Ni5  1  0.50000001  0.50000001  0.50000001  1
  S  S6  1  0.11892700  0.64322102  0.11892600  1
  S  S7  1  0.10677800  0.63107401  0.63107401  1
  S  S8  1  0.64322202  0.11892600  0.11892600  1
  S  S9  1  0.63107301  0.63107401  0.10677900  1
  S  S10  1  0.63107301  0.63107401  0.63107401  1
  S  S11  1  0.11892700  0.11892600  0.64322102  1
  S  S12  1  0.11892700  0.11892600  0.11892600  1
  S  S13  1  0.63107301  0.10677900  0.63107401  1
