# generated using pymatgen
data_K2Na2CuSe4
_symmetry_space_group_name_H-M   'P 1'
_cell_length_a   7.54932976
_cell_length_b   7.54932976
_cell_length_c   7.78646708
_cell_angle_alpha   106.65461731
_cell_angle_beta   108.83621216
_cell_angle_gamma   111.80136871
_symmetry_Int_Tables_number   1
_chemical_formula_structural   K2Na2CuSe4
_chemical_formula_sum   'K2 Na2 Cu1 Se4'
_cell_volume   345.72898093
_cell_formula_units_Z   1
loop_
 _symmetry_equiv_pos_site_id
 _symmetry_equiv_pos_as_xyz
  1  'x, y, z'
loop_
 _atom_site_type_symbol
 _atom_site_label
 _atom_site_symmetry_multiplicity
 _atom_site_fract_x
 _atom_site_fract_y
 _atom_site_fract_z
 _atom_site_occupancy
  K  K0  1  0.52165605  0.75423103  0.27588707  1
  K  K1  1  0.47834402  0.24576901  0.72411304  1
  Na  Na2  1  0.00000000  0.00000000  0.00000000  1
  Na  Na3  1  0.00607402  0.34308701  0.34916103  1
  Cu  Cu4  1  0.99392604  0.65691302  0.65083908  1
  Se  Se5  1  0.40438401  0.19151001  0.18146403  1
  Se  Se6  1  0.59561605  0.80849003  0.81853608  1
  Se  Se7  1  0.98995405  0.77708003  0.18146408  1
  Se  Se8  1  0.01004601  0.22292001  0.81853602  1
