# generated using pymatgen
data_Pr5Sb4
_symmetry_space_group_name_H-M   'P 1'
_cell_length_a   6.75686693
_cell_length_b   9.72272205
_cell_length_c   9.72272205
_cell_angle_alpha   120.00000000
_cell_angle_beta   90.00000000
_cell_angle_gamma   90.00000000
_symmetry_Int_Tables_number   1
_chemical_formula_structural   Pr5Sb4
_chemical_formula_sum   'Pr10 Sb8'
_cell_volume   553.16123689
_cell_formula_units_Z   2
loop_
 _symmetry_equiv_pos_site_id
 _symmetry_equiv_pos_as_xyz
  1  'x, y, z'
loop_
 _atom_site_type_symbol
 _atom_site_label
 _atom_site_symmetry_multiplicity
 _atom_site_fract_x
 _atom_site_fract_y
 _atom_site_fract_z
 _atom_site_occupancy
  Pr  Pr0  1  0.25000000  0.72653399  0.72653397  1
  Pr  Pr1  1  0.75000001  0.27346600  0.27346599  1
  Pr  Pr2  1  0.25000000  0.00000000  0.27346599  1
  Pr  Pr3  1  0.75000001  0.00000000  0.72653398  1
  Pr  Pr4  1  0.25000000  0.27346600  0.99999997  1
  Pr  Pr5  1  0.75000001  0.72653399  0.99999996  1
  Pr  Pr6  1  0.50000001  0.66666666  0.33333331  1
  Pr  Pr7  1  0.50000001  0.33333333  0.66666664  1
  Pr  Pr8  1  -0.00000000  0.33333333  0.66666664  1
  Pr  Pr9  1  1.00000001  0.66666666  0.33333331  1
  Sb  Sb10  1  0.25000000  0.38405400  0.38405398  1
  Sb  Sb11  1  0.75000001  0.61594599  0.61594597  1
  Sb  Sb12  1  0.25000000  0.99999999  0.61594597  1
  Sb  Sb13  1  0.75000001  0.99999999  0.38405397  1
  Sb  Sb14  1  0.25000000  0.61594599  0.99999996  1
  Sb  Sb15  1  0.75000001  0.38405400  -0.00000001  1
  Sb  Sb16  1  0.50000001  0.00000000  -0.00000000  1
  Sb  Sb17  1  0.00000000  0.00000000  0.00000000  1
