# generated using pymatgen
data_SrLa3(YS4)2
_symmetry_space_group_name_H-M   'P 1'
_cell_length_a   7.67266512
_cell_length_b   7.67266512
_cell_length_c   7.67266512
_cell_angle_alpha   109.72113037
_cell_angle_beta   109.34641266
_cell_angle_gamma   109.34641266
_symmetry_Int_Tables_number   1
_chemical_formula_structural   SrLa3(YS4)2
_chemical_formula_sum   'Sr1 La3 Y2 S8'
_cell_volume   347.70474399
_cell_formula_units_Z   1
loop_
 _symmetry_equiv_pos_site_id
 _symmetry_equiv_pos_as_xyz
  1  'x, y, z'
loop_
 _atom_site_type_symbol
 _atom_site_label
 _atom_site_symmetry_multiplicity
 _atom_site_fract_x
 _atom_site_fract_y
 _atom_site_fract_z
 _atom_site_occupancy
  La  La0  1  0.12400101  0.12500000  0.74900100  1
  Sr  Sr1  1  0.37599903  0.25099900  0.37500002  1
  La  La2  1  0.87599907  0.62500001  0.00099906  1
  La  La3  1  0.62400110  0.99900102  0.87500003  1
  Y  Y4  1  1.00000005  0.50000001  0.50000006  1
  Y  Y5  1  0.50000008  0.75000001  0.25000003  1
  S  S6  1  0.60099604  0.37950601  0.12949304  1
  S  S7  1  0.75001307  0.72150301  0.62050704  1
  S  S8  1  0.24998709  0.87049401  0.97149000  1
  S  S9  1  0.10099604  0.37949301  0.12950600  1
  S  S10  1  0.74998703  0.22149000  0.62049404  1
  S  S11  1  0.89900401  0.02851000  0.27849705  1
  S  S12  1  0.25001309  0.87050701  0.47150301  1
  S  S13  1  0.39900405  0.52849701  0.77851001  1
