# generated using pymatgen
data_Li6Ca5MnO4
_symmetry_space_group_name_H-M   'P 1'
_cell_length_a   5.66737795
_cell_length_b   5.66737795
_cell_length_c   10.98066044
_cell_angle_alpha   75.04490662
_cell_angle_beta   75.04490662
_cell_angle_gamma   60.00000000
_symmetry_Int_Tables_number   1
_chemical_formula_structural   Li6Ca5MnO4
_chemical_formula_sum   'Li6 Ca5 Mn1 O4'
_cell_volume   291.56244884
_cell_formula_units_Z   1
loop_
 _symmetry_equiv_pos_site_id
 _symmetry_equiv_pos_as_xyz
  1  'x, y, z'
loop_
 _atom_site_type_symbol
 _atom_site_label
 _atom_site_symmetry_multiplicity
 _atom_site_fract_x
 _atom_site_fract_y
 _atom_site_fract_z
 _atom_site_occupancy
  Li  Li0  1  0.50000003  0.83895201  0.49999999  1
  Li  Li1  1  0.16104801  0.50000001  0.50000001  1
  Li  Li2  1  0.41507201  0.07719500  0.75089602  1
  Li  Li3  1  0.00000001  0.34108000  -0.00000001  1
  Li  Li4  1  0.34108002  0.65892001  -0.00000002  1
  Ca  Ca5  1  0.24316302  0.92280501  0.24910399  1
  Ca  Ca6  1  0.65892002  0.00000000  -0.00000001  1
  Ca  Ca7  1  0.92280503  0.58492801  0.24910398  1
  Ca  Ca8  1  0.75683703  0.41507201  0.75089601  1
  Ca  Ca9  1  0.83895202  0.16104800  0.50000000  1
  Li  Li10  1  0.58492802  0.24316300  0.24910399  1
  Mn  Mn11  1  0.07719502  0.75683701  0.75089601  1
  O  O12  1  0.29152801  0.29152800  0.12541599  1
  O  O13  1  0.12519801  0.12519800  0.62440602  1
  O  O14  1  0.70847203  0.70847201  0.87458401  1
  O  O15  1  0.87480204  0.87480201  0.37559398  1
