# generated using pymatgen
data_Rb2USbO6
_symmetry_space_group_name_H-M   'P 1'
_cell_length_a   5.96681976
_cell_length_b   5.96681976
_cell_length_c   10.27361393
_cell_angle_alpha   73.11837006
_cell_angle_beta   73.11837006
_cell_angle_gamma   60.00000381
_symmetry_Int_Tables_number   1
_chemical_formula_structural   Rb2USbO6
_chemical_formula_sum   'Rb4 U2 Sb2 O12'
_cell_volume   298.42744047
_cell_formula_units_Z   2
loop_
 _symmetry_equiv_pos_site_id
 _symmetry_equiv_pos_as_xyz
  1  'x, y, z'
loop_
 _atom_site_type_symbol
 _atom_site_label
 _atom_site_symmetry_multiplicity
 _atom_site_fract_x
 _atom_site_fract_y
 _atom_site_fract_z
 _atom_site_occupancy
  Rb  Rb0  1  0.71712402  0.71712399  0.84862801  1
  Rb  Rb1  1  0.28287601  0.28287600  0.15137201  1
  Rb  Rb2  1  0.87243802  0.87243799  0.38268602  1
  Rb  Rb3  1  0.12756200  0.12756200  0.61731400  1
  U  U4  1  0.40405801  0.40405800  0.78782600  1
  U  U5  1  0.59594202  0.59594199  0.21217402  1
  Sb  Sb6  1  0.50000001  0.49999999  0.50000001  1
  Sb  Sb7  1  0.00000000  0.00000000  0.00000000  1
  O  O8  1  0.72753501  0.19317400  0.88611700  1
  O  O9  1  0.27246502  0.80682599  0.11388301  1
  O  O10  1  0.19317401  0.19317400  0.88611700  1
  O  O11  1  0.19317402  0.72753499  0.88611700  1
  O  O12  1  0.80682602  0.80682599  0.11388302  1
  O  O13  1  0.80682601  0.27246500  0.11388302  1
  O  O14  1  0.60673500  0.16486600  0.62166400  1
  O  O15  1  0.60673502  0.60673499  0.62166401  1
  O  O16  1  0.16486602  0.60673499  0.62166400  1
  O  O17  1  0.83513401  0.39326500  0.37833601  1
  O  O18  1  0.39326502  0.83513399  0.37833601  1
  O  O19  1  0.39326501  0.39326500  0.37833601  1
