# generated using pymatgen
data_CeGa
_symmetry_space_group_name_H-M   'P 1'
_cell_length_a   4.68783379
_cell_length_b   5.81565523
_cell_length_c   6.00334167
_cell_angle_alpha   75.29086304
_cell_angle_beta   67.01840973
_cell_angle_gamma   66.23190308
_symmetry_Int_Tables_number   1
_chemical_formula_structural   CeGa
_chemical_formula_sum   'Ce3 Ga3'
_cell_volume   136.98947241
_cell_formula_units_Z   3
loop_
 _symmetry_equiv_pos_site_id
 _symmetry_equiv_pos_as_xyz
  1  'x, y, z'
loop_
 _atom_site_type_symbol
 _atom_site_label
 _atom_site_symmetry_multiplicity
 _atom_site_fract_x
 _atom_site_fract_y
 _atom_site_fract_z
 _atom_site_occupancy
  Ce  Ce0  1  0.46157398  0.78497001  0.29188203  1
  Ce  Ce1  1  0.54119700  0.20929600  0.70831000  1
  Ce  Ce2  1  0.82907301  0.22557400  0.11628004  1
  Ga  Ga3  1  0.15100497  0.80829401  0.88969599  1
  Ga  Ga4  1  0.17690599  0.36648901  0.27969900  1
  Ga  Ga5  1  0.84024399  0.60538001  0.71413203  1
