# generated using pymatgen
data_Yb4In3Pd5
_symmetry_space_group_name_H-M   'P 1'
_cell_length_a   4.57203293
_cell_length_b   7.32776117
_cell_length_c   7.98952913
_cell_angle_alpha   90.00000000
_cell_angle_beta   90.00000000
_cell_angle_gamma   90.00000000
_symmetry_Int_Tables_number   1
_chemical_formula_structural   Yb4In3Pd5
_chemical_formula_sum   'Yb4 In3 Pd5'
_cell_volume   267.67132000
_cell_formula_units_Z   1
loop_
 _symmetry_equiv_pos_site_id
 _symmetry_equiv_pos_as_xyz
  1  'x, y, z'
loop_
 _atom_site_type_symbol
 _atom_site_label
 _atom_site_symmetry_multiplicity
 _atom_site_fract_x
 _atom_site_fract_y
 _atom_site_fract_z
 _atom_site_occupancy
  Yb  Yb0  1  0.75000001  0.48727699  0.80724999  1
  Yb  Yb1  1  0.25000000  0.01272300  0.30724999  1
  Yb  Yb2  1  0.75000001  0.98727698  0.69274999  1
  Yb  Yb3  1  0.25000000  0.51272299  0.19275000  1
  Pd  Pd4  1  0.25000000  0.67738398  0.58751899  1
  In  In5  1  0.25000000  0.17738400  0.91248098  1
  In  In6  1  0.75000001  0.32261599  0.41248099  1
  In  In7  1  0.75000001  0.82261598  0.08751900  1
  Pd  Pd8  1  0.25000000  0.79494498  0.91077098  1
  Pd  Pd9  1  0.25000000  0.29494499  0.58922899  1
  Pd  Pd10  1  0.75000001  0.70505498  0.41077099  1
  Pd  Pd11  1  0.75000001  0.20505500  0.08922900  1
