# generated using pymatgen
data_Yb4Sn5
_symmetry_space_group_name_H-M   'P 1'
_cell_length_a   4.15384912
_cell_length_b   8.27211189
_cell_length_c   8.27211285
_cell_angle_alpha   120.00000000
_cell_angle_beta   90.00000000
_cell_angle_gamma   90.00000000
_symmetry_Int_Tables_number   1
_chemical_formula_structural   Yb4Sn5
_chemical_formula_sum   'Yb4 Sn5'
_cell_volume   246.15813931
_cell_formula_units_Z   1
loop_
 _symmetry_equiv_pos_site_id
 _symmetry_equiv_pos_as_xyz
  1  'x, y, z'
loop_
 _atom_site_type_symbol
 _atom_site_label
 _atom_site_symmetry_multiplicity
 _atom_site_fract_x
 _atom_site_fract_y
 _atom_site_fract_z
 _atom_site_occupancy
  Yb  Yb0  1  -0.00000000  0.76529603  0.76529604  1
  Yb  Yb1  1  -0.00000000  0.23470401  0.00000001  1
  Yb  Yb2  1  0.99999997  0.00000000  0.23470400  1
  Yb  Yb3  1  0.49999998  0.40054702  0.40054702  1
  Sn  Sn4  1  0.49999998  0.59945303  0.00000004  1
  Sn  Sn5  1  0.49999998  0.00000000  0.59945299  1
  Sn  Sn6  1  0.49999998  0.00000000  -0.00000000  1
  Sn  Sn7  1  -0.00000000  0.66666670  0.33333337  1
  Sn  Sn8  1  -0.00000000  0.33333335  0.66666668  1
