# generated using pymatgen
data_La6PrIn2O11
_symmetry_space_group_name_H-M   'P 1'
_cell_length_a   3.77226806
_cell_length_b   7.78230381
_cell_length_c   12.91580009
_cell_angle_alpha   90.00000000
_cell_angle_beta   90.00000000
_cell_angle_gamma   90.00000000
_symmetry_Int_Tables_number   1
_chemical_formula_structural   La6PrIn2O11
_chemical_formula_sum   'La6 Pr1 In2 O11'
_cell_volume   379.16831769
_cell_formula_units_Z   1
loop_
 _symmetry_equiv_pos_site_id
 _symmetry_equiv_pos_as_xyz
  1  'x, y, z'
loop_
 _atom_site_type_symbol
 _atom_site_label
 _atom_site_symmetry_multiplicity
 _atom_site_fract_x
 _atom_site_fract_y
 _atom_site_fract_z
 _atom_site_occupancy
  Pr  Pr0  1  0.25000000  0.08699700  0.82722799  1
  La  La1  1  0.74999999  0.91300302  0.17277200  1
  La  La2  1  0.25000000  0.58699701  0.67277200  1
  La  La3  1  0.74999999  0.41300301  0.32722800  1
  La  La4  1  0.25000000  0.33699601  0.05247900  1
  La  La5  1  0.74999999  0.66300402  0.94752099  1
  La  La6  1  0.25000000  0.83699602  0.44752100  1
  In  In7  1  0.74999999  0.16300400  0.55247900  1
  O  O8  1  0.25000000  0.48724401  0.89282499  1
  In  In9  1  0.74999999  0.51275601  0.10717500  1
  O  O10  1  0.25000000  0.98724402  0.60717500  1
  O  O11  1  0.74999999  0.01275600  0.39282500  1
  O  O12  1  0.25000000  0.33962001  0.49337100  1
  O  O13  1  0.74999999  0.66038002  0.50662900  1
  O  O14  1  0.25000000  0.83962002  0.00662900  1
  O  O15  1  0.74999999  0.16038000  0.99337099  1
  O  O16  1  0.74999999  0.30766901  0.71454199  1
  O  O17  1  0.25000000  0.69233102  0.28545800  1
  O  O18  1  0.74999999  0.80766902  0.78545799  1
  O  O19  1  0.25000000  0.19233100  0.21454200  1
