# generated using pymatgen
data_YNbGe
_symmetry_space_group_name_H-M   'P 1'
_cell_length_a   4.83202076
_cell_length_b   4.83202076
_cell_length_c   8.18244362
_cell_angle_alpha   90.08659363
_cell_angle_beta   90.08659363
_cell_angle_gamma   60.08801651
_symmetry_Int_Tables_number   1
_chemical_formula_structural   YNbGe
_chemical_formula_sum   'Y2 Nb2 Ge2'
_cell_volume   165.59799440
_cell_formula_units_Z   2
loop_
 _symmetry_equiv_pos_site_id
 _symmetry_equiv_pos_as_xyz
  1  'x, y, z'
loop_
 _atom_site_type_symbol
 _atom_site_label
 _atom_site_symmetry_multiplicity
 _atom_site_fract_x
 _atom_site_fract_y
 _atom_site_fract_z
 _atom_site_occupancy
  Y  Y0  1  0.00020200  0.00020200  0.71247899  1
  Y  Y1  1  0.99979801  0.99979805  0.28752093  1
  Nb  Nb2  1  0.66699501  0.66699504  0.51339795  1
  Ge  Ge3  1  0.33300500  0.33300502  0.48660197  1
  Nb  Nb4  1  0.33333334  0.33337002  0.08550498  1
  Ge  Ge5  1  0.66663001  0.66666670  0.91449495  1
