# generated using pymatgen
data_Ta6Re3Si7
_symmetry_space_group_name_H-M   'P 1'
_cell_length_a   5.15899611
_cell_length_b   7.66646719
_cell_length_c   7.68518257
_cell_angle_alpha   83.51557922
_cell_angle_beta   70.38819885
_cell_angle_gamma   70.33834839
_symmetry_Int_Tables_number   1
_chemical_formula_structural   Ta6Re3Si7
_chemical_formula_sum   'Ta6 Re3 Si7'
_cell_volume   269.63167031
_cell_formula_units_Z   1
loop_
 _symmetry_equiv_pos_site_id
 _symmetry_equiv_pos_as_xyz
  1  'x, y, z'
loop_
 _atom_site_type_symbol
 _atom_site_label
 _atom_site_symmetry_multiplicity
 _atom_site_fract_x
 _atom_site_fract_y
 _atom_site_fract_z
 _atom_site_occupancy
  Ta  Ta0  1  0.72422794  0.85335999  0.69818500  1
  Ta  Ta1  1  0.27717698  0.14108500  0.30456100  1
  Ta  Ta2  1  0.77641796  0.29973500  0.14742902  1
  Ta  Ta3  1  0.22640297  0.70060299  0.84659098  1
  Ta  Ta4  1  0.57615295  0.70026499  0.14742900  1
  Ta  Ta5  1  0.42700597  0.29939700  0.84659100  1
  Re  Re6  1  0.07758699  0.14664000  0.69818499  1
  Si  Si7  1  0.91826194  0.85891499  0.30456101  1
  Re  Re8  1  0.74690095  0.49999999  0.50372501  1
  Re  Re9  1  0.24937397  0.49999999  0.50372499  1
  Si  Si10  1  0.24989799  0.00000000  0.00020301  1
  Si  Si11  1  0.74989797  0.00000000  0.00020303  1
  Si  Si12  1  0.16509698  0.49999999  0.16980499  1
  Si  Si13  1  0.83466695  0.49999999  0.83066701  1
  Si  Si14  1  0.33703596  0.82685799  0.49906999  1
  Si  Si15  1  0.66389397  0.17314200  0.49907001  1
