# generated using pymatgen
data_La4(InPd)3
_symmetry_space_group_name_H-M   'P 1'
_cell_length_a   3.89623308
_cell_length_b   8.24253082
_cell_length_c   8.24253082
_cell_angle_alpha   90.00000000
_cell_angle_beta   90.00000000
_cell_angle_gamma   90.00000000
_symmetry_Int_Tables_number   1
_chemical_formula_structural   La4(InPd)3
_chemical_formula_sum   'La4 In3 Pd3'
_cell_volume   264.70740418
_cell_formula_units_Z   1
loop_
 _symmetry_equiv_pos_site_id
 _symmetry_equiv_pos_as_xyz
  1  'x, y, z'
loop_
 _atom_site_type_symbol
 _atom_site_label
 _atom_site_symmetry_multiplicity
 _atom_site_fract_x
 _atom_site_fract_y
 _atom_site_fract_z
 _atom_site_occupancy
  La  La0  1  0.49999999  0.67512801  0.17512800  1
  La  La1  1  0.49999999  0.32487201  0.82487202  1
  La  La2  1  0.49999999  0.17512800  0.32487201  1
  La  La3  1  0.49999999  0.82487202  0.67512801  1
  In  In4  1  0.00000000  0.00000000  0.00000000  1
  In  In5  1  -0.00000000  0.50000001  0.50000001  1
  In  In6  1  0.00000000  0.12484400  0.62484401  1
  Pd  Pd7  1  0.00000000  0.87515602  0.37515601  1
  Pd  Pd8  1  0.00000000  0.62484401  0.87515602  1
  Pd  Pd9  1  -0.00000000  0.37515601  0.12484400  1
