# generated using pymatgen
data_BaNa2La(RhO6)2
_symmetry_space_group_name_H-M   'P 1'
_cell_length_a   5.86026096
_cell_length_b   6.43438053
_cell_length_c   7.11590052
_cell_angle_alpha   113.05333710
_cell_angle_beta   90.00000000
_cell_angle_gamma   90.00000000
_symmetry_Int_Tables_number   1
_chemical_formula_structural   BaNa2La(RhO6)2
_chemical_formula_sum   'Ba1 Na2 La1 Rh2 O12'
_cell_volume   246.89245372
_cell_formula_units_Z   1
loop_
 _symmetry_equiv_pos_site_id
 _symmetry_equiv_pos_as_xyz
  1  'x, y, z'
loop_
 _atom_site_type_symbol
 _atom_site_label
 _atom_site_symmetry_multiplicity
 _atom_site_fract_x
 _atom_site_fract_y
 _atom_site_fract_z
 _atom_site_occupancy
  La  La0  1  0.75000000  0.07130100  0.20340800  1
  Ba  Ba1  1  0.25000000  0.92869901  0.79659200  1
  Na  Na2  1  0.75000000  0.38828000  0.81972299  1
  Na  Na3  1  0.25000000  0.61172001  0.18027701  1
  Rh  Rh4  1  0.75000000  0.76705501  0.53575100  1
  Rh  Rh5  1  0.25000000  0.23294500  0.46424899  1
  O  O6  1  0.96521001  0.76718901  0.40504700  1
  O  O7  1  0.03479000  0.23281100  0.59495299  1
  O  O8  1  0.46521000  0.23281100  0.59495299  1
  O  O9  1  0.53479000  0.76718901  0.40504700  1
  O  O10  1  0.75000000  0.55867101  0.59185500  1
  O  O11  1  0.25000000  0.44132900  0.40814500  1
  O  O12  1  0.99860401  0.67982101  0.96570499  1
  O  O13  1  0.00139600  0.32017900  0.03429501  1
  O  O14  1  0.49860400  0.32017900  0.03429501  1
  O  O15  1  0.50139600  0.67982101  0.96570499  1
  O  O16  1  0.75000000  0.98843601  0.73617700  1
  O  O17  1  0.25000000  0.01156400  0.26382299  1
