# generated using pymatgen
data_PrGa3Ge
_symmetry_space_group_name_H-M   'P 1'
_cell_length_a   4.30506182
_cell_length_b   4.30506182
_cell_length_c   5.98991823
_cell_angle_alpha   111.06083679
_cell_angle_beta   111.06083679
_cell_angle_gamma   90.00000000
_symmetry_Int_Tables_number   1
_chemical_formula_structural   PrGa3Ge
_chemical_formula_sum   'Pr1 Ga3 Ge1'
_cell_volume   95.60933806
_cell_formula_units_Z   1
loop_
 _symmetry_equiv_pos_site_id
 _symmetry_equiv_pos_as_xyz
  1  'x, y, z'
loop_
 _atom_site_type_symbol
 _atom_site_label
 _atom_site_symmetry_multiplicity
 _atom_site_fract_x
 _atom_site_fract_y
 _atom_site_fract_z
 _atom_site_occupancy
  Pr  Pr0  1  0.00000000  0.00000000  0.00000000  1
  Ga  Ga1  1  0.61274105  0.61274104  0.22548203  1
  Ga  Ga2  1  0.38725903  0.38725902  0.77451801  1
  Ga  Ga3  1  0.75000005  0.25000001  0.50000002  1
  Ge  Ge4  1  0.25000003  0.75000004  0.50000002  1
