# generated using pymatgen
data_Rb5Tl(IrO6)2
_symmetry_space_group_name_H-M   'P 1'
_cell_length_a   5.92818022
_cell_length_b   5.92818022
_cell_length_c   10.37570477
_cell_angle_alpha   73.40074158
_cell_angle_beta   73.40074158
_cell_angle_gamma   59.99999619
_symmetry_Int_Tables_number   1
_chemical_formula_structural   Rb5Tl(IrO6)2
_chemical_formula_sum   'Rb5 Tl1 Ir2 O12'
_cell_volume   298.10901646
_cell_formula_units_Z   1
loop_
 _symmetry_equiv_pos_site_id
 _symmetry_equiv_pos_as_xyz
  1  'x, y, z'
loop_
 _atom_site_type_symbol
 _atom_site_label
 _atom_site_symmetry_multiplicity
 _atom_site_fract_x
 _atom_site_fract_y
 _atom_site_fract_z
 _atom_site_occupancy
  Rb  Rb0  1  0.28602001  0.28602001  0.14194001  1
  Rb  Rb1  1  0.71398003  0.71398002  0.85805902  1
  Rb  Rb2  1  0.12875401  0.12875400  0.61373800  1
  Rb  Rb3  1  0.87124603  0.87124602  0.38626103  1
  Rb  Rb4  1  0.00000000  0.00000000  0.00000000  1
  Tl  Tl5  1  0.41334202  0.41334201  0.75997401  1
  Ir  Ir6  1  0.58665802  0.58665801  0.24002502  1
  Ir  Ir7  1  0.50000002  0.50000001  0.50000002  1
  O  O8  1  0.30566102  0.78253502  0.12926802  1
  O  O9  1  0.78253603  0.78253602  0.12926703  1
  O  O10  1  0.78253503  0.30566101  0.12926802  1
  O  O11  1  0.21746501  0.69433902  0.87073201  1
  O  O12  1  0.21746401  0.21746401  0.87073200  1
  O  O13  1  0.69433902  0.21746501  0.87073201  1
  O  O14  1  0.14690701  0.61264701  0.62779901  1
  O  O15  1  0.61264802  0.61264801  0.62779802  1
  O  O16  1  0.61264702  0.14690700  0.62779901  1
  O  O17  1  0.38735302  0.85309202  0.37220102  1
  O  O18  1  0.38735202  0.38735201  0.37220101  1
  O  O19  1  0.85309203  0.38735301  0.37220102  1
