# generated using pymatgen
data_K8CuS11
_symmetry_space_group_name_H-M   'P 1'
_cell_length_a   7.32660198
_cell_length_b   7.61943579
_cell_length_c   10.53205109
_cell_angle_alpha   90.00000000
_cell_angle_beta   90.00000000
_cell_angle_gamma   90.00000000
_symmetry_Int_Tables_number   1
_chemical_formula_structural   K8CuS11
_chemical_formula_sum   'K8 Cu1 S11'
_cell_volume   587.94725831
_cell_formula_units_Z   1
loop_
 _symmetry_equiv_pos_site_id
 _symmetry_equiv_pos_as_xyz
  1  'x, y, z'
loop_
 _atom_site_type_symbol
 _atom_site_label
 _atom_site_symmetry_multiplicity
 _atom_site_fract_x
 _atom_site_fract_y
 _atom_site_fract_z
 _atom_site_occupancy
  K  K0  1  0.01687200  0.43593901  0.25000000  1
  K  K1  1  0.98312800  0.56406102  0.74999999  1
  K  K2  1  0.51687200  0.06406100  0.74999999  1
  K  K3  1  0.48312800  0.93593903  0.25000000  1
  K  K4  1  0.00000000  0.00000000  0.00000000  1
  K  K5  1  0.50000000  0.50000001  0.00000000  1
  K  K6  1  0.00000000  0.00000000  0.50000000  1
  K  K7  1  0.50000000  0.50000001  0.50000000  1
  S  S8  1  0.30402400  0.19942401  0.05074600  1
  Cu  Cu9  1  0.69597600  0.80057602  0.94925399  1
  S  S10  1  0.80402400  0.30057601  0.94925399  1
  S  S11  1  0.69597600  0.80057602  0.55074600  1
  S  S12  1  0.19597600  0.69942402  0.05074600  1
  S  S13  1  0.30402400  0.19942401  0.44925400  1
  S  S14  1  0.19597600  0.69942402  0.44925400  1
  S  S15  1  0.80402400  0.30057601  0.55074600  1
  S  S16  1  0.59888600  0.53237401  0.25000000  1
  S  S17  1  0.40111400  0.46762601  0.74999999  1
  S  S18  1  0.09888600  0.96762603  0.74999999  1
  S  S19  1  0.90111400  0.03237400  0.25000000  1
