# generated using pymatgen
data_Yb2Ge3Pd
_symmetry_space_group_name_H-M   'P 1'
_cell_length_a   4.46632099
_cell_length_b   7.32789803
_cell_length_c   8.66714096
_cell_angle_alpha   90.00000000
_cell_angle_beta   90.00000000
_cell_angle_gamma   90.00000000
_symmetry_Int_Tables_number   1
_chemical_formula_structural   Yb2Ge3Pd
_chemical_formula_sum   'Yb4 Ge6 Pd2'
_cell_volume   283.66464443
_cell_formula_units_Z   2
loop_
 _symmetry_equiv_pos_site_id
 _symmetry_equiv_pos_as_xyz
  1  'x, y, z'
loop_
 _atom_site_type_symbol
 _atom_site_label
 _atom_site_symmetry_multiplicity
 _atom_site_fract_x
 _atom_site_fract_y
 _atom_site_fract_z
 _atom_site_occupancy
  Yb  Yb0  1  0.25000000  0.18781300  0.00581700  1
  Yb  Yb1  1  0.25000000  0.31218700  0.50581700  1
  Yb  Yb2  1  0.75000000  0.81218700  0.99418300  1
  Yb  Yb3  1  0.75000000  0.68781300  0.49418300  1
  Ge  Ge4  1  0.25000000  0.91666500  0.68613400  1
  Ge  Ge5  1  0.25000000  0.58333500  0.18613400  1
  Ge  Ge6  1  0.75000000  0.08333500  0.31386600  1
  Ge  Ge7  1  0.75000000  0.41666500  0.81386600  1
  Ge  Ge8  1  0.25000000  0.60010100  0.81725000  1
  Ge  Ge9  1  0.25000000  0.89989900  0.31725000  1
  Pd  Pd10  1  0.75000000  0.39989900  0.18275000  1
  Pd  Pd11  1  0.75000000  0.10010100  0.68275000  1
