# generated using pymatgen
data_Rb2NaCuS6
_symmetry_space_group_name_H-M   'P 1'
_cell_length_a   6.87121391
_cell_length_b   7.66290617
_cell_length_c   10.36290169
_cell_angle_alpha   90.00000000
_cell_angle_beta   88.87302399
_cell_angle_gamma   90.00000000
_symmetry_Int_Tables_number   1
_chemical_formula_structural   Rb2NaCuS6
_chemical_formula_sum   'Rb4 Na2 Cu2 S12'
_cell_volume   545.53715948
_cell_formula_units_Z   2
loop_
 _symmetry_equiv_pos_site_id
 _symmetry_equiv_pos_as_xyz
  1  'x, y, z'
loop_
 _atom_site_type_symbol
 _atom_site_label
 _atom_site_symmetry_multiplicity
 _atom_site_fract_x
 _atom_site_fract_y
 _atom_site_fract_z
 _atom_site_occupancy
  Rb  Rb0  1  0.71546501  0.50204699  0.49802802  1
  Rb  Rb1  1  0.28453500  0.00204700  0.50197201  1
  Rb  Rb2  1  0.18368700  0.77975798  0.00768601  1
  Rb  Rb3  1  0.81631301  0.27975799  0.99231402  1
  Na  Na4  1  0.81244001  0.99081998  0.32448403  1
  Na  Na5  1  0.18756000  0.49081999  0.67551600  1
  Cu  Cu6  1  0.68968001  0.77192198  0.20415803  1
  Cu  Cu7  1  0.31032000  0.27192199  0.79584200  1
  S  S8  1  0.57549901  0.19048900  0.33017202  1
  S  S9  1  0.42450100  0.69048898  0.66982801  1
  S  S10  1  0.43164300  0.69140298  0.32801201  1
  S  S11  1  0.56835701  0.19140300  0.67198802  1
  S  S12  1  0.87055801  0.86682398  0.51601903  1
  S  S13  1  0.12944200  0.36682399  0.48398100  1
  S  S14  1  0.90004501  0.56124199  0.23276404  1
  S  S15  1  0.09995500  0.06124200  0.76723600  1
  S  S16  1  0.90868801  0.58747399  0.75572103  1
  S  S17  1  0.09131200  0.08747400  0.24427900  1
  S  S18  1  0.65280701  0.86391098  0.00977303  1
  S  S19  1  0.34719300  0.36391099  0.99022700  1
