# generated using pymatgen
data_Ce2MgGa3
_symmetry_space_group_name_H-M   'P 1'
_cell_length_a   4.44921494
_cell_length_b   4.51372290
_cell_length_c   7.81742907
_cell_angle_alpha   90.00000000
_cell_angle_beta   90.00000000
_cell_angle_gamma   90.00000000
_symmetry_Int_Tables_number   1
_chemical_formula_structural   Ce2MgGa3
_chemical_formula_sum   'Ce2 Mg1 Ga3'
_cell_volume   156.99370156
_cell_formula_units_Z   1
loop_
 _symmetry_equiv_pos_site_id
 _symmetry_equiv_pos_as_xyz
  1  'x, y, z'
loop_
 _atom_site_type_symbol
 _atom_site_label
 _atom_site_symmetry_multiplicity
 _atom_site_fract_x
 _atom_site_fract_y
 _atom_site_fract_z
 _atom_site_occupancy
  Ce  Ce0  1  0.00000000  0.50000001  0.99701299  1
  Ce  Ce1  1  0.00000000  0.00000000  0.50390700  1
  Mg  Mg2  1  0.50000001  0.00000000  0.83008899  1
  Ga  Ga3  1  0.50000001  0.00000000  0.15437000  1
  Ga  Ga4  1  0.50000001  0.50000001  0.67818699  1
  Ga  Ga5  1  0.50000001  0.50000001  0.33643400  1
