# generated using pymatgen
data_CaNd7
_symmetry_space_group_name_H-M   'P 1'
_cell_length_a   5.97413778
_cell_length_b   7.41116619
_cell_length_c   7.41116619
_cell_angle_alpha   120.00000000
_cell_angle_beta   90.00000000
_cell_angle_gamma   90.00000000
_symmetry_Int_Tables_number   1
_chemical_formula_structural   CaNd7
_chemical_formula_sum   'Ca1 Nd7'
_cell_volume   284.17048643
_cell_formula_units_Z   1
loop_
 _symmetry_equiv_pos_site_id
 _symmetry_equiv_pos_as_xyz
  1  'x, y, z'
loop_
 _atom_site_type_symbol
 _atom_site_label
 _atom_site_symmetry_multiplicity
 _atom_site_fract_x
 _atom_site_fract_y
 _atom_site_fract_z
 _atom_site_occupancy
  Ca  Ca0  1  0.25000001  0.66666665  0.33333332  1
  Nd  Nd1  1  0.75000003  0.33333332  0.66666665  1
  Nd  Nd2  1  0.75000003  0.83561498  0.16438499  1
  Nd  Nd3  1  0.75000003  0.32876999  0.16438499  1
  Nd  Nd4  1  0.75000003  0.83561498  0.67122998  1
  Nd  Nd5  1  0.25000001  0.16438500  0.83561498  1
  Nd  Nd6  1  0.25000001  0.67122998  0.83561497  1
  Nd  Nd7  1  0.25000001  0.16438500  0.32876999  1
