# generated using pymatgen
data_YGa2
_symmetry_space_group_name_H-M   'P 1'
_cell_length_a   4.48471022
_cell_length_b   4.48471022
_cell_length_c   7.38158894
_cell_angle_alpha   90.00000000
_cell_angle_beta   90.00000000
_cell_angle_gamma   120.00000000
_symmetry_Int_Tables_number   1
_chemical_formula_structural   YGa2
_chemical_formula_sum   'Y2 Ga4'
_cell_volume   128.57284690
_cell_formula_units_Z   2
loop_
 _symmetry_equiv_pos_site_id
 _symmetry_equiv_pos_as_xyz
  1  'x, y, z'
loop_
 _atom_site_type_symbol
 _atom_site_label
 _atom_site_symmetry_multiplicity
 _atom_site_fract_x
 _atom_site_fract_y
 _atom_site_fract_z
 _atom_site_occupancy
  Y  Y0  1  0.00000000  0.00000000  0.24994300  1
  Y  Y1  1  0.00000000  0.00000000  0.74994301  1
  Ga  Ga2  1  0.33333334  0.66666667  0.04408500  1
  Ga  Ga3  1  0.66666664  0.33333334  0.54408500  1
  Ga  Ga4  1  0.33333334  0.66666667  0.46597200  1
  Ga  Ga5  1  0.66666664  0.33333334  0.96597201  1
