# generated using pymatgen
data_Na3LiNiO7
_symmetry_space_group_name_H-M   'P 1'
_cell_length_a   3.95341396
_cell_length_b   3.95341396
_cell_length_c   10.60990810
_cell_angle_alpha   100.73738098
_cell_angle_beta   100.73738098
_cell_angle_gamma   90.00000000
_symmetry_Int_Tables_number   1
_chemical_formula_structural   Na3LiNiO7
_chemical_formula_sum   'Na3 Li1 Ni1 O7'
_cell_volume   159.96788780
_cell_formula_units_Z   1
loop_
 _symmetry_equiv_pos_site_id
 _symmetry_equiv_pos_as_xyz
  1  'x, y, z'
loop_
 _atom_site_type_symbol
 _atom_site_label
 _atom_site_symmetry_multiplicity
 _atom_site_fract_x
 _atom_site_fract_y
 _atom_site_fract_z
 _atom_site_occupancy
  Na  Na0  1  0.68272601  0.68272601  0.36545200  1
  Na  Na1  1  0.31753600  0.31753600  0.63507200  1
  Na  Na2  1  0.50533401  0.50533401  0.01066800  1
  Li  Li3  1  0.90281501  0.90281501  0.80563001  1
  Ni  Ni4  1  0.10065700  0.10065700  0.20131400  1
  O  O5  1  0.90102201  0.40102200  0.80204401  1
  O  O6  1  0.40102201  0.90102201  0.80204401  1
  O  O7  1  0.09273300  0.59273301  0.18546600  1
  O  O8  1  0.59273301  0.09273300  0.18546600  1
  O  O9  1  0.80071701  0.80071701  0.60143401  1
  O  O10  1  0.20315400  0.20315400  0.40630800  1
  O  O11  1  0.99955101  0.99955101  0.99910201  1
