# generated using pymatgen
data_Li2BeO2
_symmetry_space_group_name_H-M   'P 1'
_cell_length_a   2.95642996
_cell_length_b   2.95643044
_cell_length_c   5.10049295
_cell_angle_alpha   90.00000000
_cell_angle_beta   90.00000000
_cell_angle_gamma   119.99999237
_symmetry_Int_Tables_number   1
_chemical_formula_structural   Li2BeO2
_chemical_formula_sum   'Li2 Be1 O2'
_cell_volume   38.60806858
_cell_formula_units_Z   1
loop_
 _symmetry_equiv_pos_site_id
 _symmetry_equiv_pos_as_xyz
  1  'x, y, z'
loop_
 _atom_site_type_symbol
 _atom_site_label
 _atom_site_symmetry_multiplicity
 _atom_site_fract_x
 _atom_site_fract_y
 _atom_site_fract_z
 _atom_site_occupancy
  Li  Li0  1  0.00000000  0.00000000  0.00000000  1
  Li  Li1  1  0.33333330  0.66666665  0.62798401  1
  Be  Be2  1  0.66666666  0.33333333  0.37201600  1
  O  O3  1  0.33333330  0.66666665  0.27816200  1
  O  O4  1  0.66666666  0.33333333  0.72183801  1
