# generated using pymatgen
data_Na2La3NbO12
_symmetry_space_group_name_H-M   'P 1'
_cell_length_a   5.65783978
_cell_length_b   6.05177975
_cell_length_c   8.20801449
_cell_angle_alpha   102.21148682
_cell_angle_beta   90.00000000
_cell_angle_gamma   90.00000000
_symmetry_Int_Tables_number   1
_chemical_formula_structural   Na2La3NbO12
_chemical_formula_sum   'Na2 La3 Nb1 O12'
_cell_volume   274.68341331
_cell_formula_units_Z   1
loop_
 _symmetry_equiv_pos_site_id
 _symmetry_equiv_pos_as_xyz
  1  'x, y, z'
loop_
 _atom_site_type_symbol
 _atom_site_label
 _atom_site_symmetry_multiplicity
 _atom_site_fract_x
 _atom_site_fract_y
 _atom_site_fract_z
 _atom_site_occupancy
  Na  Na0  1  0.69794403  0.65529502  0.68488305  1
  Na  Na1  1  0.19794401  0.34470501  0.31511703  1
  La  La2  1  0.70822003  0.81148002  0.22378304  1
  La  La3  1  0.20822001  0.18852001  0.77621704  1
  O  O4  1  0.88802704  0.45176201  0.47658804  1
  La  La5  1  0.38802702  0.54823802  0.52341204  1
  O  O6  1  0.42640102  0.92404303  0.76843607  1
  Nb  Nb7  1  0.92640104  0.07595700  0.23156401  1
  O  O8  1  0.94335004  0.96127503  0.76248407  1
  O  O9  1  0.44335002  0.03872500  0.23751601  1
  O  O10  1  0.99455204  0.45661601  0.78855505  1
  O  O11  1  0.49455202  0.54338402  0.21144503  1
  O  O12  1  0.70336003  0.75540502  0.97474807  1
  O  O13  1  0.20336001  0.24459501  0.02525201  1
  O  O14  1  0.71123103  0.86082402  0.47397005  1
  O  O15  1  0.21123101  0.13917600  0.52603003  1
  O  O16  1  0.50327602  0.37989601  0.78314205  1
  O  O17  1  0.00327600  0.62010402  0.21685803  1
