# generated using pymatgen
data_Y(Al2Fe)4
_symmetry_space_group_name_H-M   'P 1'
_cell_length_a   5.15200615
_cell_length_b   6.72449970
_cell_length_c   6.72449970
_cell_angle_alpha   81.56147003
_cell_angle_beta   67.47557068
_cell_angle_gamma   67.47557068
_symmetry_Int_Tables_number   1
_chemical_formula_structural   Y(Al2Fe)4
_chemical_formula_sum   'Y1 Al8 Fe4'
_cell_volume   198.78038561
_cell_formula_units_Z   1
loop_
 _symmetry_equiv_pos_site_id
 _symmetry_equiv_pos_as_xyz
  1  'x, y, z'
loop_
 _atom_site_type_symbol
 _atom_site_label
 _atom_site_symmetry_multiplicity
 _atom_site_fract_x
 _atom_site_fract_y
 _atom_site_fract_z
 _atom_site_occupancy
  Y  Y0  1  0.00000000  0.00000000  0.00000000  1
  Al  Al1  1  0.49999997  0.50000001  -0.00000005  1
  Al  Al2  1  -0.00000002  0.50000001  -0.00000003  1
  Al  Al3  1  0.50000000  0.00000000  0.49999998  1
  Al  Al4  1  0.00000000  0.00000000  0.50000000  1
  Al  Al5  1  0.66384398  0.33615601  0.33615596  1
  Al  Al6  1  0.33615597  0.66384402  0.66384396  1
  Al  Al7  1  -0.00000003  0.66384402  0.33615597  1
  Al  Al8  1  -0.00000001  0.33615601  0.66384399  1
  Fe  Fe9  1  0.72431496  0.77568502  0.77568493  1
  Fe  Fe10  1  0.27568499  0.22431501  0.22431498  1
  Fe  Fe11  1  0.49999999  0.22431501  0.77568497  1
  Fe  Fe12  1  0.49999996  0.77568502  0.22431494  1
