# generated using pymatgen
data_La4PrInGe8
_symmetry_space_group_name_H-M   'P 1'
_cell_length_a   7.18115759
_cell_length_b   7.18115759
_cell_length_c   7.18115711
_cell_angle_alpha   92.11952209
_cell_angle_beta   92.11952209
_cell_angle_gamma   92.11952972
_symmetry_Int_Tables_number   1
_chemical_formula_structural   La4PrInGe8
_chemical_formula_sum   'La4 Pr1 In1 Ge8'
_cell_volume   369.54589597
_cell_formula_units_Z   1
loop_
 _symmetry_equiv_pos_site_id
 _symmetry_equiv_pos_as_xyz
  1  'x, y, z'
loop_
 _atom_site_type_symbol
 _atom_site_label
 _atom_site_symmetry_multiplicity
 _atom_site_fract_x
 _atom_site_fract_y
 _atom_site_fract_z
 _atom_site_occupancy
  Pr  Pr0  1  0.28554298  0.28554299  0.28554298  1
  La  La1  1  0.71445696  0.71445698  0.71445694  1
  La  La2  1  0.88202997  0.24143099  0.61809495  1
  La  La3  1  0.24143097  0.61809498  0.88202996  1
  La  La4  1  0.61809495  0.88202997  0.24143093  1
  In  In5  1  0.11796997  0.75856898  0.38190496  1
  Ge  Ge6  1  0.75856896  0.38190499  0.11796995  1
  Ge  Ge7  1  0.38190498  0.11797000  0.75856898  1
  Ge  Ge8  1  0.95323897  0.08095100  0.25383196  1
  Ge  Ge9  1  0.08095099  0.25383199  0.95323899  1
  Ge  Ge10  1  0.25383196  0.95323897  0.08095095  1
  Ge  Ge11  1  0.04676097  0.91904897  0.74616796  1
  Ge  Ge12  1  0.91904895  0.74616798  0.04676093  1
  Ge  Ge13  1  0.74616798  0.04676100  0.91904897  1
