# generated using pymatgen
data_Y2AgS3
_symmetry_space_group_name_H-M   'P 1'
_cell_length_a   3.98094606
_cell_length_b   6.82561922
_cell_length_c   11.95306683
_cell_angle_alpha   104.93296051
_cell_angle_beta   90.00000000
_cell_angle_gamma   106.95484161
_symmetry_Int_Tables_number   1
_chemical_formula_structural   Y2AgS3
_chemical_formula_sum   'Y4 Ag2 S6'
_cell_volume   299.19052608
_cell_formula_units_Z   2
loop_
 _symmetry_equiv_pos_site_id
 _symmetry_equiv_pos_as_xyz
  1  'x, y, z'
loop_
 _atom_site_type_symbol
 _atom_site_label
 _atom_site_symmetry_multiplicity
 _atom_site_fract_x
 _atom_site_fract_y
 _atom_site_fract_z
 _atom_site_occupancy
  Y  Y0  1  0.30630794  0.61261600  0.20777099  1
  Y  Y1  1  0.69309496  0.38619000  0.80116601  1
  Y  Y2  1  0.00150600  0.00301200  0.00777900  1
  Y  Y3  1  0.88685592  0.77371199  0.56244900  1
  Ag  Ag4  1  0.11566298  0.23132600  0.42517201  1
  Ag  Ag5  1  0.25249595  0.50499200  0.63369300  1
  S  S6  1  0.72686895  0.45373800  0.35179300  1
  S  S7  1  0.66450296  0.32900600  0.05124499  1
  S  S8  1  0.33993994  0.67988000  0.94856101  1
  S  S9  1  0.96972191  0.93944399  0.23114898  1
  S  S10  1  0.03478999  0.06958000  0.78488302  1
  S  S11  1  0.50825199  0.01650400  0.49433901  1
