# generated using pymatgen
data_Rb2H3O5
_symmetry_space_group_name_H-M   'P 1'
_cell_length_a   4.72613811
_cell_length_b   7.50851202
_cell_length_c   9.38712025
_cell_angle_alpha   90.00000000
_cell_angle_beta   90.00000000
_cell_angle_gamma   90.00000000
_symmetry_Int_Tables_number   1
_chemical_formula_structural   Rb2H3O5
_chemical_formula_sum   'Rb4 H6 O10'
_cell_volume   333.11383521
_cell_formula_units_Z   2
loop_
 _symmetry_equiv_pos_site_id
 _symmetry_equiv_pos_as_xyz
  1  'x, y, z'
loop_
 _atom_site_type_symbol
 _atom_site_label
 _atom_site_symmetry_multiplicity
 _atom_site_fract_x
 _atom_site_fract_y
 _atom_site_fract_z
 _atom_site_occupancy
  Rb  Rb0  1  0.93867998  0.50000000  0.24999999  1
  Rb  Rb1  1  0.06132000  0.00000000  0.74999998  1
  Rb  Rb2  1  0.06132000  0.50000000  0.74999998  1
  Rb  Rb3  1  0.93867998  0.00000000  0.24999999  1
  H  H4  1  0.43798399  0.75000000  0.02796700  1
  H  H5  1  0.43798399  0.25000000  0.47203299  1
  H  H6  1  0.56201599  0.75000000  0.52796699  1
  H  H7  1  0.56201599  0.25000000  0.97203297  1
  H  H8  1  0.38333699  0.25000000  0.05010500  1
  H  H9  1  0.38333699  0.75000000  0.44989499  1
  O  O10  1  0.61666299  0.75000000  0.94989498  1
  O  O11  1  0.61666299  0.25000000  0.55010499  1
  O  O12  1  0.13380800  0.25000000  0.99940097  1
  O  O13  1  0.13380800  0.75000000  0.50059899  1
  O  O14  1  0.86619198  0.25000000  0.49940099  1
  O  O15  1  0.86619198  0.75000000  0.00059900  1
  O  O16  1  0.44854699  0.25000000  0.18155400  1
  O  O17  1  0.44854699  0.75000000  0.31844599  1
  O  O18  1  0.55145299  0.75000000  0.81844598  1
  O  O19  1  0.55145299  0.25000000  0.68155398  1
