# generated using pymatgen
data_Pr(NiGe)2
_symmetry_space_group_name_H-M   'P 1'
_cell_length_a   4.11973000
_cell_length_b   4.11973000
_cell_length_c   5.77055979
_cell_angle_alpha   110.91368103
_cell_angle_beta   110.91368103
_cell_angle_gamma   90.00000000
_symmetry_Int_Tables_number   1
_chemical_formula_structural   Pr(NiGe)2
_chemical_formula_sum   'Pr1 Ni2 Ge2'
_cell_volume   84.54336348
_cell_formula_units_Z   1
loop_
 _symmetry_equiv_pos_site_id
 _symmetry_equiv_pos_as_xyz
  1  'x, y, z'
loop_
 _atom_site_type_symbol
 _atom_site_label
 _atom_site_symmetry_multiplicity
 _atom_site_fract_x
 _atom_site_fract_y
 _atom_site_fract_z
 _atom_site_occupancy
  Pr  Pr0  1  0.00000000  0.00000000  0.00000000  1
  Ni  Ni1  1  0.61493901  0.61493900  0.22987800  1
  Ge  Ge2  1  0.38506100  0.38506100  0.77012198  1
  Ni  Ni3  1  0.25000001  0.75000000  0.49999999  1
  Ge  Ge4  1  0.75000001  0.25000000  0.49999999  1
