# generated using pymatgen
data_Na2LiCuO6
_symmetry_space_group_name_H-M   'P 1'
_cell_length_a   5.53857374
_cell_length_b   5.54288960
_cell_length_c   9.59101391
_cell_angle_alpha   74.19388580
_cell_angle_beta   74.17655945
_cell_angle_gamma   60.75072479
_symmetry_Int_Tables_number   1
_chemical_formula_structural   Na2LiCuO6
_chemical_formula_sum   'Na4 Li2 Cu2 O12'
_cell_volume   243.74623428
_cell_formula_units_Z   2
loop_
 _symmetry_equiv_pos_site_id
 _symmetry_equiv_pos_as_xyz
  1  'x, y, z'
loop_
 _atom_site_type_symbol
 _atom_site_label
 _atom_site_symmetry_multiplicity
 _atom_site_fract_x
 _atom_site_fract_y
 _atom_site_fract_z
 _atom_site_occupancy
  Na  Na0  1  0.37531798  0.37541200  0.87471597  1
  Na  Na1  1  0.87538996  0.87544799  0.37476497  1
  Na  Na2  1  0.12586699  0.12847500  0.62330198  1
  Na  Na3  1  0.62767197  0.62660400  0.12321798  1
  Li  Li4  1  0.25082499  0.25065200  0.24933599  1
  Li  Li5  1  0.75054396  0.75090700  0.74951496  1
  Cu  Cu6  1  0.49987598  0.50043600  0.49987997  1
  Cu  Cu7  1  0.00004898  0.99991299  0.00024000  1
  O  O8  1  0.12212698  0.62459000  0.62564398  1
  O  O9  1  0.62257698  0.12442300  0.12590698  1
  O  O10  1  0.62513298  0.12256500  0.62585297  1
  O  O11  1  0.12480898  0.62213400  0.12567400  1
  O  O12  1  0.62942097  0.62867600  0.62812697  1
  O  O13  1  0.12870799  0.12895000  0.12820099  1
  O  O14  1  0.37799197  0.87371199  0.87493997  1
  O  O15  1  0.87697697  0.37474800  0.37426096  1
  O  O16  1  0.87460097  0.37667900  0.87411495  1
  O  O17  1  0.37394597  0.87773799  0.37465898  1
  O  O18  1  0.86935296  0.86852499  0.87385395  1
  O  O19  1  0.36881398  0.36941400  0.37379298  1
