# generated using pymatgen
data_SrEu(TlPb)2
_symmetry_space_group_name_H-M   'P 1'
_cell_length_a   5.92270422
_cell_length_b   6.23676014
_cell_length_c   6.27164125
_cell_angle_alpha   60.18381119
_cell_angle_beta   90.00000000
_cell_angle_gamma   90.00000000
_symmetry_Int_Tables_number   1
_chemical_formula_structural   SrEu(TlPb)2
_chemical_formula_sum   'Sr1 Eu1 Tl2 Pb2'
_cell_volume   200.99828494
_cell_formula_units_Z   1
loop_
 _symmetry_equiv_pos_site_id
 _symmetry_equiv_pos_as_xyz
  1  'x, y, z'
loop_
 _atom_site_type_symbol
 _atom_site_label
 _atom_site_symmetry_multiplicity
 _atom_site_fract_x
 _atom_site_fract_y
 _atom_site_fract_z
 _atom_site_occupancy
  Sr  Sr0  1  0.74999997  0.01931100  0.32128601  1
  Eu  Eu1  1  0.24999999  0.65940299  0.32128600  1
  Tl  Tl2  1  0.74999997  0.34059700  0.67871402  1
  Tl  Tl3  1  0.24999999  0.98068899  0.67871400  1
  Pb  Pb4  1  0.24999999  0.33475200  -0.00000001  1
  Pb  Pb5  1  0.74999997  0.66524799  -0.00000001  1
