# generated using pymatgen
data_Ba4Mo3WO12
_symmetry_space_group_name_H-M   'P 1'
_cell_length_a   5.78805017
_cell_length_b   7.69912910
_cell_length_c   7.83970070
_cell_angle_alpha   95.56941986
_cell_angle_beta   90.00000000
_cell_angle_gamma   90.00000000
_symmetry_Int_Tables_number   1
_chemical_formula_structural   Ba4Mo3WO12
_chemical_formula_sum   'Ba4 Mo3 W1 O12'
_cell_volume   347.71094513
_cell_formula_units_Z   1
loop_
 _symmetry_equiv_pos_site_id
 _symmetry_equiv_pos_as_xyz
  1  'x, y, z'
loop_
 _atom_site_type_symbol
 _atom_site_label
 _atom_site_symmetry_multiplicity
 _atom_site_fract_x
 _atom_site_fract_y
 _atom_site_fract_z
 _atom_site_occupancy
  Ba  Ba0  1  0.25959999  0.34102000  0.62658000  1
  Ba  Ba1  1  0.74039998  0.65897999  0.37342002  1
  Ba  Ba2  1  0.75959998  0.15898000  0.87341999  1
  Ba  Ba3  1  0.24039999  0.84101999  0.12658003  1
  Mo  Mo4  1  0.23832999  0.79659999  0.63785002  1
  Mo  Mo5  1  0.26166999  0.29660000  0.13785001  1
  Mo  Mo6  1  0.73832998  0.70339999  0.86215001  1
  W  W7  1  0.76166998  0.20340000  0.36215000  1
  O  O8  1  0.44106999  0.16498000  0.28978000  1
  O  O9  1  0.55892998  0.83501999  0.71022002  1
  O  O10  1  0.93536997  0.01248000  0.43079999  1
  O  O11  1  0.56462998  0.51248000  0.93080000  1
  O  O12  1  0.94106997  0.33502000  0.21022001  1
  O  O13  1  0.24052999  0.15313000  0.94373999  1
  O  O14  1  0.43536999  0.48752000  0.06920002  1
  O  O15  1  0.75946998  0.84686999  0.05626003  1
  O  O16  1  0.25946999  0.65312999  0.44374002  1
  O  O17  1  0.06463000  0.98751999  0.56920003  1
  O  O18  1  0.74052998  0.34687000  0.55626000  1
  O  O19  1  0.05893000  0.66497999  0.78978001  1
