# generated using pymatgen
data_MnSi
_symmetry_space_group_name_H-M   'P 1'
_cell_length_a   4.72320080
_cell_length_b   6.86266899
_cell_length_c   6.86266899
_cell_angle_alpha   119.40609741
_cell_angle_beta   90.00000000
_cell_angle_gamma   90.00000000
_symmetry_Int_Tables_number   1
_chemical_formula_structural   MnSi
_chemical_formula_sum   'Mn8 Si8'
_cell_volume   193.78547381
_cell_formula_units_Z   8
loop_
 _symmetry_equiv_pos_site_id
 _symmetry_equiv_pos_as_xyz
  1  'x, y, z'
loop_
 _atom_site_type_symbol
 _atom_site_label
 _atom_site_symmetry_multiplicity
 _atom_site_fract_x
 _atom_site_fract_y
 _atom_site_fract_z
 _atom_site_occupancy
  Mn  Mn0  1  -0.00000000  0.77113603  0.99276906  1
  Mn  Mn1  1  -0.00000000  0.99276904  0.77113608  1
  Mn  Mn2  1  0.50000002  0.76921603  0.76921606  1
  Mn  Mn3  1  0.50000002  0.22268201  0.99524702  1
  Mn  Mn4  1  0.50000002  0.99524704  0.22268208  1
  Mn  Mn5  1  0.74974103  0.33610601  0.67214903  1
  Mn  Mn6  1  0.74974103  0.67214903  0.33610605  1
  Mn  Mn7  1  0.25025901  0.67214903  0.33610605  1
  Si  Si8  1  0.25025901  0.33610601  0.67214903  1
  Si  Si9  1  -0.00000000  0.24136501  0.24136502  1
  Si  Si10  1  1.00000004  0.58206302  0.58206305  1
  Si  Si11  1  -0.00000000  0.40445602  0.00784503  1
  Si  Si12  1  1.00000004  0.00784500  0.40445600  1
  Si  Si13  1  0.50000002  0.40473002  0.40473003  1
  Si  Si14  1  0.50000002  0.58962202  0.00232304  1
  Si  Si15  1  0.50000002  0.00232300  0.58962200  1
