# generated using pymatgen
data_La3Sn5
_symmetry_space_group_name_H-M   'P 1'
_cell_length_a   6.48365450
_cell_length_b   6.48365450
_cell_length_c   10.60243607
_cell_angle_alpha   90.00000000
_cell_angle_beta   90.00000000
_cell_angle_gamma   104.69586182
_symmetry_Int_Tables_number   1
_chemical_formula_structural   La3Sn5
_chemical_formula_sum   'La6 Sn10'
_cell_volume   431.12214119
_cell_formula_units_Z   2
loop_
 _symmetry_equiv_pos_site_id
 _symmetry_equiv_pos_as_xyz
  1  'x, y, z'
loop_
 _atom_site_type_symbol
 _atom_site_label
 _atom_site_symmetry_multiplicity
 _atom_site_fract_x
 _atom_site_fract_y
 _atom_site_fract_z
 _atom_site_occupancy
  La  La0  1  0.61713798  0.61713798  0.75000000  1
  La  La1  1  0.38286199  0.38286199  0.25000000  1
  La  La2  1  0.20502298  0.79497698  0.50000000  1
  La  La3  1  0.20502298  0.79497698  0.99999999  1
  La  La4  1  0.79497698  0.20502299  0.50000000  1
  La  La5  1  0.79497698  0.20502299  -0.00000000  1
  Sn  Sn6  1  0.00203200  0.00203200  0.75000000  1
  Sn  Sn7  1  0.99796796  0.99796797  0.25000000  1
  Sn  Sn8  1  0.30211999  0.30211999  0.95678299  1
  Sn  Sn9  1  0.69787997  0.69787998  0.04321700  1
  Sn  Sn10  1  0.30211999  0.30211999  0.54321700  1
  Sn  Sn11  1  0.69787997  0.69787998  0.45678300  1
  Sn  Sn12  1  0.51601199  0.06155900  0.75000000  1
  Sn  Sn13  1  0.93844097  0.48398799  0.25000000  1
  Sn  Sn14  1  0.48398798  0.93844098  0.25000000  1
  Sn  Sn15  1  0.06155899  0.51601199  0.75000000  1
