# generated using pymatgen
data_Gd2AlSi3
_symmetry_space_group_name_H-M   'P 1'
_cell_length_a   2.92999601
_cell_length_b   4.66884804
_cell_length_c   8.14159107
_cell_angle_alpha   89.99690247
_cell_angle_beta   90.00000000
_cell_angle_gamma   90.00000000
_symmetry_Int_Tables_number   1
_chemical_formula_structural   Gd2AlSi3
_chemical_formula_sum   'Gd2 Al1 Si3'
_cell_volume   111.37457321
_cell_formula_units_Z   1
loop_
 _symmetry_equiv_pos_site_id
 _symmetry_equiv_pos_as_xyz
  1  'x, y, z'
loop_
 _atom_site_type_symbol
 _atom_site_label
 _atom_site_symmetry_multiplicity
 _atom_site_fract_x
 _atom_site_fract_y
 _atom_site_fract_z
 _atom_site_occupancy
  Gd  Gd0  1  -0.00000000  0.99994396  0.00288701  1
  Gd  Gd1  1  0.00000000  0.50002698  0.50026100  1
  Si  Si2  1  0.50000000  0.49996098  0.83255200  1
  Al  Al3  1  0.50000000  0.49995498  0.17521700  1
  Si  Si4  1  0.50000000  0.99995196  0.65722701  1
  Si  Si5  1  0.50000000  0.99995996  0.33185601  1
