# generated using pymatgen
data_Ce4B2Ru7
_symmetry_space_group_name_H-M   'P 1'
_cell_length_a   4.94412279
_cell_length_b   4.94412279
_cell_length_c   9.42419815
_cell_angle_alpha   74.79282379
_cell_angle_beta   74.79282379
_cell_angle_gamma   59.99999237
_symmetry_Int_Tables_number   1
_chemical_formula_structural   Ce4B2Ru7
_chemical_formula_sum   'Ce4 B2 Ru7'
_cell_volume   190.13326349
_cell_formula_units_Z   1
loop_
 _symmetry_equiv_pos_site_id
 _symmetry_equiv_pos_as_xyz
  1  'x, y, z'
loop_
 _atom_site_type_symbol
 _atom_site_label
 _atom_site_symmetry_multiplicity
 _atom_site_fract_x
 _atom_site_fract_y
 _atom_site_fract_z
 _atom_site_occupancy
  Ce  Ce0  1  0.00000000  0.00000000  0.00000000  1
  Ce  Ce1  1  0.83521600  0.83521597  0.49435200  1
  Ce  Ce2  1  0.16478400  0.16478399  0.50564801  1
  Ce  Ce3  1  0.65384400  0.65384398  0.03846900  1
  Ru  Ru4  1  0.34615600  0.34615599  0.96153102  1
  Ru  Ru5  1  0.54861100  0.54861098  0.35416600  1
  Ru  Ru6  1  0.45138900  0.45138898  0.64583401  1
  Ru  Ru7  1  0.90972999  0.41637098  0.76416901  1
  Ru  Ru8  1  0.90973000  0.90972997  0.76416901  1
  B  B9  1  0.41637101  0.90972997  0.76416901  1
  Ru  Ru10  1  0.09027001  0.58362898  0.23583100  1
  Ru  Ru11  1  0.09027000  0.09027000  0.23583100  1
  B  B12  1  0.58362899  0.09027000  0.23583100  1
