# generated using pymatgen
data_Ca3Pr
_symmetry_space_group_name_H-M   'P 1'
_cell_length_a   5.64681816
_cell_length_b   7.64303780
_cell_length_c   7.64303780
_cell_angle_alpha   120.00000000
_cell_angle_beta   90.00000000
_cell_angle_gamma   90.00000000
_symmetry_Int_Tables_number   1
_chemical_formula_structural   Ca3Pr
_chemical_formula_sum   'Ca6 Pr2'
_cell_volume   285.67119334
_cell_formula_units_Z   2
loop_
 _symmetry_equiv_pos_site_id
 _symmetry_equiv_pos_as_xyz
  1  'x, y, z'
loop_
 _atom_site_type_symbol
 _atom_site_label
 _atom_site_symmetry_multiplicity
 _atom_site_fract_x
 _atom_site_fract_y
 _atom_site_fract_z
 _atom_site_occupancy
  Ca  Ca0  1  0.24999999  0.66666668  0.33333334  1
  Pr  Pr1  1  0.74999998  0.33333334  0.66666668  1
  Ca  Ca2  1  0.74999998  0.85522102  0.14477800  1
  Ca  Ca3  1  0.74999998  0.28955701  0.14477800  1
  Ca  Ca4  1  0.74999998  0.85522102  0.71044201  1
  Ca  Ca5  1  0.24999999  0.14477900  0.85522202  1
  Ca  Ca6  1  0.24999999  0.71044302  0.85522201  1
  Pr  Pr7  1  0.24999999  0.14477900  0.28955800  1
