# generated using pymatgen
data_Pr7Pd13
_symmetry_space_group_name_H-M   'P 1'
_cell_length_a   3.84043789
_cell_length_b   7.65585995
_cell_length_c   15.61574745
_cell_angle_alpha   90.00000000
_cell_angle_beta   90.00000000
_cell_angle_gamma   90.00000000
_symmetry_Int_Tables_number   1
_chemical_formula_structural   Pr7Pd13
_chemical_formula_sum   'Pr7 Pd13'
_cell_volume   459.13193628
_cell_formula_units_Z   1
loop_
 _symmetry_equiv_pos_site_id
 _symmetry_equiv_pos_as_xyz
  1  'x, y, z'
loop_
 _atom_site_type_symbol
 _atom_site_label
 _atom_site_symmetry_multiplicity
 _atom_site_fract_x
 _atom_site_fract_y
 _atom_site_fract_z
 _atom_site_occupancy
  Pr  Pr0  1  0.00000000  0.60650000  0.21618199  1
  Pr  Pr1  1  0.00000000  0.39350000  0.78381798  1
  Pr  Pr2  1  0.00000000  0.10650000  0.28381799  1
  Pr  Pr3  1  0.00000000  0.89350001  0.71618198  1
  Pr  Pr4  1  0.00000000  0.74719801  0.96409597  1
  Pr  Pr5  1  0.00000000  0.25280200  0.03590400  1
  Pr  Pr6  1  0.00000000  0.24719800  0.53590398  1
  Pd  Pd7  1  0.00000000  0.75280201  0.46409599  1
  Pd  Pd8  1  0.50000001  0.42346100  0.37092699  1
  Pd  Pd9  1  0.50000001  0.57653900  0.62907298  1
  Pd  Pd10  1  0.50000001  0.92346101  0.12907300  1
  Pd  Pd11  1  0.50000001  0.07653900  0.87092697  1
  Pd  Pd12  1  0.50000001  0.55554900  0.07437500  1
  Pd  Pd13  1  0.50000001  0.44445100  0.92562497  1
  Pd  Pd14  1  0.50000001  0.05554900  0.42562499  1
  Pd  Pd15  1  0.50000001  0.94445101  0.57437498  1
  Pd  Pd16  1  0.50000001  0.30653000  0.18152899  1
  Pd  Pd17  1  0.50000001  0.69347000  0.81847098  1
  Pd  Pd18  1  0.50000001  0.80653001  0.31847099  1
  Pd  Pd19  1  0.50000001  0.19347000  0.68152898  1
