# generated using pymatgen
data_PrGa3Ge
_symmetry_space_group_name_H-M   'P 1'
_cell_length_a   4.29703379
_cell_length_b   4.29703379
_cell_length_c   5.97993231
_cell_angle_alpha   111.05646515
_cell_angle_beta   111.05646515
_cell_angle_gamma   90.00000000
_symmetry_Int_Tables_number   1
_chemical_formula_structural   PrGa3Ge
_chemical_formula_sum   'Pr1 Ga3 Ge1'
_cell_volume   95.10084981
_cell_formula_units_Z   1
loop_
 _symmetry_equiv_pos_site_id
 _symmetry_equiv_pos_as_xyz
  1  'x, y, z'
loop_
 _atom_site_type_symbol
 _atom_site_label
 _atom_site_symmetry_multiplicity
 _atom_site_fract_x
 _atom_site_fract_y
 _atom_site_fract_z
 _atom_site_occupancy
  Pr  Pr0  1  0.00000000  0.00000000  0.00000000  1
  Ga  Ga1  1  0.61794202  0.61794202  0.23588398  1
  Ga  Ga2  1  0.75000003  0.25000001  0.49999999  1
  Ga  Ga3  1  0.25000000  0.75000003  0.49999999  1
  Ge  Ge4  1  0.38205801  0.38205802  0.76411600  1
