# generated using pymatgen
data_NaSiO3
_symmetry_space_group_name_H-M   'P 1'
_cell_length_a   5.15800285
_cell_length_b   7.77896070
_cell_length_c   7.77896070
_cell_angle_alpha   88.23297882
_cell_angle_beta   81.14945984
_cell_angle_gamma   81.14945984
_symmetry_Int_Tables_number   1
_chemical_formula_structural   NaSiO3
_chemical_formula_sum   'Na4 Si4 O12'
_cell_volume   304.72545369
_cell_formula_units_Z   4
loop_
 _symmetry_equiv_pos_site_id
 _symmetry_equiv_pos_as_xyz
  1  'x, y, z'
loop_
 _atom_site_type_symbol
 _atom_site_label
 _atom_site_symmetry_multiplicity
 _atom_site_fract_x
 _atom_site_fract_y
 _atom_site_fract_z
 _atom_site_occupancy
  Na  Na0  1  0.25000001  0.22633900  0.77366101  1
  Na  Na1  1  0.25000003  0.59615901  0.40384098  1
  Na  Na2  1  0.75000001  0.40384100  0.59615901  1
  Na  Na3  1  0.75000003  0.77366101  0.22633898  1
  Si  Si4  1  0.22942100  0.12199300  0.29931400  1
  Si  Si5  1  0.72942100  0.29931400  0.12199300  1
  Si  Si6  1  0.27057904  0.70068601  0.87800698  1
  Si  Si7  1  0.77057904  0.87800701  0.70068598  1
  O  O8  1  0.44142600  0.19590400  0.11087600  1
  O  O9  1  0.94142598  0.11087600  0.19590402  1
  O  O10  1  0.17310101  0.27590000  0.45438200  1
  O  O11  1  0.15756404  0.65143801  0.08478197  1
  O  O12  1  0.67310101  0.45438200  0.27590000  1
  O  O13  1  0.65756399  0.08478200  0.65143802  1
  O  O14  1  0.34243605  0.91521801  0.34856196  1
  O  O15  1  0.32689903  0.54561801  0.72409999  1
  O  O16  1  0.84243600  0.34856200  0.91521802  1
  O  O17  1  0.82689903  0.72410001  0.54561799  1
  O  O18  1  0.05857406  0.88912401  0.80409596  1
  O  O19  1  0.55857404  0.80409601  0.88912398  1
