# generated using pymatgen
data_CeNi3Ge
_symmetry_space_group_name_H-M   'P 1'
_cell_length_a   4.19481993
_cell_length_b   4.19481993
_cell_length_c   5.73064947
_cell_angle_alpha   111.46905518
_cell_angle_beta   111.46905518
_cell_angle_gamma   90.00000000
_symmetry_Int_Tables_number   1
_chemical_formula_structural   CeNi3Ge
_chemical_formula_sum   'Ce1 Ni3 Ge1'
_cell_volume   86.28051194
_cell_formula_units_Z   1
loop_
 _symmetry_equiv_pos_site_id
 _symmetry_equiv_pos_as_xyz
  1  'x, y, z'
loop_
 _atom_site_type_symbol
 _atom_site_label
 _atom_site_symmetry_multiplicity
 _atom_site_fract_x
 _atom_site_fract_y
 _atom_site_fract_z
 _atom_site_occupancy
  Ce  Ce0  1  0.99845003  0.99845002  0.99690002  1
  Ni  Ni1  1  0.41443701  0.41443701  0.82887401  1
  Ni  Ni2  1  0.26446801  0.76446802  0.52893601  1
  Ge  Ge3  1  0.76446802  0.26446801  0.52893601  1
  Ni  Ni4  1  0.65217802  0.65217802  0.30435601  1
