# generated using pymatgen
data_Fe3Si
_symmetry_space_group_name_H-M   'P 1'
_cell_length_a   2.87326002
_cell_length_b   5.07933903
_cell_length_c   7.69467878
_cell_angle_alpha   90.00000000
_cell_angle_beta   90.00000000
_cell_angle_gamma   106.42965698
_symmetry_Int_Tables_number   1
_chemical_formula_structural   Fe3Si
_chemical_formula_sum   'Fe6 Si2'
_cell_volume   107.71276463
_cell_formula_units_Z   2
loop_
 _symmetry_equiv_pos_site_id
 _symmetry_equiv_pos_as_xyz
  1  'x, y, z'
loop_
 _atom_site_type_symbol
 _atom_site_label
 _atom_site_symmetry_multiplicity
 _atom_site_fract_x
 _atom_site_fract_y
 _atom_site_fract_z
 _atom_site_occupancy
  Fe  Fe0  1  0.74705299  0.49410601  0.25000001  1
  Fe  Fe1  1  0.25294699  0.50589401  0.75000002  1
  Fe  Fe2  1  0.43273199  0.86546401  0.25000001  1
  Fe  Fe3  1  0.56726799  0.13453600  0.75000002  1
  Fe  Fe4  1  0.13637800  0.27275600  0.06110800  1
  Fe  Fe5  1  0.86362198  0.72724401  0.93889203  1
  Si  Si6  1  0.86362198  0.72724401  0.56110802  1
  Si  Si7  1  0.13637800  0.27275600  0.43889201  1
