# generated using pymatgen
data_Mg9Pb
_symmetry_space_group_name_H-M   'P 1'
_cell_length_a   7.86606455
_cell_length_b   7.89485741
_cell_length_c   7.89485741
_cell_angle_alpha   60.24435043
_cell_angle_beta   80.26538849
_cell_angle_gamma   99.73461151
_symmetry_Int_Tables_number   1
_chemical_formula_structural   Mg9Pb
_chemical_formula_sum   'Mg9 Pb1'
_cell_volume   400.75180345
_cell_formula_units_Z   1
loop_
 _symmetry_equiv_pos_site_id
 _symmetry_equiv_pos_as_xyz
  1  'x, y, z'
loop_
 _atom_site_type_symbol
 _atom_site_label
 _atom_site_symmetry_multiplicity
 _atom_site_fract_x
 _atom_site_fract_y
 _atom_site_fract_z
 _atom_site_occupancy
  Mg  Mg0  1  1.00000004  0.33284101  0.33284095  1
  Mg  Mg1  1  0.50000006  0.82852001  0.82851992  1
  Mg  Mg2  1  0.00000004  0.66708501  0.66708495  1
  Mg  Mg3  1  1.00000002  0.00016200  0.00016197  1
  Mg  Mg4  1  0.75992803  0.23531400  0.76314095  1
  Mg  Mg5  1  0.75635907  0.91761102  0.40109792  1
  Mg  Mg6  1  0.75525105  0.60047201  0.08135594  1
  Mg  Mg7  1  0.24364103  0.40109801  0.91761095  1
  Mg  Mg8  1  0.24474901  0.08135600  0.60047198  1
  Pb  Pb9  1  0.24007205  0.76314101  0.23531395  1
