# generated using pymatgen
data_Li2TiCu6
_symmetry_space_group_name_H-M   'P 1'
_cell_length_a   4.84955406
_cell_length_b   4.84955406
_cell_length_c   6.73153114
_cell_angle_alpha   90.00000000
_cell_angle_beta   90.00000000
_cell_angle_gamma   120.00000000
_symmetry_Int_Tables_number   1
_chemical_formula_structural   Li2TiCu6
_chemical_formula_sum   'Li2 Ti1 Cu6'
_cell_volume   137.10336099
_cell_formula_units_Z   1
loop_
 _symmetry_equiv_pos_site_id
 _symmetry_equiv_pos_as_xyz
  1  'x, y, z'
loop_
 _atom_site_type_symbol
 _atom_site_label
 _atom_site_symmetry_multiplicity
 _atom_site_fract_x
 _atom_site_fract_y
 _atom_site_fract_z
 _atom_site_occupancy
  Li  Li0  1  0.33641400  0.16820700  -0.00000000  1
  Li  Li1  1  0.83179299  0.66358600  0.33333333  1
  Ti  Ti2  1  0.83179299  0.16820700  0.66666665  1
  Cu  Cu3  1  0.99575199  0.49787600  -0.00000000  1
  Cu  Cu4  1  0.50212399  0.00424800  0.33333333  1
  Cu  Cu5  1  0.50212400  0.49787600  0.66666665  1
  Cu  Cu6  1  0.66413099  0.83206600  -0.00000000  1
  Cu  Cu7  1  0.16793500  0.33587000  0.33333333  1
  Cu  Cu8  1  0.16793500  0.83206600  0.66666665  1
