# generated using pymatgen
data_Li2Cu3O7
_symmetry_space_group_name_H-M   'P 1'
_cell_length_a   5.07948971
_cell_length_b   5.07948971
_cell_length_c   6.19175100
_cell_angle_alpha   90.00000000
_cell_angle_beta   90.00000000
_cell_angle_gamma   112.49208832
_symmetry_Int_Tables_number   1
_chemical_formula_structural   Li2Cu3O7
_chemical_formula_sum   'Li2 Cu3 O7'
_cell_volume   147.60254095
_cell_formula_units_Z   1
loop_
 _symmetry_equiv_pos_site_id
 _symmetry_equiv_pos_as_xyz
  1  'x, y, z'
loop_
 _atom_site_type_symbol
 _atom_site_label
 _atom_site_symmetry_multiplicity
 _atom_site_fract_x
 _atom_site_fract_y
 _atom_site_fract_z
 _atom_site_occupancy
  Li  Li0  1  0.64508304  0.35491701  0.75000000  1
  Li  Li1  1  0.35491705  0.64508302  0.25000000  1
  Cu  Cu2  1  0.00000000  0.00000000  0.00000000  1
  Cu  Cu3  1  0.00000006  1.00000003  0.50000000  1
  Cu  Cu4  1  0.21011202  0.25709901  0.25000000  1
  O  O5  1  0.78988807  0.74290102  0.75000000  1
  O  O6  1  0.25709902  0.21011201  0.75000000  1
  O  O7  1  0.74290107  0.78988802  0.25000000  1
  O  O8  1  0.23489305  0.76510702  0.03223600  1
  O  O9  1  0.76510704  0.23489301  0.53223600  1
  O  O10  1  0.76510704  0.23489301  0.96776400  1
  O  O11  1  0.23489305  0.76510702  0.46776400  1
