# generated using pymatgen
data_Y2(GaSi)3
_symmetry_space_group_name_H-M   'P 1'
_cell_length_a   4.41466522
_cell_length_b   6.67578888
_cell_length_c   10.11709690
_cell_angle_alpha   90.00000000
_cell_angle_beta   90.00000000
_cell_angle_gamma   90.00000000
_symmetry_Int_Tables_number   1
_chemical_formula_structural   Y2(GaSi)3
_chemical_formula_sum   'Y4 Ga6 Si6'
_cell_volume   298.16473641
_cell_formula_units_Z   2
loop_
 _symmetry_equiv_pos_site_id
 _symmetry_equiv_pos_as_xyz
  1  'x, y, z'
loop_
 _atom_site_type_symbol
 _atom_site_label
 _atom_site_symmetry_multiplicity
 _atom_site_fract_x
 _atom_site_fract_y
 _atom_site_fract_z
 _atom_site_occupancy
  Y  Y0  1  0.24999999  0.27973401  0.66253101  1
  Y  Y1  1  0.24999999  0.77973401  0.83746901  1
  Y  Y2  1  0.74999996  0.72026601  0.33746900  1
  Y  Y3  1  0.74999996  0.22026600  0.16253100  1
  Ga  Ga4  1  0.24999999  0.53623801  0.10370500  1
  Ga  Ga5  1  0.24999999  0.03623800  0.39629500  1
  Ga  Ga6  1  0.74999996  0.46376201  0.89629501  1
  Si  Si7  1  0.74999996  0.96376202  0.60370501  1
  Ga  Ga8  1  0.24999999  0.91751602  0.14806100  1
  Ga  Ga9  1  0.24999999  0.41751601  0.35193900  1
  Ga  Ga10  1  0.74999996  0.08248400  0.85193901  1
  Si  Si11  1  0.74999996  0.58248401  0.64806101  1
  Si  Si12  1  0.24999999  0.21681900  0.95689201  1
  Si  Si13  1  0.24999999  0.71681901  0.54310801  1
  Si  Si14  1  0.74999996  0.78318101  0.04310800  1
  Si  Si15  1  0.74999996  0.28318101  0.45689200  1
