# generated using pymatgen
data_NaCeS2
_symmetry_space_group_name_H-M   'P 1'
_cell_length_a   3.93157983
_cell_length_b   3.93157983
_cell_length_c   7.12350035
_cell_angle_alpha   73.98086548
_cell_angle_beta   73.98086548
_cell_angle_gamma   60.00000381
_symmetry_Int_Tables_number   1
_chemical_formula_structural   NaCeS2
_chemical_formula_sum   'Na1 Ce1 S2'
_cell_volume   90.38748563
_cell_formula_units_Z   1
loop_
 _symmetry_equiv_pos_site_id
 _symmetry_equiv_pos_as_xyz
  1  'x, y, z'
loop_
 _atom_site_type_symbol
 _atom_site_label
 _atom_site_symmetry_multiplicity
 _atom_site_fract_x
 _atom_site_fract_y
 _atom_site_fract_z
 _atom_site_occupancy
  Na  Na0  1  0.00000000  0.00000000  0.00000000  1
  Ce  Ce1  1  0.50000001  0.50000000  0.50000001  1
  S  S2  1  0.24061001  0.24061000  0.27817000  1
  S  S3  1  0.75939002  0.75938999  0.72183001  1
