# generated using pymatgen
data_BeGeN2
_symmetry_space_group_name_H-M   'P 1'
_cell_length_a   3.18194342
_cell_length_b   3.18194342
_cell_length_c   5.49619961
_cell_angle_alpha   73.17391205
_cell_angle_beta   73.17391205
_cell_angle_gamma   60.00001144
_symmetry_Int_Tables_number   1
_chemical_formula_structural   BeGeN2
_chemical_formula_sum   'Be1 Ge1 N2'
_cell_volume   45.42056434
_cell_formula_units_Z   1
loop_
 _symmetry_equiv_pos_site_id
 _symmetry_equiv_pos_as_xyz
  1  'x, y, z'
loop_
 _atom_site_type_symbol
 _atom_site_label
 _atom_site_symmetry_multiplicity
 _atom_site_fract_x
 _atom_site_fract_y
 _atom_site_fract_z
 _atom_site_occupancy
  Be  Be0  1  0.25040602  0.25040601  0.24878198  1
  Ge  Ge1  1  0.74869906  0.74869902  0.75390295  1
  N  N2  1  0.00587800  0.00587800  0.98236597  1
  N  N3  1  0.49501704  0.49501701  0.51494897  1
