# generated using pymatgen
data_Hf4Ni9
_symmetry_space_group_name_H-M   'P 1'
_cell_length_a   5.48305559
_cell_length_b   5.48305559
_cell_length_c   7.91456509
_cell_angle_alpha   88.84025574
_cell_angle_beta   88.84025574
_cell_angle_gamma   68.44965363
_symmetry_Int_Tables_number   1
_chemical_formula_structural   Hf4Ni9
_chemical_formula_sum   'Hf4 Ni9'
_cell_volume   221.24302188
_cell_formula_units_Z   1
loop_
 _symmetry_equiv_pos_site_id
 _symmetry_equiv_pos_as_xyz
  1  'x, y, z'
loop_
 _atom_site_type_symbol
 _atom_site_label
 _atom_site_symmetry_multiplicity
 _atom_site_fract_x
 _atom_site_fract_y
 _atom_site_fract_z
 _atom_site_occupancy
  Hf  Hf0  1  0.32479001  0.32478999  0.37430803  1
  Hf  Hf1  1  0.67521003  0.67520998  0.62569205  1
  Hf  Hf2  1  0.34783801  0.34783799  0.89098703  1
  Hf  Hf3  1  0.65216203  0.65216198  0.10901305  1
  Ni  Ni4  1  0.00000000  0.00000000  0.00000000  1
  Ni  Ni5  1  0.03391300  0.03391300  0.66919800  1
  Ni  Ni6  1  0.96608704  0.96608697  0.33080207  1
  Ni  Ni7  1  0.26647104  0.86643397  0.84244705  1
  Ni  Ni8  1  0.86643400  0.26647099  0.84244705  1
  Ni  Ni9  1  0.73352900  0.13356600  0.15755303  1
  Ni  Ni10  1  0.13356604  0.73352898  0.15755303  1
  Ni  Ni11  1  0.19677604  0.80322397  0.50000004  1
  Ni  Ni12  1  0.80322400  0.19677599  0.50000004  1
