# generated using pymatgen
data_Pr(FeSi)2
_symmetry_space_group_name_H-M   'P 1'
_cell_length_a   4.02300978
_cell_length_b   4.02300978
_cell_length_c   5.91695309
_cell_angle_alpha   109.87420654
_cell_angle_beta   109.87420654
_cell_angle_gamma   90.00000000
_symmetry_Int_Tables_number   1
_chemical_formula_structural   Pr(FeSi)2
_chemical_formula_sum   'Pr1 Fe2 Si2'
_cell_volume   83.96993294
_cell_formula_units_Z   1
loop_
 _symmetry_equiv_pos_site_id
 _symmetry_equiv_pos_as_xyz
  1  'x, y, z'
loop_
 _atom_site_type_symbol
 _atom_site_label
 _atom_site_symmetry_multiplicity
 _atom_site_fract_x
 _atom_site_fract_y
 _atom_site_fract_z
 _atom_site_occupancy
  Pr  Pr0  1  0.00000000  0.00000000  0.00000000  1
  Fe  Fe1  1  0.25000002  0.75000005  0.50000003  1
  Fe  Fe2  1  0.75000005  0.25000002  0.50000002  1
  Si  Si3  1  0.63126304  0.63126304  0.26252602  1
  Si  Si4  1  0.36873702  0.36873702  0.73747403  1
