# generated using pymatgen
data_Ce2B2P5
_symmetry_space_group_name_H-M   'P 1'
_cell_length_a   4.30117607
_cell_length_b   4.30117607
_cell_length_c   8.09543800
_cell_angle_alpha   90.00000000
_cell_angle_beta   90.00000000
_cell_angle_gamma   90.00000000
_symmetry_Int_Tables_number   1
_chemical_formula_structural   Ce2B2P5
_chemical_formula_sum   'Ce2 B2 P5'
_cell_volume   149.76653886
_cell_formula_units_Z   1
loop_
 _symmetry_equiv_pos_site_id
 _symmetry_equiv_pos_as_xyz
  1  'x, y, z'
loop_
 _atom_site_type_symbol
 _atom_site_label
 _atom_site_symmetry_multiplicity
 _atom_site_fract_x
 _atom_site_fract_y
 _atom_site_fract_z
 _atom_site_occupancy
  Ce  Ce0  1  0.00000000  0.00000000  0.99062200  1
  Ce  Ce1  1  0.00000000  0.00000000  0.50937800  1
  B  B2  1  0.49999999  0.49999999  0.25000000  1
  P  P3  1  0.49999999  0.49999999  0.98881100  1
  B  B4  1  0.49999999  0.49999999  0.51118900  1
  P  P5  1  0.49999999  0.00000000  0.25000000  1
  P  P6  1  0.49999999  0.00000000  0.75000000  1
  P  P7  1  0.00000000  0.49999999  0.25000000  1
  P  P8  1  0.00000000  0.49999999  0.75000000  1
