# generated using pymatgen
data_CeIn
_symmetry_space_group_name_H-M   'P 1'
_cell_length_a   5.65257788
_cell_length_b   7.18474197
_cell_length_c   7.18474197
_cell_angle_alpha   120.00000000
_cell_angle_beta   90.00000000
_cell_angle_gamma   90.00000000
_symmetry_Int_Tables_number   1
_chemical_formula_structural   CeIn
_chemical_formula_sum   'Ce4 In4'
_cell_volume   252.69668109
_cell_formula_units_Z   4
loop_
 _symmetry_equiv_pos_site_id
 _symmetry_equiv_pos_as_xyz
  1  'x, y, z'
loop_
 _atom_site_type_symbol
 _atom_site_label
 _atom_site_symmetry_multiplicity
 _atom_site_fract_x
 _atom_site_fract_y
 _atom_site_fract_z
 _atom_site_occupancy
  Ce  Ce0  1  0.25000001  0.16749800  0.33499600  1
  Ce  Ce1  1  0.25000001  0.66500500  0.83250299  1
  Ce  Ce2  1  0.25000001  0.16749800  0.83250299  1
  Ce  Ce3  1  0.75000002  0.83250200  0.66500399  1
  In  In4  1  0.75000002  0.33499500  0.16749700  1
  In  In5  1  0.75000002  0.83250200  0.16749699  1
  In  In6  1  0.75000002  0.33333333  0.66666666  1
  In  In7  1  0.25000001  0.66666667  0.33333333  1
