# generated using pymatgen
data_CaHO
_symmetry_space_group_name_H-M   'P 1'
_cell_length_a   3.64997602
_cell_length_b   3.64997602
_cell_length_c   6.20009804
_cell_angle_alpha   90.00000000
_cell_angle_beta   90.00000000
_cell_angle_gamma   90.00000000
_symmetry_Int_Tables_number   1
_chemical_formula_structural   CaHO
_chemical_formula_sum   'Ca2 H2 O2'
_cell_volume   82.59972054
_cell_formula_units_Z   2
loop_
 _symmetry_equiv_pos_site_id
 _symmetry_equiv_pos_as_xyz
  1  'x, y, z'
loop_
 _atom_site_type_symbol
 _atom_site_label
 _atom_site_symmetry_multiplicity
 _atom_site_fract_x
 _atom_site_fract_y
 _atom_site_fract_z
 _atom_site_occupancy
  Ca  Ca0  1  0.00000000  0.00000000  0.00000000  1
  Ca  Ca1  1  0.50000000  0.50000000  0.50000000  1
  H  H2  1  0.00000000  0.00000000  0.39488600  1
  H  H3  1  0.50000000  0.50000000  0.89474199  1
  O  O4  1  0.50000000  0.50000000  0.10525800  1
  O  O5  1  0.00000000  0.00000000  0.60511400  1
