# generated using pymatgen
data_Ce5Pt7
_symmetry_space_group_name_H-M   'P 1'
_cell_length_a   3.77442002
_cell_length_b   6.55122423
_cell_length_c   11.43632317
_cell_angle_alpha   103.82287598
_cell_angle_beta   90.00000000
_cell_angle_gamma   106.74243164
_symmetry_Int_Tables_number   1
_chemical_formula_structural   Ce5Pt7
_chemical_formula_sum   'Ce5 Pt7'
_cell_volume   262.23538077
_cell_formula_units_Z   1
loop_
 _symmetry_equiv_pos_site_id
 _symmetry_equiv_pos_as_xyz
  1  'x, y, z'
loop_
 _atom_site_type_symbol
 _atom_site_label
 _atom_site_symmetry_multiplicity
 _atom_site_fract_x
 _atom_site_fract_y
 _atom_site_fract_z
 _atom_site_occupancy
  Ce  Ce0  1  0.30543694  0.61087398  0.19992397  1
  Ce  Ce1  1  0.69513696  0.39027399  0.80441497  1
  Ce  Ce2  1  0.88617292  0.77234598  0.57022896  1
  Ce  Ce3  1  0.99992190  0.99984397  0.00330996  1
  Ce  Ce4  1  0.11332798  0.22665599  0.42137098  1
  Pt  Pt5  1  0.96215991  0.92431998  0.22014596  1
  Pt  Pt6  1  0.03980699  0.07961400  0.78488398  1
  Pt  Pt7  1  0.65962597  0.31925199  0.05013199  1
  Pt  Pt8  1  0.34051294  0.68102598  0.94864695  1
  Pt  Pt9  1  0.25808295  0.51616599  0.64424196  1
  Pt  Pt10  1  0.73595595  0.47191199  0.35404497  1
  Pt  Pt11  1  0.50385900  0.00771800  0.49865399  1
