# generated using pymatgen
data_Er2Al
_symmetry_space_group_name_H-M   'P 1'
_cell_length_a   2.86327004
_cell_length_b   2.86327004
_cell_length_c   7.07814884
_cell_angle_alpha   101.66921997
_cell_angle_beta   101.66921997
_cell_angle_gamma   90.00000000
_symmetry_Int_Tables_number   1
_chemical_formula_structural   Er2Al
_chemical_formula_sum   'Er2 Al1'
_cell_volume   55.60430466
_cell_formula_units_Z   1
loop_
 _symmetry_equiv_pos_site_id
 _symmetry_equiv_pos_as_xyz
  1  'x, y, z'
loop_
 _atom_site_type_symbol
 _atom_site_label
 _atom_site_symmetry_multiplicity
 _atom_site_fract_x
 _atom_site_fract_y
 _atom_site_fract_z
 _atom_site_occupancy
  Er  Er0  1  0.67792199  0.67792199  0.35584399  1
  Er  Er1  1  0.32207799  0.32207799  0.64415598  1
  Al  Al2  1  0.00000000  0.00000000  0.00000000  1
