# generated using pymatgen
data_Y2Ga3
_symmetry_space_group_name_H-M   'P 1'
_cell_length_a   3.86876988
_cell_length_b   7.50670910
_cell_length_c   7.50670910
_cell_angle_alpha   90.00000000
_cell_angle_beta   90.00000000
_cell_angle_gamma   90.00000000
_symmetry_Int_Tables_number   1
_chemical_formula_structural   Y2Ga3
_chemical_formula_sum   'Y4 Ga6'
_cell_volume   218.00781951
_cell_formula_units_Z   2
loop_
 _symmetry_equiv_pos_site_id
 _symmetry_equiv_pos_as_xyz
  1  'x, y, z'
loop_
 _atom_site_type_symbol
 _atom_site_label
 _atom_site_symmetry_multiplicity
 _atom_site_fract_x
 _atom_site_fract_y
 _atom_site_fract_z
 _atom_site_occupancy
  Y  Y0  1  0.50000001  0.32560300  0.82560299  1
  Y  Y1  1  0.50000001  0.82560299  0.67439699  1
  Y  Y2  1  0.50000001  0.17439700  0.32560300  1
  Y  Y3  1  0.50000001  0.67439699  0.17439700  1
  Ga  Ga4  1  -0.00000000  0.49999999  0.49999999  1
  Ga  Ga5  1  0.00000000  0.00000000  0.00000000  1
  Ga  Ga6  1  0.00000000  0.11927200  0.61927199  1
  Ga  Ga7  1  0.00000000  0.61927199  0.88072799  1
  Ga  Ga8  1  -0.00000000  0.88072799  0.38072799  1
  Ga  Ga9  1  0.00000000  0.38072799  0.11927200  1
