# generated using pymatgen
data_RbI(ClO)4
_symmetry_space_group_name_H-M   'P 1'
_cell_length_a   3.90086389
_cell_length_b   7.71043205
_cell_length_c   8.68143940
_cell_angle_alpha   90.00000000
_cell_angle_beta   90.00000000
_cell_angle_gamma   90.00000000
_symmetry_Int_Tables_number   1
_chemical_formula_structural   RbI(ClO)4
_chemical_formula_sum   'Rb1 I1 Cl4 O4'
_cell_volume   261.11465607
_cell_formula_units_Z   1
loop_
 _symmetry_equiv_pos_site_id
 _symmetry_equiv_pos_as_xyz
  1  'x, y, z'
loop_
 _atom_site_type_symbol
 _atom_site_label
 _atom_site_symmetry_multiplicity
 _atom_site_fract_x
 _atom_site_fract_y
 _atom_site_fract_z
 _atom_site_occupancy
  Rb  Rb0  1  0.95262203  0.01785000  0.00000000  1
  I  I1  1  0.04737800  0.51785000  0.00000000  1
  Cl  Cl2  1  0.00829700  0.04325400  0.28381999  1
  Cl  Cl3  1  0.00829700  0.04325400  0.71617997  1
  Cl  Cl4  1  0.99170303  0.54325400  0.28381999  1
  Cl  Cl5  1  0.99170303  0.54325400  0.71617997  1
  O  O6  1  0.49404701  0.03402600  0.00000000  1
  O  O7  1  0.00368700  0.28449600  0.00000000  1
  O  O8  1  0.50595301  0.53402600  0.00000000  1
  O  O9  1  0.99631303  0.78449599  0.00000000  1
