# generated using pymatgen
data_SrRh
_symmetry_space_group_name_H-M   'P 1'
_cell_length_a   6.18669939
_cell_length_b   6.18669939
_cell_length_c   6.18669939
_cell_angle_alpha   60.00000000
_cell_angle_beta   60.00000000
_cell_angle_gamma   60.00000000
_symmetry_Int_Tables_number   1
_chemical_formula_structural   SrRh
_chemical_formula_sum   'Sr3 Rh3'
_cell_volume   167.44109101
_cell_formula_units_Z   3
loop_
 _symmetry_equiv_pos_site_id
 _symmetry_equiv_pos_as_xyz
  1  'x, y, z'
loop_
 _atom_site_type_symbol
 _atom_site_label
 _atom_site_symmetry_multiplicity
 _atom_site_fract_x
 _atom_site_fract_y
 _atom_site_fract_z
 _atom_site_occupancy
  Sr  Sr0  1  0.74999998  0.74999998  0.74999998  1
  Sr  Sr1  1  0.00000000  0.00000000  0.00000000  1
  Sr  Sr2  1  0.37499999  0.37499999  0.37499999  1
  Rh  Rh3  1  0.87499998  0.37499999  0.37499999  1
  Rh  Rh4  1  0.37499999  0.37499999  0.87499998  1
  Rh  Rh5  1  0.37499999  0.87499998  0.37499999  1
