# generated using pymatgen
data_Pr2Si5Rh
_symmetry_space_group_name_H-M   'P 1'
_cell_length_a   3.94246197
_cell_length_b   3.96014810
_cell_length_c   8.45904636
_cell_angle_alpha   103.53726196
_cell_angle_beta   90.00000000
_cell_angle_gamma   90.00000000
_symmetry_Int_Tables_number   1
_chemical_formula_structural   Pr2Si5Rh
_chemical_formula_sum   'Pr2 Si5 Rh1'
_cell_volume   128.39968424
_cell_formula_units_Z   1
loop_
 _symmetry_equiv_pos_site_id
 _symmetry_equiv_pos_as_xyz
  1  'x, y, z'
loop_
 _atom_site_type_symbol
 _atom_site_label
 _atom_site_symmetry_multiplicity
 _atom_site_fract_x
 _atom_site_fract_y
 _atom_site_fract_z
 _atom_site_occupancy
  Pr  Pr0  1  0.75000001  0.89433598  0.78867197  1
  Pr  Pr1  1  0.25000000  0.10566400  0.21132799  1
  Si  Si2  1  0.75000001  0.25068099  0.50136198  1
  Si  Si3  1  0.25000000  0.74931898  0.49863798  1
  Si  Si4  1  0.25000000  0.46014499  0.92028997  1
  Si  Si5  1  0.75000001  0.53985499  0.07971000  1
  Si  Si6  1  0.25000000  0.32326399  0.64652798  1
  Rh  Rh7  1  0.75000001  0.67673598  0.35347199  1
