# generated using pymatgen
data_Ca2NbO6
_symmetry_space_group_name_H-M   'P 1'
_cell_length_a   5.33009577
_cell_length_b   5.33009577
_cell_length_c   10.53366184
_cell_angle_alpha   90.00000000
_cell_angle_beta   90.00000000
_cell_angle_gamma   120.00000000
_symmetry_Int_Tables_number   1
_chemical_formula_structural   Ca2NbO6
_chemical_formula_sum   'Ca4 Nb2 O12'
_cell_volume   259.16719508
_cell_formula_units_Z   2
loop_
 _symmetry_equiv_pos_site_id
 _symmetry_equiv_pos_as_xyz
  1  'x, y, z'
loop_
 _atom_site_type_symbol
 _atom_site_label
 _atom_site_symmetry_multiplicity
 _atom_site_fract_x
 _atom_site_fract_y
 _atom_site_fract_z
 _atom_site_occupancy
  Ca  Ca0  1  0.00000000  0.00000000  0.50000001  1
  Ca  Ca1  1  0.00000000  0.00000000  0.00000000  1
  Ca  Ca2  1  0.66666668  0.33333331  0.25000000  1
  Ca  Ca3  1  0.33333331  0.66666662  0.75000001  1
  Nb  Nb4  1  0.33333331  0.66666662  0.25000000  1
  Nb  Nb5  1  0.66666668  0.33333331  0.75000001  1
  O  O6  1  0.35720299  0.36959697  0.35626101  1
  O  O7  1  0.64279699  0.63040295  0.64373901  1
  O  O8  1  0.01239396  0.64279695  0.35626101  1
  O  O9  1  0.35720296  0.98760593  0.14373900  1
  O  O10  1  0.98760602  0.35720297  0.64373901  1
  O  O11  1  0.64279703  0.01239400  0.85626101  1
  O  O12  1  0.63040297  0.98760593  0.35626101  1
  O  O13  1  0.01239398  0.36959697  0.14373900  1
  O  O14  1  0.36959702  0.01239400  0.64373901  1
  O  O15  1  0.98760601  0.63040295  0.85626101  1
  O  O16  1  0.63040299  0.64279695  0.14373900  1
  O  O17  1  0.36959700  0.35720297  0.85626101  1
