# generated using pymatgen
data_Mn
_symmetry_space_group_name_H-M   'P 1'
_cell_length_a   5.72946405
_cell_length_b   5.72946405
_cell_length_c   5.72946405
_cell_angle_alpha   90.00000000
_cell_angle_beta   90.00000000
_cell_angle_gamma   90.00000000
_symmetry_Int_Tables_number   1
_chemical_formula_structural   Mn
_chemical_formula_sum   Mn16
_cell_volume   188.07973196
_cell_formula_units_Z   16
loop_
 _symmetry_equiv_pos_site_id
 _symmetry_equiv_pos_as_xyz
  1  'x, y, z'
loop_
 _atom_site_type_symbol
 _atom_site_label
 _atom_site_symmetry_multiplicity
 _atom_site_fract_x
 _atom_site_fract_y
 _atom_site_fract_z
 _atom_site_occupancy
  Mn  Mn0  1  0.75190299  0.75190299  0.24809700  1
  Mn  Mn1  1  0.75190299  0.75190299  0.75190299  1
  Mn  Mn2  1  0.75190299  0.24809700  0.24809700  1
  Mn  Mn3  1  0.24809700  0.24809700  0.75190299  1
  Mn  Mn4  1  0.24809700  0.75190299  0.75190299  1
  Mn  Mn5  1  -0.00000000  0.50000000  -0.00000000  1
  Mn  Mn6  1  0.00000000  0.00000000  0.00000000  1
  Mn  Mn7  1  0.24809700  0.75190299  0.24809700  1
  Mn  Mn8  1  0.75190299  0.24809700  0.75190299  1
  Mn  Mn9  1  0.50000000  0.00000000  0.00000000  1
  Mn  Mn10  1  0.24809700  0.24809700  0.24809700  1
  Mn  Mn11  1  0.00000000  0.00000000  0.50000000  1
  Mn  Mn12  1  0.50000000  0.50000000  0.50000000  1
  Mn  Mn13  1  -0.00000000  0.50000000  0.50000000  1
  Mn  Mn14  1  0.50000000  0.50000000  0.00000000  1
  Mn  Mn15  1  0.50000000  0.00000000  0.50000000  1
