# generated using pymatgen
data_Li4WO7
_symmetry_space_group_name_H-M   'P 1'
_cell_length_a   4.45814180
_cell_length_b   5.34160662
_cell_length_c   5.34139490
_cell_angle_alpha   66.84795380
_cell_angle_beta   89.99817657
_cell_angle_gamma   89.99817657
_symmetry_Int_Tables_number   1
_chemical_formula_structural   Li4WO7
_chemical_formula_sum   'Li4 W1 O7'
_cell_volume   116.95412398
_cell_formula_units_Z   1
loop_
 _symmetry_equiv_pos_site_id
 _symmetry_equiv_pos_as_xyz
  1  'x, y, z'
loop_
 _atom_site_type_symbol
 _atom_site_label
 _atom_site_symmetry_multiplicity
 _atom_site_fract_x
 _atom_site_fract_y
 _atom_site_fract_z
 _atom_site_occupancy
  Li  Li0  1  1.00000004  0.49999998  0.50000000  1
  Li  Li1  1  0.50000002  0.49999998  0.00000001  1
  Li  Li2  1  0.00000000  0.00000000  0.00000000  1
  Li  Li3  1  0.50000002  0.00000000  0.49999998  1
  W  W4  1  0.30597401  0.84701896  0.84702399  1
  O  O5  1  0.30597401  0.34701899  0.34702400  1
  O  O6  1  0.19401901  0.84701596  0.34702101  1
  O  O7  1  0.19401901  0.34701599  0.84702098  1
  O  O8  1  0.69402603  0.65298097  0.65297599  1
  O  O9  1  0.69402603  0.15298099  0.15297600  1
  O  O10  1  0.80598104  0.15298399  0.65297898  1
  O  O11  1  0.80598104  0.65298397  0.15297901  1
