# generated using pymatgen
data_Sr4Mn(NiO4)3
_symmetry_space_group_name_H-M   'P 1'
_cell_length_a   5.63088322
_cell_length_b   5.72190666
_cell_length_c   7.76322079
_cell_angle_alpha   89.53858948
_cell_angle_beta   89.54858398
_cell_angle_gamma   86.78794861
_symmetry_Int_Tables_number   1
_chemical_formula_structural   Sr4Mn(NiO4)3
_chemical_formula_sum   'Sr4 Mn1 Ni3 O12'
_cell_volume   249.71826771
_cell_formula_units_Z   1
loop_
 _symmetry_equiv_pos_site_id
 _symmetry_equiv_pos_as_xyz
  1  'x, y, z'
loop_
 _atom_site_type_symbol
 _atom_site_label
 _atom_site_symmetry_multiplicity
 _atom_site_fract_x
 _atom_site_fract_y
 _atom_site_fract_z
 _atom_site_occupancy
  Sr  Sr0  1  0.51248297  0.45681200  0.25042905  1
  Sr  Sr1  1  0.99453095  0.95657100  0.24985309  1
  Sr  Sr2  1  0.48747697  0.54327500  0.74957406  1
  Sr  Sr3  1  0.00537300  0.04341700  0.75010502  1
  Mn  Mn4  1  0.99992296  0.49994200  0.49996708  1
  Ni  Ni5  1  0.50004895  0.99993400  0.00000607  1
  Ni  Ni6  1  0.49998695  0.99998500  0.49996608  1
  Ni  Ni7  1  0.00010298  0.49984500  0.00006502  1
  O  O8  1  0.29551198  0.28695100  0.95488904  1
  O  O9  1  0.22183496  0.80391400  0.54406006  1
  O  O10  1  0.70452196  0.71304400  0.04515507  1
  O  O11  1  0.77815398  0.19614700  0.45593205  1
  O  O12  1  0.71184296  0.70337600  0.45825807  1
  O  O13  1  0.80107098  0.22241400  0.04550505  1
  O  O14  1  0.28812198  0.29664400  0.54177504  1
  O  O15  1  0.19889697  0.77757800  0.95449106  1
  O  O16  1  0.08259598  0.52198300  0.25349203  1
  O  O17  1  0.41612999  0.02371300  0.24592002  1
  O  O18  1  0.91755697  0.47817700  0.74649308  1
  O  O19  1  0.58383395  0.97627900  0.75406108  1
