# generated using pymatgen
data_Ca6WO12
_symmetry_space_group_name_H-M   'P 1'
_cell_length_a   6.51615667
_cell_length_b   6.51615667
_cell_length_c   6.51615667
_cell_angle_alpha   98.67769623
_cell_angle_beta   98.67769623
_cell_angle_gamma   98.67769623
_symmetry_Int_Tables_number   1
_chemical_formula_structural   Ca6WO12
_chemical_formula_sum   'Ca6 W1 O12'
_cell_volume   266.07736684
_cell_formula_units_Z   1
loop_
 _symmetry_equiv_pos_site_id
 _symmetry_equiv_pos_as_xyz
  1  'x, y, z'
loop_
 _atom_site_type_symbol
 _atom_site_label
 _atom_site_symmetry_multiplicity
 _atom_site_fract_x
 _atom_site_fract_y
 _atom_site_fract_z
 _atom_site_occupancy
  Ca  Ca0  1  0.60962201  0.14457600  0.31547799  1
  Ca  Ca1  1  0.68452202  0.39037801  0.85542398  1
  Ca  Ca2  1  0.85542403  0.68452201  0.39037798  1
  Ca  Ca3  1  0.14457601  0.31547800  0.60962199  1
  Ca  Ca4  1  0.31547803  0.60962201  0.14457599  1
  Ca  Ca5  1  0.39037804  0.85542401  0.68452198  1
  W  W6  1  0.00000000  0.00000000  0.00000000  1
  O  O7  1  0.96592901  0.07154800  0.29682399  1
  O  O8  1  0.70317601  0.03407100  0.92845198  1
  O  O9  1  0.82290602  0.40653601  0.56742698  1
  O  O10  1  0.43257301  0.17709400  0.59346399  1
  O  O11  1  0.92845204  0.70317601  0.03407099  1
  O  O12  1  0.59346402  0.43257301  0.17709399  1
  O  O13  1  0.40653603  0.56742701  0.82290598  1
  O  O14  1  0.07154801  0.29682400  0.96592899  1
  O  O15  1  0.56742704  0.82290601  0.40653599  1
  O  O16  1  0.17709403  0.59346401  0.43257299  1
  O  O17  1  0.29682404  0.96592902  0.07154799  1
  O  O18  1  0.03407104  0.92845201  0.70317599  1
