# generated using pymatgen
data_Na3LiCu5O7
_symmetry_space_group_name_H-M   'P 1'
_cell_length_a   3.86715603
_cell_length_b   3.86715603
_cell_length_c   16.05067635
_cell_angle_alpha   90.00000000
_cell_angle_beta   90.00000000
_cell_angle_gamma   90.00000000
_symmetry_Int_Tables_number   1
_chemical_formula_structural   Na3LiCu5O7
_chemical_formula_sum   'Na3 Li1 Cu5 O7'
_cell_volume   240.03619148
_cell_formula_units_Z   1
loop_
 _symmetry_equiv_pos_site_id
 _symmetry_equiv_pos_as_xyz
  1  'x, y, z'
loop_
 _atom_site_type_symbol
 _atom_site_label
 _atom_site_symmetry_multiplicity
 _atom_site_fract_x
 _atom_site_fract_y
 _atom_site_fract_z
 _atom_site_occupancy
  Na  Na0  1  0.00000000  0.00000000  0.22261901  1
  Na  Na1  1  0.00000000  0.00000000  0.77738103  1
  Na  Na2  1  0.00000000  0.00000000  0.00000000  1
  Li  Li3  1  0.50000000  0.50000000  0.89116604  1
  Cu  Cu4  1  0.50000000  0.50000000  0.10883400  1
  Cu  Cu5  1  0.00000000  0.00000000  0.50000002  1
  Cu  Cu6  1  0.50000000  0.50000000  0.61291202  1
  Cu  Cu7  1  0.50000000  0.50000000  0.38708802  1
  Cu  Cu8  1  0.00000000  0.00000000  0.61592303  1
  O  O9  1  0.00000000  0.50000000  0.09783000  1
  O  O10  1  0.50000000  0.00000000  0.90217004  1
  O  O11  1  0.50000000  0.50000000  0.25159701  1
  O  O12  1  0.00000000  0.50000000  0.90217004  1
  O  O13  1  0.50000000  0.00000000  0.09783000  1
  O  O14  1  0.00000000  0.00000000  0.38407702  1
  O  O15  1  0.50000000  0.50000000  0.74840303  1
