# generated using pymatgen
data_Mg3Cu3Sn2
_symmetry_space_group_name_H-M   'P 1'
_cell_length_a   4.15773582
_cell_length_b   4.15773582
_cell_length_c   8.23686886
_cell_angle_alpha   90.00000000
_cell_angle_beta   90.00000000
_cell_angle_gamma   90.00000000
_symmetry_Int_Tables_number   1
_chemical_formula_structural   Mg3Cu3Sn2
_chemical_formula_sum   'Mg3 Cu3 Sn2'
_cell_volume   142.38883430
_cell_formula_units_Z   1
loop_
 _symmetry_equiv_pos_site_id
 _symmetry_equiv_pos_as_xyz
  1  'x, y, z'
loop_
 _atom_site_type_symbol
 _atom_site_label
 _atom_site_symmetry_multiplicity
 _atom_site_fract_x
 _atom_site_fract_y
 _atom_site_fract_z
 _atom_site_occupancy
  Mg  Mg0  1  0.00000000  0.00000000  0.00000000  1
  Mg  Mg1  1  0.00000000  0.00000000  0.50000001  1
  Cu  Cu2  1  0.50000002  0.50000002  0.00000000  1
  Mg  Mg3  1  0.50000002  0.50000002  0.50000001  1
  Sn  Sn4  1  0.50000002  0.00000000  0.24648900  1
  Cu  Cu5  1  0.50000002  0.00000000  0.75351101  1
  Sn  Sn6  1  0.00000000  0.50000002  0.24648900  1
  Cu  Cu7  1  0.00000000  0.50000002  0.75351101  1
