# generated using pymatgen
data_Ce4InAu4
_symmetry_space_group_name_H-M   'P 1'
_cell_length_a   7.77899790
_cell_length_b   8.44853115
_cell_length_c   7.79762077
_cell_angle_alpha   90.00000000
_cell_angle_beta   90.00000000
_cell_angle_gamma   117.41136169
_symmetry_Int_Tables_number   1
_chemical_formula_structural   Ce4InAu4
_chemical_formula_sum   'Ce8 In2 Au8'
_cell_volume   454.93043197
_cell_formula_units_Z   2
loop_
 _symmetry_equiv_pos_site_id
 _symmetry_equiv_pos_as_xyz
  1  'x, y, z'
loop_
 _atom_site_type_symbol
 _atom_site_label
 _atom_site_symmetry_multiplicity
 _atom_site_fract_x
 _atom_site_fract_y
 _atom_site_fract_z
 _atom_site_occupancy
  Ce  Ce0  1  0.96134403  0.25163501  0.66365702  1
  Ce  Ce1  1  0.03865606  0.74836502  0.33634301  1
  Ce  Ce2  1  0.53865607  0.74836502  0.16365700  1
  Ce  Ce3  1  0.20970906  0.74836502  0.83634302  1
  Ce  Ce4  1  0.46134403  0.25163501  0.83634302  1
  Ce  Ce5  1  0.79029103  0.25163501  0.16365700  1
  Ce  Ce6  1  0.29029102  0.25163501  0.33634301  1
  Ce  Ce7  1  0.70970907  0.74836502  0.66365702  1
  In  In8  1  0.00000000  0.00000000  0.00000000  1
  In  In9  1  0.50000001  0.00000000  0.50000001  1
  Au  Au10  1  0.63515601  0.00000000  0.86589803  1
  Au  Au11  1  0.36484400  0.00000000  0.13410200  1
  Au  Au12  1  0.86484401  0.00000000  0.36589801  1
  Au  Au13  1  0.13515608  1.00000003  0.63410202  1
  Au  Au14  1  0.20545004  0.41090001  1.00000003  1
  Au  Au15  1  0.79454906  0.58909902  1.00000003  1
  Au  Au16  1  0.29455005  0.58910002  0.50000001  1
  Au  Au17  1  0.70545004  0.41090001  0.50000001  1
