# generated using pymatgen
data_V2CuS3
_symmetry_space_group_name_H-M   'P 1'
_cell_length_a   3.74308109
_cell_length_b   5.37607002
_cell_length_c   6.28867674
_cell_angle_alpha   90.74072266
_cell_angle_beta   90.00000000
_cell_angle_gamma   90.00000000
_symmetry_Int_Tables_number   1
_chemical_formula_structural   V2CuS3
_chemical_formula_sum   'V2 Cu1 S3'
_cell_volume   126.53688234
_cell_formula_units_Z   1
loop_
 _symmetry_equiv_pos_site_id
 _symmetry_equiv_pos_as_xyz
  1  'x, y, z'
loop_
 _atom_site_type_symbol
 _atom_site_label
 _atom_site_symmetry_multiplicity
 _atom_site_fract_x
 _atom_site_fract_y
 _atom_site_fract_z
 _atom_site_occupancy
  V  V0  1  0.49999999  0.49572700  0.50146099  1
  V  V1  1  0.99999998  0.00309100  0.99565697  1
  Cu  Cu2  1  0.49999999  0.71674100  0.14565300  1
  S  S3  1  0.49999999  0.28557700  0.86099197  1
  S  S4  1  0.99999998  0.22195800  0.35487199  1
  S  S5  1  0.99999998  0.77690600  0.64136398  1
