# generated using pymatgen
data_MgGa
_symmetry_space_group_name_H-M   'P 1'
_cell_length_a   4.94003582
_cell_length_b   5.08850002
_cell_length_c   5.32442856
_cell_angle_alpha   61.45526886
_cell_angle_beta   90.00000000
_cell_angle_gamma   90.00000000
_symmetry_Int_Tables_number   1
_chemical_formula_structural   MgGa
_chemical_formula_sum   'Mg3 Ga3'
_cell_volume   117.57287122
_cell_formula_units_Z   3
loop_
 _symmetry_equiv_pos_site_id
 _symmetry_equiv_pos_as_xyz
  1  'x, y, z'
loop_
 _atom_site_type_symbol
 _atom_site_label
 _atom_site_symmetry_multiplicity
 _atom_site_fract_x
 _atom_site_fract_y
 _atom_site_fract_z
 _atom_site_occupancy
  Mg  Mg0  1  0.25000001  0.66049400  0.31269800  1
  Mg  Mg1  1  0.25000001  0.97319200  0.68730199  1
  Mg  Mg2  1  0.75000003  0.02680800  0.31269800  1
  Ga  Ga3  1  0.75000003  0.33950600  0.68730199  1
  Ga  Ga4  1  0.25000001  0.33614500  0.99999999  1
  Ga  Ga5  1  0.75000003  0.66385500  0.99999999  1
