# generated using pymatgen
data_Li2H3O5
_symmetry_space_group_name_H-M   'P 1'
_cell_length_a   3.09055209
_cell_length_b   4.87899542
_cell_length_c   6.32492733
_cell_angle_alpha   98.46009064
_cell_angle_beta   104.14136505
_cell_angle_gamma   90.00000000
_symmetry_Int_Tables_number   1
_chemical_formula_structural   Li2H3O5
_chemical_formula_sum   'Li2 H3 O5'
_cell_volume   91.41148462
_cell_formula_units_Z   1
loop_
 _symmetry_equiv_pos_site_id
 _symmetry_equiv_pos_as_xyz
  1  'x, y, z'
loop_
 _atom_site_type_symbol
 _atom_site_label
 _atom_site_symmetry_multiplicity
 _atom_site_fract_x
 _atom_site_fract_y
 _atom_site_fract_z
 _atom_site_occupancy
  Li  Li0  1  0.86575696  0.59683098  0.73151400  1
  Li  Li1  1  0.14218399  0.39002099  0.28436801  1
  H  H2  1  0.35304598  0.04638700  0.70609200  1
  H  H3  1  0.52706298  0.02321700  0.05412599  1
  H  H4  1  0.66915797  0.84926897  0.33831601  1
  O  O5  1  0.99612096  0.50827298  0.99224200  1
  O  O6  1  0.39151098  0.87778097  0.78302203  1
  O  O7  1  0.60585597  0.11566100  0.21171199  1
  O  O8  1  0.69719997  0.66434098  0.39440001  1
  O  O9  1  0.30273999  0.35616999  0.60548001  1
