# generated using pymatgen
data_Na2Cu2O5
_symmetry_space_group_name_H-M   'P 1'
_cell_length_a   5.41109037
_cell_length_b   5.57535934
_cell_length_c   8.24372101
_cell_angle_alpha   70.24173737
_cell_angle_beta   70.90950012
_cell_angle_gamma   89.97858429
_symmetry_Int_Tables_number   1
_chemical_formula_structural   Na2Cu2O5
_chemical_formula_sum   'Na4 Cu4 O10'
_cell_volume   219.48426661
_cell_formula_units_Z   2
loop_
 _symmetry_equiv_pos_site_id
 _symmetry_equiv_pos_as_xyz
  1  'x, y, z'
loop_
 _atom_site_type_symbol
 _atom_site_label
 _atom_site_symmetry_multiplicity
 _atom_site_fract_x
 _atom_site_fract_y
 _atom_site_fract_z
 _atom_site_occupancy
  Na  Na0  1  0.60713703  0.07959400  0.78485499  1
  Na  Na1  1  0.39267010  0.92161997  0.21537099  1
  Na  Na2  1  0.10710606  0.63528798  0.78487201  1
  Na  Na3  1  0.89278706  0.36312199  0.21533097  1
  Cu  Cu4  1  0.01153909  0.99876096  0.99975002  1
  Cu  Cu5  1  0.51134206  0.50150798  0.99972000  1
  Cu  Cu6  1  0.20817104  0.31960299  0.49998800  1
  Cu  Cu7  1  0.70845908  0.68077097  0.49972598  1
  O  O8  1  0.24021607  0.75313997  0.02287599  1
  O  O9  1  0.28743403  0.27856999  0.97729301  1
  O  O10  1  0.73952809  0.72404697  0.02324197  1
  O  O11  1  0.78793105  0.24376599  0.97782899  1
  O  O12  1  0.16746901  0.08034700  0.71647301  1
  O  O13  1  0.88489811  0.91883797  0.28289897  1
  O  O14  1  0.66824908  0.70064097  0.71688899  1
  O  O15  1  0.38445204  0.30045399  0.28255099  1
  O  O16  1  0.86398106  0.37930599  0.50058497  1
  O  O17  1  0.36463407  0.62062398  0.49974900  1
