# generated using pymatgen
data_LiSiO4
_symmetry_space_group_name_H-M   'P 1'
_cell_length_a   5.69807529
_cell_length_b   6.83448124
_cell_length_c   6.83448124
_cell_angle_alpha   84.17143250
_cell_angle_beta   77.00425720
_cell_angle_gamma   77.00425720
_symmetry_Int_Tables_number   1
_chemical_formula_structural   LiSiO4
_chemical_formula_sum   'Li3 Si3 O12'
_cell_volume   252.33356788
_cell_formula_units_Z   3
loop_
 _symmetry_equiv_pos_site_id
 _symmetry_equiv_pos_as_xyz
  1  'x, y, z'
loop_
 _atom_site_type_symbol
 _atom_site_label
 _atom_site_symmetry_multiplicity
 _atom_site_fract_x
 _atom_site_fract_y
 _atom_site_fract_z
 _atom_site_occupancy
  Li  Li0  1  0.24523205  0.61275200  0.78714397  1
  Li  Li1  1  0.25476801  0.21285600  0.38724800  1
  Li  Li2  1  0.75476802  0.38724800  0.21285601  1
  Si  Si3  1  0.74523206  0.78714400  0.61275198  1
  Si  Si4  1  0.25000001  0.09594000  0.90406001  1
  Si  Si5  1  0.75000007  0.90406000  0.09593997  1
  O  O6  1  0.50515005  0.66339200  0.61277498  1
  O  O7  1  0.99485002  0.38722500  0.33660802  1
  O  O8  1  0.49485002  0.33660800  0.38722500  1
  O  O9  1  0.00515005  0.61277500  0.66339196  1
  O  O10  1  0.81238907  0.90069600  0.37323497  1
  O  O11  1  0.68761104  0.62676500  0.09930399  1
  O  O12  1  0.18761101  0.09930400  0.62676501  1
  O  O13  1  0.31238903  0.37323500  0.90069599  1
  O  O14  1  0.13682007  0.81587400  0.95769095  1
  O  O15  1  0.36318000  0.04230900  0.18412602  1
  O  O16  1  0.86318001  0.18412600  0.04230903  1
  O  O17  1  0.63682007  0.95769100  0.81587396  1
