# generated using pymatgen
data_NbFeP2
_symmetry_space_group_name_H-M   'P 1'
_cell_length_a   3.04784989
_cell_length_b   3.64900351
_cell_length_c   5.67316341
_cell_angle_alpha   82.77970886
_cell_angle_beta   74.41783905
_cell_angle_gamma   65.31509399
_symmetry_Int_Tables_number   1
_chemical_formula_structural   NbFeP2
_chemical_formula_sum   'Nb1 Fe1 P2'
_cell_volume   55.21540209
_cell_formula_units_Z   1
loop_
 _symmetry_equiv_pos_site_id
 _symmetry_equiv_pos_as_xyz
  1  'x, y, z'
loop_
 _atom_site_type_symbol
 _atom_site_label
 _atom_site_symmetry_multiplicity
 _atom_site_fract_x
 _atom_site_fract_y
 _atom_site_fract_z
 _atom_site_occupancy
  Nb  Nb0  1  0.00000001  0.49999998  0.49999998  1
  Fe  Fe1  1  0.00000000  0.00000000  0.00000000  1
  P  P2  1  0.42755303  0.90026497  0.24462898  1
  P  P3  1  0.57244701  0.09973500  0.75537101  1
