# generated using pymatgen
data_KH3O4
_symmetry_space_group_name_H-M   'P 1'
_cell_length_a   4.59755421
_cell_length_b   6.12133408
_cell_length_c   7.59053612
_cell_angle_alpha   113.77972412
_cell_angle_beta   90.00000000
_cell_angle_gamma   90.00000000
_symmetry_Int_Tables_number   1
_chemical_formula_structural   KH3O4
_chemical_formula_sum   'K2 H6 O8'
_cell_volume   195.48574523
_cell_formula_units_Z   2
loop_
 _symmetry_equiv_pos_site_id
 _symmetry_equiv_pos_as_xyz
  1  'x, y, z'
loop_
 _atom_site_type_symbol
 _atom_site_label
 _atom_site_symmetry_multiplicity
 _atom_site_fract_x
 _atom_site_fract_y
 _atom_site_fract_z
 _atom_site_occupancy
  K  K0  1  0.74999997  0.12347100  0.24694200  1
  K  K1  1  0.24999999  0.87652900  0.75305802  1
  H  H2  1  0.74999997  0.37015100  0.74030201  1
  H  H3  1  0.24999999  0.62984900  0.25969802  1
  H  H4  1  -0.00000000  0.67890300  1.00000001  1
  H  H5  1  0.49999998  0.32109700  1.00000000  1
  H  H6  1  0.24999999  0.30802100  0.61604200  1
  H  H7  1  0.74999997  0.69197900  0.38395802  1
  O  O8  1  0.82997796  0.63460400  0.86860201  1
  O  O9  1  0.17002199  0.76600200  0.13139802  1
  O  O10  1  0.32997799  0.36539600  0.13139801  1
  O  O11  1  0.67002197  0.23399800  0.86860200  1
  O  O12  1  0.49350798  0.37588100  0.60921501  1
  O  O13  1  0.50649198  0.76666600  0.39078502  1
  O  O14  1  0.99350796  0.62411900  0.39078501  1
  O  O15  1  0.00649200  0.23333400  0.60921500  1
