# generated using pymatgen
data_Sn15Os4Rh
_symmetry_space_group_name_H-M   'P 1'
_cell_length_a   9.11152554
_cell_length_b   9.11152554
_cell_length_c   9.11152554
_cell_angle_alpha   107.63928986
_cell_angle_beta   107.63928986
_cell_angle_gamma   107.63928986
_symmetry_Int_Tables_number   1
_chemical_formula_structural   Sn15Os4Rh
_chemical_formula_sum   'Sn15 Os4 Rh1'
_cell_volume   618.65393052
_cell_formula_units_Z   1
loop_
 _symmetry_equiv_pos_site_id
 _symmetry_equiv_pos_as_xyz
  1  'x, y, z'
loop_
 _atom_site_type_symbol
 _atom_site_label
 _atom_site_symmetry_multiplicity
 _atom_site_fract_x
 _atom_site_fract_y
 _atom_site_fract_z
 _atom_site_occupancy
  Sn  Sn0  1  0.18796499  0.17467799  0.92101096  1
  Sn  Sn1  1  0.92101097  0.18796499  0.17467802  1
  Sn  Sn2  1  0.17467798  0.92101097  0.18796501  1
  Sn  Sn3  1  0.32532199  0.31203499  0.57898899  1
  Sn  Sn4  1  0.31203498  0.57898898  0.32532200  1
  Sn  Sn5  1  0.57898898  0.32532199  0.31203501  1
  Sn  Sn6  1  0.81203496  0.82532197  0.07898903  1
  Sn  Sn7  1  0.07898898  0.81203497  0.82532198  1
  Sn  Sn8  1  0.82532198  0.07898900  0.81203498  1
  Sn  Sn9  1  0.67467797  0.68796498  0.42101101  1
  Sn  Sn10  1  0.68796497  0.42101099  0.67467799  1
  Sn  Sn11  1  0.42101098  0.67467798  0.68796499  1
  Os  Os12  1  0.24999999  0.24999999  0.25000000  1
  Sn  Sn13  1  0.74999997  0.74999997  0.75000000  1
  Sn  Sn14  1  0.98516697  0.24999999  0.51483300  1
  Os  Os15  1  0.24999998  0.51483298  0.98516697  1
  Sn  Sn16  1  0.51483297  0.98516697  0.25000002  1
  Os  Os17  1  0.01483298  0.74999997  0.48516699  1
  Rh  Rh18  1  0.74999997  0.48516698  0.01483303  1
  Os  Os19  1  0.48516699  0.01483300  0.74999998  1
