# generated using pymatgen
data_LiCoO4
_symmetry_space_group_name_H-M   'P 1'
_cell_length_a   5.13547897
_cell_length_b   5.13543749
_cell_length_c   6.68876600
_cell_angle_alpha   89.99884033
_cell_angle_beta   89.99847412
_cell_angle_gamma   66.59330750
_symmetry_Int_Tables_number   1
_chemical_formula_structural   LiCoO4
_chemical_formula_sum   'Li2 Co2 O8'
_cell_volume   161.88590290
_cell_formula_units_Z   2
loop_
 _symmetry_equiv_pos_site_id
 _symmetry_equiv_pos_as_xyz
  1  'x, y, z'
loop_
 _atom_site_type_symbol
 _atom_site_label
 _atom_site_symmetry_multiplicity
 _atom_site_fract_x
 _atom_site_fract_y
 _atom_site_fract_z
 _atom_site_occupancy
  Li  Li0  1  0.99999703  0.00000000  0.49999700  1
  Li  Li1  1  0.00000003  0.99999696  0.99999899  1
  Co  Co2  1  0.64364204  0.64365298  0.75001199  1
  Co  Co3  1  0.35627702  0.35626799  0.24999400  1
  O  O4  1  0.75564505  0.75564297  0.55048499  1
  O  O5  1  0.24437401  0.24437299  0.44954500  1
  O  O6  1  0.75565605  0.75565597  0.94953699  1
  O  O7  1  0.24436901  0.24437199  0.05044200  1
  O  O8  1  0.28104203  0.78276097  0.74999899  1
  O  O9  1  0.21728603  0.71894897  0.24999799  1
  O  O10  1  0.71895303  0.21728299  0.24999400  1
  O  O11  1  0.78276003  0.28104599  0.74999900  1
