# generated using pymatgen
data_Ba2Nb(WO4)3
_symmetry_space_group_name_H-M   'P 1'
_cell_length_a   7.33366823
_cell_length_b   7.36855030
_cell_length_c   7.36855030
_cell_angle_alpha   60.15716934
_cell_angle_beta   60.15647507
_cell_angle_gamma   60.15647507
_symmetry_Int_Tables_number   1
_chemical_formula_structural   Ba2Nb(WO4)3
_chemical_formula_sum   'Ba2 Nb1 W3 O12'
_cell_volume   282.55898545
_cell_formula_units_Z   1
loop_
 _symmetry_equiv_pos_site_id
 _symmetry_equiv_pos_as_xyz
  1  'x, y, z'
loop_
 _atom_site_type_symbol
 _atom_site_label
 _atom_site_symmetry_multiplicity
 _atom_site_fract_x
 _atom_site_fract_y
 _atom_site_fract_z
 _atom_site_occupancy
  Ba  Ba0  1  0.62167298  0.62832698  0.12832702  1
  Ba  Ba1  1  0.37832699  0.37167299  0.87167300  1
  Nb  Nb2  1  0.00000001  0.49999999  0.50000000  1
  W  W3  1  0.00000000  0.00000000  0.00000000  1
  W  W4  1  0.49999999  0.99999997  0.50000002  1
  W  W5  1  0.99999997  0.99999997  0.50000003  1
  O  O6  1  0.06406101  0.68593898  0.18593901  1
  O  O7  1  0.67546897  0.07453100  0.57453101  1
  O  O8  1  0.06569400  0.07130500  0.17142700  1
  O  O9  1  0.69157398  0.67142698  0.57130501  1
  O  O10  1  0.69157397  0.07130500  0.17142701  1
  O  O11  1  0.06569400  0.67142698  0.57130500  1
  O  O12  1  0.93593896  0.31406099  0.81406101  1
  O  O13  1  0.32453100  0.92546898  0.42546901  1
  O  O14  1  0.93430597  0.92869498  0.82857302  1
  O  O15  1  0.30842599  0.32857299  0.42869500  1
  O  O16  1  0.30842600  0.92869498  0.82857301  1
  O  O17  1  0.93430596  0.32857299  0.42869502  1
