# generated using pymatgen
data_Na3TiCuO10
_symmetry_space_group_name_H-M   'P 1'
_cell_length_a   5.56136751
_cell_length_b   5.56136751
_cell_length_c   7.14916706
_cell_angle_alpha   72.47879791
_cell_angle_beta   72.47879791
_cell_angle_gamma   89.40328979
_symmetry_Int_Tables_number   1
_chemical_formula_structural   Na3TiCuO10
_chemical_formula_sum   'Na3 Ti1 Cu1 O10'
_cell_volume   200.29020133
_cell_formula_units_Z   1
loop_
 _symmetry_equiv_pos_site_id
 _symmetry_equiv_pos_as_xyz
  1  'x, y, z'
loop_
 _atom_site_type_symbol
 _atom_site_label
 _atom_site_symmetry_multiplicity
 _atom_site_fract_x
 _atom_site_fract_y
 _atom_site_fract_z
 _atom_site_occupancy
  Na  Na0  1  0.00000000  0.00000000  0.50000000  1
  Na  Na1  1  0.74308001  0.25692000  0.00000004  1
  Na  Na2  1  0.25692000  0.74308001  0.00000004  1
  Ti  Ti3  1  0.63476601  0.63476601  0.32356306  1
  Cu  Cu4  1  0.36523401  0.36523401  0.67643703  1
  O  O5  1  0.39805501  0.87713701  0.28646906  1
  O  O6  1  0.60194501  0.12286300  0.71353103  1
  O  O7  1  0.12286300  0.60194501  0.71353103  1
  O  O8  1  0.87713701  0.39805501  0.28646906  1
  O  O9  1  0.64723401  0.64723401  0.59716006  1
  O  O10  1  0.35276601  0.35276601  0.40284003  1
  O  O11  1  0.67090401  0.67090401  0.02726806  1
  O  O12  1  0.32909601  0.32909601  0.97273203  1
  O  O13  1  0.90737102  0.90737102  0.21814908  1
  O  O14  1  0.09262900  0.09262900  0.78185101  1
