# generated using pymatgen
data_LiCa2GdO8
_symmetry_space_group_name_H-M   'P 1'
_cell_length_a   5.40003109
_cell_length_b   5.47031498
_cell_length_c   5.49159431
_cell_angle_alpha   99.89829254
_cell_angle_beta   90.00000000
_cell_angle_gamma   90.00000000
_symmetry_Int_Tables_number   1
_chemical_formula_structural   LiCa2GdO8
_chemical_formula_sum   'Li1 Ca2 Gd1 O8'
_cell_volume   159.80623869
_cell_formula_units_Z   1
loop_
 _symmetry_equiv_pos_site_id
 _symmetry_equiv_pos_as_xyz
  1  'x, y, z'
loop_
 _atom_site_type_symbol
 _atom_site_label
 _atom_site_symmetry_multiplicity
 _atom_site_fract_x
 _atom_site_fract_y
 _atom_site_fract_z
 _atom_site_occupancy
  Li  Li0  1  0.52618099  0.30710300  0.71297800  1
  Ca  Ca1  1  0.47381899  0.69289700  0.28702197  1
  Ca  Ca2  1  0.02618100  0.69289700  0.78702198  1
  Gd  Gd3  1  0.97381898  0.30710300  0.21297799  1
  O  O4  1  0.75346399  0.54047300  0.51018398  1
  O  O5  1  0.24653600  0.45952700  0.48981599  1
  O  O6  1  0.25346400  0.45952700  0.98981600  1
  O  O7  1  0.74653599  0.54047300  0.01018397  1
  O  O8  1  0.82564399  0.05754700  0.84364102  1
  O  O9  1  0.17435600  0.94245299  0.15635895  1
  O  O10  1  0.32564399  0.94245299  0.65635896  1
  O  O11  1  0.67435599  0.05754700  0.34364101  1
