# generated using pymatgen
data_LiFeCu3N4
_symmetry_space_group_name_H-M   'P 1'
_cell_length_a   3.83963394
_cell_length_b   3.83963394
_cell_length_c   8.05397797
_cell_angle_alpha   90.00000000
_cell_angle_beta   90.00000000
_cell_angle_gamma   90.00000000
_symmetry_Int_Tables_number   1
_chemical_formula_structural   LiFeCu3N4
_chemical_formula_sum   'Li1 Fe1 Cu3 N4'
_cell_volume   118.73809620
_cell_formula_units_Z   1
loop_
 _symmetry_equiv_pos_site_id
 _symmetry_equiv_pos_as_xyz
  1  'x, y, z'
loop_
 _atom_site_type_symbol
 _atom_site_label
 _atom_site_symmetry_multiplicity
 _atom_site_fract_x
 _atom_site_fract_y
 _atom_site_fract_z
 _atom_site_occupancy
  Li  Li0  1  0.00000000  0.00000000  0.50000000  1
  Fe  Fe1  1  0.50000001  0.50000001  0.77275900  1
  Cu  Cu2  1  0.50000001  0.50000001  0.22724100  1
  Cu  Cu3  1  0.50000001  0.00000000  0.72383700  1
  Cu  Cu4  1  0.00000000  0.50000001  0.72383700  1
  N  N5  1  0.50000001  0.00000000  0.27616300  1
  N  N6  1  0.00000000  0.50000001  0.27616300  1
  N  N7  1  0.50000001  0.50000001  0.50000000  1
  N  N8  1  0.50000001  0.50000001  0.00000000  1
