# generated using pymatgen
data_Ca3Ce
_symmetry_space_group_name_H-M   'P 1'
_cell_length_a   4.74040794
_cell_length_b   5.30780315
_cell_length_c   7.08725548
_cell_angle_alpha   90.00000000
_cell_angle_beta   109.53799438
_cell_angle_gamma   90.00000000
_symmetry_Int_Tables_number   1
_chemical_formula_structural   Ca3Ce
_chemical_formula_sum   'Ca3 Ce1'
_cell_volume   168.05563314
_cell_formula_units_Z   1
loop_
 _symmetry_equiv_pos_site_id
 _symmetry_equiv_pos_as_xyz
  1  'x, y, z'
loop_
 _atom_site_type_symbol
 _atom_site_label
 _atom_site_symmetry_multiplicity
 _atom_site_fract_x
 _atom_site_fract_y
 _atom_site_fract_z
 _atom_site_occupancy
  Ca  Ca0  1  0.38601301  0.74999998  0.77202602  1
  Ca  Ca1  1  0.61398701  0.24999999  0.22797402  1
  Ce  Ce2  1  0.13258400  0.74999998  0.26516801  1
  Ca  Ca3  1  0.86741602  0.24999999  0.73483203  1
