# generated using pymatgen
data_Li3CoS3
_symmetry_space_group_name_H-M   'P 1'
_cell_length_a   3.54615402
_cell_length_b   6.18427181
_cell_length_c   6.31369829
_cell_angle_alpha   117.91751099
_cell_angle_beta   106.30976105
_cell_angle_gamma   90.00000000
_symmetry_Int_Tables_number   1
_chemical_formula_structural   Li3CoS3
_chemical_formula_sum   'Li3 Co1 S3'
_cell_volume   116.00449086
_cell_formula_units_Z   1
loop_
 _symmetry_equiv_pos_site_id
 _symmetry_equiv_pos_as_xyz
  1  'x, y, z'
loop_
 _atom_site_type_symbol
 _atom_site_label
 _atom_site_symmetry_multiplicity
 _atom_site_fract_x
 _atom_site_fract_y
 _atom_site_fract_z
 _atom_site_occupancy
  Li  Li0  1  0.50044204  0.50326502  0.00088405  1
  Li  Li1  1  0.24114102  0.21829701  0.48228201  1
  Li  Li2  1  0.76038506  0.78301303  0.52077007  1
  Co  Co3  1  0.37904001  0.04481900  0.75808000  1
  S  S4  1  0.62159407  0.95399503  0.24318809  1
  S  S5  1  0.86254704  0.52493002  0.72509405  1
  S  S6  1  0.13485004  0.47168102  0.26970004  1
