# generated using pymatgen
data_Li6AgCl7
_symmetry_space_group_name_H-M   'P 1'
_cell_length_a   8.14817238
_cell_length_b   8.14817238
_cell_length_c   8.14817238
_cell_angle_alpha   60.00000000
_cell_angle_beta   60.00000000
_cell_angle_gamma   60.00000000
_symmetry_Int_Tables_number   1
_chemical_formula_structural   Li6AgCl7
_chemical_formula_sum   'Li6 Ag1 Cl7'
_cell_volume   382.53011108
_cell_formula_units_Z   1
loop_
 _symmetry_equiv_pos_site_id
 _symmetry_equiv_pos_as_xyz
  1  'x, y, z'
loop_
 _atom_site_type_symbol
 _atom_site_label
 _atom_site_symmetry_multiplicity
 _atom_site_fract_x
 _atom_site_fract_y
 _atom_site_fract_z
 _atom_site_occupancy
  Li  Li0  1  0.37500000  0.37500000  0.37500000  1
  Li  Li1  1  0.87500001  0.37500000  0.37500000  1
  Li  Li2  1  0.37500000  0.37500000  0.87500001  1
  Li  Li3  1  0.37500000  0.87500001  0.37500000  1
  Li  Li4  1  0.75000001  0.75000001  0.75000001  1
  Li  Li5  1  0.00000000  0.00000000  0.00000000  1
  Cl  Cl6  1  0.13083200  0.60750201  0.13083300  1
  Ag  Ag7  1  0.61916801  0.61916701  0.61916701  1
  Cl  Cl8  1  0.61916801  0.14249800  0.61916701  1
  Cl  Cl9  1  0.60750101  0.13083300  0.13083300  1
  Cl  Cl10  1  0.13083200  0.13083300  0.13083300  1
  Cl  Cl11  1  0.61916801  0.61916701  0.14249800  1
  Cl  Cl12  1  0.14249900  0.61916701  0.61916701  1
  Cl  Cl13  1  0.13083200  0.13083300  0.60750201  1
