# generated using pymatgen
data_LiBeN2
_symmetry_space_group_name_H-M   'P 1'
_cell_length_a   3.27521467
_cell_length_b   3.27521467
_cell_length_c   5.68530560
_cell_angle_alpha   73.25923157
_cell_angle_beta   73.25923157
_cell_angle_gamma   59.99998856
_symmetry_Int_Tables_number   1
_chemical_formula_structural   LiBeN2
_chemical_formula_sum   'Li1 Be1 N2'
_cell_volume   49.80885793
_cell_formula_units_Z   1
loop_
 _symmetry_equiv_pos_site_id
 _symmetry_equiv_pos_as_xyz
  1  'x, y, z'
loop_
 _atom_site_type_symbol
 _atom_site_label
 _atom_site_symmetry_multiplicity
 _atom_site_fract_x
 _atom_site_fract_y
 _atom_site_fract_z
 _atom_site_occupancy
  Be  Be0  1  0.00095700  0.00095700  0.99712897  1
  Li  Li1  1  0.49870102  0.49870099  0.50389697  1
  N  N2  1  0.74794104  0.74794099  0.75617695  1
  N  N3  1  0.25240001  0.25240000  0.24279998  1
