# generated using pymatgen
data_Li2Ni3O7
_symmetry_space_group_name_H-M   'P 1'
_cell_length_a   4.64677620
_cell_length_b   4.64677620
_cell_length_c   6.27492523
_cell_angle_alpha   90.00000000
_cell_angle_beta   90.00002289
_cell_angle_gamma   89.99967957
_symmetry_Int_Tables_number   1
_chemical_formula_structural   Li2Ni3O7
_chemical_formula_sum   'Li2 Ni3 O7'
_cell_volume   135.49150533
_cell_formula_units_Z   1
loop_
 _symmetry_equiv_pos_site_id
 _symmetry_equiv_pos_as_xyz
  1  'x, y, z'
loop_
 _atom_site_type_symbol
 _atom_site_label
 _atom_site_symmetry_multiplicity
 _atom_site_fract_x
 _atom_site_fract_y
 _atom_site_fract_z
 _atom_site_occupancy
  Li  Li0  1  0.02820100  0.02820200  0.00000000  1
  Li  Li1  1  0.97179296  0.97179496  0.50000000  1
  Ni  Ni2  1  0.52820998  0.47179098  0.75000098  1
  Ni  Ni3  1  0.47179398  0.52820798  0.25000000  1
  O  O4  1  0.17599099  0.82400996  0.24999999  1
  Ni  Ni5  1  0.67599097  0.67599097  0.49999999  1
  O  O6  1  0.32400999  0.32400999  0.99999997  1
  O  O7  1  0.82400997  0.17599099  0.74999999  1
  O  O8  1  0.22479999  0.77520097  0.74999998  1
  O  O9  1  0.72479997  0.72479997  0.00000001  1
  O  O10  1  0.27520099  0.27520099  0.49999999  1
  O  O11  1  0.77519997  0.22479999  0.25000001  1
