# generated using pymatgen
data_Na2PrZnO6
_symmetry_space_group_name_H-M   'P 1'
_cell_length_a   5.47631979
_cell_length_b   5.85006905
_cell_length_c   7.80832911
_cell_angle_alpha   90.00000000
_cell_angle_beta   90.59211731
_cell_angle_gamma   90.00000000
_symmetry_Int_Tables_number   1
_chemical_formula_structural   Na2PrZnO6
_chemical_formula_sum   'Na4 Pr2 Zn2 O12'
_cell_volume   250.14090154
_cell_formula_units_Z   2
loop_
 _symmetry_equiv_pos_site_id
 _symmetry_equiv_pos_as_xyz
  1  'x, y, z'
loop_
 _atom_site_type_symbol
 _atom_site_label
 _atom_site_symmetry_multiplicity
 _atom_site_fract_x
 _atom_site_fract_y
 _atom_site_fract_z
 _atom_site_occupancy
  Na  Na0  1  0.00000000  0.00000000  0.00000000  1
  Na  Na1  1  0.50000002  0.50000000  0.49999999  1
  Na  Na2  1  0.48242502  0.92862099  0.25135999  1
  Na  Na3  1  0.01757500  0.42862100  0.24864000  1
  Pr  Pr4  1  0.98242504  0.57137900  0.75135998  1
  Pr  Pr5  1  0.51757502  0.07137900  0.74863998  1
  Zn  Zn6  1  0.50000002  0.50000000  -0.00000000  1
  Zn  Zn7  1  0.00000000  0.00000000  0.49999999  1
  O  O8  1  0.17931401  0.71181099  0.44502599  1
  O  O9  1  0.32068601  0.21181100  0.05497400  1
  O  O10  1  0.82068603  0.28818900  0.55497399  1
  O  O11  1  0.67931403  0.78818899  0.94502598  1
  O  O12  1  0.10150900  0.96655099  0.74364199  1
  O  O13  1  0.39849102  0.46655100  0.75635798  1
  O  O14  1  0.20366801  0.68494299  0.04896100  1
  O  O15  1  0.29633201  0.18494300  0.45103899  1
  O  O16  1  0.79633203  0.31505700  0.95103898  1
  O  O17  1  0.70366803  0.81505699  0.54896099  1
  O  O18  1  0.60150902  0.53344900  0.24364199  1
  O  O19  1  0.89849103  0.03344900  0.25635799  1
