# generated using pymatgen
data_Fe3Si
_symmetry_space_group_name_H-M   'P 1'
_cell_length_a   2.91689610
_cell_length_b   4.86242533
_cell_length_c   7.26135206
_cell_angle_alpha   90.00000000
_cell_angle_beta   90.00000000
_cell_angle_gamma   107.45414734
_symmetry_Int_Tables_number   1
_chemical_formula_structural   Fe3Si
_chemical_formula_sum   'Fe6 Si2'
_cell_volume   98.24723398
_cell_formula_units_Z   2
loop_
 _symmetry_equiv_pos_site_id
 _symmetry_equiv_pos_as_xyz
  1  'x, y, z'
loop_
 _atom_site_type_symbol
 _atom_site_label
 _atom_site_symmetry_multiplicity
 _atom_site_fract_x
 _atom_site_fract_y
 _atom_site_fract_z
 _atom_site_occupancy
  Fe  Fe0  1  0.13507798  0.27015599  0.56244600  1
  Fe  Fe1  1  0.86492192  0.72984398  0.43755400  1
  Fe  Fe2  1  0.13507798  0.27015599  0.93755399  1
  Fe  Fe3  1  0.86492192  0.72984398  0.06244600  1
  Fe  Fe4  1  0.42447793  0.84895598  0.74999999  1
  Fe  Fe5  1  0.57552197  0.15104400  0.25000000  1
  Si  Si6  1  0.74389994  0.48779999  0.74999999  1
  Si  Si7  1  0.25609995  0.51219999  0.25000000  1
