# generated using pymatgen
data_MnO
_symmetry_space_group_name_H-M   'P 1'
_cell_length_a   3.12683392
_cell_length_b   5.25538588
_cell_length_c   5.90921164
_cell_angle_alpha   89.85996246
_cell_angle_beta   90.00000000
_cell_angle_gamma   90.00000000
_symmetry_Int_Tables_number   1
_chemical_formula_structural   MnO
_chemical_formula_sum   'Mn4 O4'
_cell_volume   97.10412308
_cell_formula_units_Z   4
loop_
 _symmetry_equiv_pos_site_id
 _symmetry_equiv_pos_as_xyz
  1  'x, y, z'
loop_
 _atom_site_type_symbol
 _atom_site_label
 _atom_site_symmetry_multiplicity
 _atom_site_fract_x
 _atom_site_fract_y
 _atom_site_fract_z
 _atom_site_occupancy
  Mn  Mn0  1  0.50000001  0.00469200  0.19552000  1
  Mn  Mn1  1  0.00000000  0.49511801  0.69689302  1
  Mn  Mn2  1  0.00000000  0.99505002  0.80293003  1
  Mn  Mn3  1  0.50000001  0.50583801  0.30437302  1
  O  O4  1  0.50000001  0.68830302  0.93141602  1
  O  O5  1  0.50000001  0.18836100  0.56916401  1
  O  O6  1  0.00000000  0.30968301  0.06618801  1
  O  O7  1  0.00000000  0.81295602  0.43351603  1
