# generated using pymatgen
data_HoMg4Ge7
_symmetry_space_group_name_H-M   'P 1'
_cell_length_a   4.22320509
_cell_length_b   4.22320509
_cell_length_c   12.62993145
_cell_angle_alpha   90.00000000
_cell_angle_beta   90.00000000
_cell_angle_gamma   90.00000000
_symmetry_Int_Tables_number   1
_chemical_formula_structural   HoMg4Ge7
_chemical_formula_sum   'Ho1 Mg4 Ge7'
_cell_volume   225.26065269
_cell_formula_units_Z   1
loop_
 _symmetry_equiv_pos_site_id
 _symmetry_equiv_pos_as_xyz
  1  'x, y, z'
loop_
 _atom_site_type_symbol
 _atom_site_label
 _atom_site_symmetry_multiplicity
 _atom_site_fract_x
 _atom_site_fract_y
 _atom_site_fract_z
 _atom_site_occupancy
  Ho  Ho0  1  0.00000000  0.00000000  0.32903699  1
  Mg  Mg1  1  0.00000000  0.00000000  0.67096298  1
  Mg  Mg2  1  0.00000000  0.00000000  0.00000000  1
  Mg  Mg3  1  0.49999999  0.49999999  0.00000000  1
  Ge  Ge4  1  0.49999999  0.49999999  0.33199799  1
  Mg  Mg5  1  0.49999999  0.49999999  0.66800198  1
  Ge  Ge6  1  0.49999999  0.00000000  0.15929499  1
  Ge  Ge7  1  0.49999999  0.00000000  0.49999998  1
  Ge  Ge8  1  0.49999999  0.00000000  0.84070497  1
  Ge  Ge9  1  0.00000000  0.49999999  0.15929499  1
  Ge  Ge10  1  0.00000000  0.49999999  0.49999998  1
  Ge  Ge11  1  0.00000000  0.49999999  0.84070497  1
