# generated using pymatgen
data_Sr2SiO3
_symmetry_space_group_name_H-M   'P 1'
_cell_length_a   5.51337385
_cell_length_b   6.19328165
_cell_length_c   6.19328165
_cell_angle_alpha   110.77080536
_cell_angle_beta   90.00000000
_cell_angle_gamma   90.00000000
_symmetry_Int_Tables_number   1
_chemical_formula_structural   Sr2SiO3
_chemical_formula_sum   'Sr4 Si2 O6'
_cell_volume   197.73053091
_cell_formula_units_Z   2
loop_
 _symmetry_equiv_pos_site_id
 _symmetry_equiv_pos_as_xyz
  1  'x, y, z'
loop_
 _atom_site_type_symbol
 _atom_site_label
 _atom_site_symmetry_multiplicity
 _atom_site_fract_x
 _atom_site_fract_y
 _atom_site_fract_z
 _atom_site_occupancy
  Sr  Sr0  1  0.75000002  0.48504900  0.81124801  1
  Sr  Sr1  1  0.75000002  0.81124800  0.48504904  1
  Sr  Sr2  1  0.25000001  0.51495100  0.18875203  1
  Sr  Sr3  1  0.25000001  0.18875200  0.51495100  1
  Si  Si4  1  0.25000001  0.91521100  0.91521104  1
  Si  Si5  1  0.75000002  0.08478900  0.08478900  1
  O  O6  1  0.25000001  0.66293800  0.66293803  1
  O  O7  1  0.75000002  0.33706200  0.33706201  1
  O  O8  1  0.50000001  0.12551100  0.87448899  1
  O  O9  1  1.00000003  0.87448900  0.12551105  1
  O  O10  1  -0.00000000  0.12551100  0.87448899  1
  O  O11  1  0.50000001  0.87448900  0.12551105  1
