# generated using pymatgen
data_La3GaFe3Ge10Rh
_symmetry_space_group_name_H-M   'P 1'
_cell_length_a   4.20023680
_cell_length_b   8.71326923
_cell_length_c   10.13921738
_cell_angle_alpha   107.68972778
_cell_angle_beta   90.00000000
_cell_angle_gamma   103.94706726
_symmetry_Int_Tables_number   1
_chemical_formula_structural   La3GaFe3Ge10Rh
_chemical_formula_sum   'La3 Ga1 Fe3 Ge10 Rh1'
_cell_volume   342.02675123
_cell_formula_units_Z   1
loop_
 _symmetry_equiv_pos_site_id
 _symmetry_equiv_pos_as_xyz
  1  'x, y, z'
loop_
 _atom_site_type_symbol
 _atom_site_label
 _atom_site_symmetry_multiplicity
 _atom_site_fract_x
 _atom_site_fract_y
 _atom_site_fract_z
 _atom_site_occupancy
  La  La0  1  0.84487705  0.68975300  0.29931501  1
  La  La1  1  0.15512301  0.31024700  0.70068503  1
  La  La2  1  0.00000000  0.00000000  0.00000000  1
  Fe  Fe3  1  0.80088105  0.60176100  0.86978103  1
  Ga  Ga4  1  0.19911902  0.39823900  0.13021900  1
  Fe  Fe5  1  0.53798703  0.07597400  0.78421403  1
  Ge  Ge6  1  0.46201304  0.92402600  0.21578600  1
  Fe  Fe7  1  0.63582503  0.27164900  0.45202002  1
  Ge  Ge8  1  0.36417503  0.72835100  0.54798002  1
  Ge  Ge9  1  0.95654006  0.91308000  0.66744302  1
  Ge  Ge10  1  0.04346000  0.08692000  0.33255701  1
  Ge  Ge11  1  0.77958905  0.55917800  0.60832602  1
  Ge  Ge12  1  0.22041102  0.44082200  0.39167401  1
  Ge  Ge13  1  0.37678203  0.75356400  0.79984803  1
  Ge  Ge14  1  0.62321803  0.24643600  0.20015201  1
  Ge  Ge15  1  0.50000002  0.00000000  0.50000002  1
  Rh  Rh16  1  0.68012704  0.36025400  0.96846404  1
  Ge  Ge17  1  0.31987303  0.63974600  0.03153600  1
