# generated using pymatgen
data_BaNaCuO3
_symmetry_space_group_name_H-M   'P 1'
_cell_length_a   3.92789292
_cell_length_b   3.92789292
_cell_length_c   12.23911953
_cell_angle_alpha   90.00000000
_cell_angle_beta   90.00000000
_cell_angle_gamma   90.00000000
_symmetry_Int_Tables_number   1
_chemical_formula_structural   BaNaCuO3
_chemical_formula_sum   'Ba2 Na2 Cu2 O6'
_cell_volume   188.82933189
_cell_formula_units_Z   2
loop_
 _symmetry_equiv_pos_site_id
 _symmetry_equiv_pos_as_xyz
  1  'x, y, z'
loop_
 _atom_site_type_symbol
 _atom_site_label
 _atom_site_symmetry_multiplicity
 _atom_site_fract_x
 _atom_site_fract_y
 _atom_site_fract_z
 _atom_site_occupancy
  Ba  Ba0  1  0.50000001  0.50000001  0.19470901  1
  Ba  Ba1  1  0.50000001  0.50000001  0.80529103  1
  Na  Na2  1  0.50000001  0.50000001  0.50000002  1
  Na  Na3  1  0.00000000  0.00000000  0.36118901  1
  Cu  Cu4  1  0.00000000  0.00000000  0.63881102  1
  Cu  Cu5  1  0.00000000  0.00000000  0.00000000  1
  O  O6  1  0.00000000  0.50000001  0.37291401  1
  O  O7  1  0.00000000  0.50000001  0.62708602  1
  O  O8  1  0.50000001  0.00000000  0.37291401  1
  O  O9  1  0.50000001  0.00000000  0.62708602  1
  O  O10  1  0.00000000  0.00000000  0.14794901  1
  O  O11  1  0.00000000  0.00000000  0.85205103  1
