# generated using pymatgen
data_CaMg2AgGe
_symmetry_space_group_name_H-M   'P 1'
_cell_length_a   4.86968803
_cell_length_b   4.86968756
_cell_length_c   7.40570879
_cell_angle_alpha   90.00000000
_cell_angle_beta   90.00000000
_cell_angle_gamma   120.00000000
_symmetry_Int_Tables_number   1
_chemical_formula_structural   CaMg2AgGe
_chemical_formula_sum   'Ca1 Mg2 Ag1 Ge1'
_cell_volume   152.08959369
_cell_formula_units_Z   1
loop_
 _symmetry_equiv_pos_site_id
 _symmetry_equiv_pos_as_xyz
  1  'x, y, z'
loop_
 _atom_site_type_symbol
 _atom_site_label
 _atom_site_symmetry_multiplicity
 _atom_site_fract_x
 _atom_site_fract_y
 _atom_site_fract_z
 _atom_site_occupancy
  Ca  Ca0  1  0.00000000  0.00000000  0.00000000  1
  Mg  Mg1  1  0.33333329  0.66666665  0.64252202  1
  Mg  Mg2  1  0.66666664  0.33333332  0.35747801  1
  Ge  Ge3  1  0.33333329  0.66666665  0.24041601  1
  Ag  Ag4  1  0.66666664  0.33333332  0.75958402  1
