# generated using pymatgen
data_Ti2Rh2C
_symmetry_space_group_name_H-M   'P 1'
_cell_length_a   2.76073408
_cell_length_b   2.76073408
_cell_length_c   8.90136433
_cell_angle_alpha   81.07893372
_cell_angle_beta   81.07893372
_cell_angle_gamma   59.99999619
_symmetry_Int_Tables_number   1
_chemical_formula_structural   Ti2Rh2C
_chemical_formula_sum   'Ti2 Rh2 C1'
_cell_volume   57.80424296
_cell_formula_units_Z   1
loop_
 _symmetry_equiv_pos_site_id
 _symmetry_equiv_pos_as_xyz
  1  'x, y, z'
loop_
 _atom_site_type_symbol
 _atom_site_label
 _atom_site_symmetry_multiplicity
 _atom_site_fract_x
 _atom_site_fract_y
 _atom_site_fract_z
 _atom_site_occupancy
  Ti  Ti0  1  0.37718400  0.37718401  0.86844799  1
  Ti  Ti1  1  0.62281601  0.62281602  0.13155198  1
  C  C2  1  0.87808101  0.87808102  0.36575697  1
  Rh  Rh3  1  0.12191900  0.12191900  0.63424300  1
  Rh  Rh4  1  0.00000000  0.00000000  0.00000000  1
