# generated using pymatgen
data_CeGaNi4
_symmetry_space_group_name_H-M   'P 1'
_cell_length_a   3.90740204
_cell_length_b   5.24195814
_cell_length_c   5.24195766
_cell_angle_alpha   119.97129059
_cell_angle_beta   90.00000000
_cell_angle_gamma   90.00000000
_symmetry_Int_Tables_number   1
_chemical_formula_structural   CeGaNi4
_chemical_formula_sum   'Ce1 Ga1 Ni4'
_cell_volume   93.01036631
_cell_formula_units_Z   1
loop_
 _symmetry_equiv_pos_site_id
 _symmetry_equiv_pos_as_xyz
  1  'x, y, z'
loop_
 _atom_site_type_symbol
 _atom_site_label
 _atom_site_symmetry_multiplicity
 _atom_site_fract_x
 _atom_site_fract_y
 _atom_site_fract_z
 _atom_site_occupancy
  Ce  Ce0  1  0.99999999  0.00002200  0.00002200  1
  Ga  Ga1  1  -0.00000000  0.66666667  0.33339799  1
  Ni  Ni2  1  -0.00000000  0.33333334  0.66666664  1
  Ni  Ni3  1  0.50000000  0.50000600  0.50000598  1
  Ni  Ni4  1  0.50000000  0.50000500  0.00001300  1
  Ni  Ni5  1  0.50000000  0.00001300  0.50000498  1
