# generated using pymatgen
data_KRb6Pb11
_symmetry_space_group_name_H-M   'P 1'
_cell_length_a   9.32958698
_cell_length_b   9.32958698
_cell_length_c   10.45325470
_cell_angle_alpha   91.15074158
_cell_angle_beta   91.15074158
_cell_angle_gamma   119.99774933
_symmetry_Int_Tables_number   1
_chemical_formula_structural   KRb6Pb11
_chemical_formula_sum   'K1 Rb6 Pb11'
_cell_volume   787.34716715
_cell_formula_units_Z   1
loop_
 _symmetry_equiv_pos_site_id
 _symmetry_equiv_pos_as_xyz
  1  'x, y, z'
loop_
 _atom_site_type_symbol
 _atom_site_label
 _atom_site_symmetry_multiplicity
 _atom_site_fract_x
 _atom_site_fract_y
 _atom_site_fract_z
 _atom_site_occupancy
  K  K0  1  0.71827498  0.38943899  0.49202004  1
  Rb  Rb1  1  0.61056099  0.28172499  0.00798002  1
  Rb  Rb2  1  0.38943895  0.71827499  0.99202004  1
  Rb  Rb3  1  0.28172496  0.61056099  0.50798003  1
  Rb  Rb4  1  0.95237201  0.04762800  0.25000003  1
  Rb  Rb5  1  0.04762793  0.95237198  0.75000004  1
  Rb  Rb6  1  0.69170497  0.65043399  0.14762504  1
  Pb  Pb7  1  0.01380297  0.44255899  0.21169702  1
  Pb  Pb8  1  0.94940600  0.19292400  0.55184504  1
  Pb  Pb9  1  0.80707601  0.05059400  0.94815504  1
  Pb  Pb10  1  0.55744094  0.98619698  0.28830305  1
  Pb  Pb11  1  0.34956598  0.30829499  0.35237502  1
  Pb  Pb12  1  0.65043396  0.69170499  0.64762505  1
  Pb  Pb13  1  0.44255901  0.01380300  0.71169702  1
  Pb  Pb14  1  0.19292393  0.94940598  0.05184503  1
  Pb  Pb15  1  0.05059394  0.80707598  0.44815503  1
  Pb  Pb16  1  0.98619698  0.55744099  0.78830305  1
  Pb  Pb17  1  0.30829498  0.34956599  0.85237503  1
