# generated using pymatgen
data_MnFe2
_symmetry_space_group_name_H-M   'P 1'
_cell_length_a   3.45166206
_cell_length_b   7.20846796
_cell_length_c   7.20846796
_cell_angle_alpha   86.71397400
_cell_angle_beta   76.14785767
_cell_angle_gamma   76.14785767
_symmetry_Int_Tables_number   1
_chemical_formula_structural   MnFe2
_chemical_formula_sum   'Mn3 Fe6'
_cell_volume   169.07455195
_cell_formula_units_Z   3
loop_
 _symmetry_equiv_pos_site_id
 _symmetry_equiv_pos_as_xyz
  1  'x, y, z'
loop_
 _atom_site_type_symbol
 _atom_site_label
 _atom_site_symmetry_multiplicity
 _atom_site_fract_x
 _atom_site_fract_y
 _atom_site_fract_z
 _atom_site_occupancy
  Mn  Mn0  1  0.36806002  0.93787801  0.32600205  1
  Mn  Mn1  1  0.30593800  0.32600200  0.06212202  1
  Mn  Mn2  1  0.69406200  0.67399801  0.93787805  1
  Fe  Fe3  1  0.63193999  0.06212200  0.67399802  1
  Fe  Fe4  1  0.00000000  0.00000000  0.00000000  1
  Fe  Fe5  1  0.28491802  0.76697601  0.66318804  1
  Fe  Fe6  1  0.05189402  0.66318801  0.23302403  1
  Fe  Fe7  1  0.94810599  0.33681200  0.76697604  1
  Fe  Fe8  1  0.71508199  0.23302400  0.33681202  1
