# generated using pymatgen
data_Y3Ge5
_symmetry_space_group_name_H-M   'P 1'
_cell_length_a   4.49298620
_cell_length_b   4.49298620
_cell_length_c   19.21027374
_cell_angle_alpha   90.00000000
_cell_angle_beta   90.00000000
_cell_angle_gamma   90.00000000
_symmetry_Int_Tables_number   1
_chemical_formula_structural   Y3Ge5
_chemical_formula_sum   'Y6 Ge10'
_cell_volume   387.79635553
_cell_formula_units_Z   2
loop_
 _symmetry_equiv_pos_site_id
 _symmetry_equiv_pos_as_xyz
  1  'x, y, z'
loop_
 _atom_site_type_symbol
 _atom_site_label
 _atom_site_symmetry_multiplicity
 _atom_site_fract_x
 _atom_site_fract_y
 _atom_site_fract_z
 _atom_site_occupancy
  Y  Y0  1  0.49999998  0.00000000  0.36164999  1
  Y  Y1  1  0.49999998  0.00000000  0.86455597  1
  Y  Y2  1  -0.00000000  0.49999998  0.13544399  1
  Y  Y3  1  -0.00000000  0.49999998  0.63834998  1
  Y  Y4  1  0.49999998  0.49999998  0.24996199  1
  Y  Y5  1  0.49999998  0.49999998  0.75003797  1
  Ge  Ge6  1  0.00000000  0.00000000  0.24983099  1
  Ge  Ge7  1  0.00000000  0.00000000  0.75016897  1
  Ge  Ge8  1  0.49999998  0.49999998  0.49999998  1
  Ge  Ge9  1  0.00000000  0.00000000  0.00000000  1
  Ge  Ge10  1  0.00000000  0.00000000  0.49999998  1
  Ge  Ge11  1  0.49999998  0.00000000  0.18006099  1
  Ge  Ge12  1  0.49999998  0.00000000  0.68019497  1
  Ge  Ge13  1  -0.00000000  0.49999998  0.31980499  1
  Ge  Ge14  1  -0.00000000  0.49999998  0.81993897  1
  Ge  Ge15  1  0.49999998  0.49999998  0.00000000  1
