# generated using pymatgen
data_Li3MgAg2
_symmetry_space_group_name_H-M   'P 1'
_cell_length_a   4.30008841
_cell_length_b   4.30008841
_cell_length_c   12.25718021
_cell_angle_alpha   79.89742279
_cell_angle_beta   79.89742279
_cell_angle_gamma   59.99999237
_symmetry_Int_Tables_number   1
_chemical_formula_structural   Li3MgAg2
_chemical_formula_sum   'Li3 Mg1 Ag2'
_cell_volume   192.21155832
_cell_formula_units_Z   1
loop_
 _symmetry_equiv_pos_site_id
 _symmetry_equiv_pos_as_xyz
  1  'x, y, z'
loop_
 _atom_site_type_symbol
 _atom_site_label
 _atom_site_symmetry_multiplicity
 _atom_site_fract_x
 _atom_site_fract_y
 _atom_site_fract_z
 _atom_site_occupancy
  Li  Li0  1  0.91639297  0.91639301  0.25082099  1
  Li  Li1  1  0.08360700  0.08360700  0.74917899  1
  Li  Li2  1  0.79043697  0.79043701  0.62868899  1
  Mg  Mg3  1  0.20956299  0.20956300  0.37131099  1
  Ag  Ag4  1  0.62338198  0.62338201  0.12985400  1
  Ag  Ag5  1  0.37661799  0.37661800  0.87014598  1
