# generated using pymatgen
data_Cs3LaBrO6
_symmetry_space_group_name_H-M   'P 1'
_cell_length_a   4.48545980
_cell_length_b   6.80663776
_cell_length_c   8.34232807
_cell_angle_alpha   114.07662201
_cell_angle_beta   105.59510803
_cell_angle_gamma   90.00000000
_symmetry_Int_Tables_number   1
_chemical_formula_structural   Cs3LaBrO6
_chemical_formula_sum   'Cs3 La1 Br1 O6'
_cell_volume   222.23058634
_cell_formula_units_Z   1
loop_
 _symmetry_equiv_pos_site_id
 _symmetry_equiv_pos_as_xyz
  1  'x, y, z'
loop_
 _atom_site_type_symbol
 _atom_site_label
 _atom_site_symmetry_multiplicity
 _atom_site_fract_x
 _atom_site_fract_y
 _atom_site_fract_z
 _atom_site_occupancy
  La  La0  1  0.32956406  0.64024704  0.65912707  1
  Cs  Cs1  1  0.67043606  0.35975302  0.34087305  1
  Cs  Cs2  1  0.67043610  0.98112106  0.34087309  1
  Cs  Cs3  1  0.32956402  0.01887900  0.65912704  1
  Br  Br4  1  0.00000000  0.00000000  0.00000000  1
  O  O5  1  0.86968007  0.36968002  0.73936008  1
  O  O6  1  0.13032005  0.63032004  0.26064005  1
  O  O7  1  0.50000007  0.68829204  1.00000010  1
  O  O8  1  0.50000005  0.31170802  1.00000008  1
  O  O9  1  0.21380903  0.21380901  0.42761804  1
  O  O10  1  0.78619109  0.78619105  0.57238209  1
