# generated using pymatgen
data_Li3AgS3
_symmetry_space_group_name_H-M   'P 1'
_cell_length_a   6.27269220
_cell_length_b   6.27269220
_cell_length_c   7.46717644
_cell_angle_alpha   114.83570099
_cell_angle_beta   114.83570099
_cell_angle_gamma   90.00000000
_symmetry_Int_Tables_number   1
_chemical_formula_structural   Li3AgS3
_chemical_formula_sum   'Li3 Ag1 S3'
_cell_volume   236.35983638
_cell_formula_units_Z   1
loop_
 _symmetry_equiv_pos_site_id
 _symmetry_equiv_pos_as_xyz
  1  'x, y, z'
loop_
 _atom_site_type_symbol
 _atom_site_label
 _atom_site_symmetry_multiplicity
 _atom_site_fract_x
 _atom_site_fract_y
 _atom_site_fract_z
 _atom_site_occupancy
  Li  Li0  1  0.00000000  0.00000000  0.00000000  1
  Li  Li1  1  0.24999998  0.74999997  0.49999999  1
  Li  Li2  1  0.49999997  0.49999998  -0.00000002  1
  Ag  Ag3  1  0.60881896  0.58696097  0.72381500  1
  S  S4  1  0.41303797  0.88500396  0.27618498  1
  S  S5  1  0.86314596  0.39117998  0.27618399  1
  S  S6  1  0.11499599  0.13685399  0.72381601  1
