# generated using pymatgen
data_Na3LiO4
_symmetry_space_group_name_H-M   'P 1'
_cell_length_a   3.41191506
_cell_length_b   5.86009693
_cell_length_c   5.86009693
_cell_angle_alpha   109.76788330
_cell_angle_beta   90.00000000
_cell_angle_gamma   90.00000000
_symmetry_Int_Tables_number   1
_chemical_formula_structural   Na3LiO4
_chemical_formula_sum   'Na3 Li1 O4'
_cell_volume   110.26304190
_cell_formula_units_Z   1
loop_
 _symmetry_equiv_pos_site_id
 _symmetry_equiv_pos_as_xyz
  1  'x, y, z'
loop_
 _atom_site_type_symbol
 _atom_site_label
 _atom_site_symmetry_multiplicity
 _atom_site_fract_x
 _atom_site_fract_y
 _atom_site_fract_z
 _atom_site_occupancy
  Li  Li0  1  -0.00000000  0.49999999  0.49999998  1
  Na  Na1  1  0.49999999  0.00000000  0.49999999  1
  Na  Na2  1  0.49999999  0.49999999  -0.00000001  1
  Na  Na3  1  0.00000000  0.00000000  0.00000000  1
  O  O4  1  -0.00000000  0.74985598  0.25014398  1
  O  O5  1  0.49999999  0.25236299  0.25236299  1
  O  O6  1  0.49999999  0.74763698  0.74763697  1
  O  O7  1  -0.00000000  0.25014399  0.74985598  1
