# generated using pymatgen
data_HfNi2
_symmetry_space_group_name_H-M   'P 1'
_cell_length_a   3.38883209
_cell_length_b   6.91998386
_cell_length_c   6.91998339
_cell_angle_alpha   120.00000763
_cell_angle_beta   90.00000000
_cell_angle_gamma   90.00000000
_symmetry_Int_Tables_number   1
_chemical_formula_structural   HfNi2
_chemical_formula_sum   'Hf3 Ni6'
_cell_volume   140.53703384
_cell_formula_units_Z   3
loop_
 _symmetry_equiv_pos_site_id
 _symmetry_equiv_pos_as_xyz
  1  'x, y, z'
loop_
 _atom_site_type_symbol
 _atom_site_label
 _atom_site_symmetry_multiplicity
 _atom_site_fract_x
 _atom_site_fract_y
 _atom_site_fract_z
 _atom_site_occupancy
  Hf  Hf0  1  0.49999999  0.59690803  0.00000005  1
  Hf  Hf1  1  0.49999999  0.40309202  0.40309202  1
  Hf  Hf2  1  0.49999999  1.00000006  0.59690806  1
  Ni  Ni3  1  -0.00000000  0.33333335  0.66666667  1
  Ni  Ni4  1  0.99999997  0.66666671  0.33333337  1
  Ni  Ni5  1  0.49999999  0.00000000  -0.00000000  1
  Ni  Ni6  1  -0.00000000  0.25202701  0.00000002  1
  Ni  Ni7  1  -0.00000000  0.74797304  0.74797304  1
  Ni  Ni8  1  -0.00000000  1.00000006  0.25202707  1
