# generated using pymatgen
data_Na4Li4WO11
_symmetry_space_group_name_H-M   'P 1'
_cell_length_a   5.49236202
_cell_length_b   5.62512064
_cell_length_c   7.73806000
_cell_angle_alpha   90.64360809
_cell_angle_beta   91.54895020
_cell_angle_gamma   90.79868317
_symmetry_Int_Tables_number   1
_chemical_formula_structural   Na4Li4WO11
_chemical_formula_sum   'Na4 Li4 W1 O11'
_cell_volume   238.94220896
_cell_formula_units_Z   1
loop_
 _symmetry_equiv_pos_site_id
 _symmetry_equiv_pos_as_xyz
  1  'x, y, z'
loop_
 _atom_site_type_symbol
 _atom_site_label
 _atom_site_symmetry_multiplicity
 _atom_site_fract_x
 _atom_site_fract_y
 _atom_site_fract_z
 _atom_site_occupancy
  Na  Na0  1  0.50065599  0.99788501  0.25008098  1
  Na  Na1  1  0.00181700  0.49879101  0.74855198  1
  Na  Na2  1  0.49945698  0.00210800  0.74995600  1
  Na  Na3  1  0.99835597  0.50119101  0.25146001  1
  Li  Li4  1  0.00003200  0.00003900  0.49999300  1
  Li  Li5  1  0.49990399  0.49998801  0.00003800  1
  Li  Li6  1  0.50003099  0.50016101  0.49997999  1
  Li  Li7  1  0.99974297  0.99983001  0.00002899  1
  O  O8  1  0.28535499  0.19885100  0.47407300  1
  W  W9  1  0.78528898  0.71029301  0.96889599  1
  O  O10  1  0.20764200  0.71057201  0.53161098  1
  O  O11  1  0.71452298  0.21015700  0.03190501  1
  O  O12  1  0.99950297  0.06600200  0.74582001  1
  O  O13  1  0.50541099  0.56169001  0.23761399  1
  O  O14  1  0.79238198  0.28948400  0.46845001  1
  O  O15  1  0.28544799  0.78990501  0.96810998  1
  O  O16  1  0.00050100  0.93394701  0.25419097  1
  O  O17  1  0.49459799  0.43826901  0.76232999  1
  O  O18  1  0.71472498  0.80131601  0.52583499  1
  O  O19  1  0.21462799  0.28952400  0.03107800  1
