# generated using pymatgen
data_CeSi2
_symmetry_space_group_name_H-M   'P 1'
_cell_length_a   5.62252617
_cell_length_b   6.64750195
_cell_length_c   6.64750195
_cell_angle_alpha   65.18112183
_cell_angle_beta   64.98185730
_cell_angle_gamma   64.98185730
_symmetry_Int_Tables_number   1
_chemical_formula_structural   CeSi2
_chemical_formula_sum   'Ce4 Si8'
_cell_volume   195.04228238
_cell_formula_units_Z   4
loop_
 _symmetry_equiv_pos_site_id
 _symmetry_equiv_pos_as_xyz
  1  'x, y, z'
loop_
 _atom_site_type_symbol
 _atom_site_label
 _atom_site_symmetry_multiplicity
 _atom_site_fract_x
 _atom_site_fract_y
 _atom_site_fract_z
 _atom_site_occupancy
  Ce  Ce0  1  0.53753895  0.74999998  0.75000002  1
  Ce  Ce1  1  0.46246098  0.24999999  0.24999999  1
  Ce  Ce2  1  0.88485393  0.92143298  0.92143301  1
  Ce  Ce3  1  0.11514599  0.07856700  0.07856700  1
  Si  Si4  1  0.22771996  0.57856699  0.57856702  1
  Si  Si5  1  0.77227997  0.42143299  0.42143299  1
  Si  Si6  1  0.99999993  0.99999997  0.50000002  1
  Si  Si7  1  -0.00000003  0.49999999  0.00000003  1
  Si  Si8  1  0.99999997  0.28575199  0.71424797  1
  Si  Si9  1  0.99999995  0.71424798  0.28575200  1
  Si  Si10  1  0.49999998  0.21424799  0.78575198  1
  Si  Si11  1  0.49999995  0.78575198  0.21424803  1
