# generated using pymatgen
data_Y3InNi
_symmetry_space_group_name_H-M   'P 1'
_cell_length_a   7.48634195
_cell_length_b   7.92305613
_cell_length_c   7.92305613
_cell_angle_alpha   90.00000000
_cell_angle_beta   90.00000000
_cell_angle_gamma   90.00000000
_symmetry_Int_Tables_number   1
_chemical_formula_structural   Y3InNi
_chemical_formula_sum   'Y12 In4 Ni4'
_cell_volume   469.95375637
_cell_formula_units_Z   4
loop_
 _symmetry_equiv_pos_site_id
 _symmetry_equiv_pos_as_xyz
  1  'x, y, z'
loop_
 _atom_site_type_symbol
 _atom_site_label
 _atom_site_symmetry_multiplicity
 _atom_site_fract_x
 _atom_site_fract_y
 _atom_site_fract_z
 _atom_site_occupancy
  Y  Y0  1  0.50000000  0.84250599  0.15749400  1
  Y  Y1  1  0.50000000  0.15749400  0.84250599  1
  Y  Y2  1  0.00000000  0.34250599  0.34250599  1
  Y  Y3  1  0.00000000  0.65749399  0.65749399  1
  Y  Y4  1  0.50000000  0.68425899  0.68425899  1
  Y  Y5  1  0.50000000  0.31574099  0.31574099  1
  Y  Y6  1  0.00000000  0.18425900  0.81574099  1
  Y  Y7  1  0.00000000  0.81574099  0.18425900  1
  Y  Y8  1  0.25000000  0.49999999  0.00000000  1
  Y  Y9  1  0.75000000  0.00000000  0.49999999  1
  Y  Y10  1  0.75000000  0.49999999  0.00000000  1
  Y  Y11  1  0.25000000  0.00000000  0.49999999  1
  Ni  Ni12  1  0.27807800  0.62757399  0.37242599  1
  In  In13  1  0.27807800  0.37242599  0.62757399  1
  In  In14  1  0.77807800  0.12757400  0.12757400  1
  In  In15  1  0.77807800  0.87242599  0.87242599  1
  In  In16  1  0.72192200  0.37242599  0.62757399  1
  Ni  Ni17  1  0.72192200  0.62757399  0.37242599  1
  Ni  Ni18  1  0.22192200  0.87242599  0.87242599  1
  Ni  Ni19  1  0.22192200  0.12757400  0.12757400  1
