# generated using pymatgen
data_NaSr5Nb2O12
_symmetry_space_group_name_H-M   'P 1'
_cell_length_a   5.96643591
_cell_length_b   5.96643591
_cell_length_c   8.48870564
_cell_angle_alpha   90.00000000
_cell_angle_beta   90.00000000
_cell_angle_gamma   90.00000000
_symmetry_Int_Tables_number   1
_chemical_formula_structural   NaSr5Nb2O12
_chemical_formula_sum   'Na1 Sr5 Nb2 O12'
_cell_volume   302.18397757
_cell_formula_units_Z   1
loop_
 _symmetry_equiv_pos_site_id
 _symmetry_equiv_pos_as_xyz
  1  'x, y, z'
loop_
 _atom_site_type_symbol
 _atom_site_label
 _atom_site_symmetry_multiplicity
 _atom_site_fract_x
 _atom_site_fract_y
 _atom_site_fract_z
 _atom_site_occupancy
  Sr  Sr0  1  0.50000001  0.00000000  0.73386503  1
  Sr  Sr1  1  0.00000000  0.50000001  0.26613501  1
  Sr  Sr2  1  0.50000001  0.00000000  0.26613501  1
  Sr  Sr3  1  0.00000000  0.50000001  0.73386503  1
  Sr  Sr4  1  0.50000001  0.50000001  -0.00000000  1
  Na  Na5  1  0.00000000  0.00000000  0.50000002  1
  Nb  Nb6  1  0.00000000  0.00000000  0.00000000  1
  Nb  Nb7  1  0.50000001  0.50000001  0.50000002  1
  O  O8  1  0.00000000  0.00000000  0.77187703  1
  O  O9  1  0.50000001  0.50000001  0.26486701  1
  O  O10  1  0.73081901  0.73081901  0.50000002  1
  O  O11  1  0.23433900  0.23433900  0.00000000  1
  O  O12  1  0.73081901  0.26918100  0.50000002  1
  O  O13  1  0.23433900  0.76566101  0.00000000  1
  O  O14  1  0.00000000  0.00000000  0.22812301  1
  O  O15  1  0.50000001  0.50000001  0.73513303  1
  O  O16  1  0.26918100  0.26918100  0.50000002  1
  O  O17  1  0.76566101  0.76566101  0.00000000  1
  O  O18  1  0.26918100  0.73081901  0.50000002  1
  O  O19  1  0.76566101  0.23433900  0.00000000  1
