# generated using pymatgen
data_LiCuN
_symmetry_space_group_name_H-M   'P 1'
_cell_length_a   3.73353791
_cell_length_b   4.10280752
_cell_length_c   3.73353791
_cell_angle_alpha   117.06480408
_cell_angle_beta   90.00000000
_cell_angle_gamma   117.06480408
_symmetry_Int_Tables_number   1
_chemical_formula_structural   LiCuN
_chemical_formula_sum   'Li1 Cu1 N1'
_cell_volume   43.77779852
_cell_formula_units_Z   1
loop_
 _symmetry_equiv_pos_site_id
 _symmetry_equiv_pos_as_xyz
  1  'x, y, z'
loop_
 _atom_site_type_symbol
 _atom_site_label
 _atom_site_symmetry_multiplicity
 _atom_site_fract_x
 _atom_site_fract_y
 _atom_site_fract_z
 _atom_site_occupancy
  Li  Li0  1  0.00000000  0.00000000  0.00000000  1
  Cu  Cu1  1  0.39641402  0.79282796  0.39641402  1
  N  N2  1  0.60358602  0.20717199  0.60358602  1
