# generated using pymatgen
data_Y2GaSi3
_symmetry_space_group_name_H-M   'P 1'
_cell_length_a   5.12364006
_cell_length_b   5.16869307
_cell_length_c   5.16869307
_cell_angle_alpha   61.17736816
_cell_angle_beta   60.28792191
_cell_angle_gamma   60.28792191
_symmetry_Int_Tables_number   1
_chemical_formula_structural   Y2GaSi3
_chemical_formula_sum   'Y2 Ga1 Si3'
_cell_volume   98.05085401
_cell_formula_units_Z   1
loop_
 _symmetry_equiv_pos_site_id
 _symmetry_equiv_pos_as_xyz
  1  'x, y, z'
loop_
 _atom_site_type_symbol
 _atom_site_label
 _atom_site_symmetry_multiplicity
 _atom_site_fract_x
 _atom_site_fract_y
 _atom_site_fract_z
 _atom_site_occupancy
  Y  Y0  1  0.62452398  0.62547598  0.12547601  1
  Y  Y1  1  0.37547599  0.37452399  0.87452398  1
  Ga  Ga2  1  0.00000000  0.00000000  0.00000000  1
  Si  Si3  1  -0.00000002  0.49999999  0.50000001  1
  Si  Si4  1  -0.00000003  0.99999997  0.50000003  1
  Si  Si5  1  0.50000000  0.00000000  0.49999997  1
