# generated using pymatgen
data_Yb3PdPb
_symmetry_space_group_name_H-M   'P 1'
_cell_length_a   4.12140703
_cell_length_b   8.67660999
_cell_length_c   8.67660999
_cell_angle_alpha   90.00000000
_cell_angle_beta   90.00000000
_cell_angle_gamma   90.00000000
_symmetry_Int_Tables_number   1
_chemical_formula_structural   Yb3PdPb
_chemical_formula_sum   'Yb6 Pd2 Pb2'
_cell_volume   310.27419758
_cell_formula_units_Z   2
loop_
 _symmetry_equiv_pos_site_id
 _symmetry_equiv_pos_as_xyz
  1  'x, y, z'
loop_
 _atom_site_type_symbol
 _atom_site_label
 _atom_site_symmetry_multiplicity
 _atom_site_fract_x
 _atom_site_fract_y
 _atom_site_fract_z
 _atom_site_occupancy
  Yb  Yb0  1  0.00000000  0.00000000  0.00000000  1
  Yb  Yb1  1  -0.00000000  0.50000000  0.50000000  1
  Yb  Yb2  1  0.50000000  0.65390800  0.15390800  1
  Yb  Yb3  1  0.50000000  0.15390800  0.34609200  1
  Yb  Yb4  1  0.50000000  0.84609200  0.65390800  1
  Yb  Yb5  1  0.50000000  0.34609200  0.84609200  1
  Pd  Pd6  1  0.00000000  0.85560800  0.35560800  1
  Pd  Pd7  1  0.00000000  0.35560800  0.14439200  1
  Pb  Pb8  1  -0.00000000  0.64439200  0.85560800  1
  Pb  Pb9  1  0.00000000  0.14439200  0.64439200  1
