# generated using pymatgen
data_NdGa2
_symmetry_space_group_name_H-M   'P 1'
_cell_length_a   4.78309584
_cell_length_b   4.78309536
_cell_length_c   7.37412500
_cell_angle_alpha   90.00000000
_cell_angle_beta   90.00000000
_cell_angle_gamma   120.00000763
_symmetry_Int_Tables_number   1
_chemical_formula_structural   NdGa2
_chemical_formula_sum   'Nd2 Ga4'
_cell_volume   146.10302765
_cell_formula_units_Z   2
loop_
 _symmetry_equiv_pos_site_id
 _symmetry_equiv_pos_as_xyz
  1  'x, y, z'
loop_
 _atom_site_type_symbol
 _atom_site_label
 _atom_site_symmetry_multiplicity
 _atom_site_fract_x
 _atom_site_fract_y
 _atom_site_fract_z
 _atom_site_occupancy
  Nd  Nd0  1  0.00000000  0.00000000  0.00000000  1
  Nd  Nd1  1  0.00000000  0.00000000  0.50000000  1
  Ga  Ga2  1  0.66666671  0.33333335  0.25000000  1
  Ga  Ga3  1  0.33333340  0.66666670  0.75000000  1
  Ga  Ga4  1  0.66666671  0.33333335  0.75000000  1
  Ga  Ga5  1  0.33333340  0.66666670  0.25000000  1
