# generated using pymatgen
data_SrTl2
_symmetry_space_group_name_H-M   'P 1'
_cell_length_a   6.21009874
_cell_length_b   6.21009874
_cell_length_c   6.21009874
_cell_angle_alpha   60.00000000
_cell_angle_beta   60.00000000
_cell_angle_gamma   60.00000000
_symmetry_Int_Tables_number   1
_chemical_formula_structural   SrTl2
_chemical_formula_sum   'Sr2 Tl4'
_cell_volume   169.34817443
_cell_formula_units_Z   2
loop_
 _symmetry_equiv_pos_site_id
 _symmetry_equiv_pos_as_xyz
  1  'x, y, z'
loop_
 _atom_site_type_symbol
 _atom_site_label
 _atom_site_symmetry_multiplicity
 _atom_site_fract_x
 _atom_site_fract_y
 _atom_site_fract_z
 _atom_site_occupancy
  Sr  Sr0  1  0.00000000  0.00000000  0.00000000  1
  Sr  Sr1  1  0.75000001  0.75000001  0.75000001  1
  Tl  Tl2  1  0.87500001  0.37500001  0.37500001  1
  Tl  Tl3  1  0.37500001  0.37500001  0.87500001  1
  Tl  Tl4  1  0.37500001  0.37500001  0.37500001  1
  Tl  Tl5  1  0.37500001  0.87500001  0.37500001  1
