# generated using pymatgen
data_YSi2
_symmetry_space_group_name_H-M   'P 1'
_cell_length_a   3.99527192
_cell_length_b   6.89443016
_cell_length_c   6.89442968
_cell_angle_alpha   120.00000000
_cell_angle_beta   90.00000000
_cell_angle_gamma   90.00000000
_symmetry_Int_Tables_number   1
_chemical_formula_structural   YSi2
_chemical_formula_sum   'Y3 Si6'
_cell_volume   164.46507899
_cell_formula_units_Z   3
loop_
 _symmetry_equiv_pos_site_id
 _symmetry_equiv_pos_as_xyz
  1  'x, y, z'
loop_
 _atom_site_type_symbol
 _atom_site_label
 _atom_site_symmetry_multiplicity
 _atom_site_fract_x
 _atom_site_fract_y
 _atom_site_fract_z
 _atom_site_occupancy
  Y  Y0  1  0.50000001  0.00000000  0.57905099  1
  Y  Y1  1  0.50000001  0.57905097  -0.00000003  1
  Y  Y2  1  0.50000001  0.42094898  0.42094897  1
  Si  Si3  1  -0.00000000  0.76249197  0.76249195  1
  Si  Si4  1  1.00000002  0.23750799  -0.00000001  1
  Si  Si5  1  1.00000002  0.00000000  0.23750800  1
  Si  Si6  1  1.00000002  0.33333332  0.66666664  1
  Si  Si7  1  1.00000002  0.66666664  0.33333330  1
  Si  Si8  1  0.50000001  0.00000000  -0.00000000  1
