# generated using pymatgen
data_CeSn2
_symmetry_space_group_name_H-M   'P 1'
_cell_length_a   4.42375374
_cell_length_b   4.42375374
_cell_length_c   17.78795624
_cell_angle_alpha   90.00000000
_cell_angle_beta   90.00000000
_cell_angle_gamma   90.89622498
_symmetry_Int_Tables_number   1
_chemical_formula_structural   CeSn2
_chemical_formula_sum   'Ce4 Sn8'
_cell_volume   348.06055236
_cell_formula_units_Z   4
loop_
 _symmetry_equiv_pos_site_id
 _symmetry_equiv_pos_as_xyz
  1  'x, y, z'
loop_
 _atom_site_type_symbol
 _atom_site_label
 _atom_site_symmetry_multiplicity
 _atom_site_fract_x
 _atom_site_fract_y
 _atom_site_fract_z
 _atom_site_occupancy
  Ce  Ce0  1  0.36289098  0.36289099  0.11136100  1
  Ce  Ce1  1  0.63710897  0.63710898  0.88863904  1
  Ce  Ce2  1  0.13710899  0.13710900  0.61136103  1
  Ce  Ce3  1  0.86289096  0.86289097  0.38863902  1
  Sn  Sn4  1  0.36183598  0.36183599  0.43222502  1
  Sn  Sn5  1  0.63816397  0.63816398  0.56777502  1
  Sn  Sn6  1  0.13816399  0.13816400  0.93222504  1
  Sn  Sn7  1  0.86183596  0.86183597  0.06777500  1
  Sn  Sn8  1  0.87226297  0.37226299  0.25000001  1
  Sn  Sn9  1  0.62773698  0.12773700  0.75000003  1
  Sn  Sn10  1  0.12773699  0.62773698  0.75000003  1
  Sn  Sn11  1  0.37226298  0.87226297  0.25000001  1
