# generated using pymatgen
data_LiBO3
_symmetry_space_group_name_H-M   'P 1'
_cell_length_a   3.93134236
_cell_length_b   4.00517750
_cell_length_c   8.58383846
_cell_angle_alpha   90.00000000
_cell_angle_beta   90.00000000
_cell_angle_gamma   114.16526794
_symmetry_Int_Tables_number   1
_chemical_formula_structural   LiBO3
_chemical_formula_sum   'Li2 B2 O6'
_cell_volume   123.31457874
_cell_formula_units_Z   2
loop_
 _symmetry_equiv_pos_site_id
 _symmetry_equiv_pos_as_xyz
  1  'x, y, z'
loop_
 _atom_site_type_symbol
 _atom_site_label
 _atom_site_symmetry_multiplicity
 _atom_site_fract_x
 _atom_site_fract_y
 _atom_site_fract_z
 _atom_site_occupancy
  Li  Li0  1  0.98568302  0.93309796  0.50029297  1
  Li  Li1  1  0.98568302  0.93309796  0.99970695  1
  B  B2  1  0.54940801  0.23037199  0.24999999  1
  B  B3  1  0.28982900  0.50857298  0.74999996  1
  O  O4  1  0.71604002  0.32579999  0.39625198  1
  O  O5  1  0.38023300  0.67686897  0.89549795  1
  O  O6  1  0.38023300  0.67686897  0.60450197  1
  O  O7  1  0.71604002  0.32579999  0.10374799  1
  O  O8  1  0.17455201  0.00385500  0.24999999  1
  O  O9  1  0.08030000  0.13766999  0.74999996  1
