# generated using pymatgen
data_Li4TiCr3O10
_symmetry_space_group_name_H-M   'P 1'
_cell_length_a   5.71217203
_cell_length_b   5.71217203
_cell_length_c   7.47160006
_cell_angle_alpha   70.73226166
_cell_angle_beta   70.73226166
_cell_angle_gamma   73.65317535
_symmetry_Int_Tables_number   1
_chemical_formula_structural   Li4TiCr3O10
_chemical_formula_sum   'Li4 Ti1 Cr3 O10'
_cell_volume   213.13194499
_cell_formula_units_Z   1
loop_
 _symmetry_equiv_pos_site_id
 _symmetry_equiv_pos_as_xyz
  1  'x, y, z'
loop_
 _atom_site_type_symbol
 _atom_site_label
 _atom_site_symmetry_multiplicity
 _atom_site_fract_x
 _atom_site_fract_y
 _atom_site_fract_z
 _atom_site_occupancy
  Li  Li0  1  0.17119500  0.17119500  0.32854299  1
  Li  Li1  1  0.17858200  0.17858200  0.82680798  1
  Li  Li2  1  0.82880499  0.82880500  0.67145698  1
  Li  Li3  1  0.82141799  0.82141800  0.17319199  1
  Ti  Ti4  1  0.50000000  0.50000000  0.49999999  1
  Cr  Cr5  1  0.50000000  0.50000000  -0.00000000  1
  Cr  Cr6  1  0.46785899  0.87523000  0.82846898  1
  Cr  Cr7  1  0.80643500  0.19356500  0.49999998  1
  O  O8  1  0.60173899  0.60173900  0.19489799  1
  O  O9  1  0.26116300  0.26116300  0.53355499  1
  O  O10  1  0.93434099  0.93434100  0.87077797  1
  O  O11  1  0.73883699  0.73883700  0.46644498  1
  O  O12  1  0.39826100  0.39826100  0.80510198  1
  O  O13  1  0.06565900  0.06565900  0.12922200  1
  O  O14  1  0.53214100  0.12477000  0.17153099  1
  O  O15  1  0.19356499  0.80643500  0.49999999  1
  O  O16  1  0.87523000  0.46785900  0.82846898  1
  O  O17  1  0.12476999  0.53214100  0.17153099  1
