# generated using pymatgen
data_HfPt
_symmetry_space_group_name_H-M   'P 1'
_cell_length_a   3.48093200
_cell_length_b   6.25941277
_cell_length_c   6.49595118
_cell_angle_alpha   90.00000000
_cell_angle_beta   90.00000000
_cell_angle_gamma   90.00000000
_symmetry_Int_Tables_number   1
_chemical_formula_structural   HfPt
_chemical_formula_sum   'Hf4 Pt4'
_cell_volume   141.53761799
_cell_formula_units_Z   4
loop_
 _symmetry_equiv_pos_site_id
 _symmetry_equiv_pos_as_xyz
  1  'x, y, z'
loop_
 _atom_site_type_symbol
 _atom_site_label
 _atom_site_symmetry_multiplicity
 _atom_site_fract_x
 _atom_site_fract_y
 _atom_site_fract_z
 _atom_site_occupancy
  Hf  Hf0  1  0.25000000  0.69388103  0.50663299  1
  Hf  Hf1  1  0.25000000  0.80611903  0.00663300  1
  Hf  Hf2  1  0.75000000  0.30611901  0.49336699  1
  Hf  Hf3  1  0.75000000  0.19388101  0.99336697  1
  Pt  Pt4  1  0.75000000  0.92041003  0.28354899  1
  Pt  Pt5  1  0.25000000  0.07959000  0.71645098  1
  Pt  Pt6  1  0.25000000  0.42041002  0.21645099  1
  Pt  Pt7  1  0.75000000  0.57959002  0.78354898  1
