# generated using pymatgen
data_BP3PtW
_symmetry_space_group_name_H-M   'P 1'
_cell_length_a   5.58515215
_cell_length_b   6.21426821
_cell_length_c   6.87759304
_cell_angle_alpha   116.85771179
_cell_angle_beta   113.95629883
_cell_angle_gamma   90.00000000
_symmetry_Int_Tables_number   1
_chemical_formula_structural   BP3PtW
_chemical_formula_sum   'B1 P3 Pt1 W1'
_cell_volume   189.62099587
_cell_formula_units_Z   1
loop_
 _symmetry_equiv_pos_site_id
 _symmetry_equiv_pos_as_xyz
  1  'x, y, z'
loop_
 _atom_site_type_symbol
 _atom_site_label
 _atom_site_symmetry_multiplicity
 _atom_site_fract_x
 _atom_site_fract_y
 _atom_site_fract_z
 _atom_site_occupancy
  W  W0  1  0.74999998  0.00000000  -0.00000000  1
  B  B1  1  0.24999999  0.00000000  -0.00000000  1
  Pt  Pt2  1  0.10545200  0.29105299  0.21090499  1
  P  P3  1  0.89454797  0.70894698  0.78909498  1
  P  P4  1  0.39454699  0.08014800  0.78909398  1
  P  P5  1  0.60545298  0.91985197  0.21090599  1
