# generated using pymatgen
data_LiS
_symmetry_space_group_name_H-M   'P 1'
_cell_length_a   6.56238604
_cell_length_b   6.85209179
_cell_length_c   8.01150036
_cell_angle_alpha   90.00000000
_cell_angle_beta   90.00000000
_cell_angle_gamma   90.00000000
_symmetry_Int_Tables_number   1
_chemical_formula_structural   LiS
_chemical_formula_sum   'Li8 S8'
_cell_volume   360.24569774
_cell_formula_units_Z   8
loop_
 _symmetry_equiv_pos_site_id
 _symmetry_equiv_pos_as_xyz
  1  'x, y, z'
loop_
 _atom_site_type_symbol
 _atom_site_label
 _atom_site_symmetry_multiplicity
 _atom_site_fract_x
 _atom_site_fract_y
 _atom_site_fract_z
 _atom_site_occupancy
  Li  Li0  1  0.99461399  0.65356802  0.49999998  1
  Li  Li1  1  0.49461400  0.34643201  0.00000000  1
  Li  Li2  1  0.00677700  0.17849601  0.75310197  1
  Li  Li3  1  0.00677700  0.17849601  0.24689799  1
  Li  Li4  1  0.50677700  0.82150403  0.74689797  1
  Li  Li5  1  0.50677700  0.82150403  0.25310199  1
  Li  Li6  1  0.49797300  0.32354001  0.49999998  1
  Li  Li7  1  0.99797299  0.67646002  0.00000000  1
  S  S8  1  0.37501800  0.15788800  0.73197397  1
  S  S9  1  0.37501800  0.15788800  0.26802599  1
  S  S10  1  0.87501800  0.84211203  0.76802597  1
  S  S11  1  0.87501800  0.84211203  0.23197399  1
  S  S12  1  0.85150600  0.30414301  0.49999998  1
  S  S13  1  0.35150600  0.69585702  0.00000000  1
  S  S14  1  0.39211700  0.64622302  0.49999998  1
  S  S15  1  0.89211700  0.35377701  0.00000000  1
