# generated using pymatgen
data_Ce(FeNi3)3
_symmetry_space_group_name_H-M   'P 1'
_cell_length_a   4.91997004
_cell_length_b   6.60985661
_cell_length_c   6.60985661
_cell_angle_alpha   80.78687286
_cell_angle_beta   68.15054321
_cell_angle_gamma   68.15054321
_symmetry_Int_Tables_number   1
_chemical_formula_structural   Ce(FeNi3)3
_chemical_formula_sum   'Ce1 Fe3 Ni9'
_cell_volume   185.12297309
_cell_formula_units_Z   1
loop_
 _symmetry_equiv_pos_site_id
 _symmetry_equiv_pos_as_xyz
  1  'x, y, z'
loop_
 _atom_site_type_symbol
 _atom_site_label
 _atom_site_symmetry_multiplicity
 _atom_site_fract_x
 _atom_site_fract_y
 _atom_site_fract_z
 _atom_site_occupancy
  Ce  Ce0  1  0.00000000  0.00000000  0.00000000  1
  Fe  Fe1  1  0.49999999  0.00000000  0.50000003  1
  Fe  Fe2  1  0.00000003  1.00000002  0.50000004  1
  Fe  Fe3  1  0.50000001  0.50000001  0.00000003  1
  Ni  Ni4  1  0.00000002  0.50000001  0.00000001  1
  Ni  Ni5  1  0.50000000  0.23543800  0.76456204  1
  Ni  Ni6  1  0.50000001  0.76456201  0.23543804  1
  Ni  Ni7  1  0.34669601  0.65330401  0.65330405  1
  Ni  Ni8  1  0.65330400  0.34669601  0.34669604  1
  Ni  Ni9  1  0.00000002  0.66220801  0.33779203  1
  Ni  Ni10  1  0.00000001  0.33779201  0.66220803  1
  Ni  Ni11  1  0.30539800  0.19460200  0.19460202  1
  Ni  Ni12  1  0.69460201  0.80539802  0.80539807  1
