# generated using pymatgen
data_HoCo11Rh
_symmetry_space_group_name_H-M   'P 1'
_cell_length_a   4.73865223
_cell_length_b   6.18273973
_cell_length_c   6.18273973
_cell_angle_alpha   79.96307373
_cell_angle_beta   67.46695709
_cell_angle_gamma   67.46695709
_symmetry_Int_Tables_number   1
_chemical_formula_structural   HoCo11Rh
_chemical_formula_sum   'Ho1 Co11 Rh1'
_cell_volume   154.45972014
_cell_formula_units_Z   1
loop_
 _symmetry_equiv_pos_site_id
 _symmetry_equiv_pos_as_xyz
  1  'x, y, z'
loop_
 _atom_site_type_symbol
 _atom_site_label
 _atom_site_symmetry_multiplicity
 _atom_site_fract_x
 _atom_site_fract_y
 _atom_site_fract_z
 _atom_site_occupancy
  Ho  Ho0  1  0.00000000  0.00000000  0.00000000  1
  Co  Co1  1  0.74725995  0.75274000  0.75274006  1
  Co  Co2  1  0.25273998  0.24726000  0.24726002  1
  Co  Co3  1  0.64368696  0.35631300  0.35631303  1
  Co  Co4  1  0.35631298  0.64368700  0.64368705  1
  Co  Co5  1  0.99999994  0.34784900  0.65215104  1
  Co  Co6  1  0.99999994  0.65215100  0.34784905  1
  Co  Co7  1  0.49999997  0.80450401  0.19549605  1
  Co  Co8  1  0.49999997  0.19549600  0.80450403  1
  Co  Co9  1  0.99999994  1.00000001  0.50000007  1
  Co  Co10  1  0.49999997  0.00000000  0.50000001  1
  Co  Co11  1  -0.00000000  0.50000000  0.00000003  1
  Rh  Rh12  1  0.49999997  0.50000000  0.00000003  1
