# generated using pymatgen
data_RbNbWO6
_symmetry_space_group_name_H-M   'P 1'
_cell_length_a   7.30350590
_cell_length_b   7.38701725
_cell_length_c   7.38701725
_cell_angle_alpha   60.26433563
_cell_angle_beta   60.37327194
_cell_angle_gamma   60.37327194
_symmetry_Int_Tables_number   1
_chemical_formula_structural   RbNbWO6
_chemical_formula_sum   'Rb2 Nb2 W2 O12'
_cell_volume   283.95648301
_cell_formula_units_Z   2
loop_
 _symmetry_equiv_pos_site_id
 _symmetry_equiv_pos_as_xyz
  1  'x, y, z'
loop_
 _atom_site_type_symbol
 _atom_site_label
 _atom_site_symmetry_multiplicity
 _atom_site_fract_x
 _atom_site_fract_y
 _atom_site_fract_z
 _atom_site_occupancy
  Rb  Rb0  1  0.89211901  0.39295200  0.32281100  1
  Rb  Rb1  1  0.10788200  0.67718801  0.60704800  1
  Nb  Nb2  1  0.50000001  0.00113300  0.99886701  1
  Nb  Nb3  1  0.00000000  0.00113300  0.99886701  1
  W  W4  1  0.49942701  0.00284600  0.49829901  1
  W  W5  1  0.50057201  0.50170201  0.99715401  1
  O  O6  1  0.82438901  0.92376001  0.92746200  1
  O  O7  1  0.44095401  0.30966600  0.30842700  1
  O  O8  1  0.81192701  0.32026900  0.93545001  1
  O  O9  1  0.43434601  0.93487201  0.31893600  1
  O  O10  1  0.81184501  0.93487301  0.31893600  1
  O  O11  1  0.43235501  0.32026800  0.93545001  1
  O  O12  1  0.17561100  0.07253800  0.07624000  1
  O  O13  1  0.55904701  0.69157201  0.69033400  1
  O  O14  1  0.18815400  0.68106401  0.06512800  1
  O  O15  1  0.56764501  0.06455000  0.67973201  1
  O  O16  1  0.18807300  0.06454900  0.67973201  1
  O  O17  1  0.56565301  0.68106501  0.06512800  1
