# generated using pymatgen
data_ErAlIr4
_symmetry_space_group_name_H-M   'P 1'
_cell_length_a   4.91537380
_cell_length_b   4.91537428
_cell_length_c   8.87532902
_cell_angle_alpha   90.00000000
_cell_angle_beta   90.00000000
_cell_angle_gamma   120.00000000
_symmetry_Int_Tables_number   1
_chemical_formula_structural   ErAlIr4
_chemical_formula_sum   'Er2 Al2 Ir8'
_cell_volume   185.70698386
_cell_formula_units_Z   2
loop_
 _symmetry_equiv_pos_site_id
 _symmetry_equiv_pos_as_xyz
  1  'x, y, z'
loop_
 _atom_site_type_symbol
 _atom_site_label
 _atom_site_symmetry_multiplicity
 _atom_site_fract_x
 _atom_site_fract_y
 _atom_site_fract_z
 _atom_site_occupancy
  Er  Er0  1  0.00000000  0.00000000  0.25000000  1
  Er  Er1  1  0.00000000  0.00000000  0.75000000  1
  Al  Al2  1  0.66666670  0.33333333  0.25000000  1
  Al  Al3  1  0.33333337  0.66666667  0.75000000  1
  Ir  Ir4  1  0.66248106  1.00000000  1.00000000  1
  Ir  Ir5  1  0.00000001  0.33751900  0.50000000  1
  Ir  Ir6  1  0.66248105  0.66248100  0.50000000  1
  Ir  Ir7  1  0.33751902  0.33751900  1.00000000  1
  Ir  Ir8  1  0.00000002  0.66248100  -0.00000000  1
  Ir  Ir9  1  0.33751904  1.00000000  0.50000000  1
  Ir  Ir10  1  0.66666670  0.33333333  0.75000000  1
  Ir  Ir11  1  0.33333337  0.66666667  0.25000000  1
