# generated using pymatgen
data_LiCl
_symmetry_space_group_name_H-M   'P 1'
_cell_length_a   8.16061211
_cell_length_b   8.16061211
_cell_length_c   8.16061211
_cell_angle_alpha   60.00000000
_cell_angle_beta   60.00000000
_cell_angle_gamma   60.00000000
_symmetry_Int_Tables_number   1
_chemical_formula_structural   LiCl
_chemical_formula_sum   'Li7 Cl7'
_cell_volume   384.28480113
_cell_formula_units_Z   7
loop_
 _symmetry_equiv_pos_site_id
 _symmetry_equiv_pos_as_xyz
  1  'x, y, z'
loop_
 _atom_site_type_symbol
 _atom_site_label
 _atom_site_symmetry_multiplicity
 _atom_site_fract_x
 _atom_site_fract_y
 _atom_site_fract_z
 _atom_site_occupancy
  Li  Li0  1  0.37499999  0.37499999  0.87499998  1
  Li  Li1  1  0.37499999  0.37499999  0.37499999  1
  Li  Li2  1  0.37499999  0.87499998  0.37499999  1
  Li  Li3  1  0.87499998  0.37499999  0.37499999  1
  Li  Li4  1  0.74999998  0.74999998  0.74999998  1
  Li  Li5  1  0.00000000  0.00000000  0.00000000  1
  Li  Li6  1  0.61608098  0.61607998  0.15175900  1
  Cl  Cl7  1  0.61608098  0.61607998  0.61607998  1
  Cl  Cl8  1  0.61608098  0.15175900  0.61607998  1
  Cl  Cl9  1  0.15176000  0.61607998  0.61607998  1
  Cl  Cl10  1  0.13391900  0.13392000  0.59824098  1
  Cl  Cl11  1  0.13391900  0.13392000  0.13392000  1
  Cl  Cl12  1  0.13391900  0.59824098  0.13392000  1
  Cl  Cl13  1  0.59823998  0.13392000  0.13392000  1
