# generated using pymatgen
data_Ce2RhS3
_symmetry_space_group_name_H-M   'P 1'
_cell_length_a   3.75702405
_cell_length_b   6.44811249
_cell_length_c   11.26364994
_cell_angle_alpha   104.82076263
_cell_angle_beta   90.00000000
_cell_angle_gamma   106.93744659
_symmetry_Int_Tables_number   1
_chemical_formula_structural   Ce2RhS3
_chemical_formula_sum   'Ce4 Rh2 S6'
_cell_volume   251.52877801
_cell_formula_units_Z   2
loop_
 _symmetry_equiv_pos_site_id
 _symmetry_equiv_pos_as_xyz
  1  'x, y, z'
loop_
 _atom_site_type_symbol
 _atom_site_label
 _atom_site_symmetry_multiplicity
 _atom_site_fract_x
 _atom_site_fract_y
 _atom_site_fract_z
 _atom_site_occupancy
  Ce  Ce0  1  0.30591606  0.61183102  0.20612600  1
  Ce  Ce1  1  0.69341403  0.38682701  0.80285097  1
  Ce  Ce2  1  0.00151000  0.00302000  0.00688600  1
  Ce  Ce3  1  0.88688006  0.77376102  0.56388599  1
  Rh  Rh4  1  0.11505902  0.23011901  0.42422099  1
  Rh  Rh5  1  0.25258105  0.50516102  0.63376398  1
  S  S6  1  0.72903604  0.45807301  0.35256099  1
  S  S7  1  0.66332402  0.32664801  0.05199500  1
  S  S8  1  0.34074406  0.68148802  0.94805697  1
  S  S9  1  0.96849208  0.93698303  0.22977800  1
  S  S10  1  0.03598301  0.07196500  0.78484797  1
  S  S11  1  0.50706199  0.01412400  0.49502598  1
