# generated using pymatgen
data_Y2Ga3
_symmetry_space_group_name_H-M   'P 1'
_cell_length_a   4.35294008
_cell_length_b   5.81513357
_cell_length_c   9.66146660
_cell_angle_alpha   82.15423584
_cell_angle_beta   76.98105621
_cell_angle_gamma   68.02037048
_symmetry_Int_Tables_number   1
_chemical_formula_structural   Y2Ga3
_chemical_formula_sum   'Y4 Ga6'
_cell_volume   220.58630530
_cell_formula_units_Z   2
loop_
 _symmetry_equiv_pos_site_id
 _symmetry_equiv_pos_as_xyz
  1  'x, y, z'
loop_
 _atom_site_type_symbol
 _atom_site_label
 _atom_site_symmetry_multiplicity
 _atom_site_fract_x
 _atom_site_fract_y
 _atom_site_fract_z
 _atom_site_occupancy
  Y  Y0  1  0.99458691  0.68113898  0.32968705  1
  Y  Y1  1  0.00541297  0.31886099  0.67031301  1
  Y  Y2  1  0.81127895  0.26036099  0.11708103  1
  Y  Y3  1  0.18872093  0.73963898  0.88291903  1
  Ga  Ga4  1  0.64809196  0.25843199  0.44538402  1
  Ga  Ga5  1  0.35190793  0.74156798  0.55461603  1
  Ga  Ga6  1  0.51840191  0.84697698  0.11621904  1
  Ga  Ga7  1  0.48159797  0.15302300  0.88378102  1
  Ga  Ga8  1  0.72533990  0.89062298  0.65869705  1
  Ga  Ga9  1  0.27465998  0.10937700  0.34130301  1
