# generated using pymatgen
data_Sr2Li2O3
_symmetry_space_group_name_H-M   'P 1'
_cell_length_a   3.46427989
_cell_length_b   5.83243275
_cell_length_c   5.94894934
_cell_angle_alpha   105.70324707
_cell_angle_beta   106.92785645
_cell_angle_gamma   90.00000000
_symmetry_Int_Tables_number   1
_chemical_formula_structural   Sr2Li2O3
_chemical_formula_sum   'Sr2 Li2 O3'
_cell_volume   110.29368127
_cell_formula_units_Z   1
loop_
 _symmetry_equiv_pos_site_id
 _symmetry_equiv_pos_as_xyz
  1  'x, y, z'
loop_
 _atom_site_type_symbol
 _atom_site_label
 _atom_site_symmetry_multiplicity
 _atom_site_fract_x
 _atom_site_fract_y
 _atom_site_fract_z
 _atom_site_occupancy
  Sr  Sr0  1  0.61112401  0.82374500  0.22224801  1
  Sr  Sr1  1  0.38887601  0.17625500  0.77775200  1
  Li  Li2  1  0.84758302  0.61775900  0.69516600  1
  Li  Li3  1  0.15241700  0.38224100  0.30483401  1
  O  O4  1  -0.00000000  0.50000000  0.00000001  1
  O  O5  1  0.72457301  0.26605500  0.44914599  1
  O  O6  1  0.27542700  0.73394500  0.55085401  1
