# generated using pymatgen
data_Ba3SrTi2NbO11
_symmetry_space_group_name_H-M   'P 1'
_cell_length_a   6.29687405
_cell_length_b   7.41198015
_cell_length_c   8.19897461
_cell_angle_alpha   90.00000000
_cell_angle_beta   112.58190155
_cell_angle_gamma   90.00000000
_symmetry_Int_Tables_number   1
_chemical_formula_structural   Ba3SrTi2NbO11
_chemical_formula_sum   'Ba3 Sr1 Ti2 Nb1 O11'
_cell_volume   353.32671564
_cell_formula_units_Z   1
loop_
 _symmetry_equiv_pos_site_id
 _symmetry_equiv_pos_as_xyz
  1  'x, y, z'
loop_
 _atom_site_type_symbol
 _atom_site_label
 _atom_site_symmetry_multiplicity
 _atom_site_fract_x
 _atom_site_fract_y
 _atom_site_fract_z
 _atom_site_occupancy
  Sr  Sr0  1  0.04893200  0.24999999  0.09786400  1
  Ba  Ba1  1  0.95106797  0.74999998  0.90213597  1
  Ba  Ba2  1  0.73123298  0.24999999  0.46246597  1
  Ba  Ba3  1  0.26876699  0.74999998  0.53753400  1
  Ti  Ti4  1  0.38480899  0.24999999  0.76961800  1
  Ti  Ti5  1  0.61519098  0.74999998  0.23038197  1
  O  O6  1  0.26086299  0.24999999  0.52172600  1
  Nb  Nb7  1  0.73913697  0.74999998  0.47827397  1
  O  O8  1  0.50507798  0.24999999  0.01015597  1
  O  O9  1  0.49492198  0.74999998  0.98984400  1
  O  O10  1  0.59979198  0.42942399  0.76323099  1
  O  O11  1  0.83656097  0.57057599  0.23676896  1
  O  O12  1  0.83656097  0.92942398  0.23676896  1
  O  O13  1  0.59979198  0.07057600  0.76323099  1
  O  O14  1  0.16343899  0.42942399  0.76323101  1
  O  O15  1  0.40020799  0.57057599  0.23676898  1
  O  O16  1  0.16343899  0.07057600  0.76323101  1
  O  O17  1  0.40020799  0.92942398  0.23676898  1
