# generated using pymatgen
data_CaIn
_symmetry_space_group_name_H-M   'P 1'
_cell_length_a   4.46995592
_cell_length_b   4.73727989
_cell_length_c   6.43688631
_cell_angle_alpha   90.00000000
_cell_angle_beta   110.31701660
_cell_angle_gamma   90.00000000
_symmetry_Int_Tables_number   1
_chemical_formula_structural   CaIn
_chemical_formula_sum   'Ca2 In2'
_cell_volume   127.82382279
_cell_formula_units_Z   2
loop_
 _symmetry_equiv_pos_site_id
 _symmetry_equiv_pos_as_xyz
  1  'x, y, z'
loop_
 _atom_site_type_symbol
 _atom_site_label
 _atom_site_symmetry_multiplicity
 _atom_site_fract_x
 _atom_site_fract_y
 _atom_site_fract_z
 _atom_site_occupancy
  Ca  Ca0  1  0.86348003  0.75000002  0.72696002  1
  Ca  Ca1  1  0.13652000  0.25000001  0.27304000  1
  In  In2  1  0.56991202  0.75000002  0.13982402  1
  In  In3  1  0.43008801  0.25000001  0.86017601  1
