# generated using pymatgen
data_CeGa3Ni
_symmetry_space_group_name_H-M   'P 1'
_cell_length_a   4.27926779
_cell_length_b   4.27926779
_cell_length_c   5.80764914
_cell_angle_alpha   111.61799622
_cell_angle_beta   111.61799622
_cell_angle_gamma   90.00000000
_symmetry_Int_Tables_number   1
_chemical_formula_structural   CeGa3Ni
_chemical_formula_sum   'Ce1 Ga3 Ni1'
_cell_volume   90.77485042
_cell_formula_units_Z   1
loop_
 _symmetry_equiv_pos_site_id
 _symmetry_equiv_pos_as_xyz
  1  'x, y, z'
loop_
 _atom_site_type_symbol
 _atom_site_label
 _atom_site_symmetry_multiplicity
 _atom_site_fract_x
 _atom_site_fract_y
 _atom_site_fract_z
 _atom_site_occupancy
  Ce  Ce0  1  0.99947710  0.99947707  0.99895407  1
  Ga  Ga1  1  0.41307604  0.41307603  0.82615203  1
  Ga  Ga2  1  0.26148104  0.76148105  0.52296204  1
  Ga  Ga3  1  0.76148106  0.26148102  0.52296203  1
  Ni  Ni4  1  0.65448506  0.65448505  0.30897004  1
