# generated using pymatgen
data_Li2O2
_symmetry_space_group_name_H-M   'P 1'
_cell_length_a   5.88012838
_cell_length_b   5.88012838
_cell_length_c   5.88255644
_cell_angle_alpha   60.01364899
_cell_angle_beta   60.01364899
_cell_angle_gamma   59.99999619
_symmetry_Int_Tables_number   1
_chemical_formula_structural   Li2O2
_chemical_formula_sum   'Li8 O8'
_cell_volume   143.85146029
_cell_formula_units_Z   4
loop_
 _symmetry_equiv_pos_site_id
 _symmetry_equiv_pos_as_xyz
  1  'x, y, z'
loop_
 _atom_site_type_symbol
 _atom_site_label
 _atom_site_symmetry_multiplicity
 _atom_site_fract_x
 _atom_site_fract_y
 _atom_site_fract_z
 _atom_site_occupancy
  Li  Li0  1  0.00000000  0.00000000  0.50000000  1
  Li  Li1  1  0.50000002  0.00000000  0.49999999  1
  Li  Li2  1  0.00000003  0.50000001  0.49999998  1
  Li  Li3  1  0.50000004  0.50000001  0.49999996  1
  Li  Li4  1  0.00000000  0.00000000  0.00000000  1
  Li  Li5  1  0.50000002  0.00000000  -0.00000002  1
  Li  Li6  1  0.50000004  0.50000001  -0.00000005  1
  Li  Li7  1  0.00000003  0.50000001  -0.00000003  1
  O  O8  1  0.74316307  0.74316301  0.77051094  1
  O  O9  1  0.25002405  0.73820401  0.76174796  1
  O  O10  1  0.25002402  0.25002400  0.76174798  1
  O  O11  1  0.73820404  0.25002400  0.76174797  1
  O  O12  1  0.26179605  0.74997601  0.23825195  1
  O  O13  1  0.74997607  0.74997601  0.23825193  1
  O  O14  1  0.74997604  0.26179600  0.23825196  1
  O  O15  1  0.25683702  0.25683700  0.22948898  1
