# generated using pymatgen
data_Yb2Cu
_symmetry_space_group_name_H-M   'P 1'
_cell_length_a   4.40339184
_cell_length_b   7.37010622
_cell_length_c   7.37010574
_cell_angle_alpha   120.00000000
_cell_angle_beta   90.00000000
_cell_angle_gamma   90.00000000
_symmetry_Int_Tables_number   1
_chemical_formula_structural   Yb2Cu
_chemical_formula_sum   'Yb6 Cu3'
_cell_volume   207.14069586
_cell_formula_units_Z   3
loop_
 _symmetry_equiv_pos_site_id
 _symmetry_equiv_pos_as_xyz
  1  'x, y, z'
loop_
 _atom_site_type_symbol
 _atom_site_label
 _atom_site_symmetry_multiplicity
 _atom_site_fract_x
 _atom_site_fract_y
 _atom_site_fract_z
 _atom_site_occupancy
  Yb  Yb0  1  0.50000002  0.23296799  -0.00000000  1
  Yb  Yb1  1  0.50000002  0.76703198  0.76703202  1
  Yb  Yb2  1  0.50000002  0.99999997  0.23296801  1
  Yb  Yb3  1  -0.00000000  0.00000000  0.58208702  1
  Yb  Yb4  1  -0.00000000  0.58208698  -0.00000000  1
  Yb  Yb5  1  1.00000004  0.41791299  0.41791301  1
  Cu  Cu6  1  0.50000002  0.66666665  0.33333334  1
  Cu  Cu7  1  0.50000002  0.33333332  0.66666669  1
  Cu  Cu8  1  0.00000000  0.00000000  0.00000000  1
