# generated using pymatgen
data_Na8CuO9
_symmetry_space_group_name_H-M   'P 1'
_cell_length_a   5.97855091
_cell_length_b   6.74426413
_cell_length_c   6.74426413
_cell_angle_alpha   90.00000000
_cell_angle_beta   90.00000000
_cell_angle_gamma   90.00000000
_symmetry_Int_Tables_number   1
_chemical_formula_structural   Na8CuO9
_chemical_formula_sum   'Na8 Cu1 O9'
_cell_volume   271.93497766
_cell_formula_units_Z   1
loop_
 _symmetry_equiv_pos_site_id
 _symmetry_equiv_pos_as_xyz
  1  'x, y, z'
loop_
 _atom_site_type_symbol
 _atom_site_label
 _atom_site_symmetry_multiplicity
 _atom_site_fract_x
 _atom_site_fract_y
 _atom_site_fract_z
 _atom_site_occupancy
  Na  Na0  1  0.00000000  0.00000000  0.00000000  1
  Na  Na1  1  0.00000000  0.49999999  0.49999999  1
  Na  Na2  1  0.50000001  0.82552798  0.67447199  1
  Na  Na3  1  0.50000001  0.67447199  0.17447200  1
  Na  Na4  1  0.50000001  0.32552799  0.82552798  1
  Na  Na5  1  0.50000001  0.17447200  0.32552799  1
  Na  Na6  1  0.00000000  0.49999999  -0.00000000  1
  Na  Na7  1  0.00000000  0.00000000  0.49999999  1
  Cu  Cu8  1  0.50000001  0.49999999  0.49999999  1
  O  O9  1  0.50000001  0.00000000  0.00000000  1
  O  O10  1  0.25724400  0.13919300  0.63919299  1
  O  O11  1  0.25724400  0.86080698  0.36080699  1
  O  O12  1  0.25724400  0.36080699  0.13919300  1
  O  O13  1  0.25724400  0.63919299  0.86080698  1
  O  O14  1  0.74275601  0.13919300  0.63919299  1
  O  O15  1  0.74275601  0.63919299  0.86080698  1
  O  O16  1  0.74275601  0.86080698  0.36080699  1
  O  O17  1  0.74275601  0.36080699  0.13919300  1
