# generated using pymatgen
data_Na9LiO10
_symmetry_space_group_name_H-M   'P 1'
_cell_length_a   5.72124958
_cell_length_b   5.74076462
_cell_length_c   8.74630070
_cell_angle_alpha   70.92102814
_cell_angle_beta   71.08973694
_cell_angle_gamma   80.54616547
_symmetry_Int_Tables_number   1
_chemical_formula_structural   Na9LiO10
_chemical_formula_sum   'Na9 Li1 O10'
_cell_volume   256.28685342
_cell_formula_units_Z   1
loop_
 _symmetry_equiv_pos_site_id
 _symmetry_equiv_pos_as_xyz
  1  'x, y, z'
loop_
 _atom_site_type_symbol
 _atom_site_label
 _atom_site_symmetry_multiplicity
 _atom_site_fract_x
 _atom_site_fract_y
 _atom_site_fract_z
 _atom_site_occupancy
  Li  Li0  1  0.00318208  0.99899300  0.00105797  1
  Na  Na1  1  0.09724004  0.50183500  0.30047398  1
  Na  Na2  1  0.50318306  0.49901700  0.50106697  1
  Na  Na3  1  0.59725302  0.00182400  0.80046998  1
  Na  Na4  1  0.30085805  0.50093000  0.90064597  1
  Na  Na5  1  0.80084803  0.00092800  0.40065699  1
  Na  Na6  1  0.90564107  0.49795000  0.70166097  1
  Na  Na7  1  0.40564409  0.99794900  0.20166197  1
  Na  Na8  1  0.69573606  0.50428700  0.09935298  1
  Na  Na9  1  0.19574001  0.00428500  0.59935499  1
  O  O10  1  0.05138602  0.25292800  0.15143899  1
  O  O11  1  0.55138608  0.75292800  0.65143996  1
  O  O12  1  0.66963004  0.23048200  0.94946397  1
  O  O13  1  0.16965306  0.73047900  0.44947997  1
  O  O14  1  0.93311809  0.77232300  0.85154296  1
  O  O15  1  0.43314204  0.27231900  0.35155898  1
  O  O16  1  0.76730708  0.74351700  0.25320397  1
  O  O17  1  0.26735803  0.24352300  0.75318098  1
  O  O18  1  0.33542307  0.76195100  0.04606298  1
  O  O19  1  0.83537205  0.26194300  0.54608698  1
