# generated using pymatgen
data_LiCu7
_symmetry_space_group_name_H-M   'P 1'
_cell_length_a   4.13760996
_cell_length_b   4.13760996
_cell_length_c   16.73984718
_cell_angle_alpha   90.00000000
_cell_angle_beta   90.00000000
_cell_angle_gamma   90.00000000
_symmetry_Int_Tables_number   1
_chemical_formula_structural   LiCu7
_chemical_formula_sum   'Li2 Cu14'
_cell_volume   286.58310649
_cell_formula_units_Z   2
loop_
 _symmetry_equiv_pos_site_id
 _symmetry_equiv_pos_as_xyz
  1  'x, y, z'
loop_
 _atom_site_type_symbol
 _atom_site_label
 _atom_site_symmetry_multiplicity
 _atom_site_fract_x
 _atom_site_fract_y
 _atom_site_fract_z
 _atom_site_occupancy
  Li  Li0  1  0.00000000  0.00000000  0.87417504  1
  Li  Li1  1  0.00000000  0.00000000  0.12552101  1
  Cu  Cu2  1  0.50000000  0.50000000  0.62434303  1
  Cu  Cu3  1  0.50000000  0.00000000  0.00032500  1
  Cu  Cu4  1  -0.00000000  0.50000000  0.50321502  1
  Cu  Cu5  1  0.50000000  0.00000000  0.50321502  1
  Cu  Cu6  1  -0.00000000  0.50000000  0.00032500  1
  Cu  Cu7  1  0.50000000  0.50000000  0.12455001  1
  Cu  Cu8  1  0.00000000  0.00000000  0.62520603  1
  Cu  Cu9  1  0.00000000  0.00000000  0.37595302  1
  Cu  Cu10  1  0.50000000  0.50000000  0.87647304  1
  Cu  Cu11  1  -0.00000000  0.50000000  0.24704501  1
  Cu  Cu12  1  0.50000000  0.00000000  0.74976204  1
  Cu  Cu13  1  0.50000000  0.00000000  0.24704501  1
  Cu  Cu14  1  -0.00000000  0.50000000  0.74976204  1
  Cu  Cu15  1  0.50000000  0.50000000  0.37308402  1
