# generated using pymatgen
data_Li4FeO8
_symmetry_space_group_name_H-M   'P 1'
_cell_length_a   3.18933201
_cell_length_b   7.31303310
_cell_length_c   7.31303310
_cell_angle_alpha   87.27459717
_cell_angle_beta   77.40499878
_cell_angle_gamma   77.40499878
_symmetry_Int_Tables_number   1
_chemical_formula_structural   Li4FeO8
_chemical_formula_sum   'Li4 Fe1 O8'
_cell_volume   162.45657773
_cell_formula_units_Z   1
loop_
 _symmetry_equiv_pos_site_id
 _symmetry_equiv_pos_as_xyz
  1  'x, y, z'
loop_
 _atom_site_type_symbol
 _atom_site_label
 _atom_site_symmetry_multiplicity
 _atom_site_fract_x
 _atom_site_fract_y
 _atom_site_fract_z
 _atom_site_occupancy
  Li  Li0  1  0.00000000  0.00000000  0.00000000  1
  Li  Li1  1  0.66515498  0.48213200  0.18755700  1
  Li  Li2  1  0.33484498  0.51786800  0.81244301  1
  Li  Li3  1  0.14728699  0.18755700  0.51786900  1
  Fe  Fe4  1  0.85271297  0.81244300  0.48213101  1
  O  O5  1  0.70386298  0.64141900  0.95085401  1
  O  O6  1  0.29613699  0.35858100  0.04914600  1
  O  O7  1  0.34528197  0.95085400  0.35858201  1
  O  O8  1  0.65471800  0.04914600  0.64141800  1
  O  O9  1  0.95449899  0.39031100  0.70069000  1
  O  O10  1  0.04550098  0.60968900  0.29931001  1
  O  O11  1  0.34480998  0.70069000  0.60969001  1
  O  O12  1  0.65518999  0.29931000  0.39031000  1
