# generated using pymatgen
data_Sc4Ga6Ge7
_symmetry_space_group_name_H-M   'P 1'
_cell_length_a   7.50417948
_cell_length_b   7.50417948
_cell_length_c   7.50417948
_cell_angle_alpha   109.47122192
_cell_angle_beta   109.47122192
_cell_angle_gamma   109.47122192
_symmetry_Int_Tables_number   1
_chemical_formula_structural   Sc4Ga6Ge7
_chemical_formula_sum   'Sc4 Ga6 Ge7'
_cell_volume   325.30274358
_cell_formula_units_Z   1
loop_
 _symmetry_equiv_pos_site_id
 _symmetry_equiv_pos_as_xyz
  1  'x, y, z'
loop_
 _atom_site_type_symbol
 _atom_site_label
 _atom_site_symmetry_multiplicity
 _atom_site_fract_x
 _atom_site_fract_y
 _atom_site_fract_z
 _atom_site_occupancy
  Sc  Sc0  1  0.50000000  0.00000000  0.00000001  1
  Sc  Sc1  1  0.50000003  0.50000002  0.50000004  1
  Sc  Sc2  1  0.00000000  0.00000000  0.50000000  1
  Sc  Sc3  1  0.00000003  0.50000002  0.00000003  1
  Ga  Ga4  1  0.75000002  0.25000001  0.50000003  1
  Ga  Ga5  1  0.75000003  0.50000002  0.25000004  1
  Ga  Ga6  1  0.25000003  0.50000002  0.75000003  1
  Ga  Ga7  1  0.50000005  0.75000002  0.25000005  1
  Ga  Ga8  1  0.50000002  0.25000001  0.75000002  1
  Ga  Ga9  1  0.25000005  0.75000002  0.50000004  1
  Ge  Ge10  1  0.70325004  0.70325002  0.00000006  1
  Ge  Ge11  1  0.70325000  0.00000000  0.70325001  1
  Ge  Ge12  1  0.29675006  1.00000003  0.29675006  1
  Ge  Ge13  1  0.00000002  0.29675001  0.29675001  1
  Ge  Ge14  1  0.00000004  0.70325002  0.70325003  1
  Ge  Ge15  1  0.29675002  0.29675001  1.00000001  1
  Ge  Ge16  1  0.00000000  0.00000000  0.00000000  1
