# generated using pymatgen
data_Mg2Ga2Ni9
_symmetry_space_group_name_H-M   'P 1'
_cell_length_a   5.17753983
_cell_length_b   5.17753983
_cell_length_c   8.14251900
_cell_angle_alpha   90.00000000
_cell_angle_beta   90.00000000
_cell_angle_gamma   120.00000000
_symmetry_Int_Tables_number   1
_chemical_formula_structural   Mg2Ga2Ni9
_chemical_formula_sum   'Mg2 Ga2 Ni9'
_cell_volume   189.03242621
_cell_formula_units_Z   1
loop_
 _symmetry_equiv_pos_site_id
 _symmetry_equiv_pos_as_xyz
  1  'x, y, z'
loop_
 _atom_site_type_symbol
 _atom_site_label
 _atom_site_symmetry_multiplicity
 _atom_site_fract_x
 _atom_site_fract_y
 _atom_site_fract_z
 _atom_site_occupancy
  Mg  Mg0  1  0.00000000  0.00000000  0.00000000  1
  Mg  Mg1  1  -0.00000001  0.50000000  0.25084100  1
  Ga  Ga2  1  0.50000001  0.50000000  0.74915900  1
  Ni  Ni3  1  0.50000002  0.00000000  0.74915900  1
  Ni  Ni4  1  -0.00000001  0.50000000  0.74915900  1
  Ga  Ga5  1  0.50000001  0.50000000  0.25084100  1
  Ni  Ni6  1  0.50000002  0.00000000  0.25084100  1
  Ni  Ni7  1  0.00000000  0.00000000  0.34444200  1
  Ni  Ni8  1  0.66666668  0.33333333  1.00000000  1
  Ni  Ni9  1  0.33333333  0.66666666  1.00000000  1
  Ni  Ni10  1  0.66666668  0.33333333  0.50000000  1
  Ni  Ni11  1  0.33333333  0.66666666  0.50000000  1
  Ni  Ni12  1  0.00000000  0.00000000  0.65555800  1
