# generated using pymatgen
data_Ho2GaNi2
_symmetry_space_group_name_H-M   'P 1'
_cell_length_a   4.14991903
_cell_length_b   5.30195856
_cell_length_c   5.30195856
_cell_angle_alpha   60.62955093
_cell_angle_beta   66.96102142
_cell_angle_gamma   66.96102142
_symmetry_Int_Tables_number   1
_chemical_formula_structural   Ho2GaNi2
_chemical_formula_sum   'Ho2 Ga1 Ni2'
_cell_volume   90.61584296
_cell_formula_units_Z   1
loop_
 _symmetry_equiv_pos_site_id
 _symmetry_equiv_pos_as_xyz
  1  'x, y, z'
loop_
 _atom_site_type_symbol
 _atom_site_label
 _atom_site_symmetry_multiplicity
 _atom_site_fract_x
 _atom_site_fract_y
 _atom_site_fract_z
 _atom_site_occupancy
  Ho  Ho0  1  0.20372800  0.29627200  0.29627199  1
  Ho  Ho1  1  0.79627200  0.70372800  0.70372798  1
  Ga  Ga2  1  0.00000000  0.00000000  0.00000000  1
  Ni  Ni3  1  0.50000000  0.27259000  0.72740999  1
  Ni  Ni4  1  0.50000000  0.72741000  0.27258998  1
