# generated using pymatgen
data_Y2Ga3
_symmetry_space_group_name_H-M   'P 1'
_cell_length_a   3.83894396
_cell_length_b   7.51427507
_cell_length_c   7.51427507
_cell_angle_alpha   90.00000000
_cell_angle_beta   90.00000000
_cell_angle_gamma   90.00000000
_symmetry_Int_Tables_number   1
_chemical_formula_structural   Y2Ga3
_chemical_formula_sum   'Y4 Ga6'
_cell_volume   216.76339808
_cell_formula_units_Z   2
loop_
 _symmetry_equiv_pos_site_id
 _symmetry_equiv_pos_as_xyz
  1  'x, y, z'
loop_
 _atom_site_type_symbol
 _atom_site_label
 _atom_site_symmetry_multiplicity
 _atom_site_fract_x
 _atom_site_fract_y
 _atom_site_fract_z
 _atom_site_occupancy
  Y  Y0  1  0.50000001  0.32270500  0.82270499  1
  Y  Y1  1  0.50000001  0.82270499  0.67729499  1
  Y  Y2  1  0.50000001  0.17729500  0.32270500  1
  Y  Y3  1  0.50000001  0.67729499  0.17729500  1
  Ga  Ga4  1  0.00000000  0.00000000  0.00000000  1
  Ga  Ga5  1  0.00000000  0.50000000  0.50000000  1
  Ga  Ga6  1  0.00000000  0.38346800  0.11653200  1
  Ga  Ga7  1  0.00000000  0.88346799  0.38346800  1
  Ga  Ga8  1  -0.00000000  0.11653200  0.61653199  1
  Ga  Ga9  1  0.00000000  0.61653199  0.88346799  1
