# generated using pymatgen
data_Mn2Cu7
_symmetry_space_group_name_H-M   'P 1'
_cell_length_a   4.67676020
_cell_length_b   4.71857691
_cell_length_c   12.11627579
_cell_angle_alpha   87.20185852
_cell_angle_beta   84.34675598
_cell_angle_gamma   60.29272842
_symmetry_Int_Tables_number   1
_chemical_formula_structural   Mn2Cu7
_chemical_formula_sum   'Mn4 Cu14'
_cell_volume   231.10641024
_cell_formula_units_Z   2
loop_
 _symmetry_equiv_pos_site_id
 _symmetry_equiv_pos_as_xyz
  1  'x, y, z'
loop_
 _atom_site_type_symbol
 _atom_site_label
 _atom_site_symmetry_multiplicity
 _atom_site_fract_x
 _atom_site_fract_y
 _atom_site_fract_z
 _atom_site_occupancy
  Mn  Mn0  1  0.26715097  1.00000003  0.11355701  1
  Mn  Mn1  1  0.20922198  1.00000003  0.38527401  1
  Mn  Mn2  1  0.79077795  1.00000003  0.61472603  1
  Mn  Mn3  1  0.73284895  1.00000003  0.88644304  1
  Cu  Cu4  1  0.94769095  0.67060202  0.07805102  1
  Cu  Cu5  1  0.61829297  0.32939801  0.07805101  1
  Cu  Cu6  1  0.23482198  0.49564602  0.24979601  1
  Cu  Cu7  1  0.73046796  0.50435402  0.24979602  1
  Cu  Cu8  1  0.73897597  0.00000000  0.25040502  1
  Cu  Cu9  1  0.52813797  0.33304301  0.42196602  1
  Cu  Cu10  1  0.86118095  0.66695702  0.42196602  1
  Cu  Cu11  1  0.47186197  0.66695702  0.57803402  1
  Cu  Cu12  1  0.13881899  0.33304301  0.57803402  1
  Cu  Cu13  1  0.26102399  0.00000000  0.74959502  1
  Cu  Cu14  1  0.76517796  0.50435402  0.75020403  1
  Cu  Cu15  1  0.26953198  0.49564602  0.75020402  1
  Cu  Cu16  1  0.05230899  0.32939801  0.92194903  1
  Cu  Cu17  1  0.38170697  0.67060202  0.92194903  1
