# generated using pymatgen
data_CaMnO3
_symmetry_space_group_name_H-M   'P 1'
_cell_length_a   5.55976486
_cell_length_b   5.85898113
_cell_length_c   7.64082527
_cell_angle_alpha   90.00000000
_cell_angle_beta   91.50254822
_cell_angle_gamma   90.00000000
_symmetry_Int_Tables_number   1
_chemical_formula_structural   CaMnO3
_chemical_formula_sum   'Ca4 Mn4 O12'
_cell_volume   248.81092098
_cell_formula_units_Z   4
loop_
 _symmetry_equiv_pos_site_id
 _symmetry_equiv_pos_as_xyz
  1  'x, y, z'
loop_
 _atom_site_type_symbol
 _atom_site_label
 _atom_site_symmetry_multiplicity
 _atom_site_fract_x
 _atom_site_fract_y
 _atom_site_fract_z
 _atom_site_occupancy
  Ca  Ca0  1  0.51955201  0.43199899  0.24959701  1
  Ca  Ca1  1  0.98044802  0.93199898  0.25040302  1
  Ca  Ca2  1  0.48044801  0.56800099  0.75040300  1
  Ca  Ca3  1  0.01955200  0.06800100  0.74959699  1
  Mn  Mn4  1  -0.00000000  0.49999999  -0.00000000  1
  Mn  Mn5  1  0.50000001  0.00000000  0.50000001  1
  Mn  Mn6  1  0.00000000  0.49999999  0.50000000  1
  Mn  Mn7  1  0.50000001  0.00000000  0.00000001  1
  O  O8  1  0.39697101  0.03329600  0.25614601  1
  O  O9  1  0.10302900  0.53329599  0.24385400  1
  O  O10  1  0.60302902  0.96670398  0.74385401  1
  O  O11  1  0.89697102  0.46670399  0.75614601  1
  O  O12  1  0.80479302  0.19962600  0.05239201  1
  O  O13  1  0.69520702  0.69962598  0.44760801  1
  O  O14  1  0.19290000  0.80020198  0.54968600  1
  O  O15  1  0.30710001  0.30020199  0.95031400  1
  O  O16  1  0.19520700  0.80037398  0.94760800  1
  O  O17  1  0.30479301  0.30037399  0.55239200  1
  O  O18  1  0.80710002  0.19979800  0.45031401  1
  O  O19  1  0.69290002  0.69979798  0.04968601  1
