# generated using pymatgen
data_Sr2HfO4
_symmetry_space_group_name_H-M   'P 1'
_cell_length_a   4.32194996
_cell_length_b   4.32194996
_cell_length_c   7.67668200
_cell_angle_alpha   106.34966278
_cell_angle_beta   106.34966278
_cell_angle_gamma   90.00000000
_symmetry_Int_Tables_number   1
_chemical_formula_structural   Sr2HfO4
_chemical_formula_sum   'Sr2 Hf1 O4'
_cell_volume   131.54201859
_cell_formula_units_Z   1
loop_
 _symmetry_equiv_pos_site_id
 _symmetry_equiv_pos_as_xyz
  1  'x, y, z'
loop_
 _atom_site_type_symbol
 _atom_site_label
 _atom_site_symmetry_multiplicity
 _atom_site_fract_x
 _atom_site_fract_y
 _atom_site_fract_z
 _atom_site_occupancy
  Sr  Sr0  1  0.35268099  0.35268100  0.70536199  1
  Sr  Sr1  1  0.64731899  0.64731900  0.29463798  1
  Hf  Hf2  1  0.00000000  0.00000000  0.00000000  1
  O  O3  1  0.15308000  0.15308000  0.30615999  1
  O  O4  1  0.84691999  0.84692000  0.69383997  1
  O  O5  1  0.50000000  0.00000000  -0.00000001  1
  O  O6  1  -0.00000001  0.50000000  -0.00000001  1
