# generated using pymatgen
data_PrGa4
_symmetry_space_group_name_H-M   'P 1'
_cell_length_a   4.34580803
_cell_length_b   4.34580803
_cell_length_c   6.22381258
_cell_angle_alpha   110.43395996
_cell_angle_beta   110.43395996
_cell_angle_gamma   90.00000000
_symmetry_Int_Tables_number   1
_chemical_formula_structural   PrGa4
_chemical_formula_sum   'Pr1 Ga4'
_cell_volume   102.21665035
_cell_formula_units_Z   1
loop_
 _symmetry_equiv_pos_site_id
 _symmetry_equiv_pos_as_xyz
  1  'x, y, z'
loop_
 _atom_site_type_symbol
 _atom_site_label
 _atom_site_symmetry_multiplicity
 _atom_site_fract_x
 _atom_site_fract_y
 _atom_site_fract_z
 _atom_site_occupancy
  Pr  Pr0  1  0.00000000  0.00000000  0.00000000  1
  Ga  Ga1  1  0.38671702  0.38671701  0.77343401  1
  Ga  Ga2  1  0.61328303  0.61328301  0.22656604  1
  Ga  Ga3  1  0.25000003  0.75000001  0.50000003  1
  Ga  Ga4  1  0.75000002  0.25000000  0.50000003  1
