# generated using pymatgen
data_BaBO4
_symmetry_space_group_name_H-M   'P 1'
_cell_length_a   4.74450827
_cell_length_b   4.74450827
_cell_length_c   7.09405708
_cell_angle_alpha   90.00000000
_cell_angle_beta   90.00000000
_cell_angle_gamma   96.93140411
_symmetry_Int_Tables_number   1
_chemical_formula_structural   BaBO4
_chemical_formula_sum   'Ba2 B2 O8'
_cell_volume   158.52265211
_cell_formula_units_Z   2
loop_
 _symmetry_equiv_pos_site_id
 _symmetry_equiv_pos_as_xyz
  1  'x, y, z'
loop_
 _atom_site_type_symbol
 _atom_site_label
 _atom_site_symmetry_multiplicity
 _atom_site_fract_x
 _atom_site_fract_y
 _atom_site_fract_z
 _atom_site_occupancy
  Ba  Ba0  1  0.34845102  0.34845101  0.25000000  1
  Ba  Ba1  1  0.65154905  0.65154901  0.74999999  1
  B  B2  1  0.84380606  0.84380602  0.25000000  1
  B  B3  1  0.15619401  0.15619400  0.74999999  1
  O  O4  1  0.15289805  0.81500802  0.25000000  1
  O  O5  1  0.84710202  0.18499200  0.74999999  1
  O  O6  1  0.81500802  0.15289800  0.25000000  1
  O  O7  1  0.18499205  0.84710202  0.74999999  1
  O  O8  1  0.29895702  0.29895701  0.91773899  1
  O  O9  1  0.70104305  0.70104301  0.41773900  1
  O  O10  1  0.29895702  0.29895701  0.58226099  1
  O  O11  1  0.70104305  0.70104301  0.08226100  1
