# generated using pymatgen
data_Li2O
_symmetry_space_group_name_H-M   'P 1'
_cell_length_a   3.53920197
_cell_length_b   5.98709393
_cell_length_c   5.98709440
_cell_angle_alpha   120.00000000
_cell_angle_beta   90.00000000
_cell_angle_gamma   90.00000000
_symmetry_Int_Tables_number   1
_chemical_formula_structural   Li2O
_chemical_formula_sum   'Li6 O3'
_cell_volume   109.86722535
_cell_formula_units_Z   3
loop_
 _symmetry_equiv_pos_site_id
 _symmetry_equiv_pos_as_xyz
  1  'x, y, z'
loop_
 _atom_site_type_symbol
 _atom_site_label
 _atom_site_symmetry_multiplicity
 _atom_site_fract_x
 _atom_site_fract_y
 _atom_site_fract_z
 _atom_site_occupancy
  Li  Li0  1  1.00000001  0.25581201  1.00000002  1
  Li  Li1  1  1.00000001  0.74418803  0.74418804  1
  Li  Li2  1  0.00000000  0.00000000  0.25581200  1
  Li  Li3  1  0.50000000  0.59770102  1.00000003  1
  Li  Li4  1  0.50000000  0.40229901  0.40229902  1
  Li  Li5  1  0.50000000  0.00000000  0.59770100  1
  O  O6  1  1.00000001  0.33333335  0.66666669  1
  O  O7  1  1.00000001  0.66666669  0.33333337  1
  O  O8  1  0.50000000  0.00000000  -0.00000000  1
