# generated using pymatgen
data_Li4CuF7
_symmetry_space_group_name_H-M   'P 1'
_cell_length_a   5.90244102
_cell_length_b   5.90244102
_cell_length_c   5.90244102
_cell_angle_alpha   60.00000000
_cell_angle_beta   60.00000000
_cell_angle_gamma   60.00000000
_symmetry_Int_Tables_number   1
_chemical_formula_structural   Li4CuF7
_chemical_formula_sum   'Li4 Cu1 F7'
_cell_volume   145.40521119
_cell_formula_units_Z   1
loop_
 _symmetry_equiv_pos_site_id
 _symmetry_equiv_pos_as_xyz
  1  'x, y, z'
loop_
 _atom_site_type_symbol
 _atom_site_label
 _atom_site_symmetry_multiplicity
 _atom_site_fract_x
 _atom_site_fract_y
 _atom_site_fract_z
 _atom_site_occupancy
  Li  Li0  1  0.37286099  0.37286199  0.37286199  1
  Li  Li1  1  0.37286099  0.37286199  0.88141498  1
  Li  Li2  1  0.37286099  0.88141498  0.37286199  1
  Li  Li3  1  0.88141398  0.37286199  0.37286199  1
  Cu  Cu4  1  0.00000000  0.00000000  0.00000000  1
  F  F5  1  0.23326200  0.23326200  0.76673799  1
  F  F6  1  0.23326200  0.76673799  0.23326200  1
  F  F7  1  0.76673799  0.23326200  0.23326200  1
  F  F8  1  0.25000000  0.25000000  0.25000000  1
  F  F9  1  0.76673799  0.76673799  0.23326200  1
  F  F10  1  0.23326200  0.76673799  0.76673799  1
  F  F11  1  0.76673799  0.23326200  0.76673799  1
