# generated using pymatgen
data_Li7TaAsS6
_symmetry_space_group_name_H-M   'P 1'
_cell_length_a   6.77369404
_cell_length_b   6.78962278
_cell_length_c   6.82821465
_cell_angle_alpha   91.53354645
_cell_angle_beta   90.38829803
_cell_angle_gamma   93.15343475
_symmetry_Int_Tables_number   1
_chemical_formula_structural   Li7TaAsS6
_chemical_formula_sum   'Li7 Ta1 As1 S6'
_cell_volume   313.43671554
_cell_formula_units_Z   1
loop_
 _symmetry_equiv_pos_site_id
 _symmetry_equiv_pos_as_xyz
  1  'x, y, z'
loop_
 _atom_site_type_symbol
 _atom_site_label
 _atom_site_symmetry_multiplicity
 _atom_site_fract_x
 _atom_site_fract_y
 _atom_site_fract_z
 _atom_site_occupancy
  Li  Li0  1  0.84074703  0.50474500  0.93881301  1
  Li  Li1  1  0.41663501  0.23067900  0.54441901  1
  Li  Li2  1  0.58575504  0.76272501  0.44461100  1
  Li  Li3  1  0.23511903  0.54768000  0.42136300  1
  Li  Li4  1  0.77101502  0.45201900  0.57123101  1
  Li  Li5  1  0.54411502  0.41693600  0.22768800  1
  Li  Li6  1  0.45627103  0.58200600  0.77429601  1
  Ta  Ta7  1  0.38248204  0.74186300  0.12931999  1
  S  S8  1  0.60606201  0.25011200  0.87461102  1
  S  S9  1  0.11884002  0.37949600  0.74626301  1
  S  S10  1  0.88638903  0.62984000  0.26031400  1
  As  As11  1  0.21754001  0.21603600  0.22733200  1
  S  S12  1  0.78066304  0.79541001  0.77606301  1
  S  S13  1  0.73614700  0.13092200  0.37135601  1
  S  S14  1  0.26392005  0.86673101  0.62911700  1
