# generated using pymatgen
data_Bi2S3
_symmetry_space_group_name_H-M   'P 1'
_cell_length_a   5.83175802
_cell_length_b   7.06762981
_cell_length_c   12.17007732
_cell_angle_alpha   90.00000000
_cell_angle_beta   90.00000000
_cell_angle_gamma   113.67225647
_symmetry_Int_Tables_number   1
_chemical_formula_structural   Bi2S3
_chemical_formula_sum   'Bi8 S12'
_cell_volume   459.40355444
_cell_formula_units_Z   4
loop_
 _symmetry_equiv_pos_site_id
 _symmetry_equiv_pos_as_xyz
  1  'x, y, z'
loop_
 _atom_site_type_symbol
 _atom_site_label
 _atom_site_symmetry_multiplicity
 _atom_site_fract_x
 _atom_site_fract_y
 _atom_site_fract_z
 _atom_site_occupancy
  Bi  Bi0  1  0.72522400  0.24785800  0.08966500  1
  Bi  Bi1  1  0.77477601  0.75214199  0.58966498  1
  Bi  Bi2  1  0.27477601  0.75214199  0.91033498  1
  Bi  Bi3  1  0.22522400  0.24785800  0.41033499  1
  Bi  Bi4  1  0.64095401  0.70029399  0.23045599  1
  Bi  Bi5  1  0.85904600  0.29970600  0.73045598  1
  Bi  Bi6  1  0.35904600  0.29970600  0.76954398  1
  Bi  Bi7  1  0.14095401  0.70029399  0.26954399  1
  S  S8  1  0.16854702  0.94112999  0.18249700  1
  S  S9  1  0.33145300  0.05887000  0.68249698  1
  S  S10  1  0.83145300  0.05887000  0.81750298  1
  S  S11  1  0.66854701  0.94112999  0.31750299  1
  S  S12  1  0.32837701  0.81047499  0.40095499  1
  S  S13  1  0.17162300  0.18952500  0.90095498  1
  S  S14  1  0.67162300  0.18952500  0.59904498  1
  S  S15  1  0.82837701  0.81047499  0.09904500  1
  S  S16  1  0.29651201  0.53699300  0.19889899  1
  S  S17  1  0.20348801  0.46300700  0.69889898  1
  S  S18  1  0.70348801  0.46300700  0.80110098  1
  S  S19  1  0.79651201  0.53699300  0.30110099  1
