# generated using pymatgen
data_ZrFeSi
_symmetry_space_group_name_H-M   'P 1'
_cell_length_a   5.00428581
_cell_length_b   5.12470579
_cell_length_c   8.00184441
_cell_angle_alpha   90.00000000
_cell_angle_beta   90.00000000
_cell_angle_gamma   119.22569275
_symmetry_Int_Tables_number   1
_chemical_formula_structural   ZrFeSi
_chemical_formula_sum   'Zr4 Fe4 Si4'
_cell_volume   179.08851084
_cell_formula_units_Z   4
loop_
 _symmetry_equiv_pos_site_id
 _symmetry_equiv_pos_as_xyz
  1  'x, y, z'
loop_
 _atom_site_type_symbol
 _atom_site_label
 _atom_site_symmetry_multiplicity
 _atom_site_fract_x
 _atom_site_fract_y
 _atom_site_fract_z
 _atom_site_occupancy
  Zr  Zr0  1  0.66939501  0.33878998  0.81536096  1
  Zr  Zr1  1  0.33509599  0.67019196  0.70000396  1
  Zr  Zr2  1  0.33509599  0.67019196  0.29999598  1
  Zr  Zr3  1  0.66939501  0.33878998  0.18463899  1
  Fe  Fe4  1  0.98829900  0.97659794  0.76466396  1
  Fe  Fe5  1  0.98829900  0.97659794  0.23533599  1
  Fe  Fe6  1  0.17206698  0.84195795  0.99999995  1
  Fe  Fe7  1  0.66989100  0.84195795  -0.00000000  1
  Si  Si8  1  0.17654999  0.35309998  -0.00000000  1
  Si  Si9  1  0.83137803  0.16653899  0.49999997  1
  Si  Si10  1  0.33516101  0.16653899  0.49999997  1
  Si  Si11  1  0.82922101  0.65844196  0.49999997  1
