# generated using pymatgen
data_Li5CuS7
_symmetry_space_group_name_H-M   'P 1'
_cell_length_a   6.52178192
_cell_length_b   6.52178192
_cell_length_c   7.44476128
_cell_angle_alpha   64.02291870
_cell_angle_beta   64.02291870
_cell_angle_gamma   60.00000000
_symmetry_Int_Tables_number   1
_chemical_formula_structural   Li5CuS7
_chemical_formula_sum   'Li5 Cu1 S7'
_cell_volume   236.56863872
_cell_formula_units_Z   1
loop_
 _symmetry_equiv_pos_site_id
 _symmetry_equiv_pos_as_xyz
  1  'x, y, z'
loop_
 _atom_site_type_symbol
 _atom_site_label
 _atom_site_symmetry_multiplicity
 _atom_site_fract_x
 _atom_site_fract_y
 _atom_site_fract_z
 _atom_site_occupancy
  Li  Li0  1  0.50000006  0.50000002  0.49999994  1
  Li  Li1  1  0.50000010  1.00000003  -0.00000008  1
  Li  Li2  1  0.00000003  0.50000002  -0.00000003  1
  Li  Li3  1  0.50000006  0.50000002  -0.00000005  1
  Li  Li4  1  0.00000000  0.00000000  0.00000000  1
  Cu  Cu5  1  0.75752206  0.25686601  0.22808995  1
  S  S6  1  0.24247803  0.24247801  0.77190997  1
  S  S7  1  0.24247806  0.74313402  0.77190994  1
  S  S8  1  0.74313406  0.24247801  0.77190994  1
  S  S9  1  0.25892303  0.25892301  0.22323097  1
  S  S10  1  0.74107709  0.74107702  0.77676891  1
  S  S11  1  0.25686607  0.75752202  0.22808994  1
  S  S12  1  0.75752210  0.75752202  0.22808992  1
