# generated using pymatgen
data_CdCu9
_symmetry_space_group_name_H-M   'P 1'
_cell_length_a   4.06922388
_cell_length_b   7.77178478
_cell_length_c   10.14114189
_cell_angle_alpha   95.38836670
_cell_angle_beta   90.00000000
_cell_angle_gamma   105.17658234
_symmetry_Int_Tables_number   1
_chemical_formula_structural   CdCu9
_chemical_formula_sum   'Cd1 Cu9'
_cell_volume   308.06088571
_cell_formula_units_Z   1
loop_
 _symmetry_equiv_pos_site_id
 _symmetry_equiv_pos_as_xyz
  1  'x, y, z'
loop_
 _atom_site_type_symbol
 _atom_site_label
 _atom_site_symmetry_multiplicity
 _atom_site_fract_x
 _atom_site_fract_y
 _atom_site_fract_z
 _atom_site_occupancy
  Cu  Cu0  1  0.04233801  0.08467600  0.28785398  1
  Cd  Cd1  1  0.95766213  0.91532403  0.71214592  1
  Cu  Cu2  1  0.78208308  0.56416602  0.33559396  1
  Cu  Cu3  1  0.21791705  0.43583401  0.66440595  1
  Cu  Cu4  1  0.36979709  0.73959402  0.03067196  1
  Cu  Cu5  1  0.63020305  0.26040601  0.96932794  1
  Cu  Cu6  1  0.62536905  0.25073801  0.43950497  1
  Cu  Cu7  1  0.37463109  0.74926202  0.56049494  1
  Cu  Cu8  1  0.20525905  0.41051801  0.14089897  1
  Cu  Cu9  1  0.79474109  0.58948202  0.85910093  1
