# generated using pymatgen
data_Y2AlSi3
_symmetry_space_group_name_H-M   'P 1'
_cell_length_a   5.41590738
_cell_length_b   5.41747952
_cell_length_c   8.51980972
_cell_angle_alpha   90.00000000
_cell_angle_beta   90.00000000
_cell_angle_gamma   119.32836151
_symmetry_Int_Tables_number   1
_chemical_formula_structural   Y2AlSi3
_chemical_formula_sum   'Y4 Al2 Si6'
_cell_volume   217.93585036
_cell_formula_units_Z   2
loop_
 _symmetry_equiv_pos_site_id
 _symmetry_equiv_pos_as_xyz
  1  'x, y, z'
loop_
 _atom_site_type_symbol
 _atom_site_label
 _atom_site_symmetry_multiplicity
 _atom_site_fract_x
 _atom_site_fract_y
 _atom_site_fract_z
 _atom_site_occupancy
  Y  Y0  1  0.33289303  0.66705900  0.54251902  1
  Y  Y1  1  0.67035602  0.32965300  0.42647001  1
  Y  Y2  1  0.67035602  0.32965300  0.07353000  1
  Y  Y3  1  0.33289303  0.66705900  0.95748103  1
  Al  Al4  1  0.99718501  0.00282500  0.49017902  1
  Al  Al5  1  0.99718501  0.00282500  0.00982100  1
  Si  Si6  1  0.33823601  0.16714800  0.75000002  1
  Si  Si7  1  0.83290504  0.66189000  0.75000002  1
  Si  Si8  1  0.83234002  0.16749300  0.75000002  1
  Si  Si9  1  0.66878704  0.83503300  0.25000001  1
  Si  Si10  1  0.16503802  0.33120800  0.25000001  1
  Si  Si11  1  0.16182503  0.83815500  0.25000001  1
