# generated using pymatgen
data_Li3N
_symmetry_space_group_name_H-M   'P 1'
_cell_length_a   3.10442996
_cell_length_b   3.10443068
_cell_length_c   13.93107414
_cell_angle_alpha   90.00000000
_cell_angle_beta   90.00000000
_cell_angle_gamma   119.99999237
_symmetry_Int_Tables_number   1
_chemical_formula_structural   Li3N
_chemical_formula_sum   'Li6 N2'
_cell_volume   116.27305967
_cell_formula_units_Z   2
loop_
 _symmetry_equiv_pos_site_id
 _symmetry_equiv_pos_as_xyz
  1  'x, y, z'
loop_
 _atom_site_type_symbol
 _atom_site_label
 _atom_site_symmetry_multiplicity
 _atom_site_fract_x
 _atom_site_fract_y
 _atom_site_fract_z
 _atom_site_occupancy
  Li  Li0  1  0.66666667  0.33333333  0.58972999  1
  Li  Li1  1  0.33333333  0.66666666  0.41027000  1
  Li  Li2  1  0.33333333  0.66666666  0.08973000  1
  Li  Li3  1  0.66666667  0.33333333  0.91026999  1
  Li  Li4  1  0.66666667  0.33333333  0.25000000  1
  Li  Li5  1  0.33333333  0.66666666  0.74999999  1
  N  N6  1  0.00000000  0.00000000  0.49999999  1
  N  N7  1  0.00000000  0.00000000  0.00000000  1
