# generated using pymatgen
data_Li2O2
_symmetry_space_group_name_H-M   'P 1'
_cell_length_a   5.21502638
_cell_length_b   5.21868372
_cell_length_c   6.44368744
_cell_angle_alpha   89.76657104
_cell_angle_beta   89.87724304
_cell_angle_gamma   91.80114746
_symmetry_Int_Tables_number   1
_chemical_formula_structural   Li2O2
_chemical_formula_sum   'Li8 O8'
_cell_volume   175.28009639
_cell_formula_units_Z   4
loop_
 _symmetry_equiv_pos_site_id
 _symmetry_equiv_pos_as_xyz
  1  'x, y, z'
loop_
 _atom_site_type_symbol
 _atom_site_label
 _atom_site_symmetry_multiplicity
 _atom_site_fract_x
 _atom_site_fract_y
 _atom_site_fract_z
 _atom_site_occupancy
  Li  Li0  1  0.18671799  0.18787699  0.24795500  1
  Li  Li1  1  0.68664098  0.31342999  0.49966599  1
  Li  Li2  1  0.31392199  0.68570397  0.00036400  1
  Li  Li3  1  0.81173497  0.81390097  0.75212799  1
  Li  Li4  1  0.17741799  0.17600799  0.74855900  1
  Li  Li5  1  0.82332197  0.82323197  0.25153898  1
  Li  Li6  1  0.68413798  0.31677799  0.99932999  1
  Li  Li7  1  0.31676599  0.68311697  0.50012600  1
  O  O8  1  0.78924298  0.13796999  0.25238198  1
  O  O9  1  0.86236598  0.20908399  0.74707998  1
  O  O10  1  0.30360299  0.30450999  0.96034100  1
  O  O11  1  0.30348399  0.30211399  0.53470500  1
  O  O12  1  0.69497198  0.69640497  0.04001398  1
  O  O13  1  0.69804697  0.69674397  0.46559599  1
  O  O14  1  0.13788499  0.78854597  0.24736001  1
  O  O15  1  0.21253799  0.86177996  0.75285101  1
