# generated using pymatgen
data_Ce3(SiGe)2
_symmetry_space_group_name_H-M   'P 1'
_cell_length_a   4.06139994
_cell_length_b   5.57730246
_cell_length_c   13.49420834
_cell_angle_alpha   90.00000000
_cell_angle_beta   90.00000000
_cell_angle_gamma   111.35224915
_symmetry_Int_Tables_number   1
_chemical_formula_structural   Ce3(SiGe)2
_chemical_formula_sum   'Ce6 Si4 Ge4'
_cell_volume   284.68511058
_cell_formula_units_Z   2
loop_
 _symmetry_equiv_pos_site_id
 _symmetry_equiv_pos_as_xyz
  1  'x, y, z'
loop_
 _atom_site_type_symbol
 _atom_site_label
 _atom_site_symmetry_multiplicity
 _atom_site_fract_x
 _atom_site_fract_y
 _atom_site_fract_z
 _atom_site_occupancy
  Ce  Ce0  1  0.20793498  0.41586999  0.60039199  1
  Ce  Ce1  1  0.79206497  0.58412999  0.39960799  1
  Ce  Ce2  1  0.20793498  0.41586999  0.89960798  1
  Ce  Ce3  1  0.79206497  0.58412999  0.10039200  1
  Ce  Ce4  1  0.49350394  0.98700798  0.74999998  1
  Ce  Ce5  1  0.50649601  0.01299200  0.24999999  1
  Ge  Ge6  1  0.50000001  0.00000000  0.49999999  1
  Si  Si7  1  0.50000001  0.00000000  0.99999998  1
  Si  Si8  1  0.92541896  0.85083798  0.59205199  1
  Si  Si9  1  0.07458099  0.14916200  0.40794799  1
  Ge  Ge10  1  0.92541896  0.85083798  0.90794798  1
  Ge  Ge11  1  0.07458099  0.14916200  0.09205200  1
  Si  Si12  1  0.77268098  0.54536199  0.74999998  1
  Ge  Ge13  1  0.22731897  0.45463799  0.24999999  1
