# generated using pymatgen
data_Y9Sn7
_symmetry_space_group_name_H-M   'P 1'
_cell_length_a   7.84238577
_cell_length_b   8.80290318
_cell_length_c   7.84238577
_cell_angle_alpha   116.45169830
_cell_angle_beta   90.00000000
_cell_angle_gamma   116.45169830
_symmetry_Int_Tables_number   1
_chemical_formula_structural   Y9Sn7
_chemical_formula_sum   'Y9 Sn7'
_cell_volume   420.47371105
_cell_formula_units_Z   1
loop_
 _symmetry_equiv_pos_site_id
 _symmetry_equiv_pos_as_xyz
  1  'x, y, z'
loop_
 _atom_site_type_symbol
 _atom_site_label
 _atom_site_symmetry_multiplicity
 _atom_site_fract_x
 _atom_site_fract_y
 _atom_site_fract_z
 _atom_site_occupancy
  Y  Y0  1  0.00000000  0.00000000  0.00000000  1
  Y  Y1  1  0.50000001  0.00000000  0.50000001  1
  Y  Y2  1  0.20521205  0.72004402  0.01483205  1
  Y  Y3  1  0.79478804  0.27995601  0.98516805  1
  Y  Y4  1  0.51483206  0.72004402  0.70521207  1
  Y  Y5  1  0.70521207  0.72004402  0.20521205  1
  Y  Y6  1  0.98516805  0.27995601  0.48516803  1
  Y  Y7  1  0.48516803  0.27995601  0.29478803  1
  Y  Y8  1  0.29478803  0.27995601  0.79478804  1
  Sn  Sn9  1  0.01483205  0.72004402  0.51483206  1
  Sn  Sn10  1  0.75000005  0.50000001  0.75000005  1
  Sn  Sn11  1  0.25000004  0.50000001  0.25000004  1
  Sn  Sn12  1  0.86343303  0.00000100  0.63656802  1
  Sn  Sn13  1  0.13656707  0.99999903  0.36343208  1
  Sn  Sn14  1  0.36343301  0.00000000  0.86343303  1
  Sn  Sn15  1  0.63656708  1.00000003  0.13656707  1
