# generated using pymatgen
data_LiCu
_symmetry_space_group_name_H-M   'P 1'
_cell_length_a   4.22528553
_cell_length_b   4.22528553
_cell_length_c   4.22528553
_cell_angle_alpha   60.00000000
_cell_angle_beta   60.00000000
_cell_angle_gamma   60.00000000
_symmetry_Int_Tables_number   1
_chemical_formula_structural   LiCu
_chemical_formula_sum   'Li3 Cu3'
_cell_volume   53.34002186
_cell_formula_units_Z   3
loop_
 _symmetry_equiv_pos_site_id
 _symmetry_equiv_pos_as_xyz
  1  'x, y, z'
loop_
 _atom_site_type_symbol
 _atom_site_label
 _atom_site_symmetry_multiplicity
 _atom_site_fract_x
 _atom_site_fract_y
 _atom_site_fract_z
 _atom_site_occupancy
  Li  Li0  1  0.37615099  0.87154899  0.37614999  1
  Li  Li1  1  0.37615099  0.37614999  0.37614999  1
  Li  Li2  1  0.37615099  0.37614999  0.87154899  1
  Cu  Cu3  1  0.87154999  0.37614999  0.37614999  1
  Cu  Cu4  1  0.74999999  0.74999999  0.74999999  1
  Cu  Cu5  1  0.00000000  0.00000000  0.00000000  1
