# generated using pymatgen
data_Rb5Tl3(SnS4)2
_symmetry_space_group_name_H-M   'P 1'
_cell_length_a   6.66509008
_cell_length_b   10.71570206
_cell_length_c   10.71570206
_cell_angle_alpha   75.33804321
_cell_angle_beta   71.88070679
_cell_angle_gamma   71.88070679
_symmetry_Int_Tables_number   1
_chemical_formula_structural   Rb5Tl3(SnS4)2
_chemical_formula_sum   'Rb5 Tl3 Sn2 S8'
_cell_volume   680.86487298
_cell_formula_units_Z   1
loop_
 _symmetry_equiv_pos_site_id
 _symmetry_equiv_pos_as_xyz
  1  'x, y, z'
loop_
 _atom_site_type_symbol
 _atom_site_label
 _atom_site_symmetry_multiplicity
 _atom_site_fract_x
 _atom_site_fract_y
 _atom_site_fract_z
 _atom_site_occupancy
  Rb  Rb0  1  0.76413399  0.12318299  0.87681695  1
  Rb  Rb1  1  0.26413397  0.37681698  0.62318299  1
  Rb  Rb2  1  0.73586594  0.62318297  0.37681700  1
  Rb  Rb3  1  0.23586592  0.87681696  0.12318304  1
  Tl  Tl4  1  0.75000000  0.01367300  0.48632696  1
  Rb  Rb5  1  0.74999996  0.48632698  0.01367301  1
  Tl  Tl6  1  0.24999991  0.98632696  0.51367303  1
  Tl  Tl7  1  0.24999998  0.24999999  0.25000000  1
  Sn  Sn8  1  0.74999993  0.74999997  0.74999999  1
  Sn  Sn9  1  0.24999995  0.51367298  0.98632698  1
  S  S10  1  0.62202595  0.51897798  0.78030498  1
  S  S11  1  0.42130991  0.98102196  0.71969502  1
  S  S12  1  0.87797294  0.71969597  0.98102198  1
  S  S13  1  0.07869093  0.78030397  0.51897803  1
  S  S14  1  0.37797396  0.48102198  0.21969501  1
  S  S15  1  0.57869100  0.01897800  0.28030397  1
  S  S16  1  0.12202697  0.28030399  0.01897801  1
  S  S17  1  0.92130898  0.21969599  0.48102197  1
