# generated using pymatgen
data_DyGaSi
_symmetry_space_group_name_H-M   'P 1'
_cell_length_a   5.09499216
_cell_length_b   5.43299484
_cell_length_c   5.39981413
_cell_angle_alpha   119.79817963
_cell_angle_beta   90.00000000
_cell_angle_gamma   117.96249390
_symmetry_Int_Tables_number   1
_chemical_formula_structural   DyGaSi
_chemical_formula_sum   'Dy2 Ga2 Si2'
_cell_volume   109.14399538
_cell_formula_units_Z   2
loop_
 _symmetry_equiv_pos_site_id
 _symmetry_equiv_pos_as_xyz
  1  'x, y, z'
loop_
 _atom_site_type_symbol
 _atom_site_label
 _atom_site_symmetry_multiplicity
 _atom_site_fract_x
 _atom_site_fract_y
 _atom_site_fract_z
 _atom_site_occupancy
  Dy  Dy0  1  0.87609396  0.75218802  0.12609403  1
  Dy  Dy1  1  0.12390599  0.24781201  0.87390599  1
  Ga  Ga2  1  0.99999996  0.50000001  0.50000001  1
  Ga  Ga3  1  0.49999998  0.50000001  0.50000001  1
  Si  Si4  1  0.49999998  0.00000000  0.49999999  1
  Si  Si5  1  0.49999998  0.00000000  0.99999998  1
