# generated using pymatgen
data_Tc
_symmetry_space_group_name_H-M   'P 1'
_cell_length_a   4.35869408
_cell_length_b   5.43192816
_cell_length_c   5.43192768
_cell_angle_alpha   120.00000000
_cell_angle_beta   90.00000000
_cell_angle_gamma   90.00000000
_symmetry_Int_Tables_number   1
_chemical_formula_structural   Tc
_chemical_formula_sum   Tc8
_cell_volume   111.37687199
_cell_formula_units_Z   8
loop_
 _symmetry_equiv_pos_site_id
 _symmetry_equiv_pos_as_xyz
  1  'x, y, z'
loop_
 _atom_site_type_symbol
 _atom_site_label
 _atom_site_symmetry_multiplicity
 _atom_site_fract_x
 _atom_site_fract_y
 _atom_site_fract_z
 _atom_site_occupancy
  Tc  Tc0  1  0.25000000  0.66666663  0.33333327  1
  Tc  Tc1  1  0.74999999  0.33333331  0.66666662  1
  Tc  Tc2  1  0.74999999  0.83129095  0.16870894  1
  Tc  Tc3  1  0.74999999  0.33741798  0.16870897  1
  Tc  Tc4  1  0.74999999  0.83129095  0.66258192  1
  Tc  Tc5  1  0.25000000  0.16870899  0.83129095  1
  Tc  Tc6  1  0.25000000  0.66258196  0.83129092  1
  Tc  Tc7  1  0.25000000  0.16870899  0.33741797  1
