# generated using pymatgen
data_Na2VO
_symmetry_space_group_name_H-M   'P 1'
_cell_length_a   3.68611789
_cell_length_b   3.86443400
_cell_length_c   7.04709387
_cell_angle_alpha   105.91353607
_cell_angle_beta   105.16114044
_cell_angle_gamma   90.00000000
_symmetry_Int_Tables_number   1
_chemical_formula_structural   Na2VO
_chemical_formula_sum   'Na2 V1 O1'
_cell_volume   92.89855094
_cell_formula_units_Z   1
loop_
 _symmetry_equiv_pos_site_id
 _symmetry_equiv_pos_as_xyz
  1  'x, y, z'
loop_
 _atom_site_type_symbol
 _atom_site_label
 _atom_site_symmetry_multiplicity
 _atom_site_fract_x
 _atom_site_fract_y
 _atom_site_fract_z
 _atom_site_occupancy
  V  V0  1  0.00000000  0.00000000  0.00000000  1
  Na  Na1  1  0.63102702  0.13102700  0.26205400  1
  Na  Na2  1  0.36897303  0.86897302  0.73794602  1
  O  O3  1  0.00000001  0.50000001  0.00000002  1
