# generated using pymatgen
data_KCuP4O7
_symmetry_space_group_name_H-M   'P 1'
_cell_length_a   3.88298893
_cell_length_b   7.53009415
_cell_length_c   7.53009319
_cell_angle_alpha   120.00000000
_cell_angle_beta   90.00000000
_cell_angle_gamma   90.00000000
_symmetry_Int_Tables_number   1
_chemical_formula_structural   KCuP4O7
_chemical_formula_sum   'K1 Cu1 P4 O7'
_cell_volume   190.67666233
_cell_formula_units_Z   1
loop_
 _symmetry_equiv_pos_site_id
 _symmetry_equiv_pos_as_xyz
  1  'x, y, z'
loop_
 _atom_site_type_symbol
 _atom_site_label
 _atom_site_symmetry_multiplicity
 _atom_site_fract_x
 _atom_site_fract_y
 _atom_site_fract_z
 _atom_site_occupancy
  K  K0  1  0.00000000  0.00000000  0.00000000  1
  Cu  Cu1  1  0.50000001  0.49999998  1.00000000  1
  P  P2  1  0.50000001  0.49999998  0.49999999  1
  P  P3  1  0.50000001  0.00000000  0.50000001  1
  P  P4  1  0.50000001  0.78973496  0.57946997  1
  P  P5  1  0.50000001  0.57946897  0.78973399  1
  O  O6  1  1.00000002  0.49999998  0.49999999  1
  O  O7  1  0.50000001  0.21026499  0.78973401  1
  O  O8  1  -0.00000000  0.49999998  1.00000000  1
  O  O9  1  0.00000000  0.00000000  0.50000001  1
  O  O10  1  0.50000001  0.42053098  0.21026598  1
  O  O11  1  0.50000001  0.21026499  0.42053000  1
  O  O12  1  0.50000001  0.78973496  0.21026596  1
