# generated using pymatgen
data_Li6NO11
_symmetry_space_group_name_H-M   'P 1'
_cell_length_a   5.63129377
_cell_length_b   5.63129377
_cell_length_c   7.57700491
_cell_angle_alpha   69.48024750
_cell_angle_beta   69.48024750
_cell_angle_gamma   69.25135803
_symmetry_Int_Tables_number   1
_chemical_formula_structural   Li6NO11
_chemical_formula_sum   'Li6 N1 O11'
_cell_volume   203.28845975
_cell_formula_units_Z   1
loop_
 _symmetry_equiv_pos_site_id
 _symmetry_equiv_pos_as_xyz
  1  'x, y, z'
loop_
 _atom_site_type_symbol
 _atom_site_label
 _atom_site_symmetry_multiplicity
 _atom_site_fract_x
 _atom_site_fract_y
 _atom_site_fract_z
 _atom_site_occupancy
  Li  Li0  1  0.31881000  0.30901099  0.15516399  1
  Li  Li1  1  0.67076100  0.66174298  0.32122298  1
  Li  Li2  1  0.33825700  0.32923899  0.67877698  1
  Li  Li3  1  0.69098900  0.68118998  0.84483597  1
  Li  Li4  1  0.00567902  0.99432098  0.49999998  1
  Li  Li5  1  0.97500398  0.02499600  -0.00000001  1
  O  O6  1  0.97445899  0.35343299  0.33073898  1
  N  N7  1  0.64656699  0.02554100  0.66926098  1
  O  O8  1  0.77397400  0.78239698  0.04341498  1
  O  O9  1  0.21760300  0.22602599  0.95658497  1
  O  O10  1  0.03726501  0.63560799  0.66818098  1
  O  O11  1  0.36439201  0.96273498  0.33181898  1
  O  O12  1  0.67710699  0.32289299  -0.00000001  1
  O  O13  1  0.10245800  0.09384600  0.69811598  1
  O  O14  1  0.42634300  0.42169099  0.38333498  1
  O  O15  1  0.90615400  0.89754198  0.30188398  1
  O  O16  1  0.57830900  0.57365699  0.61666497  1
  O  O17  1  0.29587101  0.70412898  -0.00000001  1
