# generated using pymatgen
data_Li3CuO6
_symmetry_space_group_name_H-M   'P 1'
_cell_length_a   5.30759001
_cell_length_b   5.52152586
_cell_length_c   7.60386992
_cell_angle_alpha   90.00000000
_cell_angle_beta   90.00000000
_cell_angle_gamma   90.00000000
_symmetry_Int_Tables_number   1
_chemical_formula_structural   Li3CuO6
_chemical_formula_sum   'Li6 Cu2 O12'
_cell_volume   222.83897737
_cell_formula_units_Z   2
loop_
 _symmetry_equiv_pos_site_id
 _symmetry_equiv_pos_as_xyz
  1  'x, y, z'
loop_
 _atom_site_type_symbol
 _atom_site_label
 _atom_site_symmetry_multiplicity
 _atom_site_fract_x
 _atom_site_fract_y
 _atom_site_fract_z
 _atom_site_occupancy
  Li  Li0  1  0.49355700  0.71307402  0.50000001  1
  Li  Li1  1  0.99355700  0.28692601  0.00000000  1
  Li  Li2  1  0.01928900  0.17571700  0.50000001  1
  Li  Li3  1  0.51928900  0.82428302  0.00000000  1
  Li  Li4  1  0.51247000  0.26534101  0.75287001  1
  Li  Li5  1  0.01247000  0.73465902  0.25287000  1
  Cu  Cu6  1  0.51247000  0.26534101  0.24713000  1
  Cu  Cu7  1  0.01247000  0.73465902  0.74713001  1
  O  O8  1  0.18627100  0.44161701  0.69371301  1
  O  O9  1  0.27873000  0.96373402  0.29315700  1
  O  O10  1  0.77873000  0.03626600  0.20684300  1
  O  O11  1  0.68627100  0.55838301  0.80628701  1
  O  O12  1  0.77873000  0.03626600  0.79315701  1
  O  O13  1  0.68627100  0.55838301  0.19371300  1
  O  O14  1  0.18627100  0.44161701  0.30628700  1
  O  O15  1  0.27873000  0.96373402  0.70684301  1
  O  O16  1  0.92093200  0.77907602  0.50000001  1
  O  O17  1  0.61127900  0.27637701  0.50000001  1
  O  O18  1  0.11127900  0.72362302  0.00000000  1
  O  O19  1  0.42093200  0.22092401  0.00000000  1
