# generated using pymatgen
data_Mn(AlNi)2
_symmetry_space_group_name_H-M   'P 1'
_cell_length_a   3.03012991
_cell_length_b   3.03012991
_cell_length_c   13.94581032
_cell_angle_alpha   90.00000000
_cell_angle_beta   90.00000000
_cell_angle_gamma   90.00000000
_symmetry_Int_Tables_number   1
_chemical_formula_structural   Mn(AlNi)2
_chemical_formula_sum   'Mn2 Al4 Ni4'
_cell_volume   128.04606905
_cell_formula_units_Z   2
loop_
 _symmetry_equiv_pos_site_id
 _symmetry_equiv_pos_as_xyz
  1  'x, y, z'
loop_
 _atom_site_type_symbol
 _atom_site_label
 _atom_site_symmetry_multiplicity
 _atom_site_fract_x
 _atom_site_fract_y
 _atom_site_fract_z
 _atom_site_occupancy
  Mn  Mn0  1  0.50000001  0.50000001  0.18368700  1
  Mn  Mn1  1  0.50000001  0.50000001  0.39483099  1
  Al  Al2  1  0.50000001  0.50000001  0.60516899  1
  Al  Al3  1  0.50000001  0.50000001  0.81631298  1
  Al  Al4  1  0.00000000  0.00000000  0.90652898  1
  Ni  Ni5  1  0.00000000  0.00000000  0.09347100  1
  Ni  Ni6  1  0.00000000  0.00000000  0.29531799  1
  Al  Al7  1  0.00000000  0.00000000  0.49999999  1
  Ni  Ni8  1  0.00000000  0.00000000  0.70468198  1
  Ni  Ni9  1  0.50000001  0.50000001  0.00000000  1
