# generated using pymatgen
data_Pr(FeSi)2
_symmetry_space_group_name_H-M   'P 1'
_cell_length_a   3.98722792
_cell_length_b   3.98722792
_cell_length_c   5.97143078
_cell_angle_alpha   109.50315094
_cell_angle_beta   109.50315094
_cell_angle_gamma   90.00000000
_symmetry_Int_Tables_number   1
_chemical_formula_structural   Pr(FeSi)2
_chemical_formula_sum   'Pr1 Fe2 Si2'
_cell_volume   83.68593629
_cell_formula_units_Z   1
loop_
 _symmetry_equiv_pos_site_id
 _symmetry_equiv_pos_as_xyz
  1  'x, y, z'
loop_
 _atom_site_type_symbol
 _atom_site_label
 _atom_site_symmetry_multiplicity
 _atom_site_fract_x
 _atom_site_fract_y
 _atom_site_fract_z
 _atom_site_occupancy
  Pr  Pr0  1  0.00000000  0.00000000  0.00000000  1
  Fe  Fe1  1  0.75000002  0.25000001  0.50000000  1
  Fe  Fe2  1  0.25000001  0.75000002  0.50000000  1
  Si  Si3  1  0.62615902  0.62615902  0.25231801  1
  Si  Si4  1  0.37384101  0.37384101  0.74768199  1
