# generated using pymatgen
data_BaY4Al4Pd3
_symmetry_space_group_name_H-M   'P 1'
_cell_length_a   4.04980516
_cell_length_b   5.44186306
_cell_length_c   13.58747387
_cell_angle_alpha   90.00000000
_cell_angle_beta   90.00000000
_cell_angle_gamma   90.00000000
_symmetry_Int_Tables_number   1
_chemical_formula_structural   BaY4Al4Pd3
_chemical_formula_sum   'Ba1 Y4 Al4 Pd3'
_cell_volume   299.44734074
_cell_formula_units_Z   1
loop_
 _symmetry_equiv_pos_site_id
 _symmetry_equiv_pos_as_xyz
  1  'x, y, z'
loop_
 _atom_site_type_symbol
 _atom_site_label
 _atom_site_symmetry_multiplicity
 _atom_site_fract_x
 _atom_site_fract_y
 _atom_site_fract_z
 _atom_site_occupancy
  Ba  Ba0  1  0.24999999  0.76806799  0.94933001  1
  Y  Y1  1  0.24999999  0.73193199  0.44933000  1
  Y  Y2  1  0.24999999  0.30022700  0.80777701  1
  Y  Y3  1  0.74999997  0.26806800  0.55067001  1
  Y  Y4  1  0.74999997  0.23193200  0.05067000  1
  Al  Al5  1  0.74999997  0.69977299  0.19222300  1
  Al  Al6  1  0.24999999  0.19977300  0.30777700  1
  Al  Al7  1  0.74999997  0.80022699  0.69222301  1
  Al  Al8  1  0.74999997  0.47973299  0.36564000  1
  Pd  Pd9  1  0.74999997  0.02026700  0.86564001  1
  Pd  Pd10  1  0.24999999  0.97973299  0.13436000  1
  Pd  Pd11  1  0.24999999  0.52026699  0.63436001  1
