# generated using pymatgen
data_Mg4Ag3
_symmetry_space_group_name_H-M   'P 1'
_cell_length_a   3.97592592
_cell_length_b   7.08499193
_cell_length_c   11.51915359
_cell_angle_alpha   90.00000000
_cell_angle_beta   90.00000000
_cell_angle_gamma   90.00000000
_symmetry_Int_Tables_number   1
_chemical_formula_structural   Mg4Ag3
_chemical_formula_sum   'Mg8 Ag6'
_cell_volume   324.48768078
_cell_formula_units_Z   2
loop_
 _symmetry_equiv_pos_site_id
 _symmetry_equiv_pos_as_xyz
  1  'x, y, z'
loop_
 _atom_site_type_symbol
 _atom_site_label
 _atom_site_symmetry_multiplicity
 _atom_site_fract_x
 _atom_site_fract_y
 _atom_site_fract_z
 _atom_site_occupancy
  Mg  Mg0  1  0.50000001  0.41463800  0.81489903  1
  Mg  Mg1  1  0.50000001  0.58536201  0.18510101  1
  Mg  Mg2  1  0.50000001  0.91463801  0.68510102  1
  Mg  Mg3  1  0.50000001  0.08536200  0.31489901  1
  Mg  Mg4  1  0.00000000  0.50000000  0.50000002  1
  Mg  Mg5  1  0.00000000  0.00000000  0.00000000  1
  Mg  Mg6  1  0.50000001  0.26477100  0.55236002  1
  Mg  Mg7  1  0.50000001  0.73522901  0.44764002  1
  Ag  Ag8  1  0.50000001  0.76477101  0.94764003  1
  Ag  Ag9  1  0.50000001  0.23522900  0.05236000  1
  Ag  Ag10  1  0.00000000  0.13228700  0.79795703  1
  Ag  Ag11  1  0.00000000  0.86771301  0.20204301  1
  Ag  Ag12  1  0.00000000  0.63228701  0.70204302  1
  Ag  Ag13  1  0.00000000  0.36771300  0.29795701  1
