# generated using pymatgen
data_YGa2
_symmetry_space_group_name_H-M   'P 1'
_cell_length_a   5.33459187
_cell_length_b   5.33459187
_cell_length_c   8.84356213
_cell_angle_alpha   90.00000000
_cell_angle_beta   90.00000000
_cell_angle_gamma   120.00000000
_symmetry_Int_Tables_number   1
_chemical_formula_structural   YGa2
_chemical_formula_sum   'Y4 Ga8'
_cell_volume   217.95169938
_cell_formula_units_Z   4
loop_
 _symmetry_equiv_pos_site_id
 _symmetry_equiv_pos_as_xyz
  1  'x, y, z'
loop_
 _atom_site_type_symbol
 _atom_site_label
 _atom_site_symmetry_multiplicity
 _atom_site_fract_x
 _atom_site_fract_y
 _atom_site_fract_z
 _atom_site_occupancy
  Y  Y0  1  0.66666668  0.33333333  0.56456999  1
  Y  Y1  1  0.33333333  0.66666666  0.43542999  1
  Y  Y2  1  0.33333333  0.66666666  0.06457000  1
  Y  Y3  1  0.66666668  0.33333333  0.93542999  1
  Ga  Ga4  1  0.00000000  0.00000000  0.49999999  1
  Ga  Ga5  1  0.00000000  0.00000000  0.00000000  1
  Ga  Ga6  1  0.17245300  0.34490599  0.74999999  1
  Ga  Ga7  1  0.17245299  0.82754699  0.74999999  1
  Ga  Ga8  1  0.65509400  0.82754699  0.74999999  1
  Ga  Ga9  1  0.82754701  0.65509399  0.25000000  1
  Ga  Ga10  1  0.82754702  0.17245300  0.25000000  1
  Ga  Ga11  1  0.34490600  0.17245300  0.25000000  1
