# generated using pymatgen
data_Ce3Fe3Si2C7
_symmetry_space_group_name_H-M   'P 1'
_cell_length_a   6.10443401
_cell_length_b   6.10443306
_cell_length_c   7.48111296
_cell_angle_alpha   90.00000000
_cell_angle_beta   90.00000000
_cell_angle_gamma   120.00000763
_symmetry_Int_Tables_number   1
_chemical_formula_structural   Ce3Fe3Si2C7
_chemical_formula_sum   'Ce3 Fe3 Si2 C7'
_cell_volume   241.42795166
_cell_formula_units_Z   1
loop_
 _symmetry_equiv_pos_site_id
 _symmetry_equiv_pos_as_xyz
  1  'x, y, z'
loop_
 _atom_site_type_symbol
 _atom_site_label
 _atom_site_symmetry_multiplicity
 _atom_site_fract_x
 _atom_site_fract_y
 _atom_site_fract_z
 _atom_site_occupancy
  Ce  Ce0  1  0.33333338  0.66666670  0.66519500  1
  Ce  Ce1  1  0.66666669  0.33333335  0.33480500  1
  Ce  Ce2  1  0.00000000  0.00000000  0.00000000  1
  Fe  Fe3  1  0.00000000  0.00000000  0.50000000  1
  Fe  Fe4  1  0.33333338  0.66666670  0.16963400  1
  Fe  Fe5  1  0.66666669  0.33333335  0.83036600  1
  C  C6  1  0.32207601  0.16103801  0.67725400  1
  C  C7  1  0.67792405  0.83896205  0.32274600  1
  Si  Si8  1  1.00000003  0.50000003  -0.00000000  1
  C  C9  1  0.16103806  0.83896205  0.32274600  1
  Si  Si10  1  0.50000003  0.50000003  1.00000001  1
  C  C11  1  0.83896201  0.16103801  0.67725400  1
  C  C12  1  0.16103802  0.32207602  0.32274600  1
  C  C13  1  0.50000000  0.00000000  0.00000000  1
  C  C14  1  0.83896204  0.67792404  0.67725400  1
