# generated using pymatgen
data_Li8WO9
_symmetry_space_group_name_H-M   'P 1'
_cell_length_a   4.83564854
_cell_length_b   4.83564854
_cell_length_c   9.45642185
_cell_angle_alpha   89.93832397
_cell_angle_beta   89.93832397
_cell_angle_gamma   95.60686493
_symmetry_Int_Tables_number   1
_chemical_formula_structural   Li8WO9
_chemical_formula_sum   'Li8 W1 O9'
_cell_volume   220.06600286
_cell_formula_units_Z   1
loop_
 _symmetry_equiv_pos_site_id
 _symmetry_equiv_pos_as_xyz
  1  'x, y, z'
loop_
 _atom_site_type_symbol
 _atom_site_label
 _atom_site_symmetry_multiplicity
 _atom_site_fract_x
 _atom_site_fract_y
 _atom_site_fract_z
 _atom_site_occupancy
  Li  Li0  1  0.00000000  0.00000000  0.00000000  1
  Li  Li1  1  0.02719500  0.02719500  0.33140701  1
  Li  Li2  1  0.97280500  0.97280496  0.66859308  1
  Li  Li3  1  0.50324700  0.50324698  0.84194306  1
  Li  Li4  1  0.49675300  0.49675298  0.15805704  1
  Li  Li5  1  0.50000000  0.49999998  0.50000005  1
  O  O6  1  0.69746700  0.69746697  0.00155204  1
  Li  Li7  1  0.67761100  0.67761097  0.67128706  1
  O  O8  1  0.30253300  0.30253299  0.99844805  1
  Li  Li9  1  0.32238900  0.32238899  0.32871303  1
  O  O10  1  0.19638603  0.81279996  0.16668004  1
  W  W11  1  0.19489903  0.80510096  0.50000005  1
  O  O12  1  0.18720003  0.80361396  0.83332006  1
  O  O13  1  0.71110100  0.71110097  0.32530405  1
  O  O14  1  0.28889900  0.28889899  0.67469604  1
  O  O15  1  0.81279997  0.19638599  0.16668004  1
  O  O16  1  0.80510097  0.19489899  0.50000005  1
  O  O17  1  0.80361397  0.18719999  0.83332006  1
