# generated using pymatgen
data_Rb2NaTlF6
_symmetry_space_group_name_H-M   'P 1'
_cell_length_a   6.32573366
_cell_length_b   6.32573366
_cell_length_c   6.32573366
_cell_angle_alpha   60.00000000
_cell_angle_beta   60.00000381
_cell_angle_gamma   60.00000000
_symmetry_Int_Tables_number   1
_chemical_formula_structural   Rb2NaTlF6
_chemical_formula_sum   'Rb2 Na1 Tl1 F6'
_cell_volume   178.98544757
_cell_formula_units_Z   1
loop_
 _symmetry_equiv_pos_site_id
 _symmetry_equiv_pos_as_xyz
  1  'x, y, z'
loop_
 _atom_site_type_symbol
 _atom_site_label
 _atom_site_symmetry_multiplicity
 _atom_site_fract_x
 _atom_site_fract_y
 _atom_site_fract_z
 _atom_site_occupancy
  Rb  Rb0  1  0.74999998  0.75000002  0.75000000  1
  Rb  Rb1  1  0.24999999  0.25000001  0.25000000  1
  Na  Na2  1  0.00000000  0.00000000  0.00000000  1
  Tl  Tl3  1  0.49999999  0.50000001  0.50000000  1
  F  F4  1  0.22041798  0.77958202  0.77958200  1
  F  F5  1  0.77958198  0.77958202  0.22041800  1
  F  F6  1  0.77958199  0.22041801  0.22041801  1
  F  F7  1  0.22041798  0.77958202  0.22041799  1
  F  F8  1  0.77958199  0.22041801  0.77958201  1
  F  F9  1  0.22041799  0.22041801  0.77958200  1
