# generated using pymatgen
data_Mg6FeAgO9
_symmetry_space_group_name_H-M   'P 1'
_cell_length_a   7.28747511
_cell_length_b   7.28747511
_cell_length_c   7.28747511
_cell_angle_alpha   60.00000000
_cell_angle_beta   60.00000000
_cell_angle_gamma   60.00000000
_symmetry_Int_Tables_number   1
_chemical_formula_structural   Mg6FeAgO9
_chemical_formula_sum   'Mg6 Fe1 Ag1 O9'
_cell_volume   273.66310827
_cell_formula_units_Z   1
loop_
 _symmetry_equiv_pos_site_id
 _symmetry_equiv_pos_as_xyz
  1  'x, y, z'
loop_
 _atom_site_type_symbol
 _atom_site_label
 _atom_site_symmetry_multiplicity
 _atom_site_fract_x
 _atom_site_fract_y
 _atom_site_fract_z
 _atom_site_occupancy
  Mg  Mg0  1  0.74996599  0.25003400  0.74996599  1
  Mg  Mg1  1  0.25003400  0.74996599  0.25003400  1
  Mg  Mg2  1  0.25003400  0.25003400  0.74996599  1
  Mg  Mg3  1  0.25003400  0.74996599  0.74996599  1
  Mg  Mg4  1  0.74996599  0.74996599  0.25003400  1
  Mg  Mg5  1  0.74996599  0.25003400  0.25003400  1
  Ag  Ag6  1  0.25000000  0.25000000  0.25000000  1
  Fe  Fe7  1  0.74999999  0.74999999  0.74999999  1
  O  O8  1  0.00000000  0.00000000  0.00000000  1
  O  O9  1  0.64897499  0.64897499  0.64897499  1
  O  O10  1  0.88910299  0.37029899  0.37029899  1
  O  O11  1  0.64897499  0.64897499  0.05307500  1
  O  O12  1  0.37029999  0.37029899  0.37029899  1
  O  O13  1  0.05307500  0.64897499  0.64897499  1
  O  O14  1  0.37029999  0.37029899  0.88910199  1
  O  O15  1  0.64897499  0.05307500  0.64897499  1
  O  O16  1  0.37029999  0.88910199  0.37029899  1
