# generated using pymatgen
data_ErMg
_symmetry_space_group_name_H-M   'P 1'
_cell_length_a   3.52483797
_cell_length_b   3.52483773
_cell_length_c   5.47061396
_cell_angle_alpha   90.00000000
_cell_angle_beta   90.00000000
_cell_angle_gamma   120.00000000
_symmetry_Int_Tables_number   1
_chemical_formula_structural   ErMg
_chemical_formula_sum   'Er1 Mg1'
_cell_volume   58.86335176
_cell_formula_units_Z   1
loop_
 _symmetry_equiv_pos_site_id
 _symmetry_equiv_pos_as_xyz
  1  'x, y, z'
loop_
 _atom_site_type_symbol
 _atom_site_label
 _atom_site_symmetry_multiplicity
 _atom_site_fract_x
 _atom_site_fract_y
 _atom_site_fract_z
 _atom_site_occupancy
  Er  Er0  1  0.66666666  0.33333333  0.75000001  1
  Mg  Mg1  1  0.33333331  0.66666666  0.25000000  1
