# generated using pymatgen
data_Li2O2
_symmetry_space_group_name_H-M   'P 1'
_cell_length_a   4.21465921
_cell_length_b   6.11626482
_cell_length_c   7.99843740
_cell_angle_alpha   103.59405518
_cell_angle_beta   105.26008606
_cell_angle_gamma   90.11251831
_symmetry_Int_Tables_number   1
_chemical_formula_structural   Li2O2
_chemical_formula_sum   'Li10 O10'
_cell_volume   192.89278409
_cell_formula_units_Z   5
loop_
 _symmetry_equiv_pos_site_id
 _symmetry_equiv_pos_as_xyz
  1  'x, y, z'
loop_
 _atom_site_type_symbol
 _atom_site_label
 _atom_site_symmetry_multiplicity
 _atom_site_fract_x
 _atom_site_fract_y
 _atom_site_fract_z
 _atom_site_occupancy
  Li  Li0  1  0.19179100  0.10835100  0.39103501  1
  Li  Li1  1  0.00000002  0.49999999  -0.00000001  1
  Li  Li2  1  0.80820900  0.89164899  0.60896500  1
  Li  Li3  1  0.00000000  0.00000000  0.00000000  1
  Li  Li4  1  0.43731399  0.18671900  0.79808302  1
  Li  Li5  1  0.56268601  0.81328099  0.20191699  1
  Li  Li6  1  0.79533798  0.38134999  0.59463002  1
  Li  Li7  1  0.60046099  0.30518500  0.19883100  1
  Li  Li8  1  0.20466202  0.61864999  0.40537000  1
  Li  Li9  1  0.39953901  0.69481499  0.80116901  1
  O  O10  1  0.88295497  0.19053000  0.80835403  1
  O  O11  1  0.69359897  0.08228500  0.38430402  1
  O  O12  1  0.11022301  0.32108500  0.21912700  1
  O  O13  1  0.30501100  0.36159400  0.61903001  1
  O  O14  1  0.88977699  0.67891499  0.78087301  1
  O  O15  1  0.50000000  0.49999999  -0.00000001  1
  O  O16  1  0.69498900  0.63840599  0.38097000  1
  O  O17  1  0.11704503  0.80946999  0.19164598  1
  O  O18  1  0.30640102  0.91771499  0.61569600  1
  O  O19  1  0.49999998  0.00000000  0.00000001  1
