# generated using pymatgen
data_Li4WO7
_symmetry_space_group_name_H-M   'P 1'
_cell_length_a   5.87447977
_cell_length_b   5.92632818
_cell_length_c   5.98073387
_cell_angle_alpha   60.30046844
_cell_angle_beta   64.29079437
_cell_angle_gamma   90.00000000
_symmetry_Int_Tables_number   1
_chemical_formula_structural   Li4WO7
_chemical_formula_sum   'Li4 W1 O7'
_cell_volume   156.69277016
_cell_formula_units_Z   1
loop_
 _symmetry_equiv_pos_site_id
 _symmetry_equiv_pos_as_xyz
  1  'x, y, z'
loop_
 _atom_site_type_symbol
 _atom_site_label
 _atom_site_symmetry_multiplicity
 _atom_site_fract_x
 _atom_site_fract_y
 _atom_site_fract_z
 _atom_site_occupancy
  Li  Li0  1  0.00000001  0.49999998  0.49999999  1
  Li  Li1  1  0.50000003  0.49999998  -0.00000002  1
  Li  Li2  1  0.00000000  0.00000000  0.49999999  1
  Li  Li3  1  0.50000002  0.00000000  -0.00000003  1
  O  O4  1  0.24026402  0.28802999  0.42393998  1
  W  W5  1  0.70937704  0.74240598  0.02010097  1
  O  O6  1  0.24900503  0.78260897  0.43478198  1
  O  O7  1  0.75973604  0.71196998  0.57605995  1
  O  O8  1  0.70937703  0.23749299  0.02010096  1
  O  O9  1  0.29062302  0.25759399  0.97989897  1
  O  O10  1  0.75099503  0.21739099  0.56521795  1
  O  O11  1  0.29062303  0.76250697  0.97989897  1
