# generated using pymatgen
data_LiCe(CoO)4
_symmetry_space_group_name_H-M   'P 1'
_cell_length_a   5.58185196
_cell_length_b   6.15367889
_cell_length_c   6.15367889
_cell_angle_alpha   60.38385773
_cell_angle_beta   63.02910614
_cell_angle_gamma   63.02910614
_symmetry_Int_Tables_number   1
_chemical_formula_structural   LiCe(CoO)4
_chemical_formula_sum   'Li1 Ce1 Co4 O4'
_cell_volume   156.42851142
_cell_formula_units_Z   1
loop_
 _symmetry_equiv_pos_site_id
 _symmetry_equiv_pos_as_xyz
  1  'x, y, z'
loop_
 _atom_site_type_symbol
 _atom_site_label
 _atom_site_symmetry_multiplicity
 _atom_site_fract_x
 _atom_site_fract_y
 _atom_site_fract_z
 _atom_site_occupancy
  Li  Li0  1  0.89394501  0.35605500  0.85605499  1
  Ce  Ce1  1  0.10605499  0.64394500  0.14394500  1
  Co  Co2  1  0.50000000  1.00000000  0.50000000  1
  Co  Co3  1  1.00000000  1.00000000  0.49999999  1
  Co  Co4  1  0.50000000  0.50000000  0.50000000  1
  Co  Co5  1  0.50000001  0.00000000  1.00000000  1
  O  O6  1  0.29889900  0.16590300  0.23629900  1
  O  O7  1  0.70110100  0.83409700  0.76370100  1
  O  O8  1  0.70110101  0.26370100  0.33409699  1
  O  O9  1  0.29889900  0.73629900  0.66590300  1
