# generated using pymatgen
data_Sr2CuBiO4
_symmetry_space_group_name_H-M   'P 1'
_cell_length_a   3.95061493
_cell_length_b   4.28490210
_cell_length_c   7.95105314
_cell_angle_alpha   103.09375000
_cell_angle_beta   90.00000000
_cell_angle_gamma   90.00000000
_symmetry_Int_Tables_number   1
_chemical_formula_structural   Sr2CuBiO4
_chemical_formula_sum   'Sr2 Cu1 Bi1 O4'
_cell_volume   131.09602470
_cell_formula_units_Z   1
loop_
 _symmetry_equiv_pos_site_id
 _symmetry_equiv_pos_as_xyz
  1  'x, y, z'
loop_
 _atom_site_type_symbol
 _atom_site_label
 _atom_site_symmetry_multiplicity
 _atom_site_fract_x
 _atom_site_fract_y
 _atom_site_fract_z
 _atom_site_occupancy
  Sr  Sr0  1  0.75000001  0.40417399  0.79485598  1
  Sr  Sr1  1  0.25000000  0.59582598  0.20514399  1
  Bi  Bi2  1  0.75000001  0.11712500  0.39102399  1
  Cu  Cu3  1  0.25000000  0.88287497  0.60897597  1
  O  O4  1  0.75000001  0.04022300  0.09769500  1
  O  O5  1  0.25000000  0.95977697  0.90230497  1
  O  O6  1  0.75000001  0.67063098  0.49246898  1
  O  O7  1  0.25000000  0.32936899  0.50753098  1
