# generated using pymatgen
data_V6Si3C
_symmetry_space_group_name_H-M   'P 1'
_cell_length_a   2.98026395
_cell_length_b   5.32268429
_cell_length_c   7.88400602
_cell_angle_alpha   90.00000000
_cell_angle_beta   90.00000000
_cell_angle_gamma   106.25774384
_symmetry_Int_Tables_number   1
_chemical_formula_structural   V6Si3C
_chemical_formula_sum   'V6 Si3 C1'
_cell_volume   120.06296294
_cell_formula_units_Z   1
loop_
 _symmetry_equiv_pos_site_id
 _symmetry_equiv_pos_as_xyz
  1  'x, y, z'
loop_
 _atom_site_type_symbol
 _atom_site_label
 _atom_site_symmetry_multiplicity
 _atom_site_fract_x
 _atom_site_fract_y
 _atom_site_fract_z
 _atom_site_occupancy
  V  V0  1  0.03236100  0.06472200  0.75000000  1
  V  V1  1  0.96763906  0.93527801  0.25000000  1
  V  V2  1  0.37459505  0.74919001  0.54493600  1
  V  V3  1  0.62540502  0.25081000  0.45506400  1
  V  V4  1  0.37459505  0.74919001  0.95506400  1
  V  V5  1  0.62540502  0.25081000  0.04493600  1
  Si  Si6  1  0.74206804  0.48413601  0.75000000  1
  Si  Si7  1  0.25793203  0.51586401  0.25000000  1
  C  C8  1  0.00000000  0.00000000  0.50000000  1
  Si  Si9  1  0.00000000  0.00000000  0.00000000  1
