# generated using pymatgen
data_CaSn2
_symmetry_space_group_name_H-M   'P 1'
_cell_length_a   7.80527687
_cell_length_b   8.13152599
_cell_length_c   8.09910965
_cell_angle_alpha   90.00000000
_cell_angle_beta   70.75505066
_cell_angle_gamma   90.00000000
_symmetry_Int_Tables_number   1
_chemical_formula_structural   CaSn2
_chemical_formula_sum   'Ca6 Sn12'
_cell_volume   485.31527481
_cell_formula_units_Z   6
loop_
 _symmetry_equiv_pos_site_id
 _symmetry_equiv_pos_as_xyz
  1  'x, y, z'
loop_
 _atom_site_type_symbol
 _atom_site_label
 _atom_site_symmetry_multiplicity
 _atom_site_fract_x
 _atom_site_fract_y
 _atom_site_fract_z
 _atom_site_occupancy
  Ca  Ca0  1  0.93105100  0.67881400  0.69221305  1
  Ca  Ca1  1  0.43105100  0.82118600  0.69221304  1
  Ca  Ca2  1  0.56894900  0.17881400  0.30778703  1
  Ca  Ca3  1  0.74759200  0.66965300  0.25580203  1
  Ca  Ca4  1  0.00000000  0.00000000  0.00000000  1
  Ca  Ca5  1  0.06894900  0.32118600  0.30778701  1
  Sn  Sn6  1  0.75240800  0.16965300  0.74419805  1
  Sn  Sn7  1  0.24759200  0.83034700  0.25580202  1
  Sn  Sn8  1  0.25240800  0.33034700  0.74419803  1
  Sn  Sn9  1  0.50000000  0.50000000  0.00000002  1
  Sn  Sn10  1  0.37004000  0.13196900  0.01233401  1
  Sn  Sn11  1  0.14446000  0.03289400  0.58253102  1
  Sn  Sn12  1  0.62996000  0.86803100  0.98766605  1
  Sn  Sn13  1  0.64446000  0.46710600  0.58253104  1
  Sn  Sn14  1  0.12996000  0.63196900  0.98766604  1
  Sn  Sn15  1  0.35554000  0.53289400  0.41746903  1
  Sn  Sn16  1  0.85554000  0.96710600  0.41746904  1
  Sn  Sn17  1  0.87004000  0.36803100  0.01233403  1
