# generated using pymatgen
data_Mg2Al3Si2
_symmetry_space_group_name_H-M   'P 1'
_cell_length_a   4.00946188
_cell_length_b   5.45216560
_cell_length_c   6.60111952
_cell_angle_alpha   100.17697906
_cell_angle_beta   90.00000000
_cell_angle_gamma   111.57350159
_symmetry_Int_Tables_number   1
_chemical_formula_structural   Mg2Al3Si2
_chemical_formula_sum   'Mg2 Al3 Si2'
_cell_volume   131.74883858
_cell_formula_units_Z   1
loop_
 _symmetry_equiv_pos_site_id
 _symmetry_equiv_pos_as_xyz
  1  'x, y, z'
loop_
 _atom_site_type_symbol
 _atom_site_label
 _atom_site_symmetry_multiplicity
 _atom_site_fract_x
 _atom_site_fract_y
 _atom_site_fract_z
 _atom_site_occupancy
  Mg  Mg0  1  0.38057707  0.76115398  0.67725098  1
  Mg  Mg1  1  0.61942304  0.23884599  0.32274900  1
  Al  Al2  1  0.69476805  0.38953599  0.86669800  1
  Al  Al3  1  0.00000000  0.00000000  0.00000000  1
  Al  Al4  1  0.30523205  0.61046398  0.13330198  1
  Si  Si5  1  0.90648609  0.81297198  0.36042697  1
  Si  Si6  1  0.09351402  0.18702800  0.63957301  1
