# generated using pymatgen
data_Ca2MnFeO6
_symmetry_space_group_name_H-M   'P 1'
_cell_length_a   5.38596392
_cell_length_b   5.56248188
_cell_length_c   7.71353865
_cell_angle_alpha   90.00000000
_cell_angle_beta   90.05696869
_cell_angle_gamma   90.00000000
_symmetry_Int_Tables_number   1
_chemical_formula_structural   Ca2MnFeO6
_chemical_formula_sum   'Ca4 Mn2 Fe2 O12'
_cell_volume   231.09231006
_cell_formula_units_Z   2
loop_
 _symmetry_equiv_pos_site_id
 _symmetry_equiv_pos_as_xyz
  1  'x, y, z'
loop_
 _atom_site_type_symbol
 _atom_site_label
 _atom_site_symmetry_multiplicity
 _atom_site_fract_x
 _atom_site_fract_y
 _atom_site_fract_z
 _atom_site_occupancy
  Ca  Ca0  1  0.98641402  0.94552502  0.24937405  1
  Ca  Ca1  1  0.51358601  0.44552501  0.25062603  1
  Ca  Ca2  1  0.48641401  0.55447501  0.74937404  1
  Ca  Ca3  1  0.01358600  0.05447500  0.75062602  1
  Mn  Mn4  1  0.00000000  0.50000001  -0.00000000  1
  Mn  Mn5  1  0.50000001  0.00000000  0.50000003  1
  Fe  Fe6  1  0.00000000  0.50000001  0.50000001  1
  Fe  Fe7  1  0.50000001  0.00000000  0.00000002  1
  O  O8  1  0.90777301  0.47274001  0.74857806  1
  O  O9  1  0.79770401  0.20120300  0.04784504  1
  O  O10  1  0.80287101  0.20357900  0.45288305  1
  O  O11  1  0.69712901  0.70357902  0.04711703  1
  O  O12  1  0.70229601  0.70120302  0.45215504  1
  O  O13  1  0.59222701  0.97274002  0.75142204  1
  O  O14  1  0.40777301  0.02726000  0.24857802  1
  O  O15  1  0.29770400  0.29879701  0.54784503  1
  O  O16  1  0.30287100  0.29642101  0.95288303  1
  O  O17  1  0.20229600  0.79879702  0.95215503  1
  O  O18  1  0.19712900  0.79642102  0.54711702  1
  O  O19  1  0.09222700  0.52726001  0.25142201  1
