# generated using pymatgen
data_SrNi2P
_symmetry_space_group_name_H-M   'P 1'
_cell_length_a   4.63367891
_cell_length_b   4.63367891
_cell_length_c   9.19988441
_cell_angle_alpha   90.00000000
_cell_angle_beta   90.00000000
_cell_angle_gamma   90.00000000
_symmetry_Int_Tables_number   1
_chemical_formula_structural   SrNi2P
_chemical_formula_sum   'Sr2 Ni4 P2'
_cell_volume   197.53053675
_cell_formula_units_Z   2
loop_
 _symmetry_equiv_pos_site_id
 _symmetry_equiv_pos_as_xyz
  1  'x, y, z'
loop_
 _atom_site_type_symbol
 _atom_site_label
 _atom_site_symmetry_multiplicity
 _atom_site_fract_x
 _atom_site_fract_y
 _atom_site_fract_z
 _atom_site_occupancy
  Sr  Sr0  1  0.50000001  0.00000000  0.69071497  1
  Sr  Sr1  1  0.00000000  0.50000001  0.30928499  1
  Ni  Ni2  1  0.00000000  0.50000001  0.91413696  1
  Ni  Ni3  1  0.50000001  0.00000000  0.08586300  1
  Ni  Ni4  1  0.00000000  0.00000000  0.00000000  1
  Ni  Ni5  1  0.50000001  0.50000001  0.00000000  1
  P  P6  1  0.00000000  0.50000001  0.65378697  1
  P  P7  1  0.50000001  0.00000000  0.34621298  1
