# generated using pymatgen
data_CoGe11
_symmetry_space_group_name_H-M   'P 1'
_cell_length_a   6.01847792
_cell_length_b   6.01847792
_cell_length_c   6.01847792
_cell_angle_alpha   90.00000000
_cell_angle_beta   90.00000000
_cell_angle_gamma   90.00000000
_symmetry_Int_Tables_number   1
_chemical_formula_structural   CoGe11
_chemical_formula_sum   'Co1 Ge11'
_cell_volume   218.00176712
_cell_formula_units_Z   1
loop_
 _symmetry_equiv_pos_site_id
 _symmetry_equiv_pos_as_xyz
  1  'x, y, z'
loop_
 _atom_site_type_symbol
 _atom_site_label
 _atom_site_symmetry_multiplicity
 _atom_site_fract_x
 _atom_site_fract_y
 _atom_site_fract_z
 _atom_site_occupancy
  Co  Co0  1  0.11465300  0.88534701  0.38534701  1
  Ge  Ge1  1  0.88534701  0.38534701  0.11465300  1
  Ge  Ge2  1  0.38534701  0.11465300  0.88534701  1
  Ge  Ge3  1  0.61465301  0.61465301  0.61465301  1
  Ge  Ge4  1  0.50156101  0.49843901  0.99843901  1
  Ge  Ge5  1  0.49843901  0.99843901  0.50156101  1
  Ge  Ge6  1  0.99843901  0.50156101  0.49843901  1
  Ge  Ge7  1  0.00156100  0.00156100  0.00156100  1
  Ge  Ge8  1  0.89058701  0.10941300  0.60941301  1
  Ge  Ge9  1  0.10941300  0.60941301  0.89058701  1
  Ge  Ge10  1  0.60941301  0.89058701  0.10941300  1
  Ge  Ge11  1  0.39058701  0.39058701  0.39058701  1
