# generated using pymatgen
data_Fe3Si
_symmetry_space_group_name_H-M   'P 1'
_cell_length_a   4.22539043
_cell_length_b   4.22539043
_cell_length_c   7.30093622
_cell_angle_alpha   73.17955780
_cell_angle_beta   73.17955780
_cell_angle_gamma   59.99998856
_symmetry_Int_Tables_number   1
_chemical_formula_structural   Fe3Si
_chemical_formula_sum   'Fe3 Si1'
_cell_volume   106.39839314
_cell_formula_units_Z   1
loop_
 _symmetry_equiv_pos_site_id
 _symmetry_equiv_pos_as_xyz
  1  'x, y, z'
loop_
 _atom_site_type_symbol
 _atom_site_label
 _atom_site_symmetry_multiplicity
 _atom_site_fract_x
 _atom_site_fract_y
 _atom_site_fract_z
 _atom_site_occupancy
  Fe  Fe0  1  0.99505199  0.99505206  0.01484408  1
  Fe  Fe1  1  0.50478099  0.50478103  0.48565705  1
  Fe  Fe2  1  0.37530600  0.37530602  0.87408205  1
  Si  Si3  1  0.87486099  0.87486105  0.37541708  1
