# generated using pymatgen
data_Li4CuO8
_symmetry_space_group_name_H-M   'P 1'
_cell_length_a   5.97234583
_cell_length_b   5.97234583
_cell_length_c   6.04332685
_cell_angle_alpha   60.38778687
_cell_angle_beta   60.38778687
_cell_angle_gamma   60.00000381
_symmetry_Int_Tables_number   1
_chemical_formula_structural   Li4CuO8
_chemical_formula_sum   'Li4 Cu1 O8'
_cell_volume   153.31048314
_cell_formula_units_Z   1
loop_
 _symmetry_equiv_pos_site_id
 _symmetry_equiv_pos_as_xyz
  1  'x, y, z'
loop_
 _atom_site_type_symbol
 _atom_site_label
 _atom_site_symmetry_multiplicity
 _atom_site_fract_x
 _atom_site_fract_y
 _atom_site_fract_z
 _atom_site_occupancy
  Li  Li0  1  0.49999998  0.49999998  0.50000001  1
  Li  Li1  1  0.49999998  0.00000000  -0.00000000  1
  Li  Li2  1  -0.00000001  0.49999998  -0.00000000  1
  Li  Li3  1  0.49999998  0.49999998  -0.00000000  1
  Cu  Cu4  1  0.00000000  0.00000000  0.00000000  1
  O  O5  1  0.74718497  0.29692299  0.20870700  1
  O  O6  1  0.25281499  0.25281499  0.79129302  1
  O  O7  1  0.25281498  0.70307698  0.79129302  1
  O  O8  1  0.70307697  0.25281499  0.79129301  1
  O  O9  1  0.26812699  0.26812699  0.19561900  1
  O  O10  1  0.73187296  0.73187298  0.80438101  1
  O  O11  1  0.29692298  0.74718498  0.20870700  1
  O  O12  1  0.74718496  0.74718498  0.20870700  1
