# generated using pymatgen
data_K4Cu3Bi2S11
_symmetry_space_group_name_H-M   'P 1'
_cell_length_a   4.06626081
_cell_length_b   9.52606392
_cell_length_c   15.07700253
_cell_angle_alpha   90.00000000
_cell_angle_beta   90.00000000
_cell_angle_gamma   90.00000000
_symmetry_Int_Tables_number   1
_chemical_formula_structural   K4Cu3Bi2S11
_chemical_formula_sum   'K4 Cu3 Bi2 S11'
_cell_volume   584.01463475
_cell_formula_units_Z   1
loop_
 _symmetry_equiv_pos_site_id
 _symmetry_equiv_pos_as_xyz
  1  'x, y, z'
loop_
 _atom_site_type_symbol
 _atom_site_label
 _atom_site_symmetry_multiplicity
 _atom_site_fract_x
 _atom_site_fract_y
 _atom_site_fract_z
 _atom_site_occupancy
  K  K0  1  0.75000003  0.54876600  0.82514903  1
  K  K1  1  0.75000003  0.04876600  0.67485102  1
  K  K2  1  0.25000001  0.45123400  0.17485101  1
  K  K3  1  0.25000001  0.95123401  0.32514901  1
  Bi  Bi4  1  0.75000003  0.33818500  0.45010901  1
  Cu  Cu5  1  0.25000001  0.16181500  0.95010903  1
  Cu  Cu6  1  0.25000001  0.66181501  0.54989102  1
  Cu  Cu7  1  0.75000003  0.83818501  0.04989100  1
  Bi  Bi8  1  0.75000003  0.23619400  0.29637901  1
  S  S9  1  0.75000003  0.31928900  0.00702700  1
  S  S10  1  0.25000001  0.26380600  0.79637903  1
  S  S11  1  0.25000001  0.51911800  0.40270201  1
  S  S12  1  0.25000001  0.76380601  0.70362102  1
  S  S13  1  0.75000003  0.98088201  0.90270203  1
  S  S14  1  0.25000001  0.01911800  0.09729800  1
  S  S15  1  0.75000003  0.73619401  0.20362101  1
  S  S16  1  0.25000001  0.18071100  0.50702702  1
  S  S17  1  0.75000003  0.81928901  0.49297302  1
  S  S18  1  0.25000001  0.68071101  0.99297303  1
  S  S19  1  0.75000003  0.48088200  0.59729802  1
