# generated using pymatgen
data_KRb2Br3
_symmetry_space_group_name_H-M   'P 1'
_cell_length_a   7.89828300
_cell_length_b   7.89828300
_cell_length_c   15.32772255
_cell_angle_alpha   90.00000000
_cell_angle_beta   90.00000000
_cell_angle_gamma   90.00000000
_symmetry_Int_Tables_number   1
_chemical_formula_structural   KRb2Br3
_chemical_formula_sum   'Rb6 K3 Br9'
_cell_volume   956.18739100
_cell_formula_units_Z   3
loop_
 _symmetry_equiv_pos_site_id
 _symmetry_equiv_pos_as_xyz
  1  'x, y, z'
loop_
 _atom_site_type_symbol
 _atom_site_label
 _atom_site_symmetry_multiplicity
 _atom_site_fract_x
 _atom_site_fract_y
 _atom_site_fract_z
 _atom_site_occupancy
  Rb  Rb0  1  0.00000000  0.00000000  0.33432101  1
  Rb  Rb1  1  0.00000000  0.00000000  0.66567902  1
  Rb  Rb2  1  0.50000000  0.50000000  0.16567900  1
  Rb  Rb3  1  0.50000000  0.50000000  0.83432102  1
  Rb  Rb4  1  0.00000000  0.00000000  0.00000000  1
  Rb  Rb5  1  0.50000000  0.50000000  0.50000001  1
  K  K6  1  0.18871200  0.81128800  0.15455600  1
  K  K7  1  0.18871200  0.81128800  0.84544402  1
  Br  Br8  1  0.21327600  0.78672400  0.50000001  1
  K  K9  1  0.28672400  0.28672400  -0.00000000  1
  Br  Br10  1  0.31128800  0.31128800  0.34544401  1
  Br  Br11  1  0.31128800  0.31128800  0.65455602  1
  Br  Br12  1  0.68871200  0.68871200  0.34544401  1
  Br  Br13  1  0.68871200  0.68871200  0.65455602  1
  Br  Br14  1  0.71327600  0.71327600  0.00000000  1
  Br  Br15  1  0.78672400  0.21327600  0.50000001  1
  Br  Br16  1  0.81128800  0.18871200  0.15455600  1
  Br  Br17  1  0.81128800  0.18871200  0.84544402  1
