# generated using pymatgen
data_PrAg3
_symmetry_space_group_name_H-M   'P 1'
_cell_length_a   4.48609400
_cell_length_b   4.48609400
_cell_length_c   5.69079161
_cell_angle_alpha   113.21320343
_cell_angle_beta   113.21320343
_cell_angle_gamma   90.00000000
_symmetry_Int_Tables_number   1
_chemical_formula_structural   PrAg3
_chemical_formula_sum   'Pr1 Ag3'
_cell_volume   95.08435350
_cell_formula_units_Z   1
loop_
 _symmetry_equiv_pos_site_id
 _symmetry_equiv_pos_as_xyz
  1  'x, y, z'
loop_
 _atom_site_type_symbol
 _atom_site_label
 _atom_site_symmetry_multiplicity
 _atom_site_fract_x
 _atom_site_fract_y
 _atom_site_fract_z
 _atom_site_occupancy
  Pr  Pr0  1  0.00000000  0.00000000  0.00000000  1
  Ag  Ag1  1  0.74999997  0.24999999  0.49999996  1
  Ag  Ag2  1  0.24999995  0.74999997  0.49999995  1
  Ag  Ag3  1  0.49999996  0.49999998  -0.00000006  1
