# generated using pymatgen
data_Rb2NaScF6
_symmetry_space_group_name_H-M   'P 1'
_cell_length_a   6.02202320
_cell_length_b   7.02663183
_cell_length_c   7.02663231
_cell_angle_alpha   60.00000000
_cell_angle_beta   90.00000000
_cell_angle_gamma   90.00000000
_symmetry_Int_Tables_number   1
_chemical_formula_structural   Rb2NaScF6
_chemical_formula_sum   'Rb2 Na1 Sc1 F6'
_cell_volume   257.49421901
_cell_formula_units_Z   1
loop_
 _symmetry_equiv_pos_site_id
 _symmetry_equiv_pos_as_xyz
  1  'x, y, z'
loop_
 _atom_site_type_symbol
 _atom_site_label
 _atom_site_symmetry_multiplicity
 _atom_site_fract_x
 _atom_site_fract_y
 _atom_site_fract_z
 _atom_site_occupancy
  Rb  Rb0  1  0.74999997  0.66666669  0.66666664  1
  Rb  Rb1  1  0.24999999  0.33333334  0.33333332  1
  Na  Na2  1  0.49999998  0.00000000  -0.00000000  1
  Sc  Sc3  1  0.00000000  0.00000000  0.00000000  1
  F  F4  1  0.74999997  0.16656901  0.66686198  1
  F  F5  1  0.24999999  0.33313801  0.83343098  1
  F  F6  1  0.74999997  0.66686202  0.16656899  1
  F  F7  1  0.24999999  0.83343103  0.33313798  1
  F  F8  1  0.24999999  0.83343103  0.83343097  1
  F  F9  1  0.74999997  0.16656901  0.16656899  1
