# generated using pymatgen
data_Pr5Sn4
_symmetry_space_group_name_H-M   'P 1'
_cell_length_a   6.49483204
_cell_length_b   9.61604691
_cell_length_c   9.61615372
_cell_angle_alpha   120.00036621
_cell_angle_beta   90.00000000
_cell_angle_gamma   90.00000000
_symmetry_Int_Tables_number   1
_chemical_formula_structural   Pr5Sn4
_chemical_formula_sum   'Pr10 Sn8'
_cell_volume   520.10966426
_cell_formula_units_Z   2
loop_
 _symmetry_equiv_pos_site_id
 _symmetry_equiv_pos_as_xyz
  1  'x, y, z'
loop_
 _atom_site_type_symbol
 _atom_site_label
 _atom_site_symmetry_multiplicity
 _atom_site_fract_x
 _atom_site_fract_y
 _atom_site_fract_z
 _atom_site_occupancy
  Pr  Pr0  1  0.50000100  0.66691901  0.33345600  1
  Pr  Pr1  1  0.50000100  0.33308101  0.66653699  1
  Pr  Pr2  1  0.00000100  0.33308101  0.66654399  1
  Pr  Pr3  1  0.00000100  0.66691901  0.33346300  1
  Pr  Pr4  1  0.74999800  0.00000000  0.74261898  1
  Pr  Pr5  1  0.75000600  0.74284601  0.00023001  1
  Pr  Pr6  1  0.75000600  0.25715400  0.25738400  1
  Pr  Pr7  1  0.24999800  1.00000002  0.25738101  1
  Pr  Pr8  1  0.25000600  0.25715400  0.99976998  1
  Pr  Pr9  1  0.25000600  0.74284601  0.74261599  1
  Sn  Sn10  1  0.49995700  0.00000000  0.00000100  1
  Sn  Sn11  1  0.99995699  0.00000000  0.99999897  1
  Sn  Sn12  1  0.75001400  0.00000000  0.38473299  1
  Sn  Sn13  1  0.75000900  0.38461401  0.00004301  1
  Sn  Sn14  1  0.75000900  0.61538601  0.61542799  1
  Sn  Sn15  1  0.25001400  1.00000002  0.61526700  1
  Sn  Sn16  1  0.25000900  0.61538601  0.99995698  1
  Sn  Sn17  1  0.25000900  0.38461401  0.38457200  1
