# generated using pymatgen
data_Y2InNi2
_symmetry_space_group_name_H-M   'P 1'
_cell_length_a   3.73880911
_cell_length_b   7.36621714
_cell_length_c   7.36621714
_cell_angle_alpha   90.00000000
_cell_angle_beta   90.00000000
_cell_angle_gamma   90.00000000
_symmetry_Int_Tables_number   1
_chemical_formula_structural   Y2InNi2
_chemical_formula_sum   'Y4 In2 Ni4'
_cell_volume   202.87210019
_cell_formula_units_Z   2
loop_
 _symmetry_equiv_pos_site_id
 _symmetry_equiv_pos_as_xyz
  1  'x, y, z'
loop_
 _atom_site_type_symbol
 _atom_site_label
 _atom_site_symmetry_multiplicity
 _atom_site_fract_x
 _atom_site_fract_y
 _atom_site_fract_z
 _atom_site_occupancy
  Y  Y0  1  0.49999999  0.17312500  0.67312499  1
  Y  Y1  1  0.49999999  0.67312499  0.82687498  1
  Y  Y2  1  0.49999999  0.32687499  0.17312500  1
  Y  Y3  1  0.49999999  0.82687498  0.32687499  1
  In  In4  1  -0.00000000  0.49999999  0.49999999  1
  In  In5  1  0.00000000  0.00000000  0.00000000  1
  Ni  Ni6  1  0.00000000  0.87957998  0.62041999  1
  Ni  Ni7  1  0.00000000  0.37957999  0.87957998  1
  Ni  Ni8  1  0.00000000  0.62041999  0.12042000  1
  Ni  Ni9  1  0.00000000  0.12042000  0.37957999  1
