# generated using pymatgen
data_Hf5Si3C
_symmetry_space_group_name_H-M   'P 1'
_cell_length_a   5.62451077
_cell_length_b   8.33852386
_cell_length_c   8.33852386
_cell_angle_alpha   120.00000000
_cell_angle_beta   90.00000000
_cell_angle_gamma   90.00000000
_symmetry_Int_Tables_number   1
_chemical_formula_structural   Hf5Si3C
_chemical_formula_sum   'Hf10 Si6 C2'
_cell_volume   338.68326366
_cell_formula_units_Z   2
loop_
 _symmetry_equiv_pos_site_id
 _symmetry_equiv_pos_as_xyz
  1  'x, y, z'
loop_
 _atom_site_type_symbol
 _atom_site_label
 _atom_site_symmetry_multiplicity
 _atom_site_fract_x
 _atom_site_fract_y
 _atom_site_fract_z
 _atom_site_occupancy
  Hf  Hf0  1  -0.00000000  0.33333334  0.66666671  1
  Hf  Hf1  1  -0.00000000  0.66666669  0.33333337  1
  Hf  Hf2  1  0.75000003  0.77614002  0.77614006  1
  Hf  Hf3  1  0.75000003  0.00000000  0.22386001  1
  Hf  Hf4  1  0.75000003  0.22386001  0.00000001  1
  Hf  Hf5  1  0.50000002  0.33333334  0.66666671  1
  Hf  Hf6  1  0.50000002  0.66666669  0.33333337  1
  Hf  Hf7  1  0.25000001  0.22386001  0.22386002  1
  Hf  Hf8  1  0.25000001  1.00000003  0.77614007  1
  Hf  Hf9  1  0.25000001  0.77614002  1.00000008  1
  Si  Si10  1  0.75000003  0.40016201  0.40016203  1
  Si  Si11  1  0.75000003  0.00000000  0.59983803  1
  Si  Si12  1  0.75000003  0.59983802  1.00000007  1
  Si  Si13  1  0.25000001  0.59983802  0.59983805  1
  Si  Si14  1  0.25000001  0.00000000  0.40016202  1
  Si  Si15  1  0.25000001  0.40016201  1.00000007  1
  C  C16  1  0.00000000  0.00000000  0.00000000  1
  C  C17  1  0.50000002  0.00000000  -0.00000000  1
