# generated using pymatgen
data_Pr2Fe3Si5
_symmetry_space_group_name_H-M   'P 1'
_cell_length_a   3.96785307
_cell_length_b   3.96785307
_cell_length_c   10.87382126
_cell_angle_alpha   90.00000000
_cell_angle_beta   90.00000000
_cell_angle_gamma   90.00000000
_symmetry_Int_Tables_number   1
_chemical_formula_structural   Pr2Fe3Si5
_chemical_formula_sum   'Pr2 Fe3 Si5'
_cell_volume   171.19589759
_cell_formula_units_Z   1
loop_
 _symmetry_equiv_pos_site_id
 _symmetry_equiv_pos_as_xyz
  1  'x, y, z'
loop_
 _atom_site_type_symbol
 _atom_site_label
 _atom_site_symmetry_multiplicity
 _atom_site_fract_x
 _atom_site_fract_y
 _atom_site_fract_z
 _atom_site_occupancy
  Pr  Pr0  1  0.00000000  0.00000000  0.00000000  1
  Pr  Pr1  1  0.49999999  0.49999999  0.49999999  1
  Fe  Fe2  1  -0.00000000  0.49999999  0.25103499  1
  Fe  Fe3  1  0.49999999  0.00000000  0.74896498  1
  Fe  Fe4  1  0.49999999  0.00000000  0.25103499  1
  Si  Si5  1  -0.00000000  0.49999999  0.74896498  1
  Si  Si6  1  0.49999999  0.49999999  0.12190700  1
  Si  Si7  1  0.00000000  0.00000000  0.62009299  1
  Si  Si8  1  0.00000000  0.00000000  0.37990699  1
  Si  Si9  1  0.49999999  0.49999999  0.87809298  1
