# generated using pymatgen
data_Li2CoO2
_symmetry_space_group_name_H-M   'P 1'
_cell_length_a   5.18337822
_cell_length_b   6.75933599
_cell_length_c   7.14735603
_cell_angle_alpha   90.00000000
_cell_angle_beta   90.00000000
_cell_angle_gamma   90.00000000
_symmetry_Int_Tables_number   1
_chemical_formula_structural   Li2CoO2
_chemical_formula_sum   'Li8 Co4 O8'
_cell_volume   250.41615953
_cell_formula_units_Z   4
loop_
 _symmetry_equiv_pos_site_id
 _symmetry_equiv_pos_as_xyz
  1  'x, y, z'
loop_
 _atom_site_type_symbol
 _atom_site_label
 _atom_site_symmetry_multiplicity
 _atom_site_fract_x
 _atom_site_fract_y
 _atom_site_fract_z
 _atom_site_occupancy
  Li  Li0  1  0.75061697  0.49741500  0.44913600  1
  Li  Li1  1  0.75061697  0.49741500  0.05086400  1
  Li  Li2  1  0.75061697  0.00258500  0.44913600  1
  Li  Li3  1  0.75061697  0.00258500  0.05086400  1
  Li  Li4  1  0.24938299  0.50258500  0.55086400  1
  Li  Li5  1  0.24938299  0.50258500  0.94913600  1
  Li  Li6  1  0.24938299  0.99741500  0.55086400  1
  Li  Li7  1  0.24938299  0.99741500  0.94913600  1
  Co  Co8  1  0.27757099  0.25000000  0.25000000  1
  Co  Co9  1  0.72242897  0.75000000  0.75000000  1
  Co  Co10  1  0.27331399  0.75000000  0.25000000  1
  Co  Co11  1  0.72668597  0.25000000  0.75000000  1
  O  O12  1  0.04707400  0.00125800  0.25000000  1
  O  O13  1  0.04707400  0.49874200  0.25000000  1
  O  O14  1  0.95292596  0.99874200  0.75000000  1
  O  O15  1  0.95292596  0.50125800  0.75000000  1
  O  O16  1  0.49736098  0.25000000  0.49797900  1
  O  O17  1  0.49736098  0.25000000  0.00202100  1
  O  O18  1  0.50263898  0.75000000  0.50202100  1
  O  O19  1  0.50263898  0.75000000  0.99797900  1
