# generated using pymatgen
data_BaTe
_symmetry_space_group_name_H-M   'P 1'
_cell_length_a   8.82627964
_cell_length_b   8.82627964
_cell_length_c   10.34628963
_cell_angle_alpha   115.24838257
_cell_angle_beta   115.24838257
_cell_angle_gamma   90.00000000
_symmetry_Int_Tables_number   1
_chemical_formula_structural   BaTe
_chemical_formula_sum   'Ba8 Te8'
_cell_volume   642.85071617
_cell_formula_units_Z   8
loop_
 _symmetry_equiv_pos_site_id
 _symmetry_equiv_pos_as_xyz
  1  'x, y, z'
loop_
 _atom_site_type_symbol
 _atom_site_label
 _atom_site_symmetry_multiplicity
 _atom_site_fract_x
 _atom_site_fract_y
 _atom_site_fract_z
 _atom_site_occupancy
  Ba  Ba0  1  0.02964899  0.17883000  0.70847899  1
  Ba  Ba1  1  0.32116998  0.47035100  0.29152096  1
  Ba  Ba2  1  0.97035098  0.82117001  0.29152091  1
  Ba  Ba3  1  0.00000000  0.00000000  0.00000000  1
  Ba  Ba4  1  0.47035096  0.97035101  0.29152092  1
  Ba  Ba5  1  0.17882997  0.67883001  0.70847895  1
  Ba  Ba6  1  0.67882999  0.52964900  0.70847894  1
  Ba  Ba7  1  0.52964901  0.02964900  0.70847898  1
  Te  Te8  1  0.82117000  0.32117000  0.29152095  1
  Te  Te9  1  0.49999998  0.50000000  0.99999995  1
  Te  Te10  1  0.88401500  0.38401500  0.99999995  1
  Te  Te11  1  0.61598497  0.88401601  0.00000092  1
  Te  Te12  1  0.11598497  0.61598501  -0.00000004  1
  Te  Te13  1  0.24999999  0.25000000  0.49999998  1
  Te  Te14  1  0.38401500  0.11598400  0.99999898  1
  Te  Te15  1  0.74999998  0.75000001  0.49999992  1
