# generated using pymatgen
data_CaPb2
_symmetry_space_group_name_H-M   'P 1'
_cell_length_a   5.24433136
_cell_length_b   5.24433136
_cell_length_c   7.25035000
_cell_angle_alpha   90.00000000
_cell_angle_beta   90.00000000
_cell_angle_gamma   101.97577667
_symmetry_Int_Tables_number   1
_chemical_formula_structural   CaPb2
_chemical_formula_sum   'Ca2 Pb4'
_cell_volume   195.06645964
_cell_formula_units_Z   2
loop_
 _symmetry_equiv_pos_site_id
 _symmetry_equiv_pos_as_xyz
  1  'x, y, z'
loop_
 _atom_site_type_symbol
 _atom_site_label
 _atom_site_symmetry_multiplicity
 _atom_site_fract_x
 _atom_site_fract_y
 _atom_site_fract_z
 _atom_site_occupancy
  Ca  Ca0  1  0.63665198  0.36334799  0.25000000  1
  Ca  Ca1  1  0.36334799  0.63665197  0.75000000  1
  Pb  Pb2  1  0.00000000  0.00000000  0.00000000  1
  Pb  Pb3  1  0.00000000  0.00000000  0.50000000  1
  Pb  Pb4  1  0.20382700  0.79617297  0.25000000  1
  Pb  Pb5  1  0.79617297  0.20382699  0.75000000  1
