# generated using pymatgen
data_NaLi12
_symmetry_space_group_name_H-M   'P 1'
_cell_length_a   3.80910993
_cell_length_b   10.82508945
_cell_length_c   10.91834450
_cell_angle_alpha   65.40578461
_cell_angle_beta   79.95414734
_cell_angle_gamma   79.86669922
_symmetry_Int_Tables_number   1
_chemical_formula_structural   NaLi12
_chemical_formula_sum   'Na1 Li12'
_cell_volume   400.39284611
_cell_formula_units_Z   1
loop_
 _symmetry_equiv_pos_site_id
 _symmetry_equiv_pos_as_xyz
  1  'x, y, z'
loop_
 _atom_site_type_symbol
 _atom_site_label
 _atom_site_symmetry_multiplicity
 _atom_site_fract_x
 _atom_site_fract_y
 _atom_site_fract_z
 _atom_site_occupancy
  Li  Li0  1  0.87222714  0.69770601  0.55784001  1
  Li  Li1  1  0.12777306  0.30229400  0.44216001  1
  Li  Li2  1  0.68206919  0.99891101  0.63695102  1
  Li  Li3  1  0.31793101  0.00108900  0.36304900  1
  Li  Li4  1  0.22808613  0.70230601  0.84152202  1
  Li  Li5  1  0.77191407  0.29769400  0.15847800  1
  Na  Na6  1  0.50000010  0.50000001  0.50000001  1
  Li  Li7  1  0.94662216  0.83360401  0.27315201  1
  Li  Li8  1  0.05337803  0.16639600  0.72684801  1
  Li  Li9  1  0.83334610  0.48840101  0.84490701  1
  Li  Li10  1  0.16665409  0.51159901  0.15509301  1
  Li  Li11  1  0.60811216  0.84474701  0.93902902  1
  Li  Li12  1  0.39188804  0.15525300  0.06097100  1
