# generated using pymatgen
data_AlSi
_symmetry_space_group_name_H-M   'P 1'
_cell_length_a   4.74685287
_cell_length_b   4.74685287
_cell_length_c   4.74685287
_cell_angle_alpha   89.69743347
_cell_angle_beta   89.69743347
_cell_angle_gamma   89.69743347
_symmetry_Int_Tables_number   1
_chemical_formula_structural   AlSi
_chemical_formula_sum   'Al4 Si4'
_cell_volume   106.95453667
_cell_formula_units_Z   4
loop_
 _symmetry_equiv_pos_site_id
 _symmetry_equiv_pos_as_xyz
  1  'x, y, z'
loop_
 _atom_site_type_symbol
 _atom_site_label
 _atom_site_symmetry_multiplicity
 _atom_site_fract_x
 _atom_site_fract_y
 _atom_site_fract_z
 _atom_site_occupancy
  Al  Al0  1  0.66676601  0.16676600  0.66676599  1
  Al  Al1  1  0.33733900  0.34572801  0.14418498  1
  Al  Al2  1  0.84572800  0.64418502  0.33733896  1
  Al  Al3  1  0.14418498  0.83733902  0.84572799  1
  Si  Si4  1  0.64448300  0.63986702  0.85956898  1
  Si  Si5  1  0.13986699  0.35956901  0.64448300  1
  Si  Si6  1  0.85956902  0.14448300  0.13986697  1
  Si  Si7  1  0.36206298  0.86206302  0.36206297  1
