# generated using pymatgen
data_Tm4Ga5
_symmetry_space_group_name_H-M   'P 1'
_cell_length_a   3.57402301
_cell_length_b   7.73402405
_cell_length_c   7.73402452
_cell_angle_alpha   120.00000000
_cell_angle_beta   90.00000000
_cell_angle_gamma   90.00000000
_symmetry_Int_Tables_number   1
_chemical_formula_structural   Tm4Ga5
_chemical_formula_sum   'Tm4 Ga5'
_cell_volume   185.13947963
_cell_formula_units_Z   1
loop_
 _symmetry_equiv_pos_site_id
 _symmetry_equiv_pos_as_xyz
  1  'x, y, z'
loop_
 _atom_site_type_symbol
 _atom_site_label
 _atom_site_symmetry_multiplicity
 _atom_site_fract_x
 _atom_site_fract_y
 _atom_site_fract_z
 _atom_site_occupancy
  Tm  Tm0  1  0.50000000  0.76057902  0.76057905  1
  Tm  Tm1  1  0.50000000  0.00000000  0.23942100  1
  Tm  Tm2  1  0.50000000  0.23942101  1.00000003  1
  Tm  Tm3  1  -0.00000000  0.39437701  0.39437703  1
  Ga  Ga4  1  0.00000000  0.00000000  0.60562301  1
  Ga  Ga5  1  -0.00000000  0.60562301  1.00000005  1
  Ga  Ga6  1  0.00000000  0.00000000  0.00000000  1
  Ga  Ga7  1  0.50000000  0.66666668  0.33333338  1
  Ga  Ga8  1  0.50000000  0.33333334  0.66666670  1
