# generated using pymatgen
data_Li8WO7
_symmetry_space_group_name_H-M   'P 1'
_cell_length_a   3.06322336
_cell_length_b   6.86226559
_cell_length_c   8.04452419
_cell_angle_alpha   91.84090424
_cell_angle_beta   96.43949127
_cell_angle_gamma   101.87911224
_symmetry_Int_Tables_number   1
_chemical_formula_structural   Li8WO7
_chemical_formula_sum   'Li8 W1 O7'
_cell_volume   164.17039849
_cell_formula_units_Z   1
loop_
 _symmetry_equiv_pos_site_id
 _symmetry_equiv_pos_as_xyz
  1  'x, y, z'
loop_
 _atom_site_type_symbol
 _atom_site_label
 _atom_site_symmetry_multiplicity
 _atom_site_fract_x
 _atom_site_fract_y
 _atom_site_fract_z
 _atom_site_occupancy
  Li  Li0  1  0.12501891  0.87508701  0.37496697  1
  Li  Li1  1  0.37469093  0.62500001  0.12493798  1
  Li  Li2  1  0.62510796  0.37497401  0.87501394  1
  Li  Li3  1  0.87513698  0.12494700  0.62506695  1
  Li  Li4  1  0.50024794  0.50016201  0.50019796  1
  Li  Li5  1  0.74970597  0.24989200  0.24979997  1
  Li  Li6  1  0.00016100  0.00016500  0.00020500  1
  Li  Li7  1  0.24986892  0.74978001  0.74978595  1
  W  W8  1  0.10303695  0.47324701  0.67145796  1
  O  O9  1  0.35261997  0.22377500  0.42109797  1
  O  O10  1  0.60289089  0.97334302  0.17147397  1
  O  O11  1  0.85253392  0.72373401  0.92105493  1
  O  O12  1  0.14706497  0.27674200  0.07854299  1
  O  O13  1  0.39746899  0.02620000  0.82896396  1
  O  O14  1  0.64720591  0.77668301  0.57852895  1
  O  O15  1  0.89723794  0.52626801  0.32890396  1
