# generated using pymatgen
data_Y(Al2Fe)4
_symmetry_space_group_name_H-M   'P 1'
_cell_length_a   5.04355001
_cell_length_b   6.81407356
_cell_length_c   6.81407356
_cell_angle_alpha   82.12792969
_cell_angle_beta   68.27924347
_cell_angle_gamma   68.27924347
_symmetry_Int_Tables_number   1
_chemical_formula_structural   Y(Al2Fe)4
_chemical_formula_sum   'Y1 Al8 Fe4'
_cell_volume   202.10639304
_cell_formula_units_Z   1
loop_
 _symmetry_equiv_pos_site_id
 _symmetry_equiv_pos_as_xyz
  1  'x, y, z'
loop_
 _atom_site_type_symbol
 _atom_site_label
 _atom_site_symmetry_multiplicity
 _atom_site_fract_x
 _atom_site_fract_y
 _atom_site_fract_z
 _atom_site_occupancy
  Y  Y0  1  0.00000000  0.00000000  0.00000000  1
  Al  Al1  1  0.27741300  0.22258700  0.22258699  1
  Al  Al2  1  0.50000000  0.22258700  0.77741299  1
  Al  Al3  1  0.50000000  0.77741300  0.22258698  1
  Al  Al4  1  0.72258700  0.77741300  0.77741298  1
  Al  Al5  1  0.33820200  0.66179800  0.66179798  1
  Al  Al6  1  0.66179800  0.33820200  0.33820199  1
  Al  Al7  1  0.00000000  0.33820200  0.66179799  1
  Al  Al8  1  0.00000000  0.66179800  0.33820198  1
  Fe  Fe9  1  0.50000000  0.50000000  -0.00000001  1
  Fe  Fe10  1  0.00000000  0.00000000  0.50000000  1
  Fe  Fe11  1  0.50000000  0.00000000  0.50000000  1
  Fe  Fe12  1  0.00000000  0.50000000  0.99999999  1
