# generated using pymatgen
data_Li10Ca2O7
_symmetry_space_group_name_H-M   'P 1'
_cell_length_a   5.22940779
_cell_length_b   5.22940779
_cell_length_c   7.66043186
_cell_angle_alpha   90.00000000
_cell_angle_beta   90.00000000
_cell_angle_gamma   90.00000000
_symmetry_Int_Tables_number   1
_chemical_formula_structural   Li10Ca2O7
_chemical_formula_sum   'Li10 Ca2 O7'
_cell_volume   209.48757647
_cell_formula_units_Z   1
loop_
 _symmetry_equiv_pos_site_id
 _symmetry_equiv_pos_as_xyz
  1  'x, y, z'
loop_
 _atom_site_type_symbol
 _atom_site_label
 _atom_site_symmetry_multiplicity
 _atom_site_fract_x
 _atom_site_fract_y
 _atom_site_fract_z
 _atom_site_occupancy
  Ca  Ca0  1  0.31084301  0.18908801  0.50000001  1
  Li  Li1  1  0.74810803  0.73671303  -0.00000000  1
  Ca  Ca2  1  0.68915703  0.81091203  0.50000001  1
  Li  Li3  1  0.25189201  0.26328701  0.00000000  1
  Li  Li4  1  0.18908801  0.68915703  0.50000001  1
  Li  Li5  1  0.73671303  0.25189201  -0.00000000  1
  Li  Li6  1  0.81091203  0.31084301  0.50000001  1
  Li  Li7  1  0.26328701  0.74810803  -0.00000000  1
  Li  Li8  1  0.50000002  0.50000002  0.24815000  1
  Li  Li9  1  0.00000000  0.00000000  0.75145801  1
  Li  Li10  1  0.00000000  0.00000000  0.24854200  1
  Li  Li11  1  0.50000002  0.50000002  0.75185001  1
  O  O12  1  0.00000000  0.50000002  0.23409000  1
  O  O13  1  0.50000002  0.00000000  0.76591001  1
  O  O14  1  0.50000002  0.00000000  0.23409000  1
  O  O15  1  0.00000000  0.50000002  0.76591001  1
  O  O16  1  0.00000000  0.00000000  0.50000001  1
  O  O17  1  0.00000000  0.00000000  0.00000000  1
  O  O18  1  0.50000002  0.50000002  0.50000001  1
