# generated using pymatgen
data_Li5ReO3
_symmetry_space_group_name_H-M   'P 1'
_cell_length_a   4.31709194
_cell_length_b   4.31709194
_cell_length_c   8.70705891
_cell_angle_alpha   104.35372925
_cell_angle_beta   104.35372925
_cell_angle_gamma   90.00000000
_symmetry_Int_Tables_number   1
_chemical_formula_structural   Li5ReO3
_chemical_formula_sum   'Li5 Re1 O3'
_cell_volume   151.97585121
_cell_formula_units_Z   1
loop_
 _symmetry_equiv_pos_site_id
 _symmetry_equiv_pos_as_xyz
  1  'x, y, z'
loop_
 _atom_site_type_symbol
 _atom_site_label
 _atom_site_symmetry_multiplicity
 _atom_site_fract_x
 _atom_site_fract_y
 _atom_site_fract_z
 _atom_site_occupancy
  Li  Li0  1  0.68042702  0.68042701  0.36085403  1
  Li  Li1  1  0.31957301  0.31957301  0.63914603  1
  Li  Li2  1  0.00000000  0.00000000  0.00000000  1
  Li  Li3  1  0.30013901  0.30013901  0.13450801  1
  Li  Li4  1  0.69986101  0.16563100  0.86549204  1
  O  O5  1  0.83436902  0.83436902  0.13450802  1
  Re  Re6  1  0.16563101  0.69986101  0.86549205  1
  O  O7  1  0.75000002  0.25000000  0.50000003  1
  O  O8  1  0.25000001  0.75000001  0.50000003  1
