# generated using pymatgen
data_Ta2S3
_symmetry_space_group_name_H-M   'P 1'
_cell_length_a   6.04725409
_cell_length_b   6.04725361
_cell_length_c   12.25524902
_cell_angle_alpha   90.00000000
_cell_angle_beta   90.00000000
_cell_angle_gamma   120.00000000
_symmetry_Int_Tables_number   1
_chemical_formula_structural   Ta2S3
_chemical_formula_sum   'Ta8 S12'
_cell_volume   388.12281365
_cell_formula_units_Z   4
loop_
 _symmetry_equiv_pos_site_id
 _symmetry_equiv_pos_as_xyz
  1  'x, y, z'
loop_
 _atom_site_type_symbol
 _atom_site_label
 _atom_site_symmetry_multiplicity
 _atom_site_fract_x
 _atom_site_fract_y
 _atom_site_fract_z
 _atom_site_occupancy
  Ta  Ta0  1  0.66666664  0.33333332  0.75000000  1
  Ta  Ta1  1  0.33333329  0.66666663  0.25000000  1
  Ta  Ta2  1  0.66666664  0.33333332  0.00225300  1
  Ta  Ta3  1  0.33333329  0.66666663  0.99774700  1
  Ta  Ta4  1  0.33333329  0.66666663  0.50225300  1
  Ta  Ta5  1  0.66666664  0.33333332  0.49774700  1
  Ta  Ta6  1  0.00000000  0.00000000  0.50000000  1
  Ta  Ta7  1  0.00000000  0.00000000  0.00000000  1
  S  S8  1  0.66759699  0.00246300  0.63712300  1
  S  S9  1  0.33486598  0.33240298  0.63712300  1
  S  S10  1  0.99753695  0.66513397  0.63712300  1
  S  S11  1  0.66513393  0.99753695  0.36287700  1
  S  S12  1  0.00246296  0.66759697  0.36287700  1
  S  S13  1  0.33240298  0.33486598  0.36287700  1
  S  S14  1  0.33240294  0.99753695  0.13712300  1
  S  S15  1  0.66513395  0.66759697  0.13712300  1
  S  S16  1  0.00246298  0.33486598  0.13712300  1
  S  S17  1  0.33486600  0.00246300  0.86287700  1
  S  S18  1  0.99753697  0.33240298  0.86287700  1
  S  S19  1  0.66759695  0.66513397  0.86287700  1
