# generated using pymatgen
data_YNbFe4
_symmetry_space_group_name_H-M   'P 1'
_cell_length_a   4.98047543
_cell_length_b   4.98047543
_cell_length_c   5.21648788
_cell_angle_alpha   61.48569107
_cell_angle_beta   61.48569107
_cell_angle_gamma   60.00000381
_symmetry_Int_Tables_number   1
_chemical_formula_structural   YNbFe4
_chemical_formula_sum   'Y1 Nb1 Fe4'
_cell_volume   93.49768110
_cell_formula_units_Z   1
loop_
 _symmetry_equiv_pos_site_id
 _symmetry_equiv_pos_as_xyz
  1  'x, y, z'
loop_
 _atom_site_type_symbol
 _atom_site_label
 _atom_site_symmetry_multiplicity
 _atom_site_fract_x
 _atom_site_fract_y
 _atom_site_fract_z
 _atom_site_occupancy
  Y  Y0  1  0.99879098  0.99879104  0.00362705  1
  Nb  Nb1  1  0.13175798  0.63009903  0.60804403  1
  Fe  Fe2  1  0.63009901  0.13175801  0.60804403  1
  Fe  Fe3  1  0.63009899  0.63009903  0.60804404  1
  Fe  Fe4  1  0.23096100  0.23096101  0.30711702  1
  Fe  Fe5  1  0.62829099  0.62829103  0.11512703  1
