# generated using pymatgen
data_Zr3Al4
_symmetry_space_group_name_H-M   'P 1'
_cell_length_a   5.08486605
_cell_length_b   7.89047337
_cell_length_c   7.89047337
_cell_angle_alpha   84.04064941
_cell_angle_beta   71.20303345
_cell_angle_gamma   71.20303345
_symmetry_Int_Tables_number   1
_chemical_formula_structural   Zr3Al4
_chemical_formula_sum   'Zr6 Al8'
_cell_volume   283.71316345
_cell_formula_units_Z   2
loop_
 _symmetry_equiv_pos_site_id
 _symmetry_equiv_pos_as_xyz
  1  'x, y, z'
loop_
 _atom_site_type_symbol
 _atom_site_label
 _atom_site_symmetry_multiplicity
 _atom_site_fract_x
 _atom_site_fract_y
 _atom_site_fract_z
 _atom_site_occupancy
  Zr  Zr0  1  0.91994798  0.27240200  0.88770196  1
  Zr  Zr1  1  0.08005193  0.72759801  0.11229800  1
  Zr  Zr2  1  0.19235092  0.88770101  0.72759799  1
  Zr  Zr3  1  0.58005099  0.11229900  0.72759798  1
  Zr  Zr4  1  0.80764900  0.11229900  0.27240197  1
  Zr  Zr5  1  0.41994892  0.88770101  0.27240199  1
  Al  Al6  1  0.30764998  0.27240200  0.11229799  1
  Al  Al7  1  0.69234994  0.72759801  0.88770197  1
  Al  Al8  1  0.24999991  1.00000002  -0.00000001  1
  Al  Al9  1  0.74999991  1.00000002  -0.00000003  1
  Al  Al10  1  0.86091894  0.77816301  0.49999997  1
  Al  Al11  1  0.13908098  0.22183700  0.49999999  1
  Al  Al12  1  0.63908196  0.50000001  0.22183598  1
  Al  Al13  1  0.36091796  0.50000001  0.77816399  1
