# generated using pymatgen
data_La3Pr(InGe2)2
_symmetry_space_group_name_H-M   'P 1'
_cell_length_a   4.32422590
_cell_length_b   4.32422638
_cell_length_c   18.27243423
_cell_angle_alpha   90.00000000
_cell_angle_beta   90.00000000
_cell_angle_gamma   120.00000000
_symmetry_Int_Tables_number   1
_chemical_formula_structural   La3Pr(InGe2)2
_chemical_formula_sum   'La3 Pr1 In2 Ge4'
_cell_volume   295.89922991
_cell_formula_units_Z   1
loop_
 _symmetry_equiv_pos_site_id
 _symmetry_equiv_pos_as_xyz
  1  'x, y, z'
loop_
 _atom_site_type_symbol
 _atom_site_label
 _atom_site_symmetry_multiplicity
 _atom_site_fract_x
 _atom_site_fract_y
 _atom_site_fract_z
 _atom_site_occupancy
  La  La0  1  0.00000000  0.00000000  0.00000000  1
  La  La1  1  0.00000000  0.00000000  0.49999999  1
  La  La2  1  0.33333338  0.66666668  0.17252200  1
  Pr  Pr3  1  0.66666670  0.33333334  0.82747799  1
  In  In4  1  0.66666670  0.33333334  0.67252199  1
  In  In5  1  0.33333338  0.66666668  0.32747800  1
  Ge  Ge6  1  0.33333338  0.66666668  0.60826999  1
  Ge  Ge7  1  0.66666670  0.33333334  0.39172999  1
  Ge  Ge8  1  0.66666670  0.33333334  0.10827000  1
  Ge  Ge9  1  0.33333338  0.66666668  0.89172999  1
