# generated using pymatgen
data_SmGa2
_symmetry_space_group_name_H-M   'P 1'
_cell_length_a   5.30625200
_cell_length_b   5.30625200
_cell_length_c   9.12070560
_cell_angle_alpha   90.00000000
_cell_angle_beta   90.00000000
_cell_angle_gamma   120.00000000
_symmetry_Int_Tables_number   1
_chemical_formula_structural   SmGa2
_chemical_formula_sum   'Sm4 Ga8'
_cell_volume   222.40001522
_cell_formula_units_Z   4
loop_
 _symmetry_equiv_pos_site_id
 _symmetry_equiv_pos_as_xyz
  1  'x, y, z'
loop_
 _atom_site_type_symbol
 _atom_site_label
 _atom_site_symmetry_multiplicity
 _atom_site_fract_x
 _atom_site_fract_y
 _atom_site_fract_z
 _atom_site_occupancy
  Sm  Sm0  1  0.66666666  0.33333333  0.56767902  1
  Sm  Sm1  1  0.33333333  0.66666666  0.43232102  1
  Sm  Sm2  1  0.33333333  0.66666666  0.06767900  1
  Sm  Sm3  1  0.66666666  0.33333333  0.93232104  1
  Ga  Ga4  1  0.00000000  0.00000000  0.50000002  1
  Ga  Ga5  1  0.00000000  0.00000000  0.00000000  1
  Ga  Ga6  1  0.17103600  0.34207200  0.75000003  1
  Ga  Ga7  1  0.17103600  0.82896399  0.75000003  1
  Ga  Ga8  1  0.65792800  0.82896399  0.75000003  1
  Ga  Ga9  1  0.82896400  0.65792799  0.25000001  1
  Ga  Ga10  1  0.82896400  0.17103600  0.25000001  1
  Ga  Ga11  1  0.34207200  0.17103600  0.25000001  1
