# generated using pymatgen
data_Be
_symmetry_space_group_name_H-M   'P 1'
_cell_length_a   4.70745802
_cell_length_b   7.02039433
_cell_length_c   7.02039480
_cell_angle_alpha   120.00000000
_cell_angle_beta   90.00000000
_cell_angle_gamma   90.00000000
_symmetry_Int_Tables_number   1
_chemical_formula_structural   Be
_chemical_formula_sum   Be18
_cell_volume   200.92784664
_cell_formula_units_Z   18
loop_
 _symmetry_equiv_pos_site_id
 _symmetry_equiv_pos_as_xyz
  1  'x, y, z'
loop_
 _atom_site_type_symbol
 _atom_site_label
 _atom_site_symmetry_multiplicity
 _atom_site_fract_x
 _atom_site_fract_y
 _atom_site_fract_z
 _atom_site_occupancy
  Be  Be0  1  0.50000000  0.33333335  0.66666670  1
  Be  Be1  1  0.50000000  0.66666670  0.33333338  1
  Be  Be2  1  1.00000000  0.66666670  0.33333338  1
  Be  Be3  1  1.00000000  0.33333335  0.66666670  1
  Be  Be4  1  0.75000000  0.24576201  1.00000003  1
  Be  Be5  1  0.75000000  0.75423803  0.75423806  1
  Be  Be6  1  0.75000000  0.00000000  0.24576200  1
  Be  Be7  1  0.25000000  0.75423803  1.00000006  1
  Be  Be8  1  0.25000000  0.24576201  0.24576202  1
  Be  Be9  1  0.25000000  1.00000004  0.75423808  1
  Be  Be10  1  0.75000000  0.59928103  1.00000005  1
  Be  Be11  1  0.75000000  0.40071902  0.40071903  1
  Be  Be12  1  0.75000000  1.00000004  0.59928108  1
  Be  Be13  1  0.25000000  0.40071902  1.00000004  1
  Be  Be14  1  0.25000000  0.59928103  0.59928105  1
  Be  Be15  1  0.25000000  1.00000004  0.40071907  1
  Be  Be16  1  0.50000000  0.00000000  -0.00000000  1
  Be  Be17  1  0.00000000  0.00000000  0.00000000  1
