# generated using pymatgen
data_Li10WO9
_symmetry_space_group_name_H-M   'P 1'
_cell_length_a   5.06216002
_cell_length_b   5.09780598
_cell_length_c   7.66500235
_cell_angle_alpha   71.48949432
_cell_angle_beta   71.63381195
_cell_angle_gamma   80.39505768
_symmetry_Int_Tables_number   1
_chemical_formula_structural   Li10WO9
_chemical_formula_sum   'Li10 W1 O9'
_cell_volume   177.52342332
_cell_formula_units_Z   1
loop_
 _symmetry_equiv_pos_site_id
 _symmetry_equiv_pos_as_xyz
  1  'x, y, z'
loop_
 _atom_site_type_symbol
 _atom_site_label
 _atom_site_symmetry_multiplicity
 _atom_site_fract_x
 _atom_site_fract_y
 _atom_site_fract_z
 _atom_site_occupancy
  Li  Li0  1  0.50491397  0.78841499  0.40218697  1
  Li  Li1  1  0.50355698  0.59517599  0.79722097  1
  Li  Li2  1  -0.00000002  0.49999999  0.49999998  1
  Li  Li3  1  0.49644299  0.40482399  0.20277898  1
  Li  Li4  1  0.49508599  0.21158500  0.59781299  1
  Li  Li5  1  0.00639397  0.89024099  0.69581797  1
  Li  Li6  1  0.99360600  0.10975900  0.30418199  1
  Li  Li7  1  0.50000000  0.00000000  -0.00000000  1
  Li  Li8  1  0.99867099  0.30136400  0.89902198  1
  Li  Li9  1  0.00132897  0.69863599  0.10097798  1
  W  W10  1  0.23334597  0.94819099  0.84544796  1
  O  O11  1  0.76429398  0.66328099  0.94136397  1
  O  O12  1  0.77344297  0.87042799  0.54972496  1
  O  O13  1  0.23122797  0.77549799  0.24529697  1
  O  O14  1  0.22960498  0.56895599  0.65915598  1
  O  O15  1  0.77039498  0.43104399  0.34084398  1
  O  O16  1  0.76877199  0.22450200  0.75470298  1
  O  O17  1  0.22655700  0.12957200  0.45027499  1
  O  O18  1  0.23570599  0.33671899  0.05863599  1
  O  O19  1  0.76665400  0.05180900  0.15455199  1
