# generated using pymatgen
data_Mg2Ag
_symmetry_space_group_name_H-M   'P 1'
_cell_length_a   4.04356813
_cell_length_b   4.04356813
_cell_length_c   5.26633692
_cell_angle_alpha   112.57590485
_cell_angle_beta   112.57590485
_cell_angle_gamma   90.00000000
_symmetry_Int_Tables_number   1
_chemical_formula_structural   Mg2Ag
_chemical_formula_sum   'Mg2 Ag1'
_cell_volume   72.31090483
_cell_formula_units_Z   1
loop_
 _symmetry_equiv_pos_site_id
 _symmetry_equiv_pos_as_xyz
  1  'x, y, z'
loop_
 _atom_site_type_symbol
 _atom_site_label
 _atom_site_symmetry_multiplicity
 _atom_site_fract_x
 _atom_site_fract_y
 _atom_site_fract_z
 _atom_site_occupancy
  Mg  Mg0  1  0.33337496  0.33337498  0.66674994  1
  Mg  Mg1  1  0.66666659  0.66666662  0.33333325  1
  Ag  Ag2  1  0.00000000  0.00000000  0.00000000  1
