# generated using pymatgen
data_YbMgGa
_symmetry_space_group_name_H-M   'P 1'
_cell_length_a   4.29366684
_cell_length_b   7.65322208
_cell_length_c   7.65322208
_cell_angle_alpha   120.00000000
_cell_angle_beta   90.00000000
_cell_angle_gamma   90.00000000
_symmetry_Int_Tables_number   1
_chemical_formula_structural   YbMgGa
_chemical_formula_sum   'Yb3 Mg3 Ga3'
_cell_volume   217.79485030
_cell_formula_units_Z   3
loop_
 _symmetry_equiv_pos_site_id
 _symmetry_equiv_pos_as_xyz
  1  'x, y, z'
loop_
 _atom_site_type_symbol
 _atom_site_label
 _atom_site_symmetry_multiplicity
 _atom_site_fract_x
 _atom_site_fract_y
 _atom_site_fract_z
 _atom_site_occupancy
  Yb  Yb0  1  0.50000002  0.58910500  0.58910503  1
  Yb  Yb1  1  0.50000002  0.00000000  0.41089501  1
  Yb  Yb2  1  0.50000002  0.41089500  1.00000004  1
  Mg  Mg3  1  1.00000004  0.24775200  0.24775201  1
  Mg  Mg4  1  -0.00000000  1.00000000  0.75224804  1
  Mg  Mg5  1  1.00000004  0.75224800  1.00000004  1
  Ga  Ga6  1  1.00000004  0.66666667  0.33333336  1
  Ga  Ga7  1  1.00000004  0.33333333  0.66666669  1
  Ga  Ga8  1  0.50000002  0.00000000  -0.00000000  1
