# generated using pymatgen
data_CeSi2
_symmetry_space_group_name_H-M   'P 1'
_cell_length_a   4.06777716
_cell_length_b   7.06940413
_cell_length_c   7.88512611
_cell_angle_alpha   90.00000000
_cell_angle_beta   90.00000000
_cell_angle_gamma   90.00000000
_symmetry_Int_Tables_number   1
_chemical_formula_structural   CeSi2
_chemical_formula_sum   'Ce4 Si8'
_cell_volume   226.75068406
_cell_formula_units_Z   4
loop_
 _symmetry_equiv_pos_site_id
 _symmetry_equiv_pos_as_xyz
  1  'x, y, z'
loop_
 _atom_site_type_symbol
 _atom_site_label
 _atom_site_symmetry_multiplicity
 _atom_site_fract_x
 _atom_site_fract_y
 _atom_site_fract_z
 _atom_site_occupancy
  Ce  Ce0  1  0.74999997  0.97053698  0.32685900  1
  Ce  Ce1  1  0.24999999  0.02946300  0.67314099  1
  Ce  Ce2  1  0.24999999  0.52946299  0.82685899  1
  Ce  Ce3  1  0.74999997  0.47053699  0.17314100  1
  Si  Si4  1  0.74999997  0.86366298  0.94000099  1
  Si  Si5  1  0.24999999  0.13633700  0.05999900  1
  Si  Si6  1  0.24999999  0.63633699  0.44000099  1
  Si  Si7  1  0.74999997  0.36366299  0.55999899  1
  Si  Si8  1  0.74999997  0.71776399  0.62547799  1
  Si  Si9  1  0.24999999  0.28223600  0.37452199  1
  Si  Si10  1  0.24999999  0.78223599  0.12547800  1
  Si  Si11  1  0.74999997  0.21776400  0.87452199  1
