# generated using pymatgen
data_Li5Ag(PbO6)2
_symmetry_space_group_name_H-M   'P 1'
_cell_length_a   3.09465408
_cell_length_b   3.09465480
_cell_length_c   25.30909920
_cell_angle_alpha   90.00000000
_cell_angle_beta   90.00000000
_cell_angle_gamma   119.99999237
_symmetry_Int_Tables_number   1
_chemical_formula_structural   Li5Ag(PbO6)2
_chemical_formula_sum   'Li5 Ag1 Pb2 O12'
_cell_volume   209.90929778
_cell_formula_units_Z   1
loop_
 _symmetry_equiv_pos_site_id
 _symmetry_equiv_pos_as_xyz
  1  'x, y, z'
loop_
 _atom_site_type_symbol
 _atom_site_label
 _atom_site_symmetry_multiplicity
 _atom_site_fract_x
 _atom_site_fract_y
 _atom_site_fract_z
 _atom_site_occupancy
  Li  Li0  1  0.00000000  0.00000000  0.80008203  1
  Li  Li1  1  0.00000000  0.00000000  0.60004602  1
  Li  Li2  1  0.66666666  0.33333335  0.70001902  1
  Li  Li3  1  0.00000000  0.00000000  0.40004101  1
  Ag  Ag4  1  0.66666666  0.33333335  0.00003100  1
  Li  Li5  1  0.66666666  0.33333335  0.30002001  1
  Pb  Pb6  1  0.33333335  0.66666670  0.10009500  1
  Pb  Pb7  1  0.00000000  0.00000000  0.19997701  1
  O  O8  1  0.33333335  0.66666670  0.89998403  1
  O  O9  1  0.33333335  0.66666670  0.50003002  1
  O  O10  1  0.66666666  0.33333335  0.22481901  1
  O  O11  1  0.66666666  0.33333335  0.92482203  1
  O  O12  1  0.00000000  0.00000000  0.32511001  1
  O  O13  1  0.00000000  0.00000000  0.72507202  1
  O  O14  1  0.33333335  0.66666670  0.82501103  1
  O  O15  1  0.33333335  0.66666670  0.42482201  1
  O  O16  1  0.00000000  0.00000000  0.52511102  1
  O  O17  1  0.33333335  0.66666670  0.02508800  1
  O  O18  1  0.66666666  0.33333335  0.62482402  1
  O  O19  1  0.00000000  0.00000000  0.12499600  1
