# generated using pymatgen
data_ScGa4Ni
_symmetry_space_group_name_H-M   'P 1'
_cell_length_a   5.15593386
_cell_length_b   5.15593243
_cell_length_c   7.75775623
_cell_angle_alpha   90.00000000
_cell_angle_beta   90.00000000
_cell_angle_gamma   120.00000763
_symmetry_Int_Tables_number   1
_chemical_formula_structural   ScGa4Ni
_chemical_formula_sum   'Sc2 Ga8 Ni2'
_cell_volume   178.59992882
_cell_formula_units_Z   2
loop_
 _symmetry_equiv_pos_site_id
 _symmetry_equiv_pos_as_xyz
  1  'x, y, z'
loop_
 _atom_site_type_symbol
 _atom_site_label
 _atom_site_symmetry_multiplicity
 _atom_site_fract_x
 _atom_site_fract_y
 _atom_site_fract_z
 _atom_site_occupancy
  Sc  Sc0  1  0.33333331  0.66666665  0.57482798  1
  Sc  Sc1  1  0.66666667  0.33333332  0.42517199  1
  Ga  Ga2  1  0.66666667  0.33333332  0.07482800  1
  Ga  Ga3  1  0.33333331  0.66666665  0.92517197  1
  Ga  Ga4  1  0.16897999  0.33795999  0.24999999  1
  Ga  Ga5  1  0.83101999  0.66203998  0.74999998  1
  Ga  Ga6  1  0.66203898  0.83101898  0.24999999  1
  Ga  Ga7  1  0.33796100  0.16898100  0.74999998  1
  Ga  Ga8  1  0.16897996  0.83101898  0.24999999  1
  Ga  Ga9  1  0.83102001  0.16898100  0.74999998  1
  Ni  Ni10  1  0.00000000  0.00000000  0.00000000  1
  Ni  Ni11  1  0.00000000  0.00000000  0.49999998  1
