# generated using pymatgen
data_CeSn2
_symmetry_space_group_name_H-M   'P 1'
_cell_length_a   4.16330194
_cell_length_b   7.77101183
_cell_length_c   7.77101231
_cell_angle_alpha   120.00000000
_cell_angle_beta   90.00000000
_cell_angle_gamma   90.00000000
_symmetry_Int_Tables_number   1
_chemical_formula_structural   CeSn2
_chemical_formula_sum   'Ce3 Sn6'
_cell_volume   217.73272494
_cell_formula_units_Z   3
loop_
 _symmetry_equiv_pos_site_id
 _symmetry_equiv_pos_as_xyz
  1  'x, y, z'
loop_
 _atom_site_type_symbol
 _atom_site_label
 _atom_site_symmetry_multiplicity
 _atom_site_fract_x
 _atom_site_fract_y
 _atom_site_fract_z
 _atom_site_occupancy
  Ce  Ce0  1  0.50000001  0.58537302  0.00000001  1
  Ce  Ce1  1  0.50000001  0.41462701  0.41462700  1
  Ce  Ce2  1  0.50000001  0.00000000  0.58537299  1
  Sn  Sn3  1  -0.00000000  0.23814601  0.99999999  1
  Sn  Sn4  1  -0.00000000  0.76185402  0.76185400  1
  Sn  Sn5  1  -0.00000000  1.00000003  0.23814601  1
  Sn  Sn6  1  1.00000001  0.33333334  0.66666666  1
  Sn  Sn7  1  -0.00000000  0.66666669  0.33333334  1
  Sn  Sn8  1  0.50000001  0.00000000  -0.00000000  1
