# generated using pymatgen
data_Rb4Ag4ICl11
_symmetry_space_group_name_H-M   'P 1'
_cell_length_a   7.04458380
_cell_length_b   8.28795147
_cell_length_c   14.11246586
_cell_angle_alpha   90.00000000
_cell_angle_beta   90.00000000
_cell_angle_gamma   90.00000000
_symmetry_Int_Tables_number   1
_chemical_formula_structural   Rb4Ag4ICl11
_chemical_formula_sum   'Rb4 Ag4 I1 Cl11'
_cell_volume   823.95869901
_cell_formula_units_Z   1
loop_
 _symmetry_equiv_pos_site_id
 _symmetry_equiv_pos_as_xyz
  1  'x, y, z'
loop_
 _atom_site_type_symbol
 _atom_site_label
 _atom_site_symmetry_multiplicity
 _atom_site_fract_x
 _atom_site_fract_y
 _atom_site_fract_z
 _atom_site_occupancy
  Rb  Rb0  1  0.75000002  0.00000000  0.66619501  1
  Rb  Rb1  1  0.25000001  0.00000000  0.33380500  1
  Rb  Rb2  1  0.75000002  0.49999997  0.16619500  1
  Rb  Rb3  1  0.25000001  0.49999997  0.83380501  1
  Ag  Ag4  1  0.50000001  0.00000000  0.00000000  1
  Ag  Ag5  1  0.00000000  0.00000000  0.00000000  1
  Ag  Ag6  1  0.00000000  0.49999997  0.50000001  1
  Ag  Ag7  1  0.50000001  0.49999997  0.50000001  1
  I  I8  1  0.28483601  0.75572196  0.08278800  1
  Cl  Cl9  1  0.71516402  0.25572199  0.41721200  1
  Cl  Cl10  1  0.21516401  0.24427799  0.08278800  1
  Cl  Cl11  1  0.78483602  0.75572196  0.91721201  1
  Cl  Cl12  1  0.28483601  0.74427796  0.58278801  1
  Cl  Cl13  1  0.71516402  0.24427799  0.91721201  1
  Cl  Cl14  1  0.75000002  0.00000000  0.15607400  1
  Cl  Cl15  1  0.21516401  0.25572199  0.58278801  1
  Cl  Cl16  1  0.25000001  0.49999997  0.34392600  1
  Cl  Cl17  1  0.75000002  0.49999997  0.65607401  1
  Cl  Cl18  1  0.25000001  0.00000000  0.84392601  1
  Cl  Cl19  1  0.78483602  0.74427796  0.41721200  1
