# generated using pymatgen
data_LiMg3CuAg7
_symmetry_space_group_name_H-M   'P 1'
_cell_length_a   5.51052618
_cell_length_b   5.63826227
_cell_length_c   10.16576004
_cell_angle_alpha   82.38899994
_cell_angle_beta   74.27421570
_cell_angle_gamma   60.74664307
_symmetry_Int_Tables_number   1
_chemical_formula_structural   LiMg3CuAg7
_chemical_formula_sum   'Li1 Mg3 Cu1 Ag7'
_cell_volume   265.25260638
_cell_formula_units_Z   1
loop_
 _symmetry_equiv_pos_site_id
 _symmetry_equiv_pos_as_xyz
  1  'x, y, z'
loop_
 _atom_site_type_symbol
 _atom_site_label
 _atom_site_symmetry_multiplicity
 _atom_site_fract_x
 _atom_site_fract_y
 _atom_site_fract_z
 _atom_site_occupancy
  Li  Li0  1  0.62357098  0.50000001  0.75285797  1
  Mg  Mg1  1  0.87642898  0.50000001  0.24714198  1
  Mg  Mg2  1  0.12642900  0.00000000  0.74714197  1
  Mg  Mg3  1  0.87357097  0.00000000  0.25285799  1
  Ag  Ag4  1  0.91723097  0.16553800  0.49999998  1
  Ag  Ag5  1  0.58276899  0.83446202  0.49999997  1
  Ag  Ag6  1  0.83276898  0.33446201  -0.00000000  1
  Ag  Ag7  1  0.16723100  0.66553801  -0.00000001  1
  Cu  Cu8  1  0.17232000  0.50000001  0.65535997  1
  Ag  Ag9  1  0.32767999  0.50000001  0.34463998  1
  Ag  Ag10  1  0.57767998  0.00000000  0.84463997  1
  Ag  Ag11  1  0.42231999  0.00000000  0.15536000  1
