# generated using pymatgen
data_Rb2BiCl5
_symmetry_space_group_name_H-M   'P 1'
_cell_length_a   7.83496141
_cell_length_b   7.83496141
_cell_length_c   8.92633915
_cell_angle_alpha   63.96834946
_cell_angle_beta   63.96834946
_cell_angle_gamma   60.00000763
_symmetry_Int_Tables_number   1
_chemical_formula_structural   Rb2BiCl5
_chemical_formula_sum   'Rb2 Bi1 Cl5'
_cell_volume   409.09932789
_cell_formula_units_Z   1
loop_
 _symmetry_equiv_pos_site_id
 _symmetry_equiv_pos_as_xyz
  1  'x, y, z'
loop_
 _atom_site_type_symbol
 _atom_site_label
 _atom_site_symmetry_multiplicity
 _atom_site_fract_x
 _atom_site_fract_y
 _atom_site_fract_z
 _atom_site_occupancy
  Rb  Rb0  1  0.33324100  0.33324099  0.00027701  1
  Rb  Rb1  1  0.66675899  0.66675898  0.99972298  1
  Bi  Bi2  1  0.43556500  0.72503497  0.76307299  1
  Cl  Cl3  1  0.07632701  0.43556498  0.76307298  1
  Cl  Cl4  1  0.27496501  0.92367297  0.23692701  1
  Cl  Cl5  1  0.92367298  0.56443498  0.23692701  1
  Cl  Cl6  1  0.56443499  0.27496499  0.23692700  1
  Cl  Cl7  1  0.72503498  0.07632700  0.76307298  1
