# generated using pymatgen
data_Li7Co5
_symmetry_space_group_name_H-M   'P 1'
_cell_length_a   3.79657006
_cell_length_b   3.79656982
_cell_length_c   16.44066238
_cell_angle_alpha   90.00000000
_cell_angle_beta   90.00000000
_cell_angle_gamma   120.00000000
_symmetry_Int_Tables_number   1
_chemical_formula_structural   Li7Co5
_chemical_formula_sum   'Li7 Co5'
_cell_volume   205.22617607
_cell_formula_units_Z   1
loop_
 _symmetry_equiv_pos_site_id
 _symmetry_equiv_pos_as_xyz
  1  'x, y, z'
loop_
 _atom_site_type_symbol
 _atom_site_label
 _atom_site_symmetry_multiplicity
 _atom_site_fract_x
 _atom_site_fract_y
 _atom_site_fract_z
 _atom_site_occupancy
  Li  Li0  1  0.66666665  0.33333334  0.60705299  1
  Li  Li1  1  0.33333332  0.66666668  0.10705300  1
  Li  Li2  1  0.33333332  0.66666668  0.39294699  1
  Li  Li3  1  0.66666665  0.33333334  0.89294698  1
  Li  Li4  1  0.33333332  0.66666668  0.74999998  1
  Li  Li5  1  0.66666665  0.33333334  0.24999999  1
  Co  Co6  1  0.00000000  0.00000000  0.56408699  1
  Li  Li7  1  0.00000000  0.00000000  0.06408700  1
  Co  Co8  1  0.00000000  0.00000000  0.43591299  1
  Co  Co9  1  0.00000000  0.00000000  0.93591298  1
  Co  Co10  1  0.33333332  0.66666668  0.24999999  1
  Co  Co11  1  0.66666665  0.33333334  0.74999998  1
