# generated using pymatgen
data_K6CuBiS10
_symmetry_space_group_name_H-M   'P 1'
_cell_length_a   8.58970642
_cell_length_b   9.48574734
_cell_length_c   8.58970642
_cell_angle_alpha   63.07851791
_cell_angle_beta   90.00000000
_cell_angle_gamma   116.92148590
_symmetry_Int_Tables_number   1
_chemical_formula_structural   K6CuBiS10
_chemical_formula_sum   'K6 Cu1 Bi1 S10'
_cell_volume   537.59388915
_cell_formula_units_Z   1
loop_
 _symmetry_equiv_pos_site_id
 _symmetry_equiv_pos_as_xyz
  1  'x, y, z'
loop_
 _atom_site_type_symbol
 _atom_site_label
 _atom_site_symmetry_multiplicity
 _atom_site_fract_x
 _atom_site_fract_y
 _atom_site_fract_z
 _atom_site_occupancy
  K  K0  1  0.25000001  0.50000001  0.74999997  1
  K  K1  1  0.74999999  0.50000001  0.25000000  1
  K  K2  1  0.33551103  0.99999902  0.83551198  1
  K  K3  1  0.83551096  0.00000000  0.66448897  1
  K  K4  1  0.16448904  1.00000002  0.33551100  1
  K  K5  1  0.66448897  0.00000100  0.16448799  1
  Cu  Cu6  1  0.74999999  0.50000001  0.74999997  1
  Bi  Bi7  1  0.25000001  0.50000001  0.25000000  1
  S  S8  1  0.00000000  0.00000000  0.00000000  1
  S  S9  1  0.49999998  0.00000000  0.49999998  1
  S  S10  1  0.00874201  0.31183501  0.19690700  1
  S  S11  1  0.69690600  0.68816301  0.50874299  1
  S  S12  1  0.99125798  0.68816501  0.80309297  1
  S  S13  1  0.49125801  0.68816401  0.00874201  1
  S  S14  1  0.19690602  0.68816401  0.30309400  1
  S  S15  1  0.50874199  0.31183601  0.99125796  1
  S  S16  1  0.30309400  0.31183701  0.49125698  1
  S  S17  1  0.80309397  0.31183601  0.69690597  1
