# generated using pymatgen
data_K3TaO7
_symmetry_space_group_name_H-M   'P 1'
_cell_length_a   4.03509092
_cell_length_b   6.98762798
_cell_length_c   7.18253946
_cell_angle_alpha   108.87879181
_cell_angle_beta   90.00000000
_cell_angle_gamma   90.00000000
_symmetry_Int_Tables_number   1
_chemical_formula_structural   K3TaO7
_chemical_formula_sum   'K3 Ta1 O7'
_cell_volume   191.62247648
_cell_formula_units_Z   1
loop_
 _symmetry_equiv_pos_site_id
 _symmetry_equiv_pos_as_xyz
  1  'x, y, z'
loop_
 _atom_site_type_symbol
 _atom_site_label
 _atom_site_symmetry_multiplicity
 _atom_site_fract_x
 _atom_site_fract_y
 _atom_site_fract_z
 _atom_site_occupancy
  K  K0  1  1.00000002  0.49908700  0.50452800  1
  K  K1  1  0.50000001  0.99874701  0.49861400  1
  K  K2  1  -0.00000000  0.01856700  0.00280000  1
  Ta  Ta3  1  0.50000001  0.48839100  0.01104001  1
  O  O4  1  0.50000001  0.41007700  0.73069699  1
  O  O5  1  -0.00000000  0.90733501  0.72841400  1
  O  O6  1  0.50000001  0.58322100  0.29195700  1
  O  O7  1  1.00000002  0.10529100  0.27771599  1
  O  O8  1  0.50000001  0.15225700  0.98049398  1
  O  O9  1  1.00000002  0.38781300  0.02211901  1
  O  O10  1  0.50000001  0.80621301  0.02262201  1
