# generated using pymatgen
data_Lu2NbC3
_symmetry_space_group_name_H-M   'P 1'
_cell_length_a   3.62732291
_cell_length_b   3.62732291
_cell_length_c   6.41193914
_cell_angle_alpha   90.00000000
_cell_angle_beta   90.00000000
_cell_angle_gamma   90.00000000
_symmetry_Int_Tables_number   1
_chemical_formula_structural   Lu2NbC3
_chemical_formula_sum   'Lu2 Nb1 C3'
_cell_volume   84.36490661
_cell_formula_units_Z   1
loop_
 _symmetry_equiv_pos_site_id
 _symmetry_equiv_pos_as_xyz
  1  'x, y, z'
loop_
 _atom_site_type_symbol
 _atom_site_label
 _atom_site_symmetry_multiplicity
 _atom_site_fract_x
 _atom_site_fract_y
 _atom_site_fract_z
 _atom_site_occupancy
  Lu  Lu0  1  0.00000000  0.50000001  0.80247198  1
  Lu  Lu1  1  0.50000001  0.00000000  0.19752800  1
  Nb  Nb2  1  0.50000001  0.00000000  0.62686999  1
  C  C3  1  0.00000000  0.50000001  0.37312999  1
  C  C4  1  0.00000000  0.00000000  0.00000000  1
  C  C5  1  0.50000001  0.50000001  0.00000000  1
