# generated using pymatgen
data_Zn5TeO4
_symmetry_space_group_name_H-M   'P 1'
_cell_length_a   3.28942609
_cell_length_b   3.28942561
_cell_length_c   26.33962440
_cell_angle_alpha   90.00000000
_cell_angle_beta   90.00000000
_cell_angle_gamma   120.00000763
_symmetry_Int_Tables_number   1
_chemical_formula_structural   Zn5TeO4
_chemical_formula_sum   'Zn10 Te2 O8'
_cell_volume   246.82001710
_cell_formula_units_Z   2
loop_
 _symmetry_equiv_pos_site_id
 _symmetry_equiv_pos_as_xyz
  1  'x, y, z'
loop_
 _atom_site_type_symbol
 _atom_site_label
 _atom_site_symmetry_multiplicity
 _atom_site_fract_x
 _atom_site_fract_y
 _atom_site_fract_z
 _atom_site_occupancy
  Zn  Zn0  1  0.66666667  0.33333334  0.72327102  1
  Zn  Zn1  1  0.66666667  0.33333334  0.92323902  1
  Zn  Zn2  1  0.00000000  0.00000000  0.02414600  1
  Zn  Zn3  1  0.00000000  0.00000000  0.22400101  1
  Zn  Zn4  1  0.00000000  0.00000000  0.42399701  1
  Zn  Zn5  1  0.00000000  0.00000000  0.62453501  1
  Zn  Zn6  1  0.00000000  0.00000000  0.82468202  1
  Zn  Zn7  1  0.66666667  0.33333334  0.12399100  1
  Zn  Zn8  1  0.66666667  0.33333334  0.32399701  1
  Zn  Zn9  1  0.66666667  0.33333334  0.52399301  1
  Te  Te10  1  0.00000000  0.00000000  0.10024100  1
  Te  Te11  1  0.00000000  0.00000000  0.30021701  1
  O  O12  1  0.00000000  0.00000000  0.50022301  1
  O  O13  1  0.00000000  0.00000000  0.70094802  1
  O  O14  1  0.00000000  0.00000000  0.90096302  1
  O  O15  1  0.66666667  0.33333334  0.20020400  1
  O  O16  1  0.66666667  0.33333334  0.40021001  1
  O  O17  1  0.66666667  0.33333334  0.60029301  1
  O  O18  1  0.66666667  0.33333334  0.79953802  1
  O  O19  1  0.66666667  0.33333334  0.99945302  1
