# generated using pymatgen
data_Li4Cu3S7
_symmetry_space_group_name_H-M   'P 1'
_cell_length_a   7.26312971
_cell_length_b   7.26312971
_cell_length_c   7.27386904
_cell_angle_alpha   90.73566437
_cell_angle_beta   119.10816193
_cell_angle_gamma   119.99752045
_symmetry_Int_Tables_number   1
_chemical_formula_structural   Li4Cu3S7
_chemical_formula_sum   'Li4 Cu3 S7'
_cell_volume   273.21857884
_cell_formula_units_Z   1
loop_
 _symmetry_equiv_pos_site_id
 _symmetry_equiv_pos_as_xyz
  1  'x, y, z'
loop_
 _atom_site_type_symbol
 _atom_site_label
 _atom_site_symmetry_multiplicity
 _atom_site_fract_x
 _atom_site_fract_y
 _atom_site_fract_z
 _atom_site_occupancy
  Li  Li0  1  0.98022603  0.48139101  0.01325405  1
  Li  Li1  1  0.46813708  0.96697202  0.98674604  1
  Li  Li2  1  0.50499804  0.50499801  0.00000003  1
  Li  Li3  1  0.00625404  0.50625401  0.50000001  1
  Cu  Cu4  1  0.26641201  0.13592400  0.37322201  1
  Cu  Cu5  1  0.76270207  0.89319001  0.62677805  1
  S  S6  1  0.97263901  0.25603100  0.24153004  1
  Cu  Cu7  1  0.47231606  0.73381901  0.21397104  1
  S  S8  1  0.03947203  0.30616700  0.76558000  1
  S  S9  1  0.47596006  0.73460201  0.75902503  1
  S  S10  1  0.97557705  0.71693501  0.24097505  1
  S  S11  1  0.54058702  0.27389200  0.23442002  1
  S  S12  1  0.01450106  0.73110901  0.75847002  1
  S  S13  1  0.51984802  0.25834500  0.78602902  1
