# generated using pymatgen
data_K2Ag3S4
_symmetry_space_group_name_H-M   'P 1'
_cell_length_a   6.19308996
_cell_length_b   6.25856924
_cell_length_c   13.44943142
_cell_angle_alpha   83.45903015
_cell_angle_beta   76.68902588
_cell_angle_gamma   60.34549332
_symmetry_Int_Tables_number   1
_chemical_formula_structural   K2Ag3S4
_chemical_formula_sum   'K4 Ag6 S8'
_cell_volume   440.85062900
_cell_formula_units_Z   2
loop_
 _symmetry_equiv_pos_site_id
 _symmetry_equiv_pos_as_xyz
  1  'x, y, z'
loop_
 _atom_site_type_symbol
 _atom_site_label
 _atom_site_symmetry_multiplicity
 _atom_site_fract_x
 _atom_site_fract_y
 _atom_site_fract_z
 _atom_site_occupancy
  K  K0  1  0.07764200  0.00000000  0.84471602  1
  K  K1  1  0.82764201  0.50000001  0.34471601  1
  K  K2  1  0.67235801  0.50000001  0.65528401  1
  K  K3  1  0.92235801  0.00000000  0.15528400  1
  Ag  Ag4  1  0.25088000  0.00000000  0.49824001  1
  Ag  Ag5  1  0.00088000  0.50000001  0.99824003  1
  Ag  Ag6  1  0.49912001  0.50000001  0.00176000  1
  Ag  Ag7  1  0.50000000  0.00000000  -0.00000000  1
  Ag  Ag8  1  0.25000001  0.50000001  0.50000001  1
  Ag  Ag9  1  0.74912001  0.00000000  0.50176001  1
  S  S10  1  0.71928301  0.66813402  0.88209302  1
  S  S11  1  0.35137600  0.16813400  0.61790701  1
  S  S12  1  0.13741701  0.83186602  0.38209301  1
  S  S13  1  0.48049001  0.16813400  0.38209301  1
  S  S14  1  0.26951001  0.33186601  0.11790700  1
  S  S15  1  0.61258301  0.66813402  0.11790700  1
  S  S16  1  0.39862401  0.33186601  0.88209302  1
  S  S17  1  0.03071701  0.83186602  0.61790702  1
