# generated using pymatgen
data_LiSi2O5
_symmetry_space_group_name_H-M   'P 1'
_cell_length_a   5.20623064
_cell_length_b   5.21259165
_cell_length_c   7.24564314
_cell_angle_alpha   105.96888733
_cell_angle_beta   108.88459015
_cell_angle_gamma   99.35348511
_symmetry_Int_Tables_number   1
_chemical_formula_structural   LiSi2O5
_chemical_formula_sum   'Li2 Si4 O10'
_cell_volume   171.89224862
_cell_formula_units_Z   2
loop_
 _symmetry_equiv_pos_site_id
 _symmetry_equiv_pos_as_xyz
  1  'x, y, z'
loop_
 _atom_site_type_symbol
 _atom_site_label
 _atom_site_symmetry_multiplicity
 _atom_site_fract_x
 _atom_site_fract_y
 _atom_site_fract_z
 _atom_site_occupancy
  Li  Li0  1  0.99981202  0.00004000  0.49998899  1
  Li  Li1  1  0.00008203  0.99984604  0.00003598  1
  Si  Si2  1  0.67457402  0.33873801  0.22661799  1
  Si  Si3  1  0.32546403  0.66129203  0.77338699  1
  Si  Si4  1  0.34540901  0.00410100  0.32249600  1
  Si  Si5  1  0.65448504  0.99594504  0.67762498  1
  O  O6  1  0.86457102  0.04068900  0.73219999  1
  O  O7  1  0.70301402  0.16426501  0.37288299  1
  O  O8  1  0.27095902  0.35395102  0.63785199  1
  O  O9  1  0.37039201  0.24052501  0.06438399  1
  O  O10  1  0.89023303  0.31940501  0.12268899  1
  O  O11  1  0.10984102  0.68069703  0.87729499  1
  O  O12  1  0.62971604  0.75940703  0.93545998  1
  O  O13  1  0.72904403  0.64605003  0.36202498  1
  O  O14  1  0.29703903  0.83579004  0.62720598  1
  O  O15  1  0.13536503  0.95926004  0.26785698  1
