# generated using pymatgen
data_Ce(GaNi)2
_symmetry_space_group_name_H-M   'P 1'
_cell_length_a   4.18398619
_cell_length_b   4.18398619
_cell_length_c   5.79583979
_cell_angle_alpha   111.15838623
_cell_angle_beta   111.15838623
_cell_angle_gamma   90.00000000
_symmetry_Int_Tables_number   1
_chemical_formula_structural   Ce(GaNi)2
_chemical_formula_sum   'Ce1 Ga2 Ni2'
_cell_volume   87.24621167
_cell_formula_units_Z   1
loop_
 _symmetry_equiv_pos_site_id
 _symmetry_equiv_pos_as_xyz
  1  'x, y, z'
loop_
 _atom_site_type_symbol
 _atom_site_label
 _atom_site_symmetry_multiplicity
 _atom_site_fract_x
 _atom_site_fract_y
 _atom_site_fract_z
 _atom_site_occupancy
  Ce  Ce0  1  0.59895596  0.59895597  0.19791199  1
  Ga  Ga1  1  0.00337400  0.00337400  0.00674800  1
  Ga  Ga2  1  0.34962497  0.84962496  0.69925000  1
  Ni  Ni3  1  0.84962495  0.34962498  0.69925000  1
  Ni  Ni4  1  0.24411998  0.24411999  0.48824000  1
