# generated using pymatgen
data_Pr4Sn5
_symmetry_space_group_name_H-M   'P 1'
_cell_length_a   6.40083313
_cell_length_b   9.64774418
_cell_length_c   9.64774418
_cell_angle_alpha   120.00000000
_cell_angle_beta   90.00000000
_cell_angle_gamma   90.00000000
_symmetry_Int_Tables_number   1
_chemical_formula_structural   Pr4Sn5
_chemical_formula_sum   'Pr8 Sn10'
_cell_volume   515.96316153
_cell_formula_units_Z   2
loop_
 _symmetry_equiv_pos_site_id
 _symmetry_equiv_pos_as_xyz
  1  'x, y, z'
loop_
 _atom_site_type_symbol
 _atom_site_label
 _atom_site_symmetry_multiplicity
 _atom_site_fract_x
 _atom_site_fract_y
 _atom_site_fract_z
 _atom_site_occupancy
  Pr  Pr0  1  0.74999998  0.38202900  0.38202903  1
  Pr  Pr1  1  0.24999999  0.38202900  1.00000005  1
  Pr  Pr2  1  0.24999999  0.61797100  0.61797104  1
  Pr  Pr3  1  0.74999998  0.61797100  1.00000006  1
  Pr  Pr4  1  0.74999998  0.00000000  0.61797102  1
  Pr  Pr5  1  0.24999999  0.00000000  0.38202901  1
  Pr  Pr6  1  0.00000000  0.00000000  0.00000000  1
  Pr  Pr7  1  0.49999999  0.00000000  -0.00000000  1
  Sn  Sn8  1  0.49999999  0.66666667  0.33333337  1
  Sn  Sn9  1  0.99999998  0.33333333  0.66666670  1
  Sn  Sn10  1  0.49999999  0.33333333  0.66666670  1
  Sn  Sn11  1  0.99999998  0.66666667  0.33333337  1
  Sn  Sn12  1  0.24999999  0.25771200  0.25771202  1
  Sn  Sn13  1  0.74999998  0.25771200  1.00000005  1
  Sn  Sn14  1  0.74999998  0.00000000  0.25771201  1
  Sn  Sn15  1  0.24999999  0.00000000  0.74228803  1
  Sn  Sn16  1  0.74999998  0.74228800  0.74228805  1
  Sn  Sn17  1  0.24999999  0.74228800  0.00000003  1
