# generated using pymatgen
data_PrSi2
_symmetry_space_group_name_H-M   'P 1'
_cell_length_a   4.32482815
_cell_length_b   4.32482815
_cell_length_c   7.98149109
_cell_angle_alpha   105.71952820
_cell_angle_beta   105.71952820
_cell_angle_gamma   90.00000000
_symmetry_Int_Tables_number   1
_chemical_formula_structural   PrSi2
_chemical_formula_sum   'Pr2 Si4'
_cell_volume   137.89420247
_cell_formula_units_Z   2
loop_
 _symmetry_equiv_pos_site_id
 _symmetry_equiv_pos_as_xyz
  1  'x, y, z'
loop_
 _atom_site_type_symbol
 _atom_site_label
 _atom_site_symmetry_multiplicity
 _atom_site_fract_x
 _atom_site_fract_y
 _atom_site_fract_z
 _atom_site_occupancy
  Pr  Pr0  1  0.62501997  0.12501999  0.25004000  1
  Pr  Pr1  1  0.87501995  0.87501996  0.75003999  1
  Si  Si2  1  0.45828697  0.45828698  0.91657401  1
  Si  Si3  1  0.20828698  0.70828697  0.41657400  1
  Si  Si4  1  0.04169299  0.54169298  0.08338599  1
  Si  Si5  1  0.29169298  0.29169299  0.58338601  1
