# generated using pymatgen
data_Mg(CuO2)2
_symmetry_space_group_name_H-M   'P 1'
_cell_length_a   6.05882454
_cell_length_b   6.05882454
_cell_length_c   6.05882454
_cell_angle_alpha   60.00000000
_cell_angle_beta   60.00000000
_cell_angle_gamma   60.00000000
_symmetry_Int_Tables_number   1
_chemical_formula_structural   Mg(CuO2)2
_chemical_formula_sum   'Mg2 Cu4 O8'
_cell_volume   157.27153633
_cell_formula_units_Z   2
loop_
 _symmetry_equiv_pos_site_id
 _symmetry_equiv_pos_as_xyz
  1  'x, y, z'
loop_
 _atom_site_type_symbol
 _atom_site_label
 _atom_site_symmetry_multiplicity
 _atom_site_fract_x
 _atom_site_fract_y
 _atom_site_fract_z
 _atom_site_occupancy
  Mg  Mg0  1  0.37500001  0.87500002  0.87500002  1
  Mg  Mg1  1  0.87500002  0.87500002  0.37500001  1
  Cu  Cu2  1  0.87500002  0.37500001  0.87500002  1
  Cu  Cu3  1  0.87500002  0.87500002  0.87500002  1
  Cu  Cu4  1  0.25000000  0.25000000  0.25000000  1
  Cu  Cu5  1  0.50000001  0.50000001  0.50000001  1
  O  O6  1  0.11483600  0.11483600  0.11483600  1
  O  O7  1  0.63516401  0.09450800  0.63516401  1
  O  O8  1  0.09450800  0.63516401  0.63516401  1
  O  O9  1  0.63516401  0.63516401  0.09450800  1
  O  O10  1  0.65549201  0.11483600  0.11483600  1
  O  O11  1  0.11483600  0.11483600  0.65549201  1
  O  O12  1  0.63516401  0.63516401  0.63516401  1
  O  O13  1  0.11483600  0.65549201  0.11483600  1
