# generated using pymatgen
data_Mn5Co3
_symmetry_space_group_name_H-M   'P 1'
_cell_length_a   4.79935360
_cell_length_b   4.79935360
_cell_length_c   4.79935360
_cell_angle_alpha   109.47122192
_cell_angle_beta   109.47122192
_cell_angle_gamma   109.47122192
_symmetry_Int_Tables_number   1
_chemical_formula_structural   Mn5Co3
_chemical_formula_sum   'Mn5 Co3'
_cell_volume   85.09936780
_cell_formula_units_Z   1
loop_
 _symmetry_equiv_pos_site_id
 _symmetry_equiv_pos_as_xyz
  1  'x, y, z'
loop_
 _atom_site_type_symbol
 _atom_site_label
 _atom_site_symmetry_multiplicity
 _atom_site_fract_x
 _atom_site_fract_y
 _atom_site_fract_z
 _atom_site_occupancy
  Mn  Mn0  1  0.00000000  0.00000000  0.00000000  1
  Mn  Mn1  1  0.50000002  0.50000000  0.50000002  1
  Mn  Mn2  1  1.00000001  0.50000000  0.00000005  1
  Mn  Mn3  1  0.00000000  0.00000000  0.49999998  1
  Mn  Mn4  1  0.50000005  1.00000001  1.00000003  1
  Co  Co5  1  0.50000005  1.00000001  0.50000005  1
  Co  Co6  1  1.00000001  0.50000000  0.50000004  1
  Co  Co7  1  0.50000002  0.50000000  1.00000001  1
