# generated using pymatgen
data_Y4Pd5
_symmetry_space_group_name_H-M   'P 1'
_cell_length_a   7.87127209
_cell_length_b   8.84148693
_cell_length_c   7.87127209
_cell_angle_alpha   63.56816101
_cell_angle_beta   90.00000000
_cell_angle_gamma   116.43183899
_symmetry_Int_Tables_number   1
_chemical_formula_structural   Y4Pd5
_chemical_formula_sum   'Y8 Pd10'
_cell_volume   425.62839943
_cell_formula_units_Z   2
loop_
 _symmetry_equiv_pos_site_id
 _symmetry_equiv_pos_as_xyz
  1  'x, y, z'
loop_
 _atom_site_type_symbol
 _atom_site_label
 _atom_site_symmetry_multiplicity
 _atom_site_fract_x
 _atom_site_fract_y
 _atom_site_fract_z
 _atom_site_occupancy
  Y  Y0  1  0.25000001  0.49999999  0.74999998  1
  Y  Y1  1  0.75000001  0.49999999  0.24999998  1
  Y  Y2  1  0.34082403  0.99999999  0.15917597  1
  Y  Y3  1  0.15917600  0.00000100  0.65917499  1
  Y  Y4  1  0.84082402  0.99999899  0.34082496  1
  Y  Y5  1  0.65917599  0.00000000  0.84082399  1
  Y  Y6  1  0.75000001  0.49999999  0.74999998  1
  Y  Y7  1  0.25000001  0.49999999  0.24999998  1
  Pd  Pd8  1  0.48329000  0.26741200  0.71587798  1
  Pd  Pd9  1  0.21587802  0.73258799  0.98328997  1
  Pd  Pd10  1  0.51671002  0.73258799  0.28412197  1
  Pd  Pd11  1  0.01671002  0.73258799  0.48328997  1
  Pd  Pd12  1  0.71587802  0.73258799  0.78412197  1
  Pd  Pd13  1  0.98329000  0.26741200  0.51670999  1
  Pd  Pd14  1  0.28412201  0.26741200  0.21587799  1
  Pd  Pd15  1  0.78412200  0.26741200  0.01670999  1
  Pd  Pd16  1  0.49999999  0.00000000  0.49999999  1
  Pd  Pd17  1  0.00000000  0.00000000  0.00000000  1
