# generated using pymatgen
data_Ce4Ni7Rh5
_symmetry_space_group_name_H-M   'P 1'
_cell_length_a   5.50889111
_cell_length_b   6.98463488
_cell_length_c   7.28515720
_cell_angle_alpha   90.00000000
_cell_angle_beta   90.00000000
_cell_angle_gamma   90.00000000
_symmetry_Int_Tables_number   1
_chemical_formula_structural   Ce4Ni7Rh5
_chemical_formula_sum   'Ce4 Ni7 Rh5'
_cell_volume   280.31531343
_cell_formula_units_Z   1
loop_
 _symmetry_equiv_pos_site_id
 _symmetry_equiv_pos_as_xyz
  1  'x, y, z'
loop_
 _atom_site_type_symbol
 _atom_site_label
 _atom_site_symmetry_multiplicity
 _atom_site_fract_x
 _atom_site_fract_y
 _atom_site_fract_z
 _atom_site_occupancy
  Ce  Ce0  1  0.35667799  0.75000001  0.02790600  1
  Ce  Ce1  1  0.14332200  0.75000001  0.52790599  1
  Ce  Ce2  1  0.64332199  0.25000000  0.97209397  1
  Ce  Ce3  1  0.85667798  0.25000000  0.47209399  1
  Ni  Ni4  1  0.64298799  0.75000001  0.37804699  1
  Ni  Ni5  1  0.85701198  0.75000001  0.87804698  1
  Ni  Ni6  1  0.35701199  0.25000000  0.62195298  1
  Ni  Ni7  1  0.14298800  0.25000000  0.12195300  1
  Ni  Ni8  1  0.90601898  0.55033101  0.17864200  1
  Ni  Ni9  1  0.59398099  0.94966902  0.67864198  1
  Ni  Ni10  1  0.09398100  0.05033100  0.82135798  1
  Rh  Rh11  1  0.40601899  0.44966901  0.32135799  1
  Rh  Rh12  1  0.09398100  0.44966901  0.82135798  1
  Rh  Rh13  1  0.40601899  0.05033100  0.32135799  1
  Rh  Rh14  1  0.90601898  0.94966902  0.17864200  1
  Rh  Rh15  1  0.59398099  0.55033101  0.67864198  1
