# generated using pymatgen
data_Nb5Fe11
_symmetry_space_group_name_H-M   'P 1'
_cell_length_a   5.78246021
_cell_length_b   7.54633856
_cell_length_c   7.54633856
_cell_angle_alpha   81.55912781
_cell_angle_beta   67.47229004
_cell_angle_gamma   67.47229004
_symmetry_Int_Tables_number   1
_chemical_formula_structural   Nb5Fe11
_chemical_formula_sum   'Nb5 Fe11'
_cell_volume   280.95825434
_cell_formula_units_Z   1
loop_
 _symmetry_equiv_pos_site_id
 _symmetry_equiv_pos_as_xyz
  1  'x, y, z'
loop_
 _atom_site_type_symbol
 _atom_site_label
 _atom_site_symmetry_multiplicity
 _atom_site_fract_x
 _atom_site_fract_y
 _atom_site_fract_z
 _atom_site_occupancy
  Fe  Fe0  1  0.16314699  0.05647600  0.21636000  1
  Nb  Nb1  1  0.62950697  0.28364000  0.55647599  1
  Nb  Nb2  1  0.46962294  0.71635999  0.44352402  1
  Fe  Fe3  1  0.43598293  0.94352399  0.78364003  1
  Fe  Fe4  1  0.08685297  0.44352399  0.28364002  1
  Nb  Nb5  1  0.62049297  0.21636000  0.94352398  1
  Nb  Nb6  1  0.78037693  0.78363999  0.05647603  1
  Nb  Nb7  1  0.81401694  0.55647599  0.71636000  1
  Fe  Fe8  1  0.56704598  0.09090400  0.30423799  1
  Fe  Fe9  1  0.12128498  0.19576200  0.59090299  1
  Fe  Fe10  1  0.90794993  0.80423799  0.40909702  1
  Fe  Fe11  1  0.96218892  0.90909599  0.69576202  1
  Fe  Fe12  1  0.68295396  0.40909599  0.19576201  1
  Fe  Fe13  1  0.12871498  0.30423800  0.90909699  1
  Fe  Fe14  1  0.34204995  0.69576199  0.09090303  1
  Fe  Fe15  1  0.28781096  0.59090399  0.80423801  1
