# generated using pymatgen
data_NaCuO3
_symmetry_space_group_name_H-M   'P 1'
_cell_length_a   5.43404722
_cell_length_b   6.65514231
_cell_length_c   6.65512037
_cell_angle_alpha   70.83782196
_cell_angle_beta   89.99895477
_cell_angle_gamma   89.99897003
_symmetry_Int_Tables_number   1
_chemical_formula_structural   NaCuO3
_chemical_formula_sum   'Na4 Cu4 O12'
_cell_volume   227.34295976
_cell_formula_units_Z   4
loop_
 _symmetry_equiv_pos_site_id
 _symmetry_equiv_pos_as_xyz
  1  'x, y, z'
loop_
 _atom_site_type_symbol
 _atom_site_label
 _atom_site_symmetry_multiplicity
 _atom_site_fract_x
 _atom_site_fract_y
 _atom_site_fract_z
 _atom_site_occupancy
  Na  Na0  1  0.50000597  0.25285600  0.75284304  1
  Na  Na1  1  0.99999391  0.99715101  0.49716909  1
  Na  Na2  1  0.50000594  0.75284300  0.25285606  1
  Na  Na3  1  0.99999294  0.49717000  0.99715207  1
  Cu  Cu4  1  0.99998994  0.49971400  0.49971406  1
  Cu  Cu5  1  0.50002197  0.25026500  0.25026503  1
  Cu  Cu6  1  0.99998391  0.99972501  0.99973011  1
  Cu  Cu7  1  0.50001694  0.75027300  0.75027308  1
  O  O8  1  0.24991796  0.62495900  0.62495506  1
  O  O9  1  0.75007995  0.37504200  0.37504204  1
  O  O10  1  0.24992198  0.12495000  0.12494901  1
  O  O11  1  0.75009193  0.87504401  0.87504409  1
  O  O12  1  0.99999495  0.25138300  0.75140605  1
  O  O13  1  0.49999793  0.99862901  0.49860809  1
  O  O14  1  0.99999592  0.75140200  0.25138707  1
  O  O15  1  0.49999896  0.49861200  0.99862707  1
  O  O16  1  0.24991897  0.37504000  0.37503904  1
  O  O17  1  0.75008097  0.12494700  0.12494702  1
  O  O18  1  0.24991494  0.87504001  0.87504008  1
  O  O19  1  0.75007394  0.62495400  0.62495307  1
