# generated using pymatgen
data_Pr3Ni7
_symmetry_space_group_name_H-M   'P 1'
_cell_length_a   7.86748219
_cell_length_b   7.86748219
_cell_length_c   7.86748219
_cell_angle_alpha   109.47122192
_cell_angle_beta   109.47122192
_cell_angle_gamma   109.47122192
_symmetry_Int_Tables_number   1
_chemical_formula_structural   Pr3Ni7
_chemical_formula_sum   'Pr6 Ni14'
_cell_volume   374.87406288
_cell_formula_units_Z   2
loop_
 _symmetry_equiv_pos_site_id
 _symmetry_equiv_pos_as_xyz
  1  'x, y, z'
loop_
 _atom_site_type_symbol
 _atom_site_label
 _atom_site_symmetry_multiplicity
 _atom_site_fract_x
 _atom_site_fract_y
 _atom_site_fract_z
 _atom_site_occupancy
  Pr  Pr0  1  0.75000002  0.12500001  0.37500003  1
  Pr  Pr1  1  0.25000003  0.37500002  0.12500003  1
  Pr  Pr2  1  0.37500005  0.62500003  0.75000005  1
  Pr  Pr3  1  0.12500006  0.87500004  0.25000005  1
  Pr  Pr4  1  0.62500003  0.25000001  0.87500004  1
  Pr  Pr5  1  0.87500006  0.75000004  0.62500007  1
  Ni  Ni6  1  0.75000005  0.62500003  0.87500006  1
  Ni  Ni7  1  0.25000006  0.87500004  0.62500006  1
  Ni  Ni8  1  0.87500002  0.12500001  0.75000003  1
  Ni  Ni9  1  0.62500003  0.37500002  0.25000004  1
  Ni  Ni10  1  0.12500002  0.25000001  0.37500002  1
  Ni  Ni11  1  0.37500005  0.75000004  0.12500005  1
  Ni  Ni12  1  0.83344201  0.00000000  0.00000002  1
  Ni  Ni13  1  0.00000003  0.50000002  0.33344203  1
  Ni  Ni14  1  0.50000006  0.83344204  0.50000006  1
  Ni  Ni15  1  0.33344207  1.00000005  0.00000006  1
  Ni  Ni16  1  0.66655805  0.66655803  0.16655805  1
  Ni  Ni17  1  1.00000005  0.50000002  0.83344206  1
  Ni  Ni18  1  0.16655801  0.16655801  0.66655802  1
  Ni  Ni19  1  0.50000003  0.33344202  0.50000004  1
