# generated using pymatgen
data_Mn7Co9
_symmetry_space_group_name_H-M   'P 1'
_cell_length_a   4.13533640
_cell_length_b   4.13533640
_cell_length_c   13.70636654
_cell_angle_alpha   81.32353973
_cell_angle_beta   81.32353973
_cell_angle_gamma   59.99998856
_symmetry_Int_Tables_number   1
_chemical_formula_structural   Mn7Co9
_chemical_formula_sum   'Mn7 Co9'
_cell_volume   199.88661543
_cell_formula_units_Z   1
loop_
 _symmetry_equiv_pos_site_id
 _symmetry_equiv_pos_as_xyz
  1  'x, y, z'
loop_
 _atom_site_type_symbol
 _atom_site_label
 _atom_site_symmetry_multiplicity
 _atom_site_fract_x
 _atom_site_fract_y
 _atom_site_fract_z
 _atom_site_occupancy
  Mn  Mn0  1  0.87450503  0.87450506  0.37648498  1
  Mn  Mn1  1  0.62548202  0.62548204  0.12355399  1
  Mn  Mn2  1  0.37510401  0.37510403  0.87468798  1
  Mn  Mn3  1  0.12492800  0.12492801  0.62521599  1
  Mn  Mn4  1  0.00022000  0.00022000  0.99933999  1
  Mn  Mn5  1  0.74991602  0.74991605  0.75025198  1
  Co  Co6  1  0.49968202  0.49968204  0.50095399  1
  Mn  Mn7  1  0.68764602  0.68764605  0.93706198  1
  Co  Co8  1  0.43739201  0.43739203  0.68782398  1
  Co  Co9  1  0.18709601  0.18709601  0.43871199  1
  Co  Co10  1  0.93786003  0.93786007  0.18641998  1
  Co  Co11  1  0.56227602  0.56227604  0.31317199  1
  Co  Co12  1  0.31269501  0.31269502  0.06191499  1
  Co  Co13  1  0.06259800  0.06259800  0.81220599  1
  Co  Co14  1  0.81240103  0.81240106  0.56279698  1
  Co  Co15  1  0.25019901  0.25019902  0.24940299  1
