# generated using pymatgen
data_BaHg2
_symmetry_space_group_name_H-M   'P 1'
_cell_length_a   4.96772623
_cell_length_b   6.25934601
_cell_length_c   6.35039616
_cell_angle_alpha   79.16324615
_cell_angle_beta   66.97485352
_cell_angle_gamma   66.62017822
_symmetry_Int_Tables_number   1
_chemical_formula_structural   BaHg2
_chemical_formula_sum   'Ba2 Hg4'
_cell_volume   166.68545314
_cell_formula_units_Z   2
loop_
 _symmetry_equiv_pos_site_id
 _symmetry_equiv_pos_as_xyz
  1  'x, y, z'
loop_
 _atom_site_type_symbol
 _atom_site_label
 _atom_site_symmetry_multiplicity
 _atom_site_fract_x
 _atom_site_fract_y
 _atom_site_fract_z
 _atom_site_occupancy
  Ba  Ba0  1  0.45401200  0.79524702  0.29672900  1
  Ba  Ba1  1  0.54598797  0.20475300  0.70327102  1
  Hg  Hg2  1  0.15237502  0.78801202  0.90723800  1
  Hg  Hg3  1  0.84762496  0.21198801  0.09276202  1
  Hg  Hg4  1  0.83097397  0.60096501  0.73708702  1
  Hg  Hg5  1  0.16902600  0.39903501  0.26291300  1
