# generated using pymatgen
data_EuGaGe
_symmetry_space_group_name_H-M   'P 1'
_cell_length_a   4.43425798
_cell_length_b   4.43425703
_cell_length_c   8.39375782
_cell_angle_alpha   90.00000000
_cell_angle_beta   90.00000000
_cell_angle_gamma   120.00000763
_symmetry_Int_Tables_number   1
_chemical_formula_structural   EuGaGe
_chemical_formula_sum   'Eu2 Ga2 Ge2'
_cell_volume   142.93179667
_cell_formula_units_Z   2
loop_
 _symmetry_equiv_pos_site_id
 _symmetry_equiv_pos_as_xyz
  1  'x, y, z'
loop_
 _atom_site_type_symbol
 _atom_site_label
 _atom_site_symmetry_multiplicity
 _atom_site_fract_x
 _atom_site_fract_y
 _atom_site_fract_z
 _atom_site_occupancy
  Eu  Eu0  1  0.00000000  0.00000000  0.50000001  1
  Eu  Eu1  1  0.00000000  0.00000000  0.00000000  1
  Ga  Ga2  1  0.33333334  0.66666668  0.25000001  1
  Ga  Ga3  1  0.66666667  0.33333334  0.75000002  1
  Ge  Ge4  1  0.66666667  0.33333334  0.25000001  1
  Ge  Ge5  1  0.33333334  0.66666668  0.75000002  1
