# generated using pymatgen
data_TlFeP3
_symmetry_space_group_name_H-M   'P 1'
_cell_length_a   4.05567980
_cell_length_b   4.05567980
_cell_length_c   6.96324539
_cell_angle_alpha   106.93103790
_cell_angle_beta   106.93103790
_cell_angle_gamma   90.00000000
_symmetry_Int_Tables_number   1
_chemical_formula_structural   TlFeP3
_chemical_formula_sum   'Tl1 Fe1 P3'
_cell_volume   104.37050704
_cell_formula_units_Z   1
loop_
 _symmetry_equiv_pos_site_id
 _symmetry_equiv_pos_as_xyz
  1  'x, y, z'
loop_
 _atom_site_type_symbol
 _atom_site_label
 _atom_site_symmetry_multiplicity
 _atom_site_fract_x
 _atom_site_fract_y
 _atom_site_fract_z
 _atom_site_occupancy
  Tl  Tl0  1  0.00000000  0.00000000  0.00000000  1
  Fe  Fe1  1  0.33731300  0.33731301  0.67462596  1
  P  P2  1  0.66268699  0.66268702  0.32537394  1
  P  P3  1  0.75000001  0.25000001  0.49999995  1
  P  P4  1  0.24999997  0.75000002  0.49999995  1
