# generated using pymatgen
data_YSi2
_symmetry_space_group_name_H-M   'P 1'
_cell_length_a   3.89677095
_cell_length_b   6.47655916
_cell_length_c   7.37843513
_cell_angle_alpha   90.00000000
_cell_angle_beta   90.00000000
_cell_angle_gamma   90.00000000
_symmetry_Int_Tables_number   1
_chemical_formula_structural   YSi2
_chemical_formula_sum   'Y4 Si8'
_cell_volume   186.21449353
_cell_formula_units_Z   4
loop_
 _symmetry_equiv_pos_site_id
 _symmetry_equiv_pos_as_xyz
  1  'x, y, z'
loop_
 _atom_site_type_symbol
 _atom_site_label
 _atom_site_symmetry_multiplicity
 _atom_site_fract_x
 _atom_site_fract_y
 _atom_site_fract_z
 _atom_site_occupancy
  Y  Y0  1  0.75000001  0.52236199  0.31897699  1
  Y  Y1  1  0.25000000  0.97763798  0.81897699  1
  Y  Y2  1  0.75000001  0.02236200  0.18102300  1
  Y  Y3  1  0.25000000  0.47763799  0.68102299  1
  Si  Si4  1  0.25000000  0.72433298  0.12149000  1
  Si  Si5  1  0.25000000  0.22433299  0.37850999  1
  Si  Si6  1  0.75000001  0.27566699  0.87850998  1
  Si  Si7  1  0.75000001  0.77566698  0.62148999  1
  Si  Si8  1  0.25000000  0.34893499  0.06038900  1
  Si  Si9  1  0.25000000  0.84893498  0.43961099  1
  Si  Si10  1  0.75000001  0.15106500  0.56038899  1
  Si  Si11  1  0.75000001  0.65106498  0.93961098  1
