# generated using pymatgen
data_Li2InS4
_symmetry_space_group_name_H-M   'P 1'
_cell_length_a   5.37088585
_cell_length_b   5.37088585
_cell_length_c   6.54763174
_cell_angle_alpha   114.21360779
_cell_angle_beta   114.21360779
_cell_angle_gamma   90.00000000
_symmetry_Int_Tables_number   1
_chemical_formula_structural   Li2InS4
_chemical_formula_sum   'Li2 In1 S4'
_cell_volume   153.85788795
_cell_formula_units_Z   1
loop_
 _symmetry_equiv_pos_site_id
 _symmetry_equiv_pos_as_xyz
  1  'x, y, z'
loop_
 _atom_site_type_symbol
 _atom_site_label
 _atom_site_symmetry_multiplicity
 _atom_site_fract_x
 _atom_site_fract_y
 _atom_site_fract_z
 _atom_site_occupancy
  Li  Li0  1  0.25000006  0.75000005  0.50000005  1
  Li  Li1  1  0.50000005  0.50000003  0.00000006  1
  In  In2  1  0.75000005  0.25000002  0.50000004  1
  S  S3  1  0.00000003  0.50000003  0.00000004  1
  S  S4  1  0.24938403  0.24938402  0.49876801  1
  S  S5  1  0.50000003  0.00000000  0.00000002  1
  S  S6  1  0.75061608  0.75061605  0.50123207  1
