# generated using pymatgen
data_Ce3In
_symmetry_space_group_name_H-M   'P 1'
_cell_length_a   5.56879520
_cell_length_b   7.15895987
_cell_length_c   7.15895987
_cell_angle_alpha   120.00000000
_cell_angle_beta   90.00000000
_cell_angle_gamma   90.00000000
_symmetry_Int_Tables_number   1
_chemical_formula_structural   Ce3In
_chemical_formula_sum   'Ce6 In2'
_cell_volume   247.16770997
_cell_formula_units_Z   2
loop_
 _symmetry_equiv_pos_site_id
 _symmetry_equiv_pos_as_xyz
  1  'x, y, z'
loop_
 _atom_site_type_symbol
 _atom_site_label
 _atom_site_symmetry_multiplicity
 _atom_site_fract_x
 _atom_site_fract_y
 _atom_site_fract_z
 _atom_site_occupancy
  Ce  Ce0  1  0.74999997  0.83294301  0.16705698  1
  Ce  Ce1  1  0.24999999  0.16705700  0.33411399  1
  Ce  Ce2  1  0.24999999  0.66588601  0.83294298  1
  Ce  Ce3  1  0.24999999  0.16705700  0.83294299  1
  Ce  Ce4  1  0.74999997  0.83294301  0.66588598  1
  Ce  Ce5  1  0.74999997  0.33411400  0.16705699  1
  In  In6  1  0.74999997  0.33333334  0.66666666  1
  In  In7  1  0.24999999  0.66666667  0.33333332  1
