# generated using pymatgen
data_Pr2MgSiO6
_symmetry_space_group_name_H-M   'P 1'
_cell_length_a   5.40160418
_cell_length_b   7.13525009
_cell_length_c   7.13525009
_cell_angle_alpha   102.78195190
_cell_angle_beta   90.00000000
_cell_angle_gamma   90.00000000
_symmetry_Int_Tables_number   1
_chemical_formula_structural   Pr2MgSiO6
_chemical_formula_sum   'Pr4 Mg2 Si2 O12'
_cell_volume   268.19047625
_cell_formula_units_Z   2
loop_
 _symmetry_equiv_pos_site_id
 _symmetry_equiv_pos_as_xyz
  1  'x, y, z'
loop_
 _atom_site_type_symbol
 _atom_site_label
 _atom_site_symmetry_multiplicity
 _atom_site_fract_x
 _atom_site_fract_y
 _atom_site_fract_z
 _atom_site_occupancy
  Pr  Pr0  1  0.53011098  0.29874400  0.08667498  1
  Pr  Pr1  1  0.03011100  0.08667500  0.29874400  1
  Pr  Pr2  1  0.57572898  0.39740400  0.60259598  1
  Pr  Pr3  1  0.07572900  0.60259599  0.39740396  1
  Mg  Mg4  1  0.03011100  0.70125599  0.91332496  1
  Mg  Mg5  1  0.53011098  0.91332499  0.70125594  1
  Si  Si6  1  0.99374197  0.19515700  0.80484299  1
  Si  Si7  1  0.49374198  0.80484299  0.19515695  1
  O  O8  1  0.80165097  0.35528500  0.32329798  1
  O  O9  1  0.30165099  0.32329800  0.35528498  1
  O  O10  1  0.82938397  0.11000200  0.58448699  1
  O  O11  1  0.32938399  0.58448699  0.11000196  1
  O  O12  1  0.87078397  0.04574200  0.95425800  1
  O  O13  1  0.32140399  0.21375000  0.78624999  1
  O  O14  1  0.82140397  0.78624999  0.21374995  1
  O  O15  1  0.37078399  0.95425799  0.04574194  1
  O  O16  1  0.82938397  0.41551300  0.88999797  1
  O  O17  1  0.32938399  0.88999799  0.41551294  1
  O  O18  1  0.30165099  0.64471499  0.67670196  1
  O  O19  1  0.80165097  0.67670199  0.64471496  1
