# generated using pymatgen
data_LiAgS2
_symmetry_space_group_name_H-M   'P 1'
_cell_length_a   4.21363783
_cell_length_b   4.21363831
_cell_length_c   5.74828720
_cell_angle_alpha   90.00000000
_cell_angle_beta   90.00000000
_cell_angle_gamma   120.00000000
_symmetry_Int_Tables_number   1
_chemical_formula_structural   LiAgS2
_chemical_formula_sum   'Li1 Ag1 S2'
_cell_volume   88.38601388
_cell_formula_units_Z   1
loop_
 _symmetry_equiv_pos_site_id
 _symmetry_equiv_pos_as_xyz
  1  'x, y, z'
loop_
 _atom_site_type_symbol
 _atom_site_label
 _atom_site_symmetry_multiplicity
 _atom_site_fract_x
 _atom_site_fract_y
 _atom_site_fract_z
 _atom_site_occupancy
  Ag  Ag0  1  0.66666671  0.33333335  0.49999998  1
  Li  Li1  1  0.00000000  0.00000000  0.00000000  1
  S  S2  1  0.33333339  0.66666670  0.24262199  1
  S  S3  1  0.33333339  0.66666670  0.75737797  1
