# generated using pymatgen
data_Li9WO7
_symmetry_space_group_name_H-M   'P 1'
_cell_length_a   6.04261017
_cell_length_b   6.04261017
_cell_length_c   6.04261017
_cell_angle_alpha   60.37562943
_cell_angle_beta   60.37562943
_cell_angle_gamma   60.37563324
_symmetry_Int_Tables_number   1
_chemical_formula_structural   Li9WO7
_chemical_formula_sum   'Li9 W1 O7'
_cell_volume   157.33775483
_cell_formula_units_Z   1
loop_
 _symmetry_equiv_pos_site_id
 _symmetry_equiv_pos_as_xyz
  1  'x, y, z'
loop_
 _atom_site_type_symbol
 _atom_site_label
 _atom_site_symmetry_multiplicity
 _atom_site_fract_x
 _atom_site_fract_y
 _atom_site_fract_z
 _atom_site_occupancy
  Li  Li0  1  0.56617802  0.98051704  0.98051694  1
  Li  Li1  1  0.98136804  0.98136804  0.98136792  1
  Li  Li2  1  0.98051704  0.98051704  0.56617793  1
  Li  Li3  1  0.12415500  0.12415501  0.12415499  1
  Li  Li4  1  0.98051704  0.56617802  0.98051694  1
  Li  Li5  1  0.50066102  0.50066102  0.00024496  1
  Li  Li6  1  0.00024500  0.50066102  0.50066098  1
  Li  Li7  1  0.50066102  0.00024500  0.50066098  1
  Li  Li8  1  0.49919502  0.49919502  0.49919496  1
  W  W9  1  0.26963601  0.74927203  0.74927196  1
  O  O10  1  0.74927203  0.26963601  0.74927196  1
  O  O11  1  0.74821203  0.74821203  0.74821194  1
  O  O12  1  0.74927203  0.74927203  0.26963594  1
  O  O13  1  0.25205601  0.25205601  0.25205598  1
  O  O14  1  0.24867101  0.24867101  0.73252798  1
  O  O15  1  0.24867101  0.73252803  0.24867096  1
  O  O16  1  0.73252803  0.24867101  0.24867096  1
