# generated using pymatgen
data_Li2SiO6
_symmetry_space_group_name_H-M   'P 1'
_cell_length_a   5.63354731
_cell_length_b   6.88696432
_cell_length_c   6.88696432
_cell_angle_alpha   84.54277802
_cell_angle_beta   75.07508087
_cell_angle_gamma   75.07508087
_symmetry_Int_Tables_number   1
_chemical_formula_structural   Li2SiO6
_chemical_formula_sum   'Li4 Si2 O12'
_cell_volume   249.35787324
_cell_formula_units_Z   2
loop_
 _symmetry_equiv_pos_site_id
 _symmetry_equiv_pos_as_xyz
  1  'x, y, z'
loop_
 _atom_site_type_symbol
 _atom_site_label
 _atom_site_symmetry_multiplicity
 _atom_site_fract_x
 _atom_site_fract_y
 _atom_site_fract_z
 _atom_site_occupancy
  Li  Li0  1  0.00477997  0.39941301  0.18780502  1
  Li  Li1  1  0.49889198  0.20277501  0.39326099  1
  Li  Li2  1  0.99521993  0.81219503  0.60058700  1
  Li  Li3  1  0.50110795  0.60673902  0.79722502  1
  Si  Si4  1  -0.00000007  0.91885203  0.08114803  1
  Si  Si5  1  0.49999999  0.08927400  0.91072600  1
  O  O6  1  0.11779399  0.17865201  0.03110500  1
  O  O7  1  0.94907295  0.64166802  0.09147298  1
  O  O8  1  0.61777399  0.03920000  0.18691398  1
  O  O9  1  0.19832697  0.34259401  0.37855701  1
  O  O10  1  0.05092693  0.90852703  0.35833204  1
  O  O11  1  0.69699397  0.36471401  0.35946499  1
  O  O12  1  0.80167295  0.62144302  0.65740600  1
  O  O13  1  0.49132299  0.07676300  0.62532499  1
  O  O14  1  0.30300595  0.64053502  0.63528602  1
  O  O15  1  0.88220592  0.96889503  0.82134801  1
  O  O16  1  0.50867697  0.37467501  0.92323701  1
  O  O17  1  0.38222594  0.81308603  0.96080003  1
