# generated using pymatgen
data_Eu7BO12
_symmetry_space_group_name_H-M   'P 1'
_cell_length_a   7.13381672
_cell_length_b   7.13381672
_cell_length_c   7.13381672
_cell_angle_alpha   109.47122192
_cell_angle_beta   109.47122192
_cell_angle_gamma   109.47122192
_symmetry_Int_Tables_number   1
_chemical_formula_structural   Eu7BO12
_chemical_formula_sum   'Eu7 B1 O12'
_cell_volume   279.47562141
_cell_formula_units_Z   1
loop_
 _symmetry_equiv_pos_site_id
 _symmetry_equiv_pos_as_xyz
  1  'x, y, z'
loop_
 _atom_site_type_symbol
 _atom_site_label
 _atom_site_symmetry_multiplicity
 _atom_site_fract_x
 _atom_site_fract_y
 _atom_site_fract_z
 _atom_site_occupancy
  Eu  Eu0  1  0.39883800  0.00000000  0.00000001  1
  Eu  Eu1  1  0.60116204  0.60116202  0.10116205  1
  Eu  Eu2  1  0.50000006  0.89883803  0.50000006  1
  Eu  Eu3  1  0.00000003  0.50000002  0.39883803  1
  Eu  Eu4  1  0.50000003  0.39883802  0.50000003  1
  Eu  Eu5  1  0.00000003  0.50000002  0.89883803  1
  B  B6  1  0.10116201  0.10116200  0.60116201  1
  Eu  Eu7  1  0.89883801  0.00000000  0.00000002  1
  O  O8  1  0.25000002  0.29369501  0.04369502  1
  O  O9  1  0.25000003  0.45630502  0.20630503  1
  O  O10  1  0.70630502  0.25000001  0.95630503  1
  O  O11  1  0.45630505  0.70630503  0.75000005  1
  O  O12  1  0.79369505  0.75000003  0.54369506  1
  O  O13  1  0.04369505  0.79369503  0.25000004  1
  O  O14  1  0.75000002  0.20630501  0.45630503  1
  O  O15  1  0.29369504  0.54369502  0.75000004  1
  O  O16  1  0.75000001  0.04369500  0.29369502  1
  O  O17  1  0.54369502  0.25000001  0.79369503  1
  O  O18  1  0.95630505  0.75000003  0.70630506  1
  O  O19  1  0.20630506  0.95630504  0.25000006  1
