# generated using pymatgen
data_NaS
_symmetry_space_group_name_H-M   'P 1'
_cell_length_a   4.36862612
_cell_length_b   7.13538694
_cell_length_c   7.53647423
_cell_angle_alpha   89.96705627
_cell_angle_beta   90.00000000
_cell_angle_gamma   90.00000000
_symmetry_Int_Tables_number   1
_chemical_formula_structural   NaS
_chemical_formula_sum   'Na4 S4'
_cell_volume   234.92571310
_cell_formula_units_Z   4
loop_
 _symmetry_equiv_pos_site_id
 _symmetry_equiv_pos_as_xyz
  1  'x, y, z'
loop_
 _atom_site_type_symbol
 _atom_site_label
 _atom_site_symmetry_multiplicity
 _atom_site_fract_x
 _atom_site_fract_y
 _atom_site_fract_z
 _atom_site_occupancy
  Na  Na0  1  0.00000000  0.11634700  0.82925500  1
  Na  Na1  1  0.49999999  0.11809000  0.33882700  1
  Na  Na2  1  0.49999999  0.64108301  0.67407498  1
  Na  Na3  1  0.00000000  0.63520901  0.15365498  1
  S  S4  1  0.49999999  0.50115700  0.32873698  1
  S  S5  1  0.00000000  0.50337700  0.83592898  1
  S  S6  1  0.49999999  0.00945200  0.66755900  1
  S  S7  1  0.00000000  0.99568501  0.17196096  1
