# generated using pymatgen
data_LiC
_symmetry_space_group_name_H-M   'P 1'
_cell_length_a   2.62032676
_cell_length_b   2.62032723
_cell_length_c   11.98478699
_cell_angle_alpha   90.00000000
_cell_angle_beta   90.00000000
_cell_angle_gamma   119.99818420
_symmetry_Int_Tables_number   1
_chemical_formula_structural   LiC
_chemical_formula_sum   'Li4 C4'
_cell_volume   71.26558912
_cell_formula_units_Z   4
loop_
 _symmetry_equiv_pos_site_id
 _symmetry_equiv_pos_as_xyz
  1  'x, y, z'
loop_
 _atom_site_type_symbol
 _atom_site_label
 _atom_site_symmetry_multiplicity
 _atom_site_fract_x
 _atom_site_fract_y
 _atom_site_fract_z
 _atom_site_occupancy
  Li  Li0  1  0.66654501  0.33345401  0.75000000  1
  Li  Li1  1  0.33345502  0.66654602  0.25000000  1
  Li  Li2  1  0.00000000  0.00000000  0.00000000  1
  Li  Li3  1  0.00000000  0.00000000  0.50000000  1
  C  C4  1  0.00011803  0.99988303  0.15170700  1
  C  C5  1  0.99988201  0.00011700  0.84829300  1
  C  C6  1  0.99988201  0.00011700  0.65170700  1
  C  C7  1  0.00011803  0.99988303  0.34829300  1
