# generated using pymatgen
data_Y2Al2SiC7
_symmetry_space_group_name_H-M   'P 1'
_cell_length_a   3.74786997
_cell_length_b   6.08595991
_cell_length_c   6.08595991
_cell_angle_alpha   104.06519318
_cell_angle_beta   90.00000000
_cell_angle_gamma   90.00000000
_symmetry_Int_Tables_number   1
_chemical_formula_structural   Y2Al2SiC7
_chemical_formula_sum   'Y2 Al2 Si1 C7'
_cell_volume   134.65525365
_cell_formula_units_Z   1
loop_
 _symmetry_equiv_pos_site_id
 _symmetry_equiv_pos_as_xyz
  1  'x, y, z'
loop_
 _atom_site_type_symbol
 _atom_site_label
 _atom_site_symmetry_multiplicity
 _atom_site_fract_x
 _atom_site_fract_y
 _atom_site_fract_z
 _atom_site_occupancy
  Y  Y0  1  -0.00000000  0.69937101  0.30062897  1
  Y  Y1  1  -0.00000000  0.30062900  0.69937100  1
  Al  Al2  1  -0.00000000  0.18243900  0.18243899  1
  Al  Al3  1  1.00000001  0.81756101  0.81756097  1
  Si  Si4  1  0.50000000  0.06429200  0.37454101  1
  C  C5  1  0.50000000  0.93570801  0.62545896  1
  C  C6  1  0.50000000  0.37454100  0.06429198  1
  C  C7  1  0.50000000  0.62545901  0.93570799  1
  C  C8  1  0.50000000  0.37193100  0.37193099  1
  C  C9  1  0.50000000  0.62806901  0.62806898  1
  C  C10  1  0.50000000  0.91092201  0.08907795  1
  C  C11  1  0.50000000  0.08907800  0.91092202  1
