# generated using pymatgen
data_Cs
_symmetry_space_group_name_H-M   'P 1'
_cell_length_a   3.05528092
_cell_length_b   3.05528092
_cell_length_c   5.18293953
_cell_angle_alpha   72.85781860
_cell_angle_beta   72.85781860
_cell_angle_gamma   60.00002289
_symmetry_Int_Tables_number   1
_chemical_formula_structural   Cs
_chemical_formula_sum   Cs2
_cell_volume   39.39821724
_cell_formula_units_Z   2
loop_
 _symmetry_equiv_pos_site_id
 _symmetry_equiv_pos_as_xyz
  1  'x, y, z'
loop_
 _atom_site_type_symbol
 _atom_site_label
 _atom_site_symmetry_multiplicity
 _atom_site_fract_x
 _atom_site_fract_y
 _atom_site_fract_z
 _atom_site_occupancy
  Cs  Cs0  1  0.49999997  0.50000000  0.50000005  1
  Cs  Cs1  1  0.00000000  0.00000000  0.00000000  1
