# generated using pymatgen
data_YbSi2
_symmetry_space_group_name_H-M   'P 1'
_cell_length_a   4.21096802
_cell_length_b   6.83712816
_cell_length_c   7.26337624
_cell_angle_alpha   90.00000000
_cell_angle_beta   90.00000000
_cell_angle_gamma   90.00000000
_symmetry_Int_Tables_number   1
_chemical_formula_structural   YbSi2
_chemical_formula_sum   'Yb4 Si8'
_cell_volume   209.11934242
_cell_formula_units_Z   4
loop_
 _symmetry_equiv_pos_site_id
 _symmetry_equiv_pos_as_xyz
  1  'x, y, z'
loop_
 _atom_site_type_symbol
 _atom_site_label
 _atom_site_symmetry_multiplicity
 _atom_site_fract_x
 _atom_site_fract_y
 _atom_site_fract_z
 _atom_site_occupancy
  Yb  Yb0  1  0.25000000  0.49248999  0.20616899  1
  Yb  Yb1  1  0.75000000  0.50750999  0.79383097  1
  Yb  Yb2  1  0.25000000  0.99248998  0.29383099  1
  Yb  Yb3  1  0.75000000  0.00751000  0.70616898  1
  Si  Si4  1  0.75000000  0.30673499  0.41715399  1
  Si  Si5  1  0.25000000  0.19326500  0.91715397  1
  Si  Si6  1  0.75000000  0.80673498  0.08284600  1
  Si  Si7  1  0.25000000  0.69326498  0.58284598  1
  Si  Si8  1  0.25000000  0.30331399  0.58817998  1
  Si  Si9  1  0.75000000  0.19668600  0.08818000  1
  Si  Si10  1  0.25000000  0.80331398  0.91181997  1
  Si  Si11  1  0.75000000  0.69668598  0.41181999  1
