# generated using pymatgen
data_Ho3Pd
_symmetry_space_group_name_H-M   'P 1'
_cell_length_a   6.31440401
_cell_length_b   7.01578283
_cell_length_c   9.48283768
_cell_angle_alpha   90.00000000
_cell_angle_beta   90.00000000
_cell_angle_gamma   90.00000000
_symmetry_Int_Tables_number   1
_chemical_formula_structural   Ho3Pd
_chemical_formula_sum   'Ho12 Pd4'
_cell_volume   420.09432970
_cell_formula_units_Z   4
loop_
 _symmetry_equiv_pos_site_id
 _symmetry_equiv_pos_as_xyz
  1  'x, y, z'
loop_
 _atom_site_type_symbol
 _atom_site_label
 _atom_site_symmetry_multiplicity
 _atom_site_fract_x
 _atom_site_fract_y
 _atom_site_fract_z
 _atom_site_occupancy
  Ho  Ho0  1  0.32516900  0.67555502  0.06736500  1
  Ho  Ho1  1  0.17483100  0.17555500  0.43263501  1
  Ho  Ho2  1  0.67483100  0.32444501  0.56736502  1
  Ho  Ho3  1  0.82516900  0.82444502  0.93263503  1
  Ho  Ho4  1  0.67483100  0.32444501  0.93263503  1
  Ho  Ho5  1  0.82516900  0.82444502  0.56736502  1
  Ho  Ho6  1  0.32516900  0.67555502  0.43263501  1
  Ho  Ho7  1  0.17483100  0.17555500  0.06736500  1
  Ho  Ho8  1  0.86275900  0.54366601  0.25000001  1
  Ho  Ho9  1  0.63724100  0.04366600  0.25000001  1
  Ho  Ho10  1  0.13724100  0.45633401  0.75000003  1
  Ho  Ho11  1  0.36275900  0.95633402  0.75000003  1
  Pd  Pd12  1  0.04773200  0.88826302  0.25000001  1
  Pd  Pd13  1  0.45226800  0.38826301  0.25000001  1
  Pd  Pd14  1  0.95226800  0.11173700  0.75000003  1
  Pd  Pd15  1  0.54773200  0.61173701  0.75000003  1
