# generated using pymatgen
data_Li4Mn3O11
_symmetry_space_group_name_H-M   'P 1'
_cell_length_a   4.62489271
_cell_length_b   4.63595486
_cell_length_c   9.34223080
_cell_angle_alpha   89.99926758
_cell_angle_beta   89.65087128
_cell_angle_gamma   90.00095367
_symmetry_Int_Tables_number   1
_chemical_formula_structural   Li4Mn3O11
_chemical_formula_sum   'Li4 Mn3 O11'
_cell_volume   200.30112572
_cell_formula_units_Z   1
loop_
 _symmetry_equiv_pos_site_id
 _symmetry_equiv_pos_as_xyz
  1  'x, y, z'
loop_
 _atom_site_type_symbol
 _atom_site_label
 _atom_site_symmetry_multiplicity
 _atom_site_fract_x
 _atom_site_fract_y
 _atom_site_fract_z
 _atom_site_occupancy
  Li  Li0  1  0.50000202  0.50000502  0.83334297  1
  Li  Li1  1  0.45917002  0.53651802  0.15940200  1
  Li  Li2  1  0.54084502  0.46344701  0.50725598  1
  Li  Li3  1  0.00000302  0.99999303  0.33333335  1
  Mn  Mn4  1  0.04090800  0.03653700  0.00727000  1
  Mn  Mn5  1  0.95910204  0.96349803  0.65939098  1
  Mn  Mn6  1  0.80137602  0.18638101  0.50042997  1
  O  O7  1  0.69858803  0.68630802  0.66622498  1
  O  O8  1  0.30140501  0.31370201  0.00044000  1
  O  O9  1  0.19861302  0.81361403  0.16623701  1
  O  O10  1  0.78881802  0.22335201  0.16472798  1
  O  O11  1  0.71137103  0.72337202  0.00197200  1
  O  O12  1  0.28863701  0.27664101  0.66469598  1
  O  O13  1  0.21120702  0.77664102  0.50194700  1
  O  O14  1  0.80658902  0.19105501  0.83351196  1
  O  O15  1  0.69343503  0.69098602  0.33315599  1
  O  O16  1  0.30655201  0.30899901  0.33350799  1
  O  O17  1  0.19337902  0.80895102  0.83314199  1
