# generated using pymatgen
data_Zr3Fe4Si5
_symmetry_space_group_name_H-M   'P 1'
_cell_length_a   4.85295582
_cell_length_b   4.85295582
_cell_length_c   7.66935015
_cell_angle_alpha   90.00000000
_cell_angle_beta   90.00000000
_cell_angle_gamma   120.00000000
_symmetry_Int_Tables_number   1
_chemical_formula_structural   Zr3Fe4Si5
_chemical_formula_sum   'Zr3 Fe4 Si5'
_cell_volume   156.42345450
_cell_formula_units_Z   1
loop_
 _symmetry_equiv_pos_site_id
 _symmetry_equiv_pos_as_xyz
  1  'x, y, z'
loop_
 _atom_site_type_symbol
 _atom_site_label
 _atom_site_symmetry_multiplicity
 _atom_site_fract_x
 _atom_site_fract_y
 _atom_site_fract_z
 _atom_site_occupancy
  Zr  Zr0  1  0.66666668  0.33333333  0.05761700  1
  Zr  Zr1  1  0.33333333  0.66666666  0.94238298  1
  Zr  Zr2  1  0.33333333  0.66666666  0.55761699  1
  Fe  Fe3  1  0.66666668  0.33333333  0.44238299  1
  Fe  Fe4  1  0.00000000  0.00000000  0.00000000  1
  Fe  Fe5  1  0.00000000  0.00000000  0.49999999  1
  Fe  Fe6  1  0.16847400  0.33694800  0.25000000  1
  Si  Si7  1  0.16847399  0.83152499  0.25000000  1
  Si  Si8  1  0.66305101  0.83152499  0.25000000  1
  Si  Si9  1  0.83152602  0.66305200  0.74999999  1
  Si  Si10  1  0.83152603  0.16847500  0.74999999  1
  Si  Si11  1  0.33694901  0.16847500  0.74999999  1
