# generated using pymatgen
data_Li2Gd2ZnO5
_symmetry_space_group_name_H-M   'P 1'
_cell_length_a   3.29083514
_cell_length_b   3.29083514
_cell_length_c   13.50751209
_cell_angle_alpha   83.00313568
_cell_angle_beta   83.00313568
_cell_angle_gamma   60.00001907
_symmetry_Int_Tables_number   1
_chemical_formula_structural   Li2Gd2ZnO5
_chemical_formula_sum   'Li2 Gd2 Zn1 O5'
_cell_volume   125.42351275
_cell_formula_units_Z   1
loop_
 _symmetry_equiv_pos_site_id
 _symmetry_equiv_pos_as_xyz
  1  'x, y, z'
loop_
 _atom_site_type_symbol
 _atom_site_label
 _atom_site_symmetry_multiplicity
 _atom_site_fract_x
 _atom_site_fract_y
 _atom_site_fract_z
 _atom_site_occupancy
  Li  Li0  1  0.10221800  0.10221800  0.69334601  1
  Li  Li1  1  0.70071197  0.70071198  0.89786403  1
  Gd  Gd2  1  0.29928799  0.29928799  0.10213601  1
  Gd  Gd3  1  0.89778196  0.89778197  0.30665403  1
  Zn  Zn4  1  0.49999998  0.49999998  0.50000002  1
  O  O5  1  0.59806397  0.59806398  0.20580802  1
  O  O6  1  0.40193598  0.40193599  0.79419202  1
  O  O7  1  0.00000000  0.00000000  0.00000000  1
  O  O8  1  0.19559699  0.19559699  0.41320901  1
  O  O9  1  0.80440296  0.80440298  0.58679103  1
