# generated using pymatgen
data_Ca2Ag
_symmetry_space_group_name_H-M   'P 1'
_cell_length_a   6.15276384
_cell_length_b   6.15276480
_cell_length_c   10.09208012
_cell_angle_alpha   90.00000000
_cell_angle_beta   90.00000000
_cell_angle_gamma   119.99999237
_symmetry_Int_Tables_number   1
_chemical_formula_structural   Ca2Ag
_chemical_formula_sum   'Ca8 Ag4'
_cell_volume   330.86582731
_cell_formula_units_Z   4
loop_
 _symmetry_equiv_pos_site_id
 _symmetry_equiv_pos_as_xyz
  1  'x, y, z'
loop_
 _atom_site_type_symbol
 _atom_site_label
 _atom_site_symmetry_multiplicity
 _atom_site_fract_x
 _atom_site_fract_y
 _atom_site_fract_z
 _atom_site_occupancy
  Ca  Ca0  1  0.83300301  0.16699600  0.25000000  1
  Ca  Ca1  1  0.83300299  0.66600600  0.25000000  1
  Ca  Ca2  1  0.66600697  0.83300400  0.74999999  1
  Ca  Ca3  1  0.16699696  0.83300400  0.74999999  1
  Ca  Ca4  1  0.33399300  0.16699600  0.25000000  1
  Ca  Ca5  1  0.00000000  0.00000000  0.00000000  1
  Ca  Ca6  1  0.16699699  0.33399400  0.74999999  1
  Ca  Ca7  1  0.00000000  0.00000000  0.49999999  1
  Ag  Ag8  1  0.66666667  0.33333333  0.56284199  1
  Ag  Ag9  1  0.33333331  0.66666666  0.43715799  1
  Ag  Ag10  1  0.33333331  0.66666666  0.06284200  1
  Ag  Ag11  1  0.66666667  0.33333333  0.93715799  1
