# generated using pymatgen
data_Ba2TlAgTeS4
_symmetry_space_group_name_H-M   'P 1'
_cell_length_a   4.33424997
_cell_length_b   4.33424950
_cell_length_c   17.36731529
_cell_angle_alpha   90.00000000
_cell_angle_beta   90.00000000
_cell_angle_gamma   120.00000763
_symmetry_Int_Tables_number   1
_chemical_formula_structural   Ba2TlAgTeS4
_chemical_formula_sum   'Ba2 Tl1 Ag1 Te1 S4'
_cell_volume   282.54729220
_cell_formula_units_Z   1
loop_
 _symmetry_equiv_pos_site_id
 _symmetry_equiv_pos_as_xyz
  1  'x, y, z'
loop_
 _atom_site_type_symbol
 _atom_site_label
 _atom_site_symmetry_multiplicity
 _atom_site_fract_x
 _atom_site_fract_y
 _atom_site_fract_z
 _atom_site_occupancy
  Ba  Ba0  1  0.00000000  0.00000000  0.00000000  1
  Ba  Ba1  1  0.66666669  0.33333334  0.45548002  1
  Tl  Tl2  1  0.33333338  0.66666669  0.54452002  1
  Ag  Ag3  1  0.33333338  0.66666669  0.21421001  1
  Te  Te4  1  0.66666669  0.33333334  0.78579003  1
  S  S5  1  0.66666669  0.33333334  0.09820000  1
  S  S6  1  0.33333338  0.66666669  0.90180004  1
  S  S7  1  0.00000000  0.00000000  0.31277901  1
  S  S8  1  0.00000000  0.00000000  0.68722103  1
