# generated using pymatgen
data_YbRh2
_symmetry_space_group_name_H-M   'P 1'
_cell_length_a   4.20508814
_cell_length_b   4.20508862
_cell_length_c   7.58635521
_cell_angle_alpha   90.00000000
_cell_angle_beta   90.00000000
_cell_angle_gamma   119.99999237
_symmetry_Int_Tables_number   1
_chemical_formula_structural   YbRh2
_chemical_formula_sum   'Yb2 Rh4'
_cell_volume   116.17537790
_cell_formula_units_Z   2
loop_
 _symmetry_equiv_pos_site_id
 _symmetry_equiv_pos_as_xyz
  1  'x, y, z'
loop_
 _atom_site_type_symbol
 _atom_site_label
 _atom_site_symmetry_multiplicity
 _atom_site_fract_x
 _atom_site_fract_y
 _atom_site_fract_z
 _atom_site_occupancy
  Yb  Yb0  1  0.00000000  0.00000000  0.49999999  1
  Yb  Yb1  1  0.00000000  0.00000000  0.00000000  1
  Rh  Rh2  1  0.66666664  0.33333335  0.24999999  1
  Rh  Rh3  1  0.33333331  0.66666670  0.74999998  1
  Rh  Rh4  1  0.66666664  0.33333335  0.74999998  1
  Rh  Rh5  1  0.33333331  0.66666670  0.24999999  1
