# generated using pymatgen
data_ZnRuS4
_symmetry_space_group_name_H-M   'P 1'
_cell_length_a   5.57267523
_cell_length_b   5.57428885
_cell_length_c   5.63743258
_cell_angle_alpha   90.53171539
_cell_angle_beta   90.00000000
_cell_angle_gamma   90.00000000
_symmetry_Int_Tables_number   1
_chemical_formula_structural   ZnRuS4
_chemical_formula_sum   'Zn2 Ru2 S8'
_cell_volume   175.11198121
_cell_formula_units_Z   2
loop_
 _symmetry_equiv_pos_site_id
 _symmetry_equiv_pos_as_xyz
  1  'x, y, z'
loop_
 _atom_site_type_symbol
 _atom_site_label
 _atom_site_symmetry_multiplicity
 _atom_site_fract_x
 _atom_site_fract_y
 _atom_site_fract_z
 _atom_site_occupancy
  Zn  Zn0  1  0.49999998  0.00000000  0.50000002  1
  Zn  Zn1  1  0.00000000  0.50000001  0.49999999  1
  Ru  Ru2  1  0.49999998  0.50000001  1.00000000  1
  Ru  Ru3  1  0.00000000  0.00000000  0.00000000  1
  S  S4  1  0.17179299  0.32419101  0.84653001  1
  S  S5  1  0.67179297  0.17580900  0.15346999  1
  S  S6  1  0.84562997  0.85363702  0.67084397  1
  S  S7  1  0.34562999  0.64636302  0.32915597  1
  S  S8  1  0.82820697  0.67580902  0.15346996  1
  S  S9  1  0.32820699  0.82419102  0.84652998  1
  S  S10  1  0.15436999  0.14636300  0.32915600  1
  S  S11  1  0.65436997  0.35363701  0.67084400  1
