# generated using pymatgen
data_LiCuO3
_symmetry_space_group_name_H-M   'P 1'
_cell_length_a   6.44701338
_cell_length_b   6.44701338
_cell_length_c   6.44701338
_cell_angle_alpha   109.47122192
_cell_angle_beta   109.47122192
_cell_angle_gamma   109.47122192
_symmetry_Int_Tables_number   1
_chemical_formula_structural   LiCuO3
_chemical_formula_sum   'Li4 Cu4 O12'
_cell_volume   206.27842309
_cell_formula_units_Z   4
loop_
 _symmetry_equiv_pos_site_id
 _symmetry_equiv_pos_as_xyz
  1  'x, y, z'
loop_
 _atom_site_type_symbol
 _atom_site_label
 _atom_site_symmetry_multiplicity
 _atom_site_fract_x
 _atom_site_fract_y
 _atom_site_fract_z
 _atom_site_occupancy
  Li  Li0  1  0.00000000  0.00000000  0.00000000  1
  Li  Li1  1  0.00000003  0.50000003  0.50000004  1
  Li  Li2  1  0.50000005  0.50000003  0.00000004  1
  Li  Li3  1  0.50000002  0.00000000  0.50000002  1
  Cu  Cu4  1  0.50000005  0.50000003  0.50000005  1
  Cu  Cu5  1  1.00000007  0.50000003  1.00000008  1
  Cu  Cu6  1  0.50000002  0.00000000  0.00000001  1
  Cu  Cu7  1  0.00000000  0.00000000  0.50000001  1
  O  O8  1  0.13632906  0.82477905  0.31155006  1
  O  O9  1  0.86367104  0.17522101  0.68845005  1
  O  O10  1  0.48677103  0.17522101  0.31155003  1
  O  O11  1  0.68845006  0.51322903  0.82477907  1
  O  O12  1  0.82477907  0.68845004  0.51322907  1
  O  O13  1  0.82477905  0.31155002  0.13632904  1
  O  O14  1  0.68845008  0.86367106  0.17522107  1
  O  O15  1  0.17522103  0.31155002  0.48677103  1
  O  O16  1  0.51322907  0.82477905  0.68845008  1
  O  O17  1  0.31155004  0.48677103  0.17522104  1
  O  O18  1  0.17522105  0.68845004  0.86367106  1
  O  O19  1  0.31155002  0.13632901  0.82477904  1
