# generated using pymatgen
data_YbGe2
_symmetry_space_group_name_H-M   'P 1'
_cell_length_a   4.60145187
_cell_length_b   7.45094681
_cell_length_c   7.70021200
_cell_angle_alpha   90.00000000
_cell_angle_beta   90.00000000
_cell_angle_gamma   90.00000000
_symmetry_Int_Tables_number   1
_chemical_formula_structural   YbGe2
_chemical_formula_sum   'Yb4 Ge8'
_cell_volume   264.00310178
_cell_formula_units_Z   4
loop_
 _symmetry_equiv_pos_site_id
 _symmetry_equiv_pos_as_xyz
  1  'x, y, z'
loop_
 _atom_site_type_symbol
 _atom_site_label
 _atom_site_symmetry_multiplicity
 _atom_site_fract_x
 _atom_site_fract_y
 _atom_site_fract_z
 _atom_site_occupancy
  Yb  Yb0  1  0.25000001  0.01683400  0.29979700  1
  Yb  Yb1  1  0.25000001  0.51683401  0.20020300  1
  Yb  Yb2  1  0.75000002  0.98316603  0.70020300  1
  Yb  Yb3  1  0.75000002  0.48316601  0.79979700  1
  Ge  Ge4  1  0.25000001  0.30691001  0.58380100  1
  Ge  Ge5  1  0.25000001  0.80691002  0.91619900  1
  Ge  Ge6  1  0.75000002  0.69309002  0.41619900  1
  Ge  Ge7  1  0.75000002  0.19309000  0.08380100  1
  Ge  Ge8  1  0.25000001  0.18663800  0.91203100  1
  Ge  Ge9  1  0.25000001  0.68663802  0.58796900  1
  Ge  Ge10  1  0.75000002  0.81336202  0.08796900  1
  Ge  Ge11  1  0.75000002  0.31336201  0.41203100  1
