# generated using pymatgen
data_Nb2CoC
_symmetry_space_group_name_H-M   'P 1'
_cell_length_a   3.76368093
_cell_length_b   5.66471434
_cell_length_c   6.97396469
_cell_angle_alpha   88.21095276
_cell_angle_beta   82.51150513
_cell_angle_gamma   89.32647705
_symmetry_Int_Tables_number   1
_chemical_formula_structural   Nb2CoC
_chemical_formula_sum   'Nb4 Co2 C2'
_cell_volume   147.34173601
_cell_formula_units_Z   2
loop_
 _symmetry_equiv_pos_site_id
 _symmetry_equiv_pos_as_xyz
  1  'x, y, z'
loop_
 _atom_site_type_symbol
 _atom_site_label
 _atom_site_symmetry_multiplicity
 _atom_site_fract_x
 _atom_site_fract_y
 _atom_site_fract_z
 _atom_site_occupancy
  Nb  Nb0  1  0.31365997  0.49695200  0.26278098  1
  Nb  Nb1  1  0.68633997  0.50304800  0.73721898  1
  Nb  Nb2  1  0.00000000  0.00000000  0.49999998  1
  Nb  Nb3  1  0.00000000  0.00000000  0.00000000  1
  Co  Co4  1  0.21030898  0.31345300  0.56681398  1
  C  C5  1  0.89019900  0.17662700  0.25161901  1
  Co  Co6  1  0.10980095  0.82337301  0.74838095  1
  C  C7  1  0.78969096  0.68654701  0.43318599  1
