# generated using pymatgen
data_Ho3Hf3In2(NiPd)2
_symmetry_space_group_name_H-M   'P 1'
_cell_length_a   5.35538387
_cell_length_b   6.48255920
_cell_length_c   6.48255920
_cell_angle_alpha   90.00000000
_cell_angle_beta   90.00000000
_cell_angle_gamma   90.00000000
_symmetry_Int_Tables_number   1
_chemical_formula_structural   Ho3Hf3In2(NiPd)2
_chemical_formula_sum   'Ho3 Hf3 In2 Ni2 Pd2'
_cell_volume   225.05236960
_cell_formula_units_Z   1
loop_
 _symmetry_equiv_pos_site_id
 _symmetry_equiv_pos_as_xyz
  1  'x, y, z'
loop_
 _atom_site_type_symbol
 _atom_site_label
 _atom_site_symmetry_multiplicity
 _atom_site_fract_x
 _atom_site_fract_y
 _atom_site_fract_z
 _atom_site_occupancy
  Hf  Hf0  1  0.50000001  0.16145999  0.66160698  1
  Hf  Hf1  1  0.50000001  0.83853997  0.33839299  1
  Ho  Ho2  1  0.50000001  0.66160698  0.83853997  1
  Hf  Hf3  1  0.50000001  0.33839299  0.16145999  1
  Ho  Ho4  1  1.00000002  0.16145999  0.33839299  1
  Ho  Ho5  1  -0.00000000  0.83853997  0.66160698  1
  In  In6  1  0.00000000  0.66160698  0.16145999  1
  In  In7  1  -0.00000000  0.33839299  0.83853997  1
  Ni  Ni8  1  0.25000001  0.00000000  0.00000000  1
  Ni  Ni9  1  0.75000002  0.00000000  0.00000000  1
  Pd  Pd10  1  0.25000001  0.49999998  0.49999998  1
  Pd  Pd11  1  0.75000002  0.49999998  0.49999998  1
