# generated using pymatgen
data_Ca2In
_symmetry_space_group_name_H-M   'P 1'
_cell_length_a   3.53149605
_cell_length_b   5.77074718
_cell_length_c   9.14640331
_cell_angle_alpha   90.00000000
_cell_angle_beta   101.13105774
_cell_angle_gamma   90.00000000
_symmetry_Int_Tables_number   1
_chemical_formula_structural   Ca2In
_chemical_formula_sum   'Ca4 In2'
_cell_volume   182.89145724
_cell_formula_units_Z   2
loop_
 _symmetry_equiv_pos_site_id
 _symmetry_equiv_pos_as_xyz
  1  'x, y, z'
loop_
 _atom_site_type_symbol
 _atom_site_label
 _atom_site_symmetry_multiplicity
 _atom_site_fract_x
 _atom_site_fract_y
 _atom_site_fract_z
 _atom_site_occupancy
  Ca  Ca0  1  0.77769100  0.99999997  0.55538203  1
  Ca  Ca1  1  0.00049600  0.49999998  0.00099200  1
  Ca  Ca2  1  0.33065000  0.49999998  0.66130003  1
  Ca  Ca3  1  0.66821400  0.49999998  0.33642802  1
  In  In4  1  0.43810100  0.00000000  0.87620203  1
  In  In5  1  0.11817200  0.00000000  0.23634401  1
