# generated using pymatgen
data_PrGaGe3
_symmetry_space_group_name_H-M   'P 1'
_cell_length_a   4.44831610
_cell_length_b   4.44831610
_cell_length_c   5.98046637
_cell_angle_alpha   111.83307648
_cell_angle_beta   111.83307648
_cell_angle_gamma   90.00000000
_symmetry_Int_Tables_number   1
_chemical_formula_structural   PrGaGe3
_chemical_formula_sum   'Pr1 Ga1 Ge3'
_cell_volume   100.64869012
_cell_formula_units_Z   1
loop_
 _symmetry_equiv_pos_site_id
 _symmetry_equiv_pos_as_xyz
  1  'x, y, z'
loop_
 _atom_site_type_symbol
 _atom_site_label
 _atom_site_symmetry_multiplicity
 _atom_site_fract_x
 _atom_site_fract_y
 _atom_site_fract_z
 _atom_site_occupancy
  Pr  Pr0  1  0.00055800  0.00055800  0.00111600  1
  Ga  Ga1  1  0.24548699  0.74548698  0.49097398  1
  Ge  Ge2  1  0.74548698  0.24548699  0.49097398  1
  Ge  Ge3  1  0.58587098  0.58587099  0.17174199  1
  Ge  Ge4  1  0.34839699  0.34839699  0.69679397  1
