# generated using pymatgen
data_Ti4Si
_symmetry_space_group_name_H-M   'P 1'
_cell_length_a   2.80061316
_cell_length_b   2.80061316
_cell_length_c   11.50603580
_cell_angle_alpha   83.00968170
_cell_angle_beta   83.00968170
_cell_angle_gamma   60.00001907
_symmetry_Int_Tables_number   1
_chemical_formula_structural   Ti4Si
_chemical_formula_sum   'Ti4 Si1'
_cell_volume   77.38048933
_cell_formula_units_Z   1
loop_
 _symmetry_equiv_pos_site_id
 _symmetry_equiv_pos_as_xyz
  1  'x, y, z'
loop_
 _atom_site_type_symbol
 _atom_site_label
 _atom_site_symmetry_multiplicity
 _atom_site_fract_x
 _atom_site_fract_y
 _atom_site_fract_z
 _atom_site_occupancy
  Ti  Ti0  1  0.60169801  0.60169801  0.19490600  1
  Ti  Ti1  1  0.20034200  0.20034200  0.39897401  1
  Ti  Ti2  1  0.79965802  0.79965801  0.60102601  1
  Ti  Ti3  1  0.39830201  0.39830200  0.80509402  1
  Si  Si4  1  0.00000000  0.00000000  0.00000000  1
