# generated using pymatgen
data_PrIn3
_symmetry_space_group_name_H-M   'P 1'
_cell_length_a   4.70939398
_cell_length_b   4.70939398
_cell_length_c   5.92930937
_cell_angle_alpha   113.39878082
_cell_angle_beta   113.39878082
_cell_angle_gamma   90.00000000
_symmetry_Int_Tables_number   1
_chemical_formula_structural   PrIn3
_chemical_formula_sum   'Pr1 In3'
_cell_volume   108.80420219
_cell_formula_units_Z   1
loop_
 _symmetry_equiv_pos_site_id
 _symmetry_equiv_pos_as_xyz
  1  'x, y, z'
loop_
 _atom_site_type_symbol
 _atom_site_label
 _atom_site_symmetry_multiplicity
 _atom_site_fract_x
 _atom_site_fract_y
 _atom_site_fract_z
 _atom_site_occupancy
  Pr  Pr0  1  0.00000000  0.00000000  0.00000000  1
  In  In1  1  0.74999999  0.25000000  0.49999996  1
  In  In2  1  0.24999997  0.74999999  0.49999995  1
  In  In3  1  0.49999998  0.49999999  -0.00000003  1
