# generated using pymatgen
data_Ca5Mg
_symmetry_space_group_name_H-M   'P 1'
_cell_length_a   3.73028398
_cell_length_b   5.96859407
_cell_length_c   9.60624409
_cell_angle_alpha   90.00000000
_cell_angle_beta   101.19561768
_cell_angle_gamma   90.00000000
_symmetry_Int_Tables_number   1
_chemical_formula_structural   Ca5Mg
_chemical_formula_sum   'Ca5 Mg1'
_cell_volume   209.80859980
_cell_formula_units_Z   1
loop_
 _symmetry_equiv_pos_site_id
 _symmetry_equiv_pos_as_xyz
  1  'x, y, z'
loop_
 _atom_site_type_symbol
 _atom_site_label
 _atom_site_symmetry_multiplicity
 _atom_site_fract_x
 _atom_site_fract_y
 _atom_site_fract_z
 _atom_site_occupancy
  Ca  Ca0  1  0.99454700  0.00000000  0.98909396  1
  Ca  Ca1  1  0.32658700  0.00000000  0.65317398  1
  Ca  Ca2  1  0.66768900  0.00000000  0.33537798  1
  Ca  Ca3  1  0.44342300  0.49999999  0.88684597  1
  Ca  Ca4  1  0.12161200  0.49999999  0.24322399  1
  Mg  Mg5  1  0.77948000  0.49999999  0.55895997  1
