# generated using pymatgen
data_CeGaNi4
_symmetry_space_group_name_H-M   'P 1'
_cell_length_a   4.08262491
_cell_length_b   6.61474705
_cell_length_c   7.78634405
_cell_angle_alpha   90.00000000
_cell_angle_beta   105.19860077
_cell_angle_gamma   90.00000000
_symmetry_Int_Tables_number   1
_chemical_formula_structural   CeGaNi4
_chemical_formula_sum   'Ce2 Ga2 Ni8'
_cell_volume   202.91956852
_cell_formula_units_Z   2
loop_
 _symmetry_equiv_pos_site_id
 _symmetry_equiv_pos_as_xyz
  1  'x, y, z'
loop_
 _atom_site_type_symbol
 _atom_site_label
 _atom_site_symmetry_multiplicity
 _atom_site_fract_x
 _atom_site_fract_y
 _atom_site_fract_z
 _atom_site_occupancy
  Ce  Ce0  1  0.87939201  0.25000000  0.75878396  1
  Ce  Ce1  1  0.12060800  0.74999999  0.24121599  1
  Ga  Ga2  1  0.50000000  0.00000000  -0.00000001  1
  Ga  Ga3  1  0.50000000  0.50000000  -0.00000001  1
  Ni  Ni4  1  0.06996000  0.25000000  0.13991999  1
  Ni  Ni5  1  0.93004001  0.74999999  0.86007995  1
  Ni  Ni6  1  0.68429300  0.05129100  0.36858497  1
  Ni  Ni7  1  0.31570700  0.94870899  0.63141498  1
  Ni  Ni8  1  0.68429300  0.44870900  0.36858497  1
  Ni  Ni9  1  0.31570700  0.55129100  0.63141498  1
  Ni  Ni10  1  0.22659400  0.25000000  0.45318798  1
  Ni  Ni11  1  0.77340601  0.74999999  0.54681196  1
