# generated using pymatgen
data_Na4La2MnO13
_symmetry_space_group_name_H-M   'P 1'
_cell_length_a   5.58509207
_cell_length_b   6.51829815
_cell_length_c   8.57290077
_cell_angle_alpha   96.57169342
_cell_angle_beta   90.00000000
_cell_angle_gamma   115.36710358
_symmetry_Int_Tables_number   1
_chemical_formula_structural   Na4La2MnO13
_chemical_formula_sum   'Na4 La2 Mn1 O13'
_cell_volume   279.73566297
_cell_formula_units_Z   1
loop_
 _symmetry_equiv_pos_site_id
 _symmetry_equiv_pos_as_xyz
  1  'x, y, z'
loop_
 _atom_site_type_symbol
 _atom_site_label
 _atom_site_symmetry_multiplicity
 _atom_site_fract_x
 _atom_site_fract_y
 _atom_site_fract_z
 _atom_site_occupancy
  La  La0  1  0.33701598  0.67403199  0.07081099  1
  Na  Na1  1  0.77760698  0.55521399  0.34622100  1
  Na  Na2  1  0.49999999  0.00000000  0.50000002  1
  Na  Na3  1  0.22239299  0.44478599  0.65377901  1
  Na  Na4  1  0.66298398  0.32596799  0.92918902  1
  La  La5  1  0.92677897  0.85355799  0.75622000  1
  Mn  Mn6  1  0.07322100  0.14644200  0.24378000  1
  O  O7  1  0.94449798  0.36363299  0.14345500  1
  O  O8  1  0.17669198  0.87685898  0.24889099  1
  O  O9  1  0.41913499  0.36363299  0.14345500  1
  O  O10  1  0.64097697  0.73359899  0.57026000  1
  O  O11  1  0.82330799  0.12314100  0.75110902  1
  O  O12  1  0.05550198  0.63636699  0.85654501  1
  O  O13  1  0.58086498  0.63636699  0.85654501  1
  O  O14  1  0.09262198  0.73359899  0.57026000  1
  O  O15  1  0.90737798  0.26640100  0.42974001  1
  O  O16  1  0.35902299  0.26640100  0.42974001  1
  O  O17  1  0.70016697  0.87685898  0.24889099  1
  O  O18  1  0.29983299  0.12314100  0.75110902  1
  O  O19  1  0.00000000  0.00000000  0.00000000  1
