# generated using pymatgen
data_UFe3Si4
_symmetry_space_group_name_H-M   'P 1'
_cell_length_a   5.05289078
_cell_length_b   7.35508060
_cell_length_c   7.35508060
_cell_angle_alpha   119.21922302
_cell_angle_beta   89.99837494
_cell_angle_gamma   89.99837494
_symmetry_Int_Tables_number   1
_chemical_formula_structural   UFe3Si4
_chemical_formula_sum   'U2 Fe6 Si8'
_cell_volume   238.56613523
_cell_formula_units_Z   2
loop_
 _symmetry_equiv_pos_site_id
 _symmetry_equiv_pos_as_xyz
  1  'x, y, z'
loop_
 _atom_site_type_symbol
 _atom_site_label
 _atom_site_symmetry_multiplicity
 _atom_site_fract_x
 _atom_site_fract_y
 _atom_site_fract_z
 _atom_site_occupancy
  U  U0  1  0.74996405  0.76702902  0.00029704  1
  U  U1  1  0.74996403  0.00029700  0.76702904  1
  Fe  Fe2  1  0.50031103  0.66535802  0.33182104  1
  Fe  Fe3  1  0.50031103  0.33182201  0.66535904  1
  Fe  Fe4  1  0.99969305  0.33178901  0.66533905  1
  Fe  Fe5  1  0.99969306  0.66533902  0.33178905  1
  Fe  Fe6  1  0.25005202  0.38570001  0.38570003  1
  Si  Si7  1  0.24999602  0.61122602  0.99863105  1
  Fe  Fe8  1  0.24999603  0.99863103  0.61122605  1
  Si  Si9  1  0.75002304  0.60333302  0.60333305  1
  Si  Si10  1  0.74997704  0.39683601  0.00053703  1
  Si  Si11  1  0.74997703  0.00053700  0.39683603  1
  Si  Si12  1  0.25004002  0.73246302  0.73246305  1
  Si  Si13  1  0.24995702  0.25939101  0.99757404  1
  Si  Si14  1  0.24995703  0.99757403  0.25939104  1
  Si  Si15  1  0.75009104  0.25267301  0.25267303  1
