# generated using pymatgen
data_LaGaPd3
_symmetry_space_group_name_H-M   'P 1'
_cell_length_a   4.47786808
_cell_length_b   6.39081192
_cell_length_c   7.91010141
_cell_angle_alpha   113.82630157
_cell_angle_beta   106.44216919
_cell_angle_gamma   90.00000000
_symmetry_Int_Tables_number   1
_chemical_formula_structural   LaGaPd3
_chemical_formula_sum   'La2 Ga2 Pd6'
_cell_volume   196.91108486
_cell_formula_units_Z   2
loop_
 _symmetry_equiv_pos_site_id
 _symmetry_equiv_pos_as_xyz
  1  'x, y, z'
loop_
 _atom_site_type_symbol
 _atom_site_label
 _atom_site_symmetry_multiplicity
 _atom_site_fract_x
 _atom_site_fract_y
 _atom_site_fract_z
 _atom_site_occupancy
  La  La0  1  0.11376501  0.86376503  0.22753003  1
  La  La1  1  0.88623498  0.13623500  0.77247001  1
  Ga  Ga2  1  0.49999999  0.50000002  0.00000001  1
  Ga  Ga3  1  0.49999999  0.00000000  1.00000002  1
  Pd  Pd4  1  0.88686099  0.63686102  0.77372203  1
  Pd  Pd5  1  0.11313900  0.36313901  0.22627802  1
  Pd  Pd6  1  0.30178000  0.34081101  0.60356002  1
  Pd  Pd7  1  0.69821999  0.65918902  0.39644003  1
  Pd  Pd8  1  0.69821999  0.23725101  0.39644001  1
  Pd  Pd9  1  0.30178000  0.76274902  0.60356004  1
