# generated using pymatgen
data_RbTl
_symmetry_space_group_name_H-M   'P 1'
_cell_length_a   4.94691610
_cell_length_b   5.98191023
_cell_length_c   11.27698898
_cell_angle_alpha   90.00000000
_cell_angle_beta   90.00000000
_cell_angle_gamma   90.00000000
_symmetry_Int_Tables_number   1
_chemical_formula_structural   RbTl
_chemical_formula_sum   'Rb4 Tl4'
_cell_volume   333.70874865
_cell_formula_units_Z   4
loop_
 _symmetry_equiv_pos_site_id
 _symmetry_equiv_pos_as_xyz
  1  'x, y, z'
loop_
 _atom_site_type_symbol
 _atom_site_label
 _atom_site_symmetry_multiplicity
 _atom_site_fract_x
 _atom_site_fract_y
 _atom_site_fract_z
 _atom_site_occupancy
  Rb  Rb0  1  0.49999999  0.67877997  0.86625200  1
  Rb  Rb1  1  0.49999999  0.32121999  0.13374800  1
  Rb  Rb2  1  0.49999999  0.17877999  0.63374800  1
  Rb  Rb3  1  0.49999999  0.82121997  0.36625200  1
  Tl  Tl4  1  -0.00000000  0.14123899  0.89764200  1
  Tl  Tl5  1  -0.00000000  0.85876097  0.10235800  1
  Tl  Tl6  1  -0.00000000  0.64123898  0.60235800  1
  Tl  Tl7  1  -0.00000000  0.35876099  0.39764200  1
