# generated using pymatgen
data_Li2Cu5S7
_symmetry_space_group_name_H-M   'P 1'
_cell_length_a   3.24936891
_cell_length_b   5.66476917
_cell_length_c   10.12710285
_cell_angle_alpha   90.00000000
_cell_angle_beta   90.00000000
_cell_angle_gamma   90.00000000
_symmetry_Int_Tables_number   1
_chemical_formula_structural   Li2Cu5S7
_chemical_formula_sum   'Li2 Cu5 S7'
_cell_volume   186.40882073
_cell_formula_units_Z   1
loop_
 _symmetry_equiv_pos_site_id
 _symmetry_equiv_pos_as_xyz
  1  'x, y, z'
loop_
 _atom_site_type_symbol
 _atom_site_label
 _atom_site_symmetry_multiplicity
 _atom_site_fract_x
 _atom_site_fract_y
 _atom_site_fract_z
 _atom_site_occupancy
  Li  Li0  1  0.50000001  0.05965800  0.32379700  1
  Li  Li1  1  0.50000001  0.94034197  0.67620301  1
  Cu  Cu2  1  0.50000001  0.44034199  0.82379701  1
  Cu  Cu3  1  0.50000001  0.55965798  0.17620300  1
  Cu  Cu4  1  0.00000000  0.00000000  0.00000000  1
  Cu  Cu5  1  0.00000000  0.49999998  0.50000001  1
  Cu  Cu6  1  0.00000000  0.13427800  0.80834601  1
  S  S7  1  0.00000000  0.86572197  0.19165400  1
  S  S8  1  0.00000000  0.63427798  0.69165401  1
  S  S9  1  0.00000000  0.36572199  0.30834600  1
  S  S10  1  0.50000001  0.26466799  0.53897901  1
  S  S11  1  0.50000001  0.73533198  0.46102101  1
  S  S12  1  0.50000001  0.23533199  0.03897900  1
  S  S13  1  0.50000001  0.76466798  0.96102101  1
