# generated using pymatgen
data_Ba(NiO2)2
_symmetry_space_group_name_H-M   'P 1'
_cell_length_a   3.85364223
_cell_length_b   3.85364223
_cell_length_c   11.52667046
_cell_angle_alpha   90.00000000
_cell_angle_beta   90.00000000
_cell_angle_gamma   89.83012390
_symmetry_Int_Tables_number   1
_chemical_formula_structural   Ba(NiO2)2
_chemical_formula_sum   'Ba2 Ni4 O8'
_cell_volume   171.17674039
_cell_formula_units_Z   2
loop_
 _symmetry_equiv_pos_site_id
 _symmetry_equiv_pos_as_xyz
  1  'x, y, z'
loop_
 _atom_site_type_symbol
 _atom_site_label
 _atom_site_symmetry_multiplicity
 _atom_site_fract_x
 _atom_site_fract_y
 _atom_site_fract_z
 _atom_site_occupancy
  Ba  Ba0  1  0.50924596  0.50924599  0.66561897  1
  Ba  Ba1  1  0.50924596  0.50924599  0.33438099  1
  Ni  Ni2  1  0.50088696  0.50088699  -0.00000000  1
  Ni  Ni3  1  0.01068800  0.01068800  0.49999998  1
  Ni  Ni4  1  0.00201600  0.00201600  0.84358897  1
  Ni  Ni5  1  0.00201600  0.00201600  0.15641099  1
  O  O6  1  0.50219499  0.00055200  0.87312597  1
  O  O7  1  0.00055197  0.50219499  0.87312597  1
  O  O8  1  0.50219499  0.00055200  0.12687399  1
  O  O9  1  0.00055197  0.50219499  0.12687399  1
  O  O10  1  0.00648100  0.00648100  0.66645797  1
  O  O11  1  0.00648100  0.00648100  0.33354199  1
  O  O12  1  0.50941599  0.01325400  0.49999998  1
  O  O13  1  0.01325397  0.50941599  0.49999998  1
