# generated using pymatgen
data_CaNbO3
_symmetry_space_group_name_H-M   'P 1'
_cell_length_a   5.59841108
_cell_length_b   5.71753788
_cell_length_c   7.96373367
_cell_angle_alpha   90.00000000
_cell_angle_beta   89.92605591
_cell_angle_gamma   90.00000000
_symmetry_Int_Tables_number   1
_chemical_formula_structural   CaNbO3
_chemical_formula_sum   'Ca4 Nb4 O12'
_cell_volume   254.91195372
_cell_formula_units_Z   4
loop_
 _symmetry_equiv_pos_site_id
 _symmetry_equiv_pos_as_xyz
  1  'x, y, z'
loop_
 _atom_site_type_symbol
 _atom_site_label
 _atom_site_symmetry_multiplicity
 _atom_site_fract_x
 _atom_site_fract_y
 _atom_site_fract_z
 _atom_site_occupancy
  Ca  Ca0  1  0.48904499  0.54856201  0.24921801  1
  Ca  Ca1  1  0.01095500  0.04856200  0.25078200  1
  Ca  Ca2  1  0.98904499  0.95143802  0.74921802  1
  Ca  Ca3  1  0.51095499  0.45143801  0.75078201  1
  Nb  Nb4  1  -0.00000000  0.50000001  0.50000000  1
  Nb  Nb5  1  0.49999999  0.00000000  0.00000001  1
  Nb  Nb6  1  0.99999999  0.50000001  0.00000002  1
  Nb  Nb7  1  0.49999999  0.00000000  0.50000001  1
  O  O8  1  0.08720400  0.52292201  0.75189600  1
  O  O9  1  0.41279599  0.02292200  0.74810401  1
  O  O10  1  0.91279599  0.47707801  0.24810402  1
  O  O11  1  0.58720399  0.97707802  0.25189601  1
  O  O12  1  0.20822700  0.79426302  0.45298100  1
  O  O13  1  0.29177300  0.29426301  0.04701901  1
  O  O14  1  0.79177299  0.20573700  0.54701902  1
  O  O15  1  0.70822699  0.70573701  0.95298101  1
  O  O16  1  0.79788899  0.21099500  0.95281801  1
  O  O17  1  0.70211099  0.71099501  0.54718201  1
  O  O18  1  0.20211100  0.78900502  0.04718200  1
  O  O19  1  0.29788900  0.28900501  0.45281800  1
