# generated using pymatgen
data_BeCl
_symmetry_space_group_name_H-M   'P 1'
_cell_length_a   4.10079384
_cell_length_b   4.10079432
_cell_length_c   5.04689884
_cell_angle_alpha   90.00000000
_cell_angle_beta   90.00000000
_cell_angle_gamma   120.00000000
_symmetry_Int_Tables_number   1
_chemical_formula_structural   BeCl
_chemical_formula_sum   'Be3 Cl3'
_cell_volume   73.50064577
_cell_formula_units_Z   3
loop_
 _symmetry_equiv_pos_site_id
 _symmetry_equiv_pos_as_xyz
  1  'x, y, z'
loop_
 _atom_site_type_symbol
 _atom_site_label
 _atom_site_symmetry_multiplicity
 _atom_site_fract_x
 _atom_site_fract_y
 _atom_site_fract_z
 _atom_site_occupancy
  Be  Be0  1  0.00000000  0.00000000  0.00000000  1
  Be  Be1  1  0.00000000  0.00000000  0.50000002  1
  Cl  Cl2  1  0.33333337  0.66666666  0.75000002  1
  Be  Be3  1  0.66666670  0.33333333  0.25000001  1
  Cl  Cl4  1  0.33333337  0.66666666  0.25000001  1
  Cl  Cl5  1  0.66666670  0.33333333  0.75000002  1
