# generated using pymatgen
data_LiTl(CuO2)2
_symmetry_space_group_name_H-M   'P 1'
_cell_length_a   3.56936407
_cell_length_b   3.56936407
_cell_length_c   9.24284267
_cell_angle_alpha   90.00000000
_cell_angle_beta   90.00000000
_cell_angle_gamma   90.00000000
_symmetry_Int_Tables_number   1
_chemical_formula_structural   LiTl(CuO2)2
_chemical_formula_sum   'Li1 Tl1 Cu2 O4'
_cell_volume   117.75714190
_cell_formula_units_Z   1
loop_
 _symmetry_equiv_pos_site_id
 _symmetry_equiv_pos_as_xyz
  1  'x, y, z'
loop_
 _atom_site_type_symbol
 _atom_site_label
 _atom_site_symmetry_multiplicity
 _atom_site_fract_x
 _atom_site_fract_y
 _atom_site_fract_z
 _atom_site_occupancy
  Li  Li0  1  -0.00000000  0.49999999  0.78326103  1
  Tl  Tl1  1  0.49999999  0.00000000  0.21673901  1
  Cu  Cu2  1  0.49999999  0.49999999  0.50000002  1
  Cu  Cu3  1  0.00000000  0.00000000  0.50000002  1
  O  O4  1  0.49999999  0.49999999  -0.00000000  1
  O  O5  1  0.00000000  0.00000000  0.00000000  1
  O  O6  1  -0.00000000  0.49999999  0.30705501  1
  O  O7  1  0.49999999  0.00000000  0.69294502  1
