# generated using pymatgen
data_Li2N
_symmetry_space_group_name_H-M   'P 1'
_cell_length_a   3.43058705
_cell_length_b   5.81119585
_cell_length_c   5.81119633
_cell_angle_alpha   120.00000000
_cell_angle_beta   90.00000000
_cell_angle_gamma   90.00000000
_symmetry_Int_Tables_number   1
_chemical_formula_structural   Li2N
_chemical_formula_sum   'Li6 N3'
_cell_volume   100.32984387
_cell_formula_units_Z   3
loop_
 _symmetry_equiv_pos_site_id
 _symmetry_equiv_pos_as_xyz
  1  'x, y, z'
loop_
 _atom_site_type_symbol
 _atom_site_label
 _atom_site_symmetry_multiplicity
 _atom_site_fract_x
 _atom_site_fract_y
 _atom_site_fract_z
 _atom_site_occupancy
  Li  Li0  1  0.49999999  0.40846802  0.40846804  1
  Li  Li1  1  0.49999999  0.59153203  0.00000004  1
  Li  Li2  1  0.49999999  0.00000000  0.59153202  1
  Li  Li3  1  0.00000000  0.00000000  0.25655601  1
  Li  Li4  1  -0.00000000  0.25655601  1.00000005  1
  Li  Li5  1  -0.00000000  0.74344404  0.74344408  1
  N  N6  1  -0.00000000  0.33333335  0.66666671  1
  N  N7  1  -0.00000000  0.66666670  0.33333339  1
  N  N8  1  0.49999999  0.00000000  -0.00000000  1
