# generated using pymatgen
data_Li3CuO4
_symmetry_space_group_name_H-M   'P 1'
_cell_length_a   5.35259771
_cell_length_b   5.35259914
_cell_length_c   6.39983320
_cell_angle_alpha   90.00000000
_cell_angle_beta   90.00000000
_cell_angle_gamma   90.58460999
_symmetry_Int_Tables_number   1
_chemical_formula_structural   Li3CuO4
_chemical_formula_sum   'Li6 Cu2 O8'
_cell_volume   183.34766035
_cell_formula_units_Z   2
loop_
 _symmetry_equiv_pos_site_id
 _symmetry_equiv_pos_as_xyz
  1  'x, y, z'
loop_
 _atom_site_type_symbol
 _atom_site_label
 _atom_site_symmetry_multiplicity
 _atom_site_fract_x
 _atom_site_fract_y
 _atom_site_fract_z
 _atom_site_occupancy
  Li  Li0  1  0.68361705  0.68361702  0.49999998  1
  Li  Li1  1  0.31638302  0.31638301  -0.00000000  1
  Li  Li2  1  0.18545404  0.81454602  0.74999998  1
  Li  Li3  1  0.81454603  0.18545401  0.24999999  1
  Li  Li4  1  0.67412505  0.67412502  -0.00000000  1
  Li  Li5  1  0.32587602  0.32587501  0.49999998  1
  Cu  Cu6  1  0.82488303  0.17511800  0.74999998  1
  Cu  Cu7  1  0.17511804  0.82488102  0.24999999  1
  O  O8  1  0.81907405  0.79914302  0.22748399  1
  O  O9  1  0.79914205  0.81907102  0.77251598  1
  O  O10  1  0.18092801  0.20085701  0.72748398  1
  O  O11  1  0.20085801  0.18092601  0.27251599  1
  O  O12  1  0.34214104  0.70441602  0.01057000  1
  O  O13  1  0.70441403  0.34214401  0.98943197  1
  O  O14  1  0.29558403  0.65785902  0.48942998  1
  O  O15  1  0.65785603  0.29558601  0.51056798  1
