# generated using pymatgen
data_Pr2Fe3Co14
_symmetry_space_group_name_H-M   'P 1'
_cell_length_a   6.34281635
_cell_length_b   6.34281635
_cell_length_c   6.34281683
_cell_angle_alpha   82.98599243
_cell_angle_beta   82.98599243
_cell_angle_gamma   82.98600006
_symmetry_Int_Tables_number   1
_chemical_formula_structural   Pr2Fe3Co14
_chemical_formula_sum   'Pr2 Fe3 Co14'
_cell_volume   249.88192968
_cell_formula_units_Z   1
loop_
 _symmetry_equiv_pos_site_id
 _symmetry_equiv_pos_as_xyz
  1  'x, y, z'
loop_
 _atom_site_type_symbol
 _atom_site_label
 _atom_site_symmetry_multiplicity
 _atom_site_fract_x
 _atom_site_fract_y
 _atom_site_fract_z
 _atom_site_occupancy
  Pr  Pr0  1  0.34297099  0.34297101  0.34297099  1
  Pr  Pr1  1  0.65702899  0.65702901  0.65702898  1
  Fe  Fe2  1  0.00000000  0.00000000  0.50000001  1
  Fe  Fe3  1  -0.00000002  0.50000001  -0.00000001  1
  Fe  Fe4  1  0.50000001  0.00000000  -0.00000001  1
  Co  Co5  1  0.71523200  0.28476801  -0.00000003  1
  Co  Co6  1  0.28476800  0.00000000  0.71523201  1
  Co  Co7  1  -0.00000002  0.71523201  0.28476799  1
  Co  Co8  1  0.71523201  0.00000000  0.28476799  1
  Co  Co9  1  -0.00000001  0.28476801  0.71523201  1
  Co  Co10  1  0.28476798  0.71523201  -0.00000003  1
  Co  Co11  1  0.65841399  0.65841401  0.15139897  1
  Co  Co12  1  0.65841400  0.15139900  0.65841399  1
  Co  Co13  1  0.15139898  0.65841401  0.65841399  1
  Co  Co14  1  0.34158599  0.34158601  0.84860100  1
  Co  Co15  1  0.34158598  0.84860101  0.34158598  1
  Co  Co16  1  0.84860100  0.34158601  0.34158598  1
  Co  Co17  1  0.09529400  0.09529400  0.09529400  1
  Co  Co18  1  0.90470598  0.90470602  0.90470597  1
