# generated using pymatgen
data_Hf5Ge3
_symmetry_space_group_name_H-M   'P 1'
_cell_length_a   5.43719006
_cell_length_b   8.28070068
_cell_length_c   8.28070068
_cell_angle_alpha   119.90033722
_cell_angle_beta   90.00000000
_cell_angle_gamma   90.00000000
_symmetry_Int_Tables_number   1
_chemical_formula_structural   Hf5Ge3
_chemical_formula_sum   'Hf10 Ge6'
_cell_volume   323.20241111
_cell_formula_units_Z   2
loop_
 _symmetry_equiv_pos_site_id
 _symmetry_equiv_pos_as_xyz
  1  'x, y, z'
loop_
 _atom_site_type_symbol
 _atom_site_label
 _atom_site_symmetry_multiplicity
 _atom_site_fract_x
 _atom_site_fract_y
 _atom_site_fract_z
 _atom_site_occupancy
  Hf  Hf0  1  0.49999999  0.66666669  0.33340563  1
  Hf  Hf1  1  0.49999999  0.33333334  0.66659430  1
  Hf  Hf2  1  -0.00000000  0.33333334  0.66659430  1
  Hf  Hf3  1  -0.00000000  0.66660602  0.33334496  1
  Hf  Hf4  1  0.24999200  0.75483902  0.75483895  1
  Hf  Hf5  1  0.25000400  0.24533001  0.00013799  1
  Hf  Hf6  1  0.25000400  0.00013900  0.24533099  1
  Hf  Hf7  1  0.74999199  0.24516101  0.24516098  1
  Hf  Hf8  1  0.75000399  0.75467002  0.99986194  1
  Hf  Hf9  1  0.75000399  0.99986103  0.75466893  1
  Ge  Ge10  1  0.25001100  0.39280701  0.39280697  1
  Ge  Ge11  1  0.24999500  0.60680302  0.99976895  1
  Ge  Ge12  1  0.24999500  0.99976903  0.60680294  1
  Ge  Ge13  1  0.75001099  0.60719302  0.60719296  1
  Ge  Ge14  1  0.74999499  0.39319701  0.00023098  1
  Ge  Ge15  1  0.74999499  0.00023100  0.39319699  1
