# generated using pymatgen
data_Ca2TaC3
_symmetry_space_group_name_H-M   'P 1'
_cell_length_a   5.74907923
_cell_length_b   5.74907923
_cell_length_c   8.32085514
_cell_angle_alpha   90.00000000
_cell_angle_beta   90.00000000
_cell_angle_gamma   90.00000000
_symmetry_Int_Tables_number   1
_chemical_formula_structural   Ca2TaC3
_chemical_formula_sum   'Ca6 Ta3 C9'
_cell_volume   275.02017157
_cell_formula_units_Z   3
loop_
 _symmetry_equiv_pos_site_id
 _symmetry_equiv_pos_as_xyz
  1  'x, y, z'
loop_
 _atom_site_type_symbol
 _atom_site_label
 _atom_site_symmetry_multiplicity
 _atom_site_fract_x
 _atom_site_fract_y
 _atom_site_fract_z
 _atom_site_occupancy
  Ca  Ca0  1  0.00000000  0.00000000  0.00000000  1
  Ca  Ca1  1  0.49999998  0.49999998  0.00000000  1
  Ca  Ca2  1  -0.00000000  0.49999998  0.24089900  1
  Ca  Ca3  1  0.49999998  0.00000000  0.75910099  1
  Ca  Ca4  1  0.00000000  0.00000000  0.49999999  1
  Ca  Ca5  1  0.49999998  0.49999998  0.49999999  1
  Ta  Ta6  1  0.49999998  0.00000000  0.25955700  1
  Ta  Ta7  1  -0.00000000  0.49999998  0.74044299  1
  C  C8  1  0.49999998  0.00000000  0.03534000  1
  Ta  Ta9  1  0.26885099  0.76885097  0.33111599  1
  C  C10  1  0.73114897  0.76885097  0.33111599  1
  C  C11  1  0.26885099  0.23114899  0.33111599  1
  C  C12  1  0.73114897  0.23114899  0.33111599  1
  C  C13  1  0.76885097  0.26885099  0.66888399  1
  C  C14  1  0.23114899  0.26885099  0.66888399  1
  C  C15  1  0.76885097  0.73114897  0.66888399  1
  C  C16  1  0.23114899  0.73114897  0.66888399  1
  C  C17  1  -0.00000000  0.49999998  0.96465998  1
