# generated using pymatgen
data_Rb7Tl5
_symmetry_space_group_name_H-M   'P 1'
_cell_length_a   9.06649590
_cell_length_b   9.06649590
_cell_length_c   14.84782887
_cell_angle_alpha   90.00000000
_cell_angle_beta   90.00000000
_cell_angle_gamma   120.00000000
_symmetry_Int_Tables_number   1
_chemical_formula_structural   Rb7Tl5
_chemical_formula_sum   'Rb7 Tl5'
_cell_volume   1056.99400352
_cell_formula_units_Z   1
loop_
 _symmetry_equiv_pos_site_id
 _symmetry_equiv_pos_as_xyz
  1  'x, y, z'
loop_
 _atom_site_type_symbol
 _atom_site_label
 _atom_site_symmetry_multiplicity
 _atom_site_fract_x
 _atom_site_fract_y
 _atom_site_fract_z
 _atom_site_occupancy
  Rb  Rb0  1  0.66666668  0.33333334  0.56293701  1
  Rb  Rb1  1  0.33333334  0.66666669  0.06293700  1
  Rb  Rb2  1  0.33333334  0.66666669  0.43706300  1
  Rb  Rb3  1  0.66666668  0.33333334  0.93706301  1
  Rb  Rb4  1  0.83201301  0.16798800  0.25000000  1
  Tl  Tl5  1  0.16798700  0.33597401  0.75000001  1
  Tl  Tl6  1  0.66402501  0.83201202  0.75000001  1
  Tl  Tl7  1  0.33597501  0.16798800  0.25000000  1
  Rb  Rb8  1  0.00000000  0.00000000  0.00000000  1
  Rb  Rb9  1  0.00000000  0.00000000  0.50000000  1
  Tl  Tl10  1  0.16798701  0.83201202  0.75000001  1
  Tl  Tl11  1  0.83201302  0.66402602  0.25000000  1
