# generated using pymatgen
data_Na3AlO4
_symmetry_space_group_name_H-M   'P 1'
_cell_length_a   6.11000586
_cell_length_b   6.11000586
_cell_length_c   6.11000681
_cell_angle_alpha   89.89932251
_cell_angle_beta   89.89932251
_cell_angle_gamma   89.89931488
_symmetry_Int_Tables_number   1
_chemical_formula_structural   Na3AlO4
_chemical_formula_sum   'Na6 Al2 O8'
_cell_volume   228.09876717
_cell_formula_units_Z   2
loop_
 _symmetry_equiv_pos_site_id
 _symmetry_equiv_pos_as_xyz
  1  'x, y, z'
loop_
 _atom_site_type_symbol
 _atom_site_label
 _atom_site_symmetry_multiplicity
 _atom_site_fract_x
 _atom_site_fract_y
 _atom_site_fract_z
 _atom_site_occupancy
  Na  Na0  1  0.00066296  0.79091202  0.49932500  1
  Na  Na1  1  0.49932501  0.00066300  0.79091200  1
  Na  Na2  1  0.79091199  0.49932501  0.00066300  1
  Na  Na3  1  0.29091198  0.50066301  0.99932501  1
  Na  Na4  1  0.99932501  0.29091201  0.50066300  1
  Na  Na5  1  0.50066296  0.99932502  0.29091200  1
  Al  Al6  1  0.50090398  0.50090401  0.50090400  1
  Al  Al7  1  0.00090400  0.00090400  0.00090400  1
  O  O8  1  0.85207697  0.85207702  0.85207701  1
  O  O9  1  0.14662296  0.85094702  0.14954900  1
  O  O10  1  0.85094701  0.14954900  0.14662300  1
  O  O11  1  0.14954900  0.14662300  0.85094700  1
  O  O12  1  0.35094697  0.64662301  0.64954900  1
  O  O13  1  0.64954900  0.35094701  0.64662300  1
  O  O14  1  0.35207699  0.35207701  0.35207700  1
  O  O15  1  0.64662298  0.64954901  0.35094700  1
