# generated using pymatgen
data_Nd4Ge7
_symmetry_space_group_name_H-M   'P 1'
_cell_length_a   5.60750818
_cell_length_b   5.60750818
_cell_length_c   8.08470821
_cell_angle_alpha   90.00000000
_cell_angle_beta   90.00000000
_cell_angle_gamma   90.00000000
_symmetry_Int_Tables_number   1
_chemical_formula_structural   Nd4Ge7
_chemical_formula_sum   'Nd4 Ge7'
_cell_volume   254.21676175
_cell_formula_units_Z   1
loop_
 _symmetry_equiv_pos_site_id
 _symmetry_equiv_pos_as_xyz
  1  'x, y, z'
loop_
 _atom_site_type_symbol
 _atom_site_label
 _atom_site_symmetry_multiplicity
 _atom_site_fract_x
 _atom_site_fract_y
 _atom_site_fract_z
 _atom_site_occupancy
  Nd  Nd0  1  0.24654199  0.24654199  0.27220299  1
  Nd  Nd1  1  0.75345798  0.75345798  0.27220299  1
  Nd  Nd2  1  0.24654199  0.75345798  0.72779698  1
  Nd  Nd3  1  0.75345798  0.24654199  0.72779698  1
  Ge  Ge4  1  0.25295199  0.25295199  0.63566098  1
  Ge  Ge5  1  0.74704798  0.74704798  0.63566098  1
  Ge  Ge6  1  0.25295199  0.74704798  0.36433899  1
  Ge  Ge7  1  0.74704798  0.25295199  0.36433899  1
  Ge  Ge8  1  0.00000000  0.00000000  0.00000000  1
  Ge  Ge9  1  0.49999998  0.00000000  0.00000000  1
  Ge  Ge10  1  0.00000000  0.49999998  0.00000000  1
