# generated using pymatgen
data_NaCuO3
_symmetry_space_group_name_H-M   'P 1'
_cell_length_a   5.58681393
_cell_length_b   5.61581087
_cell_length_c   5.61581087
_cell_angle_alpha   61.13466644
_cell_angle_beta   60.17065811
_cell_angle_gamma   60.17065811
_symmetry_Int_Tables_number   1
_chemical_formula_structural   NaCuO3
_chemical_formula_sum   'Na2 Cu2 O6'
_cell_volume   125.94919490
_cell_formula_units_Z   2
loop_
 _symmetry_equiv_pos_site_id
 _symmetry_equiv_pos_as_xyz
  1  'x, y, z'
loop_
 _atom_site_type_symbol
 _atom_site_label
 _atom_site_symmetry_multiplicity
 _atom_site_fract_x
 _atom_site_fract_y
 _atom_site_fract_z
 _atom_site_occupancy
  Na  Na0  1  0.24999999  0.74496503  0.75503502  1
  Na  Na1  1  0.75000001  0.25503501  0.24496499  1
  Cu  Cu2  1  -0.00000001  0.50000002  0.50000002  1
  Cu  Cu3  1  0.50000001  0.00000000  -0.00000001  1
  O  O4  1  0.28963399  0.71036603  0.21036600  1
  O  O5  1  0.25000000  0.17815101  0.32184900  1
  O  O6  1  0.21036600  0.28963401  0.78963402  1
  O  O7  1  0.78963401  0.71036603  0.21036599  1
  O  O8  1  0.75000000  0.82184903  0.67815101  1
  O  O9  1  0.71036601  0.28963401  0.78963401  1
