# generated using pymatgen
data_Ca2MnNiO6
_symmetry_space_group_name_H-M   'P 1'
_cell_length_a   5.58895779
_cell_length_b   5.67480183
_cell_length_c   7.90925360
_cell_angle_alpha   90.00000000
_cell_angle_beta   89.71365356
_cell_angle_gamma   90.00000000
_symmetry_Int_Tables_number   1
_chemical_formula_structural   Ca2MnNiO6
_chemical_formula_sum   'Ca4 Mn2 Ni2 O12'
_cell_volume   250.84855652
_cell_formula_units_Z   2
loop_
 _symmetry_equiv_pos_site_id
 _symmetry_equiv_pos_as_xyz
  1  'x, y, z'
loop_
 _atom_site_type_symbol
 _atom_site_label
 _atom_site_symmetry_multiplicity
 _atom_site_fract_x
 _atom_site_fract_y
 _atom_site_fract_z
 _atom_site_occupancy
  Ca  Ca0  1  0.49544402  0.21865101  0.74959403  1
  Ca  Ca1  1  0.99544404  0.78134902  0.24959402  1
  Ca  Ca2  1  0.51388802  0.30241201  0.24905501  1
  Ca  Ca3  1  0.01388800  0.69758802  0.74905502  1
  Mn  Mn4  1  0.50078302  0.75702102  0.99857703  1
  Mn  Mn5  1  0.00078300  0.24297901  0.49857701  1
  Ni  Ni6  1  0.49986102  0.75239502  0.50025802  1
  Ni  Ni7  1  0.99986104  0.24760501  0.00025802  1
  O  O8  1  0.69494603  0.03868700  0.45443202  1
  O  O9  1  0.19494601  0.96131303  0.95443202  1
  O  O10  1  0.28331301  0.47831601  0.54057102  1
  O  O11  1  0.78331303  0.52168402  0.04057101  1
  O  O12  1  0.59220902  0.76474802  0.74333603  1
  O  O13  1  0.09220900  0.23525201  0.24333601  1
  O  O14  1  0.43517502  0.72463402  0.25647401  1
  O  O15  1  0.93517504  0.27536601  0.75647403  1
  O  O16  1  0.21229401  0.94887303  0.54524702  1
  O  O17  1  0.71229403  0.05112700  0.04524701  1
  O  O18  1  0.77209003  0.53332802  0.46245402  1
  O  O19  1  0.27209001  0.46667201  0.96245403  1
