# generated using pymatgen
data_Y2InSi3
_symmetry_space_group_name_H-M   'P 1'
_cell_length_a   5.38723421
_cell_length_b   5.43440294
_cell_length_c   5.43440294
_cell_angle_alpha   60.54375458
_cell_angle_beta   60.28670883
_cell_angle_gamma   60.28670883
_symmetry_Int_Tables_number   1
_chemical_formula_structural   Y2InSi3
_chemical_formula_sum   'Y2 In1 Si3'
_cell_volume   113.44660205
_cell_formula_units_Z   1
loop_
 _symmetry_equiv_pos_site_id
 _symmetry_equiv_pos_as_xyz
  1  'x, y, z'
loop_
 _atom_site_type_symbol
 _atom_site_label
 _atom_site_symmetry_multiplicity
 _atom_site_fract_x
 _atom_site_fract_y
 _atom_site_fract_z
 _atom_site_occupancy
  Y  Y0  1  0.87359596  0.37640399  0.87640399  1
  Y  Y1  1  0.12640400  0.62359598  0.12359600  1
  In  In2  1  0.00000001  0.99999997  0.49999998  1
  Si  Si3  1  0.49999999  0.99999997  0.49999999  1
  Si  Si4  1  0.49999998  0.49999999  0.49999999  1
  Si  Si5  1  0.49999998  0.00000000  0.00000001  1
