# generated using pymatgen
data_CaMg
_symmetry_space_group_name_H-M   'P 1'
_cell_length_a   3.58232594
_cell_length_b   6.57925129
_cell_length_c   8.06835938
_cell_angle_alpha   104.43658447
_cell_angle_beta   90.00000000
_cell_angle_gamma   105.79785156
_symmetry_Int_Tables_number   1
_chemical_formula_structural   CaMg
_chemical_formula_sum   'Ca3 Mg3'
_cell_volume   176.73209573
_cell_formula_units_Z   3
loop_
 _symmetry_equiv_pos_site_id
 _symmetry_equiv_pos_as_xyz
  1  'x, y, z'
loop_
 _atom_site_type_symbol
 _atom_site_label
 _atom_site_symmetry_multiplicity
 _atom_site_fract_x
 _atom_site_fract_y
 _atom_site_fract_z
 _atom_site_occupancy
  Ca  Ca0  1  0.17639698  0.35279399  0.12420499  1
  Ca  Ca1  1  0.86036096  0.72072198  0.46053097  1
  Ca  Ca2  1  0.13963898  0.27927799  0.53946898  1
  Mg  Mg3  1  0.82360296  0.64720598  0.87579496  1
  Mg  Mg4  1  0.47182594  0.94365197  0.20366696  1
  Mg  Mg5  1  0.52817401  0.05634800  0.79633298  1
