# generated using pymatgen
data_KBa4TlS6
_symmetry_space_group_name_H-M   'P 1'
_cell_length_a   4.16862822
_cell_length_b   4.16862822
_cell_length_c   23.59955215
_cell_angle_alpha   90.00000000
_cell_angle_beta   90.00000000
_cell_angle_gamma   120.00000000
_symmetry_Int_Tables_number   1
_chemical_formula_structural   KBa4TlS6
_chemical_formula_sum   'K1 Ba4 Tl1 S6'
_cell_volume   355.15727958
_cell_formula_units_Z   1
loop_
 _symmetry_equiv_pos_site_id
 _symmetry_equiv_pos_as_xyz
  1  'x, y, z'
loop_
 _atom_site_type_symbol
 _atom_site_label
 _atom_site_symmetry_multiplicity
 _atom_site_fract_x
 _atom_site_fract_y
 _atom_site_fract_z
 _atom_site_occupancy
  Ba  Ba0  1  0.66666664  0.33333334  0.10235400  1
  Ba  Ba1  1  0.00000000  0.00000000  0.77182899  1
  Ba  Ba2  1  0.33333334  0.66666668  0.43788300  1
  Ba  Ba3  1  0.00000000  0.00000000  0.22817100  1
  K  K4  1  0.33333334  0.66666668  0.89764599  1
  Tl  Tl5  1  0.66666664  0.33333334  0.56211700  1
  S  S6  1  0.33333334  0.66666668  0.66670800  1
  S  S7  1  0.66666664  0.33333334  0.33333333  1
  S  S8  1  0.33333334  0.66666668  0.16574400  1
  S  S9  1  0.66666664  0.33333334  0.83425599  1
  S  S10  1  0.00000000  0.00000000  0.50000000  1
  S  S11  1  0.00000000  0.00000000  0.00000000  1
