# generated using pymatgen
data_Pr2CuAg4
_symmetry_space_group_name_H-M   'P 1'
_cell_length_a   4.65317917
_cell_length_b   4.68921089
_cell_length_c   8.95272446
_cell_angle_alpha   105.18207550
_cell_angle_beta   90.00000000
_cell_angle_gamma   90.00000000
_symmetry_Int_Tables_number   1
_chemical_formula_structural   Pr2CuAg4
_chemical_formula_sum   'Pr2 Cu1 Ag4'
_cell_volume   188.52822816
_cell_formula_units_Z   1
loop_
 _symmetry_equiv_pos_site_id
 _symmetry_equiv_pos_as_xyz
  1  'x, y, z'
loop_
 _atom_site_type_symbol
 _atom_site_label
 _atom_site_symmetry_multiplicity
 _atom_site_fract_x
 _atom_site_fract_y
 _atom_site_fract_z
 _atom_site_occupancy
  Pr  Pr0  1  0.24999999  0.10350000  0.20699901  1
  Pr  Pr1  1  0.74999997  0.89938601  0.79877102  1
  Cu  Cu2  1  0.24999999  0.30612300  0.61224602  1
  Ag  Ag3  1  0.24999999  0.45688001  0.91376003  1
  Ag  Ag4  1  0.74999997  0.56569501  0.13138899  1
  Ag  Ag5  1  0.24999999  0.74114501  0.48229101  1
  Ag  Ag6  1  0.74999997  0.24327200  0.48654402  1
