# generated using pymatgen
data_U3Fe(GePd)2
_symmetry_space_group_name_H-M   'P 1'
_cell_length_a   6.55490637
_cell_length_b   6.55490637
_cell_length_c   6.55490637
_cell_angle_alpha   109.47122192
_cell_angle_beta   109.47122192
_cell_angle_gamma   109.47122192
_symmetry_Int_Tables_number   1
_chemical_formula_structural   U3Fe(GePd)2
_chemical_formula_sum   'U3 Fe1 Ge2 Pd2'
_cell_volume   216.80912966
_cell_formula_units_Z   1
loop_
 _symmetry_equiv_pos_site_id
 _symmetry_equiv_pos_as_xyz
  1  'x, y, z'
loop_
 _atom_site_type_symbol
 _atom_site_label
 _atom_site_symmetry_multiplicity
 _atom_site_fract_x
 _atom_site_fract_y
 _atom_site_fract_z
 _atom_site_occupancy
  U  U0  1  0.50000004  0.50000003  0.00000004  1
  U  U1  1  0.50000001  0.00000000  0.50000002  1
  U  U2  1  1.00000005  0.50000003  0.50000006  1
  Fe  Fe3  1  0.00000000  0.00000000  0.00000000  1
  Ge  Ge4  1  0.61541905  0.61541903  0.61541906  1
  Ge  Ge5  1  1.00000004  0.38458102  1.00000006  1
  Pd  Pd6  1  0.00000000  0.00000000  0.38458100  1
  Pd  Pd7  1  0.38458101  0.00000000  0.00000001  1
