# generated using pymatgen
data_Ba3(InPd)2
_symmetry_space_group_name_H-M   'P 1'
_cell_length_a   6.76026392
_cell_length_b   7.37621737
_cell_length_c   9.07190228
_cell_angle_alpha   96.43036652
_cell_angle_beta   111.87565613
_cell_angle_gamma   90.00000000
_symmetry_Int_Tables_number   1
_chemical_formula_structural   Ba3(InPd)2
_chemical_formula_sum   'Ba6 In4 Pd4'
_cell_volume   416.73039557
_cell_formula_units_Z   2
loop_
 _symmetry_equiv_pos_site_id
 _symmetry_equiv_pos_as_xyz
  1  'x, y, z'
loop_
 _atom_site_type_symbol
 _atom_site_label
 _atom_site_symmetry_multiplicity
 _atom_site_fract_x
 _atom_site_fract_y
 _atom_site_fract_z
 _atom_site_occupancy
  Ba  Ba0  1  0.20289303  0.91983200  0.18484005  1
  Ba  Ba1  1  0.01805301  0.58016800  0.81516005  1
  Ba  Ba2  1  0.79710702  0.08016800  0.81516004  1
  Ba  Ba3  1  0.98194703  0.41983200  0.18484004  1
  Ba  Ba4  1  0.78480704  0.81584500  0.43522706  1
  Ba  Ba5  1  0.34958002  0.68415500  0.56477305  1
  In  In6  1  0.21519301  0.18415500  0.56477302  1
  In  In7  1  0.65042002  0.31584500  0.43522703  1
  In  In8  1  0.56784203  0.75000000  0.00000004  1
  In  In9  1  0.43215801  0.25000000  0.00000002  1
  Pd  Pd10  1  0.40155802  0.57393300  0.22248504  1
  Pd  Pd11  1  0.17907303  0.92606700  0.77751506  1
  Pd  Pd12  1  0.59844202  0.42606700  0.77751505  1
  Pd  Pd13  1  0.82092702  0.07393300  0.22248502  1
