# generated using pymatgen
data_NaNbO2
_symmetry_space_group_name_H-M   'P 1'
_cell_length_a   5.35250998
_cell_length_b   5.35250807
_cell_length_c   5.35249996
_cell_angle_alpha   115.17514801
_cell_angle_beta   115.17517090
_cell_angle_gamma   98.58216858
_symmetry_Int_Tables_number   1
_chemical_formula_structural   NaNbO2
_chemical_formula_sum   'Na2 Nb2 O4'
_cell_volume   114.93932764
_cell_formula_units_Z   2
loop_
 _symmetry_equiv_pos_site_id
 _symmetry_equiv_pos_as_xyz
  1  'x, y, z'
loop_
 _atom_site_type_symbol
 _atom_site_label
 _atom_site_symmetry_multiplicity
 _atom_site_fract_x
 _atom_site_fract_y
 _atom_site_fract_z
 _atom_site_occupancy
  Na  Na0  1  0.25000013  0.75000004  0.50000016  1
  Na  Na1  1  0.75000005  0.25000001  0.50000011  1
  Nb  Nb2  1  0.49999909  0.49999903  0.99999816  1
  Nb  Nb3  1  1.00000002  0.00000100  0.00000007  1
  O  O4  1  0.75000314  0.75000304  0.50000620  1
  O  O5  1  0.24999705  0.24999701  0.49999408  1
  O  O6  1  0.75000405  0.24999701  0.00000009  1
  O  O7  1  0.24999613  0.75000204  0.00000015  1
