# generated using pymatgen
data_Be2NbPd2C3
_symmetry_space_group_name_H-M   'P 1'
_cell_length_a   3.52643704
_cell_length_b   3.52643704
_cell_length_c   7.00178623
_cell_angle_alpha   90.00000000
_cell_angle_beta   90.00000000
_cell_angle_gamma   90.00000000
_symmetry_Int_Tables_number   1
_chemical_formula_structural   Be2NbPd2C3
_chemical_formula_sum   'Be2 Nb1 Pd2 C3'
_cell_volume   87.07252073
_cell_formula_units_Z   1
loop_
 _symmetry_equiv_pos_site_id
 _symmetry_equiv_pos_as_xyz
  1  'x, y, z'
loop_
 _atom_site_type_symbol
 _atom_site_label
 _atom_site_symmetry_multiplicity
 _atom_site_fract_x
 _atom_site_fract_y
 _atom_site_fract_z
 _atom_site_occupancy
  Be  Be0  1  0.00000000  0.00000000  0.00000000  1
  Nb  Nb1  1  0.00000000  0.00000000  0.49999998  1
  Be  Be2  1  0.49999999  0.49999999  -0.00000000  1
  Pd  Pd3  1  0.49999999  0.49999999  0.49999998  1
  C  C4  1  0.49999999  0.00000000  0.25651799  1
  C  C5  1  0.49999999  0.00000000  0.74348198  1
  C  C6  1  -0.00000000  0.49999999  0.25651799  1
  Pd  Pd7  1  -0.00000000  0.49999999  0.74348198  1
