# generated using pymatgen
data_Y2S3
_symmetry_space_group_name_H-M   'P 1'
_cell_length_a   3.96142912
_cell_length_b   11.01389790
_cell_length_c   11.22231674
_cell_angle_alpha   108.99559784
_cell_angle_beta   90.00000000
_cell_angle_gamma   90.00000000
_symmetry_Int_Tables_number   1
_chemical_formula_structural   Y2S3
_chemical_formula_sum   'Y8 S12'
_cell_volume   462.97443595
_cell_formula_units_Z   4
loop_
 _symmetry_equiv_pos_site_id
 _symmetry_equiv_pos_as_xyz
  1  'x, y, z'
loop_
 _atom_site_type_symbol
 _atom_site_label
 _atom_site_symmetry_multiplicity
 _atom_site_fract_x
 _atom_site_fract_y
 _atom_site_fract_z
 _atom_site_occupancy
  Y  Y0  1  0.24999999  0.44907300  0.80394103  1
  Y  Y1  1  0.74999998  0.55092700  0.19605900  1
  Y  Y2  1  0.24999999  0.82127800  0.99999403  1
  Y  Y3  1  0.74999998  0.17872200  0.00000600  1
  Y  Y4  1  0.24999999  0.05552900  0.66597203  1
  Y  Y5  1  0.74999998  0.94447100  0.33402800  1
  Y  Y6  1  0.24999999  0.33915900  0.41214701  1
  Y  Y7  1  0.74999998  0.66084100  0.58785301  1
  S  S8  1  0.24999999  0.02231900  0.88840004  1
  S  S9  1  0.74999998  0.97768100  0.11159999  1
  S  S10  1  0.24999999  0.69843500  0.74839002  1
  S  S11  1  0.74999998  0.30156500  0.25161001  1
  S  S12  1  0.24999999  0.10717200  0.44268202  1
  S  S13  1  0.74999998  0.89282800  0.55731801  1
  S  S14  1  0.24999999  0.58111400  0.40900701  1
  S  S15  1  0.74999998  0.41888600  0.59099302  1
  S  S16  1  0.24999999  0.77088900  0.23068200  1
  S  S17  1  0.74999998  0.22911100  0.76931803  1
  S  S18  1  0.24999999  0.37751100  0.03627600  1
  S  S19  1  0.74999998  0.62248900  0.96372403  1
