# generated using pymatgen
data_SrNbO3
_symmetry_space_group_name_H-M   'P 1'
_cell_length_a   5.64366102
_cell_length_b   5.64366102
_cell_length_c   5.64366102
_cell_angle_alpha   90.92579651
_cell_angle_beta   119.46693420
_cell_angle_gamma   119.46693420
_symmetry_Int_Tables_number   1
_chemical_formula_structural   SrNbO3
_chemical_formula_sum   'Sr2 Nb2 O6'
_cell_volume   128.11253754
_cell_formula_units_Z   2
loop_
 _symmetry_equiv_pos_site_id
 _symmetry_equiv_pos_as_xyz
  1  'x, y, z'
loop_
 _atom_site_type_symbol
 _atom_site_label
 _atom_site_symmetry_multiplicity
 _atom_site_fract_x
 _atom_site_fract_y
 _atom_site_fract_z
 _atom_site_occupancy
  Sr  Sr0  1  0.49999994  0.24999998  0.74999993  1
  Sr  Sr1  1  0.49999985  0.74999993  0.24999989  1
  Nb  Nb2  1  0.00000000  0.00000000  0.00000000  1
  Nb  Nb3  1  -0.00000008  0.49999995  0.49999995  1
  O  O4  1  0.99999991  0.25647298  0.25647290  1
  O  O5  1  0.99999983  0.74352693  0.74352685  1
  O  O6  1  0.94757092  0.22293998  0.72463090  1
  O  O7  1  0.05242887  0.77705993  0.27536892  1
  O  O8  1  0.50169086  0.72463093  0.77705989  1
  O  O9  1  0.49830893  0.27536897  0.22293993  1
