# generated using pymatgen
data_La3Ag10
_symmetry_space_group_name_H-M   'P 1'
_cell_length_a   5.82556391
_cell_length_b   7.90326738
_cell_length_c   7.90326738
_cell_angle_alpha   82.19326019
_cell_angle_beta   68.37352753
_cell_angle_gamma   68.37352753
_symmetry_Int_Tables_number   1
_chemical_formula_structural   La3Ag10
_chemical_formula_sum   'La3 Ag10'
_cell_volume   314.44843625
_cell_formula_units_Z   1
loop_
 _symmetry_equiv_pos_site_id
 _symmetry_equiv_pos_as_xyz
  1  'x, y, z'
loop_
 _atom_site_type_symbol
 _atom_site_label
 _atom_site_symmetry_multiplicity
 _atom_site_fract_x
 _atom_site_fract_y
 _atom_site_fract_z
 _atom_site_occupancy
  La  La0  1  0.00000000  0.00000000  0.00000000  1
  La  La1  1  0.50000004  0.78445200  0.21554805  1
  La  La2  1  0.50000001  0.21554800  0.78445204  1
  Ag  Ag3  1  0.28445201  0.21554800  0.21554802  1
  Ag  Ag4  1  0.71554804  0.78445200  0.78445206  1
  Ag  Ag5  1  1.00000002  0.34926300  0.65073706  1
  Ag  Ag6  1  1.00000003  0.65073700  0.34926306  1
  Ag  Ag7  1  0.34926304  0.65073700  0.65073704  1
  Ag  Ag8  1  0.65073702  0.34926300  0.34926304  1
  Ag  Ag9  1  0.50000003  0.50000000  0.00000003  1
  Ag  Ag10  1  0.00000003  0.50000000  0.00000002  1
  Ag  Ag11  1  0.00000000  0.00000000  0.50000001  1
  Ag  Ag12  1  0.50000000  0.00000000  0.50000003  1
