# generated using pymatgen
data_Li7Nb2O11
_symmetry_space_group_name_H-M   'P 1'
_cell_length_a   3.02463460
_cell_length_b   6.02511644
_cell_length_c   12.54719353
_cell_angle_alpha   77.17923737
_cell_angle_beta   89.98313904
_cell_angle_gamma   89.97222137
_symmetry_Int_Tables_number   1
_chemical_formula_structural   Li7Nb2O11
_chemical_formula_sum   'Li7 Nb2 O11'
_cell_volume   222.95655754
_cell_formula_units_Z   1
loop_
 _symmetry_equiv_pos_site_id
 _symmetry_equiv_pos_as_xyz
  1  'x, y, z'
loop_
 _atom_site_type_symbol
 _atom_site_label
 _atom_site_symmetry_multiplicity
 _atom_site_fract_x
 _atom_site_fract_y
 _atom_site_fract_z
 _atom_site_occupancy
  Li  Li0  1  0.49810403  0.83421501  0.83290900  1
  Li  Li1  1  0.99810603  0.83411101  0.33292902  1
  Li  Li2  1  0.00032403  0.63122701  0.65054899  1
  Li  Li3  1  0.50028102  0.63130501  0.15044801  1
  Li  Li4  1  0.00054500  0.02638100  0.01308200  1
  Li  Li5  1  0.49987001  0.33808701  0.83757498  1
  Li  Li6  1  0.50052300  0.02638100  0.51313699  1
  Nb  Nb7  1  0.99985600  0.33790701  0.33733601  1
  Nb  Nb8  1  0.00076903  0.79595701  0.50324000  1
  O  O9  1  0.50078203  0.79594101  0.00322602  1
  O  O10  1  0.50029401  0.43381401  0.66615899  1
  O  O11  1  0.00043802  0.43385401  0.16605800  1
  O  O12  1  0.99992999  0.09749000  0.85336798  1
  O  O13  1  0.49993200  0.09749300  0.35333400  1
  O  O14  1  0.50017203  0.87362301  0.65939700  1
  O  O15  1  0.00011004  0.87369701  0.15939601  1
  O  O16  1  0.99975401  0.57358801  0.81542099  1
  O  O17  1  0.49980402  0.57335901  0.31543701  1
  O  O18  1  0.50019401  0.23379800  0.00241801  1
  O  O19  1  0.00020901  0.23373100  0.50244599  1
