# generated using pymatgen
data_Pr6NiGe6Rh5
_symmetry_space_group_name_H-M   'P 1'
_cell_length_a   4.20560408
_cell_length_b   4.20560503
_cell_length_c   26.28603745
_cell_angle_alpha   90.00000000
_cell_angle_beta   90.00000000
_cell_angle_gamma   119.99999237
_symmetry_Int_Tables_number   1
_chemical_formula_structural   Pr6NiGe6Rh5
_chemical_formula_sum   'Pr6 Ni1 Ge6 Rh5'
_cell_volume   402.63604896
_cell_formula_units_Z   1
loop_
 _symmetry_equiv_pos_site_id
 _symmetry_equiv_pos_as_xyz
  1  'x, y, z'
loop_
 _atom_site_type_symbol
 _atom_site_label
 _atom_site_symmetry_multiplicity
 _atom_site_fract_x
 _atom_site_fract_y
 _atom_site_fract_z
 _atom_site_occupancy
  Pr  Pr0  1  0.00000000  0.00000000  0.66712599  1
  Pr  Pr1  1  0.00000000  0.00000000  0.16712600  1
  Pr  Pr2  1  0.00000000  0.00000000  0.83287399  1
  Pr  Pr3  1  0.00000000  0.00000000  0.00000000  1
  Pr  Pr4  1  0.00000000  0.00000000  0.33287399  1
  Pr  Pr5  1  0.00000000  0.00000000  0.49999999  1
  Ge  Ge6  1  0.66666665  0.33333333  0.59055099  1
  Ni  Ni7  1  0.66666665  0.33333333  0.74999999  1
  Ge  Ge8  1  0.66666665  0.33333333  0.90944898  1
  Ge  Ge9  1  0.33333333  0.66666665  0.09055100  1
  Ge  Ge10  1  0.33333333  0.66666665  0.25000000  1
  Ge  Ge11  1  0.33333333  0.66666665  0.40944899  1
  Rh  Rh12  1  0.66666665  0.33333333  0.42142599  1
  Ge  Ge13  1  0.66666665  0.33333333  0.07857400  1
  Rh  Rh14  1  0.66666665  0.33333333  0.25000000  1
  Rh  Rh15  1  0.33333333  0.66666665  0.74999999  1
  Rh  Rh16  1  0.33333333  0.66666665  0.92142598  1
  Rh  Rh17  1  0.33333333  0.66666665  0.57857399  1
