# generated using pymatgen
data_SrNb2O6
_symmetry_space_group_name_H-M   'P 1'
_cell_length_a   3.89662194
_cell_length_b   3.89662147
_cell_length_c   9.76011944
_cell_angle_alpha   90.00000000
_cell_angle_beta   90.00000000
_cell_angle_gamma   120.00000763
_symmetry_Int_Tables_number   1
_chemical_formula_structural   SrNb2O6
_chemical_formula_sum   'Sr1 Nb2 O6'
_cell_volume   128.34005499
_cell_formula_units_Z   1
loop_
 _symmetry_equiv_pos_site_id
 _symmetry_equiv_pos_as_xyz
  1  'x, y, z'
loop_
 _atom_site_type_symbol
 _atom_site_label
 _atom_site_symmetry_multiplicity
 _atom_site_fract_x
 _atom_site_fract_y
 _atom_site_fract_z
 _atom_site_occupancy
  Sr  Sr0  1  0.00000000  0.00000000  0.00000000  1
  Nb  Nb1  1  0.33333338  0.66666668  0.65725897  1
  Nb  Nb2  1  0.66666670  0.33333334  0.34274098  1
  O  O3  1  0.33333338  0.66666668  0.41930998  1
  O  O4  1  0.66666670  0.33333334  0.58068997  1
  O  O5  1  0.33333338  0.66666668  0.04461700  1
  O  O6  1  0.66666670  0.33333334  0.95538296  1
  O  O7  1  0.00000000  0.00000000  0.79029196  1
  O  O8  1  0.00000000  0.00000000  0.20970799  1
