# generated using pymatgen
data_LuMnO3
_symmetry_space_group_name_H-M   'P 1'
_cell_length_a   5.19239187
_cell_length_b   5.37900019
_cell_length_c   7.42251396
_cell_angle_alpha   90.00000000
_cell_angle_beta   90.00000000
_cell_angle_gamma   90.00000000
_symmetry_Int_Tables_number   1
_chemical_formula_structural   LuMnO3
_chemical_formula_sum   'Lu4 Mn4 O12'
_cell_volume   207.30990089
_cell_formula_units_Z   4
loop_
 _symmetry_equiv_pos_site_id
 _symmetry_equiv_pos_as_xyz
  1  'x, y, z'
loop_
 _atom_site_type_symbol
 _atom_site_label
 _atom_site_symmetry_multiplicity
 _atom_site_fract_x
 _atom_site_fract_y
 _atom_site_fract_z
 _atom_site_occupancy
  Lu  Lu0  1  0.01419100  0.94258397  0.75000000  1
  Lu  Lu1  1  0.51419101  0.55741598  0.25000000  1
  Lu  Lu2  1  0.48580901  0.44258398  0.75000000  1
  Lu  Lu3  1  0.98580902  0.05741600  0.25000000  1
  Mn  Mn4  1  0.50000001  0.00000000  0.50000000  1
  Mn  Mn5  1  -0.00000000  0.49999998  0.50000000  1
  Mn  Mn6  1  -0.00000000  0.49999998  -0.00000000  1
  Mn  Mn7  1  0.50000001  0.00000000  0.00000000  1
  O  O8  1  0.70405002  0.29567099  0.45265300  1
  O  O9  1  0.20405001  0.20432899  0.54734700  1
  O  O10  1  0.79595002  0.79567097  0.04734700  1
  O  O11  1  0.29595001  0.70432898  0.95265300  1
  O  O12  1  0.29595001  0.70432898  0.54734700  1
  O  O13  1  0.79595002  0.79567097  0.45265300  1
  O  O14  1  0.20405001  0.20432899  0.95265300  1
  O  O15  1  0.70405002  0.29567099  0.04734700  1
  O  O16  1  0.09013900  0.47487898  0.25000000  1
  O  O17  1  0.59013901  0.02512100  0.75000000  1
  O  O18  1  0.40986101  0.97487897  0.25000000  1
  O  O19  1  0.90986102  0.52512098  0.75000000  1
