# generated using pymatgen
data_K2NaF3
_symmetry_space_group_name_H-M   'P 1'
_cell_length_a   6.33350801
_cell_length_b   6.45252609
_cell_length_c   7.48753595
_cell_angle_alpha   90.00000000
_cell_angle_beta   90.00000000
_cell_angle_gamma   119.39169312
_symmetry_Int_Tables_number   1
_chemical_formula_structural   K2NaF3
_chemical_formula_sum   'K4 Na2 F6'
_cell_volume   266.60803820
_cell_formula_units_Z   2
loop_
 _symmetry_equiv_pos_site_id
 _symmetry_equiv_pos_as_xyz
  1  'x, y, z'
loop_
 _atom_site_type_symbol
 _atom_site_label
 _atom_site_symmetry_multiplicity
 _atom_site_fract_x
 _atom_site_fract_y
 _atom_site_fract_z
 _atom_site_occupancy
  K  K0  1  0.67988802  0.61805400  0.21872500  1
  K  K1  1  0.40468000  0.00000000  0.50000000  1
  K  K2  1  0.67988802  0.61805400  0.78127400  1
  K  K3  1  0.06183401  0.38194600  0.78127400  1
  Na  Na4  1  0.06183401  0.38194600  0.21872600  1
  Na  Na5  1  0.46111700  0.00000000  0.00000000  1
  F  F6  1  0.65002200  0.00000000  0.22781100  1
  F  F7  1  0.65002200  0.00000000  0.77218900  1
  F  F8  1  0.11473402  0.70403900  -0.00000000  1
  F  F9  1  0.41069501  0.29596100  -0.00000000  1
  F  F10  1  0.28799401  0.34451300  0.50000000  1
  F  F11  1  0.94348102  0.65548700  0.50000000  1
