# generated using pymatgen
data_CeIn
_symmetry_space_group_name_H-M   'P 1'
_cell_length_a   4.05866098
_cell_length_b   6.13872719
_cell_length_c   8.90659237
_cell_angle_alpha   90.00000000
_cell_angle_beta   90.00000000
_cell_angle_gamma   90.00000000
_symmetry_Int_Tables_number   1
_chemical_formula_structural   CeIn
_chemical_formula_sum   'Ce4 In4'
_cell_volume   221.90786048
_cell_formula_units_Z   4
loop_
 _symmetry_equiv_pos_site_id
 _symmetry_equiv_pos_as_xyz
  1  'x, y, z'
loop_
 _atom_site_type_symbol
 _atom_site_label
 _atom_site_symmetry_multiplicity
 _atom_site_fract_x
 _atom_site_fract_y
 _atom_site_fract_z
 _atom_site_occupancy
  Ce  Ce0  1  0.25000000  0.39200599  0.68054597  1
  Ce  Ce1  1  0.75000000  0.60799398  0.31945399  1
  Ce  Ce2  1  0.75000000  0.89200597  0.81945397  1
  Ce  Ce3  1  0.25000000  0.10799400  0.18054599  1
  In  In4  1  0.25000000  0.89291597  0.53192898  1
  In  In5  1  0.75000000  0.10708400  0.46807098  1
  In  In6  1  0.75000000  0.39291599  0.96807096  1
  In  In7  1  0.25000000  0.60708398  0.03192900  1
