# generated using pymatgen
data_PrSi2
_symmetry_space_group_name_H-M   'P 1'
_cell_length_a   4.17388582
_cell_length_b   5.67766619
_cell_length_c   7.99005222
_cell_angle_alpha   106.34864044
_cell_angle_beta   90.00000000
_cell_angle_gamma   111.56586456
_symmetry_Int_Tables_number   1
_chemical_formula_structural   PrSi2
_chemical_formula_sum   'Pr3 Si6'
_cell_volume   167.83301130
_cell_formula_units_Z   3
loop_
 _symmetry_equiv_pos_site_id
 _symmetry_equiv_pos_as_xyz
  1  'x, y, z'
loop_
 _atom_site_type_symbol
 _atom_site_label
 _atom_site_symmetry_multiplicity
 _atom_site_fract_x
 _atom_site_fract_y
 _atom_site_fract_z
 _atom_site_occupancy
  Pr  Pr0  1  0.62356102  0.24712201  0.69259099  1
  Pr  Pr1  1  0.37643901  0.75287803  0.30740899  1
  Pr  Pr2  1  0.00000000  0.00000000  0.00000000  1
  Si  Si3  1  0.68999203  0.37998401  0.37033799  1
  Si  Si4  1  0.31000801  0.62001602  0.62966199  1
  Si  Si5  1  0.90273403  0.80546803  0.59969799  1
  Si  Si6  1  0.09726600  0.19453201  0.40030199  1
  Si  Si7  1  0.29047601  0.58095202  0.92027098  1
  Si  Si8  1  0.70952403  0.41904802  0.07972900  1
