# generated using pymatgen
data_Ba2SiC5O8
_symmetry_space_group_name_H-M   'P 1'
_cell_length_a   6.55622053
_cell_length_b   6.55622053
_cell_length_c   6.55622053
_cell_angle_alpha   108.27210999
_cell_angle_beta   108.27210999
_cell_angle_gamma   111.89702606
_symmetry_Int_Tables_number   1
_chemical_formula_structural   Ba2SiC5O8
_chemical_formula_sum   'Ba2 Si1 C5 O8'
_cell_volume   216.64652793
_cell_formula_units_Z   1
loop_
 _symmetry_equiv_pos_site_id
 _symmetry_equiv_pos_as_xyz
  1  'x, y, z'
loop_
 _atom_site_type_symbol
 _atom_site_label
 _atom_site_symmetry_multiplicity
 _atom_site_fract_x
 _atom_site_fract_y
 _atom_site_fract_z
 _atom_site_occupancy
  Ba  Ba0  1  0.50000009  0.50000006  0.00000010  1
  Ba  Ba1  1  0.75000007  0.25000003  0.50000009  1
  C  C2  1  0.00000000  0.00000000  0.00000000  1
  Si  Si3  1  0.25000011  0.75000009  0.50000013  1
  C  C4  1  0.28110113  0.87500010  0.90610115  1
  C  C5  1  0.96889909  0.37500004  0.09389911  1
  C  C6  1  0.12500001  0.03110100  0.40610102  1
  C  C7  1  0.62500013  0.71889908  0.59389915  1
  O  O8  1  0.29431702  0.04305001  0.06699703  1
  O  O9  1  0.97605407  0.22732103  0.93300412  1
  O  O10  1  0.95695005  0.02394700  0.25126707  1
  O  O11  1  0.95568311  0.52268006  0.24873314  1
  O  O12  1  0.77268013  0.70568308  0.74873416  1
  O  O13  1  0.27394611  0.70694908  0.75126613  1
  O  O14  1  0.29305002  0.04431701  0.56699604  1
  O  O15  1  0.47732012  0.72605308  0.43300314  1
