# generated using pymatgen
data_ErAl2
_symmetry_space_group_name_H-M   'P 1'
_cell_length_a   3.86162591
_cell_length_b   4.26969814
_cell_length_c   4.26969910
_cell_angle_alpha   60.00000763
_cell_angle_beta   90.00000000
_cell_angle_gamma   90.00000000
_symmetry_Int_Tables_number   1
_chemical_formula_structural   ErAl2
_chemical_formula_sum   'Er1 Al2'
_cell_volume   60.96706763
_cell_formula_units_Z   1
loop_
 _symmetry_equiv_pos_site_id
 _symmetry_equiv_pos_as_xyz
  1  'x, y, z'
loop_
 _atom_site_type_symbol
 _atom_site_label
 _atom_site_symmetry_multiplicity
 _atom_site_fract_x
 _atom_site_fract_y
 _atom_site_fract_z
 _atom_site_occupancy
  Er  Er0  1  0.00000000  0.33333332  0.33333332  1
  Al  Al1  1  0.50000001  0.66666664  0.66666665  1
  Al  Al2  1  0.50000001  0.00000000  -0.00000000  1
