# generated using pymatgen
data_Ce3InGe3
_symmetry_space_group_name_H-M   'P 1'
_cell_length_a   4.14455080
_cell_length_b   5.60938025
_cell_length_c   14.30407047
_cell_angle_alpha   90.00000000
_cell_angle_beta   90.00000000
_cell_angle_gamma   111.68048859
_symmetry_Int_Tables_number   1
_chemical_formula_structural   Ce3InGe3
_chemical_formula_sum   'Ce6 In2 Ge6'
_cell_volume   309.02135957
_cell_formula_units_Z   2
loop_
 _symmetry_equiv_pos_site_id
 _symmetry_equiv_pos_as_xyz
  1  'x, y, z'
loop_
 _atom_site_type_symbol
 _atom_site_label
 _atom_site_symmetry_multiplicity
 _atom_site_fract_x
 _atom_site_fract_y
 _atom_site_fract_z
 _atom_site_occupancy
  Ce  Ce0  1  0.61454504  0.22909001  0.24999999  1
  Ce  Ce1  1  0.38545506  0.77091002  0.74999998  1
  Ce  Ce2  1  0.90083809  0.80167602  0.35797499  1
  Ce  Ce3  1  0.09916202  0.19832400  0.64202498  1
  Ce  Ce4  1  0.90083809  0.80167602  0.14202500  1
  Ce  Ce5  1  0.09916202  0.19832400  0.85797497  1
  In  In6  1  0.20556503  0.41113101  0.42563899  1
  In  In7  1  0.79443507  0.58886901  0.57436098  1
  Ge  Ge8  1  0.20556503  0.41113101  0.07436100  1
  Ge  Ge9  1  0.79443507  0.58886901  0.92563897  1
  Ge  Ge10  1  0.50000002  0.00000000  0.49999998  1
  Ge  Ge11  1  0.50000002  0.00000000  -0.00000000  1
  Ge  Ge12  1  0.31635605  0.63271101  0.24999999  1
  Ge  Ge13  1  0.68364405  0.36728901  0.74999998  1
