# generated using pymatgen
data_LiMn2SBr3
_symmetry_space_group_name_H-M   'P 1'
_cell_length_a   5.74615002
_cell_length_b   5.74615002
_cell_length_c   7.07766056
_cell_angle_alpha   113.94977570
_cell_angle_beta   113.94977570
_cell_angle_gamma   90.00000000
_symmetry_Int_Tables_number   1
_chemical_formula_structural   LiMn2SBr3
_chemical_formula_sum   'Li1 Mn2 S1 Br3'
_cell_volume   191.34677938
_cell_formula_units_Z   1
loop_
 _symmetry_equiv_pos_site_id
 _symmetry_equiv_pos_as_xyz
  1  'x, y, z'
loop_
 _atom_site_type_symbol
 _atom_site_label
 _atom_site_symmetry_multiplicity
 _atom_site_fract_x
 _atom_site_fract_y
 _atom_site_fract_z
 _atom_site_occupancy
  Li  Li0  1  0.50000000  0.50000000  -0.00000000  1
  Mn  Mn1  1  0.75000000  0.25000000  0.49999999  1
  Mn  Mn2  1  0.00000000  0.00000000  0.00000000  1
  S  S3  1  0.61127400  0.07868500  0.74106299  1
  Br  Br4  1  0.12979000  0.66237900  0.74106399  1
  Br  Br5  1  0.92131500  0.87021000  0.25893599  1
  Br  Br6  1  0.33762200  0.38872700  0.25893699  1
