# generated using pymatgen
data_K2EuPd3
_symmetry_space_group_name_H-M   'P 1'
_cell_length_a   6.27242470
_cell_length_b   6.27242470
_cell_length_c   6.27242470
_cell_angle_alpha   60.00000000
_cell_angle_beta   60.00000000
_cell_angle_gamma   60.00000000
_symmetry_Int_Tables_number   1
_chemical_formula_structural   K2EuPd3
_chemical_formula_sum   'K2 Eu1 Pd3'
_cell_volume   174.49836848
_cell_formula_units_Z   1
loop_
 _symmetry_equiv_pos_site_id
 _symmetry_equiv_pos_as_xyz
  1  'x, y, z'
loop_
 _atom_site_type_symbol
 _atom_site_label
 _atom_site_symmetry_multiplicity
 _atom_site_fract_x
 _atom_site_fract_y
 _atom_site_fract_z
 _atom_site_occupancy
  K  K0  1  0.25000000  0.25000000  0.25000000  1
  K  K1  1  0.50000000  0.50000000  0.50000000  1
  Eu  Eu2  1  0.87499999  0.87499999  0.87499999  1
  Pd  Pd3  1  0.37500000  0.87499999  0.87499999  1
  Pd  Pd4  1  0.87499999  0.87499999  0.37500000  1
  Pd  Pd5  1  0.87499999  0.37500000  0.87499999  1
