# generated using pymatgen
data_Ba4Sn3Rh13
_symmetry_space_group_name_H-M   'P 1'
_cell_length_a   4.32474899
_cell_length_b   10.29351807
_cell_length_c   11.08905220
_cell_angle_alpha   90.00000000
_cell_angle_beta   90.00000000
_cell_angle_gamma   90.00000000
_symmetry_Int_Tables_number   1
_chemical_formula_structural   Ba4Sn3Rh13
_chemical_formula_sum   'Ba4 Sn3 Rh13'
_cell_volume   493.65002709
_cell_formula_units_Z   1
loop_
 _symmetry_equiv_pos_site_id
 _symmetry_equiv_pos_as_xyz
  1  'x, y, z'
loop_
 _atom_site_type_symbol
 _atom_site_label
 _atom_site_symmetry_multiplicity
 _atom_site_fract_x
 _atom_site_fract_y
 _atom_site_fract_z
 _atom_site_occupancy
  Ba  Ba0  1  0.75000000  0.25182900  0.67490099  1
  Ba  Ba1  1  0.75000000  0.75182900  0.82509899  1
  Ba  Ba2  1  0.25000000  0.74817100  0.32509899  1
  Ba  Ba3  1  0.25000000  0.24817100  0.17490100  1
  Sn  Sn4  1  0.25000000  0.04290900  0.88159398  1
  Sn  Sn5  1  0.75000000  0.89886099  0.54699899  1
  Sn  Sn6  1  0.75000000  0.45709100  0.38159399  1
  Rh  Rh7  1  0.75000000  0.39886100  0.95300098  1
  Rh  Rh8  1  0.25000000  0.60113900  0.04699900  1
  Rh  Rh9  1  0.25000000  0.54290900  0.61840599  1
  Rh  Rh10  1  0.75000000  0.95709099  0.11840600  1
  Rh  Rh11  1  0.25000000  0.10113900  0.45300099  1
  Rh  Rh12  1  0.25000000  0.35437100  0.45974599  1
  Rh  Rh13  1  0.75000000  0.64562900  0.54025399  1
  Rh  Rh14  1  0.25000000  0.47564500  0.84321298  1
  Rh  Rh15  1  0.75000000  0.52435500  0.15678700  1
  Rh  Rh16  1  0.75000000  0.02435500  0.34321299  1
  Rh  Rh17  1  0.25000000  0.85437099  0.04025400  1
  Rh  Rh18  1  0.25000000  0.97564499  0.65678699  1
  Rh  Rh19  1  0.75000000  0.14562900  0.95974598  1
