# generated using pymatgen
data_CeInGe
_symmetry_space_group_name_H-M   'P 1'
_cell_length_a   4.68389416
_cell_length_b   4.68389368
_cell_length_c   16.51465988
_cell_angle_alpha   90.00000000
_cell_angle_beta   90.00000000
_cell_angle_gamma   120.00000000
_symmetry_Int_Tables_number   1
_chemical_formula_structural   CeInGe
_chemical_formula_sum   'Ce4 In4 Ge4'
_cell_volume   313.77213062
_cell_formula_units_Z   4
loop_
 _symmetry_equiv_pos_site_id
 _symmetry_equiv_pos_as_xyz
  1  'x, y, z'
loop_
 _atom_site_type_symbol
 _atom_site_label
 _atom_site_symmetry_multiplicity
 _atom_site_fract_x
 _atom_site_fract_y
 _atom_site_fract_z
 _atom_site_occupancy
  Ce  Ce0  1  0.00000000  0.00000000  0.49999997  1
  Ce  Ce1  1  0.00000000  0.00000000  0.00000000  1
  Ce  Ce2  1  0.00000000  0.00000000  0.74999996  1
  Ce  Ce3  1  0.00000000  0.00000000  0.24999999  1
  In  In4  1  0.66666664  0.33333334  0.61142497  1
  In  In5  1  0.33333331  0.66666668  0.38857498  1
  In  In6  1  0.33333331  0.66666668  0.11142499  1
  In  In7  1  0.66666664  0.33333334  0.88857495  1
  Ge  Ge8  1  0.33333331  0.66666668  0.65941496  1
  Ge  Ge9  1  0.66666664  0.33333334  0.34058498  1
  Ge  Ge10  1  0.66666664  0.33333334  0.15941499  1
  Ge  Ge11  1  0.33333331  0.66666668  0.84058496  1
