# generated using pymatgen
data_Ce10Pd5Pb
_symmetry_space_group_name_H-M   'P 1'
_cell_length_a   6.42868805
_cell_length_b   8.44206238
_cell_length_c   8.44206238
_cell_angle_alpha   119.92357635
_cell_angle_beta   90.00000000
_cell_angle_gamma   90.00000000
_symmetry_Int_Tables_number   1
_chemical_formula_structural   Ce10Pd5Pb
_chemical_formula_sum   'Ce10 Pd5 Pb1'
_cell_volume   397.08550202
_cell_formula_units_Z   1
loop_
 _symmetry_equiv_pos_site_id
 _symmetry_equiv_pos_as_xyz
  1  'x, y, z'
loop_
 _atom_site_type_symbol
 _atom_site_label
 _atom_site_symmetry_multiplicity
 _atom_site_fract_x
 _atom_site_fract_y
 _atom_site_fract_z
 _atom_site_occupancy
  Ce  Ce0  1  0.75398399  0.33157999  0.66565799  1
  Ce  Ce1  1  0.75398399  0.66565799  0.33157996  1
  Ce  Ce2  1  0.24601600  0.66565799  0.33157996  1
  Ce  Ce3  1  0.24601600  0.33157999  0.66565799  1
  Ce  Ce4  1  0.50000000  0.00350700  0.24431200  1
  Ce  Ce5  1  0.50000000  0.24431200  0.00350698  1
  Ce  Ce6  1  0.50000000  0.75618299  0.75618296  1
  Ce  Ce7  1  -0.00000000  0.99950898  0.75930695  1
  Ce  Ce8  1  -0.00000000  0.75930699  0.99950897  1
  Ce  Ce9  1  -0.00000000  0.24087700  0.24087699  1
  Pb  Pb10  1  0.50000000  0.39878699  0.39878698  1
  Pd  Pd11  1  -0.00000000  0.99789398  0.39606794  1
  Pd  Pd12  1  0.99999999  0.39606799  0.99789399  1
  Pd  Pd13  1  -0.00000000  0.60110799  0.60110797  1
  Pd  Pd14  1  0.50000000  0.99990098  0.60794094  1
  Pd  Pd15  1  0.50000000  0.60794099  0.99990098  1
