# generated using pymatgen
data_Pr2Si3
_symmetry_space_group_name_H-M   'P 1'
_cell_length_a   3.95573902
_cell_length_b   4.14650393
_cell_length_c   12.47707081
_cell_angle_alpha   99.56491852
_cell_angle_beta   90.00000000
_cell_angle_gamma   90.00000000
_symmetry_Int_Tables_number   1
_chemical_formula_structural   Pr2Si3
_chemical_formula_sum   'Pr4 Si6'
_cell_volume   201.80987506
_cell_formula_units_Z   2
loop_
 _symmetry_equiv_pos_site_id
 _symmetry_equiv_pos_as_xyz
  1  'x, y, z'
loop_
 _atom_site_type_symbol
 _atom_site_label
 _atom_site_symmetry_multiplicity
 _atom_site_fract_x
 _atom_site_fract_y
 _atom_site_fract_z
 _atom_site_occupancy
  Pr  Pr0  1  0.75000000  0.43009901  0.86019799  1
  Pr  Pr1  1  0.25000000  0.56990101  0.13980201  1
  Pr  Pr2  1  0.75000000  0.70304702  0.40609500  1
  Pr  Pr3  1  0.25000000  0.29695301  0.59390499  1
  Si  Si4  1  0.75000000  0.02452800  0.04905600  1
  Si  Si5  1  0.25000000  0.97547202  0.95094400  1
  Si  Si6  1  0.75000000  0.11868900  0.23737800  1
  Si  Si7  1  0.25000000  0.88131102  0.76262200  1
  Si  Si8  1  0.75000000  0.82374402  0.64748900  1
  Si  Si9  1  0.25000000  0.17625600  0.35251100  1
