# generated using pymatgen
data_HfNi5
_symmetry_space_group_name_H-M   'P 1'
_cell_length_a   3.94805408
_cell_length_b   4.87147093
_cell_length_c   4.87147093
_cell_angle_alpha   116.30464935
_cell_angle_beta   90.00000000
_cell_angle_gamma   90.00000000
_symmetry_Int_Tables_number   1
_chemical_formula_structural   HfNi5
_chemical_formula_sum   'Hf1 Ni5'
_cell_volume   83.99039501
_cell_formula_units_Z   1
loop_
 _symmetry_equiv_pos_site_id
 _symmetry_equiv_pos_as_xyz
  1  'x, y, z'
loop_
 _atom_site_type_symbol
 _atom_site_label
 _atom_site_symmetry_multiplicity
 _atom_site_fract_x
 _atom_site_fract_y
 _atom_site_fract_z
 _atom_site_occupancy
  Hf  Hf0  1  0.00000000  0.00000000  0.00000000  1
  Ni  Ni1  1  0.49999999  0.50000000  0.50000000  1
  Ni  Ni2  1  0.99999998  0.65648600  0.34351401  1
  Ni  Ni3  1  0.99999998  0.34351400  0.65648600  1
  Ni  Ni4  1  0.49999999  0.00000000  0.49999999  1
  Ni  Ni5  1  0.49999999  0.50000000  0.00000001  1
