# generated using pymatgen
data_SrMnO3
_symmetry_space_group_name_H-M   'P 1'
_cell_length_a   5.62465763
_cell_length_b   5.62601662
_cell_length_c   8.26534176
_cell_angle_alpha   90.04487610
_cell_angle_beta   89.94821167
_cell_angle_gamma   89.89672852
_symmetry_Int_Tables_number   1
_chemical_formula_structural   SrMnO3
_chemical_formula_sum   'Sr4 Mn4 O12'
_cell_volume   261.55131144
_cell_formula_units_Z   4
loop_
 _symmetry_equiv_pos_site_id
 _symmetry_equiv_pos_as_xyz
  1  'x, y, z'
loop_
 _atom_site_type_symbol
 _atom_site_label
 _atom_site_symmetry_multiplicity
 _atom_site_fract_x
 _atom_site_fract_y
 _atom_site_fract_z
 _atom_site_occupancy
  Sr  Sr0  1  0.99948403  0.49977300  0.74534600  1
  Sr  Sr1  1  0.49975001  0.99984399  0.25476199  1
  Sr  Sr2  1  0.50022601  0.00024800  0.74524401  1
  Sr  Sr3  1  0.00037100  0.50038200  0.25467700  1
  Mn  Mn4  1  0.49991601  0.49986800  0.50001200  1
  Mn  Mn5  1  0.00009600  0.00004500  0.99984702  1
  Mn  Mn6  1  0.50005401  0.50011300  0.00000099  1
  Mn  Mn7  1  0.99996903  0.00001400  0.50002300  1
  O  O8  1  0.99668603  0.00276200  0.73355000  1
  O  O9  1  0.49717101  0.50221700  0.23593600  1
  O  O10  1  0.50307601  0.49766700  0.76424601  1
  O  O11  1  0.00320400  0.99680899  0.26639800  1
  O  O12  1  0.68166602  0.79427599  0.00011799  1
  O  O13  1  0.21739101  0.29093000  0.50003500  1
  O  O14  1  0.31839801  0.20610800  0.99982501  1
  O  O15  1  0.78253102  0.70888799  0.49993200  1
  O  O16  1  0.79459402  0.31816400  0.00146899  1
  O  O17  1  0.29209201  0.78299899  0.50142300  1
  O  O18  1  0.20542001  0.68190999  0.99856801  1
  O  O19  1  0.70790402  0.21698200  0.49858700  1
