# generated using pymatgen
data_Li2MnNiO4
_symmetry_space_group_name_H-M   'P 1'
_cell_length_a   4.33315897
_cell_length_b   5.26164389
_cell_length_c   7.90904236
_cell_angle_alpha   89.37695312
_cell_angle_beta   74.09938812
_cell_angle_gamma   65.68237305
_symmetry_Int_Tables_number   1
_chemical_formula_structural   Li2MnNiO4
_chemical_formula_sum   'Li4 Mn2 Ni2 O8'
_cell_volume   156.96360085
_cell_formula_units_Z   2
loop_
 _symmetry_equiv_pos_site_id
 _symmetry_equiv_pos_as_xyz
  1  'x, y, z'
loop_
 _atom_site_type_symbol
 _atom_site_label
 _atom_site_symmetry_multiplicity
 _atom_site_fract_x
 _atom_site_fract_y
 _atom_site_fract_z
 _atom_site_occupancy
  Li  Li0  1  0.99998601  0.00001200  0.99999601  1
  Li  Li1  1  0.50001401  0.49998799  0.50000400  1
  Li  Li2  1  0.25000001  0.24999999  0.25000000  1
  Li  Li3  1  0.36873801  0.38022699  0.88234201  1
  Mn  Mn4  1  0.13126200  0.11977300  0.61765801  1
  Mn  Mn5  1  0.75000002  0.74999998  0.75000001  1
  Ni  Ni6  1  0.86873402  0.88022498  0.38234200  1
  Ni  Ni7  1  0.63126702  0.61977498  0.11765800  1
  O  O8  1  0.50006200  0.00000500  0.99999301  1
  O  O9  1  0.99993802  0.49999499  0.50000700  1
  O  O10  1  0.25000002  0.74999998  0.75000000  1
  O  O11  1  0.75000001  0.24999999  0.25000000  1
  O  O12  1  0.37971702  0.87402398  0.36658100  1
  O  O13  1  0.87973701  0.37401999  0.86656801  1
  O  O14  1  0.62026201  0.12598000  0.63343201  1
  O  O15  1  0.12028401  0.62597598  0.13341900  1
