# generated using pymatgen
data_PrFeSi3
_symmetry_space_group_name_H-M   'P 1'
_cell_length_a   4.15863895
_cell_length_b   4.15863895
_cell_length_c   9.55139446
_cell_angle_alpha   90.00000000
_cell_angle_beta   90.00000000
_cell_angle_gamma   90.00000000
_symmetry_Int_Tables_number   1
_chemical_formula_structural   PrFeSi3
_chemical_formula_sum   'Pr2 Fe2 Si6'
_cell_volume   165.18447066
_cell_formula_units_Z   2
loop_
 _symmetry_equiv_pos_site_id
 _symmetry_equiv_pos_as_xyz
  1  'x, y, z'
loop_
 _atom_site_type_symbol
 _atom_site_label
 _atom_site_symmetry_multiplicity
 _atom_site_fract_x
 _atom_site_fract_y
 _atom_site_fract_z
 _atom_site_occupancy
  Pr  Pr0  1  0.50000001  0.00000000  0.74354896  1
  Pr  Pr1  1  0.00000000  0.50000001  0.25645099  1
  Fe  Fe2  1  0.50000001  0.50000001  0.49999998  1
  Fe  Fe3  1  0.50000001  0.00000000  0.13894599  1
  Si  Si4  1  0.00000000  0.00000000  0.49999998  1
  Si  Si5  1  0.00000000  0.50000001  0.86105396  1
  Si  Si6  1  0.00000000  0.50000001  0.61415497  1
  Si  Si7  1  0.50000001  0.00000000  0.38584498  1
  Si  Si8  1  0.00000000  0.00000000  0.00000000  1
  Si  Si9  1  0.50000001  0.50000001  0.00000000  1
