# generated using pymatgen
data_Sc3AlPd6
_symmetry_space_group_name_H-M   'P 1'
_cell_length_a   4.54217577
_cell_length_b   6.84587240
_cell_length_c   12.12713337
_cell_angle_alpha   77.11076355
_cell_angle_beta   79.20629883
_cell_angle_gamma   70.62523651
_symmetry_Int_Tables_number   1
_chemical_formula_structural   Sc3AlPd6
_chemical_formula_sum   'Sc6 Al2 Pd12'
_cell_volume   344.13552191
_cell_formula_units_Z   2
loop_
 _symmetry_equiv_pos_site_id
 _symmetry_equiv_pos_as_xyz
  1  'x, y, z'
loop_
 _atom_site_type_symbol
 _atom_site_label
 _atom_site_symmetry_multiplicity
 _atom_site_fract_x
 _atom_site_fract_y
 _atom_site_fract_z
 _atom_site_occupancy
  Sc  Sc0  1  0.12558199  0.26166699  0.48716900  1
  Sc  Sc1  1  0.61608698  0.76181398  0.00601301  1
  Sc  Sc2  1  0.37441801  0.23833299  0.01283100  1
  Sc  Sc3  1  0.88391300  0.73818598  0.49398700  1
  Sc  Sc4  1  0.57875099  0.57046299  0.27203500  1
  Sc  Sc5  1  0.07288200  0.08564100  0.76859500  1
  Al  Al6  1  0.92124899  0.92953698  0.22796501  1
  Al  Al7  1  0.42711800  0.41435899  0.73140500  1
  Pd  Pd8  1  0.74999999  0.74999998  0.75000000  1
  Pd  Pd9  1  0.77455802  0.33586299  0.11501999  1
  Pd  Pd10  1  0.27554296  0.84103498  0.60788001  1
  Pd  Pd11  1  0.72544203  0.16413700  0.38497999  1
  Pd  Pd12  1  0.22445697  0.65896498  0.89212001  1
  Pd  Pd13  1  0.00059893  0.99863097  0.00017203  1
  Pd  Pd14  1  0.49940099  0.50136899  0.49982800  1
  Pd  Pd15  1  0.25000000  0.24999999  0.25000000  1
  Pd  Pd16  1  0.35631696  0.90419798  0.38316702  1
  Pd  Pd17  1  0.85810002  0.39124599  0.89255299  1
  Pd  Pd18  1  0.14368297  0.59580198  0.11683301  1
  Pd  Pd19  1  0.64190003  0.10875400  0.60744699  1
