# generated using pymatgen
data_Y2Ge9
_symmetry_space_group_name_H-M   'P 1'
_cell_length_a   4.24625111
_cell_length_b   4.24625111
_cell_length_c   11.01832485
_cell_angle_alpha   90.00000000
_cell_angle_beta   90.00000000
_cell_angle_gamma   90.00000000
_symmetry_Int_Tables_number   1
_chemical_formula_structural   Y2Ge9
_chemical_formula_sum   'Y2 Ge9'
_cell_volume   198.66754200
_cell_formula_units_Z   1
loop_
 _symmetry_equiv_pos_site_id
 _symmetry_equiv_pos_as_xyz
  1  'x, y, z'
loop_
 _atom_site_type_symbol
 _atom_site_label
 _atom_site_symmetry_multiplicity
 _atom_site_fract_x
 _atom_site_fract_y
 _atom_site_fract_z
 _atom_site_occupancy
  Y  Y0  1  0.00000000  0.00000000  0.69470501  1
  Y  Y1  1  0.00000000  0.00000000  0.30529500  1
  Ge  Ge2  1  0.49999999  0.00000000  0.50000001  1
  Ge  Ge3  1  0.00000000  0.49999999  0.50000001  1
  Ge  Ge4  1  0.49999999  0.49999999  0.69812901  1
  Ge  Ge5  1  0.49999999  0.49999999  0.30187100  1
  Ge  Ge6  1  0.49999999  0.00000000  0.88346801  1
  Ge  Ge7  1  0.00000000  0.49999999  0.88346801  1
  Ge  Ge8  1  0.49999999  0.00000000  0.11653200  1
  Ge  Ge9  1  0.00000000  0.49999999  0.11653200  1
  Ge  Ge10  1  0.00000000  0.00000000  0.00000000  1
