# generated using pymatgen
data_HoGe
_symmetry_space_group_name_H-M   'P 1'
_cell_length_a   4.92894506
_cell_length_b   5.29956579
_cell_length_c   5.97839689
_cell_angle_alpha   90.00000000
_cell_angle_beta   90.00000000
_cell_angle_gamma   90.00000000
_symmetry_Int_Tables_number   1
_chemical_formula_structural   HoGe
_chemical_formula_sum   'Ho4 Ge4'
_cell_volume   156.16331136
_cell_formula_units_Z   4
loop_
 _symmetry_equiv_pos_site_id
 _symmetry_equiv_pos_as_xyz
  1  'x, y, z'
loop_
 _atom_site_type_symbol
 _atom_site_label
 _atom_site_symmetry_multiplicity
 _atom_site_fract_x
 _atom_site_fract_y
 _atom_site_fract_z
 _atom_site_occupancy
  Ho  Ho0  1  0.00000000  0.33658601  0.25031600  1
  Ho  Ho1  1  0.00000000  0.33658601  0.74968401  1
  Ho  Ho2  1  0.49999999  0.66341403  0.24968400  1
  Ho  Ho3  1  0.49999999  0.66341403  0.75031601  1
  Ge  Ge4  1  0.00000000  0.82621303  0.50000001  1
  Ge  Ge5  1  0.49999999  0.17378701  -0.00000000  1
  Ge  Ge6  1  0.00000000  0.83179703  -0.00000000  1
  Ge  Ge7  1  0.49999999  0.16820301  0.50000001  1
