# generated using pymatgen
data_YNbFe7P6
_symmetry_space_group_name_H-M   'P 1'
_cell_length_a   3.42721510
_cell_length_b   9.71351814
_cell_length_c   9.71351814
_cell_angle_alpha   120.00000000
_cell_angle_beta   90.00000000
_cell_angle_gamma   90.00000000
_symmetry_Int_Tables_number   1
_chemical_formula_structural   YNbFe7P6
_chemical_formula_sum   'Y1 Nb1 Fe7 P6'
_cell_volume   280.04324770
_cell_formula_units_Z   1
loop_
 _symmetry_equiv_pos_site_id
 _symmetry_equiv_pos_as_xyz
  1  'x, y, z'
loop_
 _atom_site_type_symbol
 _atom_site_label
 _atom_site_symmetry_multiplicity
 _atom_site_fract_x
 _atom_site_fract_y
 _atom_site_fract_z
 _atom_site_occupancy
  Y  Y0  1  0.49999999  0.00000000  -0.00000000  1
  Nb  Nb1  1  0.74943098  0.37509399  0.88800295  1
  Fe  Fe2  1  0.74943098  0.11199700  0.48709098  1
  Fe  Fe3  1  0.74943098  0.51290899  0.62490596  1
  Fe  Fe4  1  0.25056899  0.62490598  0.11199698  1
  Fe  Fe5  1  0.25056899  0.88800298  0.51290896  1
  Fe  Fe6  1  0.25056899  0.48709099  0.37509397  1
  Fe  Fe7  1  0.75022398  0.66666665  0.33333330  1
  Fe  Fe8  1  0.24977599  0.33333333  0.66666663  1
  P  P9  1  0.75178198  0.05625100  0.71168197  1
  P  P10  1  0.75178198  0.28831799  0.34456898  1
  P  P11  1  0.75178198  0.65543098  0.94374894  1
  P  P12  1  0.24821799  0.94374898  0.28831797  1
  P  P13  1  0.24821799  0.71168198  0.65543096  1
  P  P14  1  0.24821799  0.34456899  0.05625099  1
