# generated using pymatgen
data_Li2CuO5
_symmetry_space_group_name_H-M   'P 1'
_cell_length_a   5.46924686
_cell_length_b   5.48731518
_cell_length_c   7.20873356
_cell_angle_alpha   107.89932251
_cell_angle_beta   107.87632751
_cell_angle_gamma   95.31536102
_symmetry_Int_Tables_number   1
_chemical_formula_structural   Li2CuO5
_chemical_formula_sum   'Li4 Cu2 O10'
_cell_volume   191.71260086
_cell_formula_units_Z   2
loop_
 _symmetry_equiv_pos_site_id
 _symmetry_equiv_pos_as_xyz
  1  'x, y, z'
loop_
 _atom_site_type_symbol
 _atom_site_label
 _atom_site_symmetry_multiplicity
 _atom_site_fract_x
 _atom_site_fract_y
 _atom_site_fract_z
 _atom_site_occupancy
  Li  Li0  1  0.32184801  0.17942800  0.78120801  1
  Li  Li1  1  0.70539206  0.82898800  0.29191402  1
  Li  Li2  1  0.00659804  0.49366600  0.51258604  1
  Li  Li3  1  0.00326304  0.49742900  0.01303303  1
  Cu  Cu4  1  0.65372106  0.84928700  0.76177103  1
  Cu  Cu5  1  0.34984801  0.13550500  0.25987500  1
  O  O6  1  0.72890205  0.70404400  0.91575202  1
  O  O7  1  0.79853606  0.78450100  0.60408602  1
  O  O8  1  0.27789502  0.27015700  0.09651701  1
  O  O9  1  0.19497202  0.20339100  0.40847601  1
  O  O10  1  0.65458802  0.20407500  0.38387599  1
  O  O11  1  0.31046106  0.83112100  0.15343504  1
  O  O12  1  0.34814506  0.79350500  0.64723104  1
  O  O13  1  0.70560902  0.15353800  0.87801999  1
  O  O14  1  0.91607105  0.58076000  0.26228900  1
  O  O15  1  0.09213403  0.40935100  0.76280103  1
