# generated using pymatgen
data_SrLiO2
_symmetry_space_group_name_H-M   'P 1'
_cell_length_a   3.64129853
_cell_length_b   3.64129853
_cell_length_c   7.23260355
_cell_angle_alpha   75.42020416
_cell_angle_beta   75.42020416
_cell_angle_gamma   59.99999237
_symmetry_Int_Tables_number   1
_chemical_formula_structural   SrLiO2
_chemical_formula_sum   'Sr1 Li1 O2'
_cell_volume   79.46383580
_cell_formula_units_Z   1
loop_
 _symmetry_equiv_pos_site_id
 _symmetry_equiv_pos_as_xyz
  1  'x, y, z'
loop_
 _atom_site_type_symbol
 _atom_site_label
 _atom_site_symmetry_multiplicity
 _atom_site_fract_x
 _atom_site_fract_y
 _atom_site_fract_z
 _atom_site_occupancy
  Li  Li0  1  0.99714100  0.99714097  0.00857700  1
  Sr  Sr1  1  0.14892800  0.14892800  0.55321598  1
  O  O2  1  0.27231900  0.27231899  0.18304299  1
  O  O3  1  0.72561200  0.72561198  0.82316398  1
