# generated using pymatgen
data_MgCu2
_symmetry_space_group_name_H-M   'P 1'
_cell_length_a   3.61210608
_cell_length_b   4.20609379
_cell_length_c   4.20609474
_cell_angle_alpha   60.00000381
_cell_angle_beta   90.00000000
_cell_angle_gamma   90.00000000
_symmetry_Int_Tables_number   1
_chemical_formula_structural   MgCu2
_chemical_formula_sum   'Mg1 Cu2'
_cell_volume   55.34127345
_cell_formula_units_Z   1
loop_
 _symmetry_equiv_pos_site_id
 _symmetry_equiv_pos_as_xyz
  1  'x, y, z'
loop_
 _atom_site_type_symbol
 _atom_site_label
 _atom_site_symmetry_multiplicity
 _atom_site_fract_x
 _atom_site_fract_y
 _atom_site_fract_z
 _atom_site_occupancy
  Mg  Mg0  1  0.00000000  0.66666671  0.66666664  1
  Cu  Cu1  1  0.49999999  0.00000000  0.00000000  1
  Cu  Cu2  1  0.49999999  0.33333335  0.33333332  1
