# generated using pymatgen
data_HfAs
_symmetry_space_group_name_H-M   'P 1'
_cell_length_a   3.91651607
_cell_length_b   6.05694914
_cell_length_c   6.42334890
_cell_angle_alpha   90.00000000
_cell_angle_beta   90.00000000
_cell_angle_gamma   90.00000000
_symmetry_Int_Tables_number   1
_chemical_formula_structural   HfAs
_chemical_formula_sum   'Hf4 As4'
_cell_volume   152.37557303
_cell_formula_units_Z   4
loop_
 _symmetry_equiv_pos_site_id
 _symmetry_equiv_pos_as_xyz
  1  'x, y, z'
loop_
 _atom_site_type_symbol
 _atom_site_label
 _atom_site_symmetry_multiplicity
 _atom_site_fract_x
 _atom_site_fract_y
 _atom_site_fract_z
 _atom_site_occupancy
  Hf  Hf0  1  0.74999999  0.80342198  0.59153501  1
  Hf  Hf1  1  0.25000000  0.19657800  0.40846501  1
  Hf  Hf2  1  0.74999999  0.30342199  0.90846501  1
  Hf  Hf3  1  0.25000000  0.69657798  0.09153500  1
  As  As4  1  0.74999999  0.99346698  0.19428300  1
  As  As5  1  0.25000000  0.00653300  0.80571701  1
  As  As6  1  0.74999999  0.49346699  0.30571700  1
  As  As7  1  0.25000000  0.50653299  0.69428301  1
