# generated using pymatgen
data_Ce5In3
_symmetry_space_group_name_H-M   'P 1'
_cell_length_a   5.53189993
_cell_length_b   7.07629585
_cell_length_c   7.07629585
_cell_angle_alpha   120.00000000
_cell_angle_beta   90.00000000
_cell_angle_gamma   90.00000000
_symmetry_Int_Tables_number   1
_chemical_formula_structural   Ce5In3
_chemical_formula_sum   'Ce5 In3'
_cell_volume   239.89263288
_cell_formula_units_Z   1
loop_
 _symmetry_equiv_pos_site_id
 _symmetry_equiv_pos_as_xyz
  1  'x, y, z'
loop_
 _atom_site_type_symbol
 _atom_site_label
 _atom_site_symmetry_multiplicity
 _atom_site_fract_x
 _atom_site_fract_y
 _atom_site_fract_z
 _atom_site_occupancy
  Ce  Ce0  1  0.25000000  0.66666668  0.33333333  1
  Ce  Ce1  1  0.75000001  0.33333334  0.66666667  1
  Ce  Ce2  1  0.75000001  0.83402801  0.16597199  1
  Ce  Ce3  1  0.75000001  0.33194401  0.16597200  1
  In  In4  1  0.75000001  0.83402801  0.66805600  1
  Ce  Ce5  1  0.25000000  0.16597200  0.83402801  1
  In  In6  1  0.25000000  0.66805601  0.83402800  1
  In  In7  1  0.25000000  0.16597200  0.33194400  1
