# generated using pymatgen
data_Na3LiS4
_symmetry_space_group_name_H-M   'P 1'
_cell_length_a   5.79275179
_cell_length_b   5.79275179
_cell_length_c   7.10247707
_cell_angle_alpha   114.06658173
_cell_angle_beta   114.06658173
_cell_angle_gamma   90.00000000
_symmetry_Int_Tables_number   1
_chemical_formula_structural   Na3LiS4
_chemical_formula_sum   'Na3 Li1 S4'
_cell_volume   194.70329950
_cell_formula_units_Z   1
loop_
 _symmetry_equiv_pos_site_id
 _symmetry_equiv_pos_as_xyz
  1  'x, y, z'
loop_
 _atom_site_type_symbol
 _atom_site_label
 _atom_site_symmetry_multiplicity
 _atom_site_fract_x
 _atom_site_fract_y
 _atom_site_fract_z
 _atom_site_occupancy
  Li  Li0  1  0.24348700  0.24348700  0.48697400  1
  Na  Na1  1  0.75651300  0.75651302  0.51302597  1
  Na  Na2  1  0.50000001  0.00000000  -0.00000001  1
  Na  Na3  1  -0.00000001  0.50000001  -0.00000002  1
  S  S4  1  0.00000000  0.00000000  0.00000000  1
  S  S5  1  0.75000001  0.25000001  0.49999999  1
  S  S6  1  0.24999999  0.75000002  0.49999999  1
  S  S7  1  0.50000000  0.50000001  -0.00000003  1
