# generated using pymatgen
data_CeFeSi4
_symmetry_space_group_name_H-M   'P 1'
_cell_length_a   4.20745420
_cell_length_b   4.20745420
_cell_length_c   12.41984749
_cell_angle_alpha   99.75202179
_cell_angle_beta   99.75202179
_cell_angle_gamma   90.00000000
_symmetry_Int_Tables_number   1
_chemical_formula_structural   CeFeSi4
_chemical_formula_sum   'Ce2 Fe2 Si8'
_cell_volume   213.46314642
_cell_formula_units_Z   2
loop_
 _symmetry_equiv_pos_site_id
 _symmetry_equiv_pos_as_xyz
  1  'x, y, z'
loop_
 _atom_site_type_symbol
 _atom_site_label
 _atom_site_symmetry_multiplicity
 _atom_site_fract_x
 _atom_site_fract_y
 _atom_site_fract_z
 _atom_site_occupancy
  Ce  Ce0  1  0.84682796  0.84682796  0.69365598  1
  Ce  Ce1  1  0.14367199  0.14367199  0.28734399  1
  Fe  Fe2  1  0.73897096  0.23897099  0.47794199  1
  Fe  Fe3  1  0.23897099  0.73897096  0.47794199  1
  Si  Si4  1  0.94715395  0.44715398  0.89430798  1
  Si  Si5  1  0.44715397  0.94715395  0.89430798  1
  Si  Si6  1  0.05587800  0.55587797  0.11175600  1
  Si  Si7  1  0.55587797  0.05587800  0.11175600  1
  Si  Si8  1  0.00078300  0.00078300  0.00156600  1
  Si  Si9  1  0.28224999  0.28224999  0.56449999  1
  Si  Si10  1  0.64912297  0.64912297  0.29824599  1
  Si  Si11  1  0.37640598  0.37640598  0.75281199  1
