# generated using pymatgen
data_BaNa4BiAsS7
_symmetry_space_group_name_H-M   'P 1'
_cell_length_a   6.89392996
_cell_length_b   7.10480022
_cell_length_c   9.70780849
_cell_angle_alpha   80.00891876
_cell_angle_beta   84.96405029
_cell_angle_gamma   75.35603333
_symmetry_Int_Tables_number   1
_chemical_formula_structural   BaNa4BiAsS7
_chemical_formula_sum   'Ba1 Na4 Bi1 As1 S7'
_cell_volume   452.58420494
_cell_formula_units_Z   1
loop_
 _symmetry_equiv_pos_site_id
 _symmetry_equiv_pos_as_xyz
  1  'x, y, z'
loop_
 _atom_site_type_symbol
 _atom_site_label
 _atom_site_symmetry_multiplicity
 _atom_site_fract_x
 _atom_site_fract_y
 _atom_site_fract_z
 _atom_site_occupancy
  As  As0  1  0.19216301  0.18127400  0.56729800  1
  Ba  Ba1  1  0.80783703  0.81872600  0.43270200  1
  Na  Na2  1  0.85112803  0.81194900  0.95780000  1
  Na  Na3  1  0.14887201  0.18805100  0.04220000  1
  Na  Na4  1  0.41797602  0.60375300  0.16437200  1
  Na  Na5  1  0.58202401  0.39624700  0.83562800  1
  S  S6  1  0.21288902  0.84904100  0.88674000  1
  Bi  Bi7  1  0.78711101  0.15095900  0.11326000  1
  S  S8  1  0.30935003  0.93394200  0.26813100  1
  S  S9  1  0.69065001  0.06605800  0.73186900  1
  S  S10  1  0.40407802  0.58648700  0.59067000  1
  S  S11  1  0.59592202  0.41351300  0.40933000  1
  S  S12  1  0.08591401  0.48194800  0.21728800  1
  S  S13  1  0.91408602  0.51805200  0.78271200  1
