# generated using pymatgen
data_Rb2TlPdS5
_symmetry_space_group_name_H-M   'P 1'
_cell_length_a   7.25515699
_cell_length_b   7.25515699
_cell_length_c   7.25515699
_cell_angle_alpha   91.77867889
_cell_angle_beta   118.97844696
_cell_angle_gamma   118.97844696
_symmetry_Int_Tables_number   1
_chemical_formula_structural   Rb2TlPdS5
_chemical_formula_sum   'Rb2 Tl1 Pd1 S5'
_cell_volume   274.06505395
_cell_formula_units_Z   1
loop_
 _symmetry_equiv_pos_site_id
 _symmetry_equiv_pos_as_xyz
  1  'x, y, z'
loop_
 _atom_site_type_symbol
 _atom_site_label
 _atom_site_symmetry_multiplicity
 _atom_site_fract_x
 _atom_site_fract_y
 _atom_site_fract_z
 _atom_site_occupancy
  Rb  Rb0  1  0.49999994  0.74999997  0.24999999  1
  Rb  Rb1  1  0.49999997  0.24999999  0.74999997  1
  Pd  Pd2  1  0.00000000  0.00000000  0.00000000  1
  Tl  Tl3  1  -0.00000001  0.24077599  0.24077601  1
  S  S4  1  -0.00000004  0.75922397  0.75922402  1
  S  S5  1  -0.00000001  0.23471999  0.76528000  1
  S  S6  1  0.46943997  0.23471999  0.23471998  1
  S  S7  1  -0.00000004  0.76527997  0.23472002  1
  S  S8  1  0.53055994  0.76527997  0.76527999  1
