# generated using pymatgen
data_Fe2Si
_symmetry_space_group_name_H-M   'P 1'
_cell_length_a   3.55333495
_cell_length_b   5.78219414
_cell_length_c   5.78219414
_cell_angle_alpha   120.00000000
_cell_angle_beta   90.00000000
_cell_angle_gamma   90.00000000
_symmetry_Int_Tables_number   1
_chemical_formula_structural   Fe2Si
_chemical_formula_sum   'Fe6 Si3'
_cell_volume   102.88501317
_cell_formula_units_Z   3
loop_
 _symmetry_equiv_pos_site_id
 _symmetry_equiv_pos_as_xyz
  1  'x, y, z'
loop_
 _atom_site_type_symbol
 _atom_site_label
 _atom_site_symmetry_multiplicity
 _atom_site_fract_x
 _atom_site_fract_y
 _atom_site_fract_z
 _atom_site_occupancy
  Fe  Fe0  1  0.50000001  0.00000000  0.40801300  1
  Fe  Fe1  1  0.50000001  0.40801299  1.00000000  1
  Fe  Fe2  1  0.50000001  0.59198699  0.59198700  1
  Fe  Fe3  1  0.00000000  0.00000000  0.74421199  1
  Fe  Fe4  1  1.00000001  0.74421199  1.00000000  1
  Fe  Fe5  1  1.00000001  0.25578800  0.25578800  1
  Si  Si6  1  1.00000001  0.66666665  0.33333334  1
  Si  Si7  1  1.00000001  0.33333333  0.66666666  1
  Si  Si8  1  0.50000001  0.00000000  -0.00000000  1
