# generated using pymatgen
data_Pr(FeGe)2
_symmetry_space_group_name_H-M   'P 1'
_cell_length_a   4.10699606
_cell_length_b   4.10699606
_cell_length_c   5.85393906
_cell_angle_alpha   110.53558350
_cell_angle_beta   110.53558350
_cell_angle_gamma   90.00000000
_symmetry_Int_Tables_number   1
_chemical_formula_structural   Pr(FeGe)2
_chemical_formula_sum   'Pr1 Fe2 Ge2'
_cell_volume   85.73377440
_cell_formula_units_Z   1
loop_
 _symmetry_equiv_pos_site_id
 _symmetry_equiv_pos_as_xyz
  1  'x, y, z'
loop_
 _atom_site_type_symbol
 _atom_site_label
 _atom_site_symmetry_multiplicity
 _atom_site_fract_x
 _atom_site_fract_y
 _atom_site_fract_z
 _atom_site_occupancy
  Pr  Pr0  1  0.00000000  0.00000000  0.00000000  1
  Fe  Fe1  1  0.74999996  0.24999999  0.49999997  1
  Fe  Fe2  1  0.24999995  0.74999997  0.49999996  1
  Ge  Ge3  1  0.63329895  0.63329897  0.26659794  1
  Ge  Ge4  1  0.36670097  0.36670098  0.73340199  1
