# generated using pymatgen
data_Pr2O3
_symmetry_space_group_name_H-M   'P 1'
_cell_length_a   5.88351917
_cell_length_b   6.07552385
_cell_length_c   8.57596874
_cell_angle_alpha   90.00000000
_cell_angle_beta   90.00000000
_cell_angle_gamma   90.00000000
_symmetry_Int_Tables_number   1
_chemical_formula_structural   Pr2O3
_chemical_formula_sum   'Pr8 O12'
_cell_volume   306.55195686
_cell_formula_units_Z   4
loop_
 _symmetry_equiv_pos_site_id
 _symmetry_equiv_pos_as_xyz
  1  'x, y, z'
loop_
 _atom_site_type_symbol
 _atom_site_label
 _atom_site_symmetry_multiplicity
 _atom_site_fract_x
 _atom_site_fract_y
 _atom_site_fract_z
 _atom_site_occupancy
  Pr  Pr0  1  0.98167397  0.04669100  0.25000001  1
  Pr  Pr1  1  0.48167399  0.45330901  0.75000002  1
  Pr  Pr2  1  0.51832598  0.54669101  0.25000001  1
  Pr  Pr3  1  0.01832600  0.95330902  0.75000002  1
  Pr  Pr4  1  0.49999999  0.00000000  -0.00000000  1
  Pr  Pr5  1  0.49999999  0.00000000  0.50000002  1
  Pr  Pr6  1  -0.00000000  0.50000001  0.00000000  1
  Pr  Pr7  1  -0.00000000  0.50000001  0.50000002  1
  O  O8  1  0.63139698  0.05655300  0.75000002  1
  O  O9  1  0.19670099  0.19789500  0.57153002  1
  O  O10  1  0.19670099  0.19789500  0.92847003  1
  O  O11  1  0.69670098  0.30210501  0.42847001  1
  O  O12  1  0.69670098  0.30210501  0.07153000  1
  O  O13  1  0.13139700  0.44344701  0.25000001  1
  O  O14  1  0.86860297  0.55655301  0.75000002  1
  O  O15  1  0.30329899  0.69789502  0.92847003  1
  O  O16  1  0.30329899  0.69789502  0.57153002  1
  O  O17  1  0.80329898  0.80210502  0.07153000  1
  O  O18  1  0.80329898  0.80210502  0.42847001  1
  O  O19  1  0.36860299  0.94344702  0.25000001  1
