# generated using pymatgen
data_Mg4Fe7Si9
_symmetry_space_group_name_H-M   'P 1'
_cell_length_a   2.98908997
_cell_length_b   9.48834705
_cell_length_c   9.48834705
_cell_angle_alpha   90.00000000
_cell_angle_beta   90.00000000
_cell_angle_gamma   90.00000000
_symmetry_Int_Tables_number   1
_chemical_formula_structural   Mg4Fe7Si9
_chemical_formula_sum   'Mg4 Fe7 Si9'
_cell_volume   269.10397291
_cell_formula_units_Z   1
loop_
 _symmetry_equiv_pos_site_id
 _symmetry_equiv_pos_as_xyz
  1  'x, y, z'
loop_
 _atom_site_type_symbol
 _atom_site_label
 _atom_site_symmetry_multiplicity
 _atom_site_fract_x
 _atom_site_fract_y
 _atom_site_fract_z
 _atom_site_occupancy
  Mg  Mg0  1  0.00000000  0.82466500  0.32466500  1
  Mg  Mg1  1  1.00000001  0.17533500  0.67533500  1
  Mg  Mg2  1  0.00000000  0.32466500  0.17533500  1
  Mg  Mg3  1  0.00000000  0.67533500  0.82466500  1
  Fe  Fe4  1  0.00000000  0.62429300  0.12429300  1
  Fe  Fe5  1  0.00000000  0.37570700  0.87570700  1
  Fe  Fe6  1  0.00000000  0.12429300  0.37570700  1
  Fe  Fe7  1  0.00000000  0.87570700  0.62429300  1
  Fe  Fe8  1  0.00000000  0.50000000  0.50000000  1
  Fe  Fe9  1  0.00000000  0.00000000  0.00000000  1
  Fe  Fe10  1  0.50000001  0.50000000  -0.00000000  1
  Si  Si11  1  0.50000001  0.00000000  0.50000000  1
  Si  Si12  1  0.50000001  0.71620600  0.57259500  1
  Si  Si13  1  0.50000001  0.28379400  0.42740500  1
  Si  Si14  1  0.50000001  0.21620600  0.92740499  1
  Si  Si15  1  0.50000001  0.78379400  0.07259500  1
  Si  Si16  1  0.50000001  0.42740500  0.71620600  1
  Si  Si17  1  0.50000001  0.57259500  0.28379400  1
  Si  Si18  1  0.50000001  0.07259500  0.21620600  1
  Si  Si19  1  0.50000001  0.92740499  0.78379400  1
