# generated using pymatgen
data_Li2CoBO8
_symmetry_space_group_name_H-M   'P 1'
_cell_length_a   5.45959997
_cell_length_b   5.51131868
_cell_length_c   6.07352972
_cell_angle_alpha   77.13700867
_cell_angle_beta   63.29104614
_cell_angle_gamma   60.30994034
_symmetry_Int_Tables_number   1
_chemical_formula_structural   Li2CoBO8
_chemical_formula_sum   'Li2 Co1 B1 O8'
_cell_volume   141.81884894
_cell_formula_units_Z   1
loop_
 _symmetry_equiv_pos_site_id
 _symmetry_equiv_pos_as_xyz
  1  'x, y, z'
loop_
 _atom_site_type_symbol
 _atom_site_label
 _atom_site_symmetry_multiplicity
 _atom_site_fract_x
 _atom_site_fract_y
 _atom_site_fract_z
 _atom_site_occupancy
  Li  Li0  1  0.52600600  0.94798805  0.49999994  1
  Li  Li1  1  0.77600601  0.44798802  -0.00000003  1
  B  B2  1  0.88923401  0.22153201  0.49999996  1
  Co  Co3  1  0.13923399  0.72153204  -0.00000003  1
  O  O4  1  0.24253599  0.93544505  0.81844693  1
  O  O5  1  0.71990701  0.03963500  0.63627596  1
  O  O6  1  0.24045700  0.03963500  0.36372498  1
  O  O7  1  0.35418300  0.53963403  0.13627497  1
  O  O8  1  0.10618400  0.53963403  0.86372395  1
  O  O9  1  0.81098401  0.43544402  0.68155295  1
  O  O10  1  0.82201900  0.93544505  0.18155295  1
  O  O11  1  0.75357201  0.43544502  0.31844696  1
