# generated using pymatgen
data_LaPd3
_symmetry_space_group_name_H-M   'P 1'
_cell_length_a   4.62285089
_cell_length_b   6.51700592
_cell_length_c   6.51700640
_cell_angle_alpha   120.00000000
_cell_angle_beta   90.00000000
_cell_angle_gamma   90.00000000
_symmetry_Int_Tables_number   1
_chemical_formula_structural   LaPd3
_chemical_formula_sum   'La2 Pd6'
_cell_volume   170.03439501
_cell_formula_units_Z   2
loop_
 _symmetry_equiv_pos_site_id
 _symmetry_equiv_pos_as_xyz
  1  'x, y, z'
loop_
 _atom_site_type_symbol
 _atom_site_label
 _atom_site_symmetry_multiplicity
 _atom_site_fract_x
 _atom_site_fract_y
 _atom_site_fract_z
 _atom_site_occupancy
  La  La0  1  0.25000001  0.66666668  0.33333334  1
  La  La1  1  0.75000002  0.33333334  0.66666665  1
  Pd  Pd2  1  0.75000002  0.85765102  0.14234901  1
  Pd  Pd3  1  0.75000002  0.28469801  0.14234900  1
  Pd  Pd4  1  0.75000002  0.85765102  0.71530200  1
  Pd  Pd5  1  0.25000001  0.14234900  0.85765098  1
  Pd  Pd6  1  0.25000001  0.71530202  0.85765099  1
  Pd  Pd7  1  0.25000001  0.14234900  0.28469799  1
