# generated using pymatgen
data_LuNiO3
_symmetry_space_group_name_H-M   'P 1'
_cell_length_a   5.31725407
_cell_length_b   5.61467600
_cell_length_c   7.66736507
_cell_angle_alpha   90.00022125
_cell_angle_beta   90.00040436
_cell_angle_gamma   89.99991608
_symmetry_Int_Tables_number   1
_chemical_formula_structural   LuNiO3
_chemical_formula_sum   'Lu4 Ni4 O12'
_cell_volume   228.90656807
_cell_formula_units_Z   4
loop_
 _symmetry_equiv_pos_site_id
 _symmetry_equiv_pos_as_xyz
  1  'x, y, z'
loop_
 _atom_site_type_symbol
 _atom_site_label
 _atom_site_symmetry_multiplicity
 _atom_site_fract_x
 _atom_site_fract_y
 _atom_site_fract_z
 _atom_site_occupancy
  Lu  Lu0  1  0.01893700  0.93255500  0.75000096  1
  Lu  Lu1  1  0.51893699  0.56744600  0.25000096  1
  Lu  Lu2  1  0.48106299  0.43255400  0.74999896  1
  Lu  Lu3  1  0.98106199  0.06744600  0.24999897  1
  Ni  Ni4  1  0.49999899  0.00000400  0.50000298  1
  Ni  Ni5  1  -0.00000000  0.50000400  0.00000098  1
  Ni  Ni6  1  0.00000200  0.49999500  0.49999298  1
  Ni  Ni7  1  0.50000199  0.99999200  0.00000395  1
  O  O8  1  0.11190200  0.45914300  0.24999898  1
  O  O9  1  0.61190399  0.04085900  0.74999798  1
  O  O10  1  0.38809600  0.95914200  0.25000095  1
  O  O11  1  0.88809699  0.54085800  0.75000095  1
  O  O12  1  0.69303199  0.30236000  0.44264097  1
  O  O13  1  0.19303500  0.19763900  0.55736098  1
  O  O14  1  0.80696599  0.80236100  0.05735995  1
  O  O15  1  0.30696400  0.69763800  0.94263896  1
  O  O16  1  0.30696700  0.69764100  0.55735896  1
  O  O17  1  0.80696299  0.80236100  0.44263894  1
  O  O18  1  0.19303300  0.19764000  0.94263998  1
  O  O19  1  0.69303699  0.30236300  0.05736097  1
