# generated using pymatgen
data_Mg
_symmetry_space_group_name_H-M   'P 1'
_cell_length_a   4.13452387
_cell_length_b   4.42045212
_cell_length_c   5.98933506
_cell_angle_alpha   111.65561676
_cell_angle_beta   90.00000000
_cell_angle_gamma   90.00000000
_symmetry_Int_Tables_number   1
_chemical_formula_structural   Mg
_chemical_formula_sum   Mg4
_cell_volume   101.73777021
_cell_formula_units_Z   4
loop_
 _symmetry_equiv_pos_site_id
 _symmetry_equiv_pos_as_xyz
  1  'x, y, z'
loop_
 _atom_site_type_symbol
 _atom_site_label
 _atom_site_symmetry_multiplicity
 _atom_site_fract_x
 _atom_site_fract_y
 _atom_site_fract_z
 _atom_site_occupancy
  Mg  Mg0  1  0.75000002  0.14247099  0.28494200  1
  Mg  Mg1  1  0.25000001  0.85752897  0.71505798  1
  Mg  Mg2  1  0.75000002  0.42792098  0.85584199  1
  Mg  Mg3  1  0.25000001  0.57207898  0.14415798  1
