# generated using pymatgen
data_Ce3In5
_symmetry_space_group_name_H-M   'P 1'
_cell_length_a   5.55446291
_cell_length_b   6.93452787
_cell_length_c   6.93452787
_cell_angle_alpha   120.00000000
_cell_angle_beta   90.00000000
_cell_angle_gamma   90.00000000
_symmetry_Int_Tables_number   1
_chemical_formula_structural   Ce3In5
_chemical_formula_sum   'Ce3 In5'
_cell_volume   231.31643965
_cell_formula_units_Z   1
loop_
 _symmetry_equiv_pos_site_id
 _symmetry_equiv_pos_as_xyz
  1  'x, y, z'
loop_
 _atom_site_type_symbol
 _atom_site_label
 _atom_site_symmetry_multiplicity
 _atom_site_fract_x
 _atom_site_fract_y
 _atom_site_fract_z
 _atom_site_occupancy
  Ce  Ce0  1  0.75000001  0.83558100  0.16441997  1
  Ce  Ce1  1  0.75000001  0.32883900  0.16441998  1
  In  In2  1  0.75000001  0.83558100  0.67116195  1
  Ce  Ce3  1  0.25000000  0.16441900  0.83557997  1
  In  In4  1  0.25000000  0.67116100  0.83557995  1
  In  In5  1  0.25000000  0.16441900  0.32883798  1
  In  In6  1  0.25000000  0.66666667  0.33333330  1
  In  In7  1  0.75000001  0.33333333  0.66666663  1
