# generated using pymatgen
data_PrGe4
_symmetry_space_group_name_H-M   'P 1'
_cell_length_a   4.30394888
_cell_length_b   4.30394888
_cell_length_c   10.02688980
_cell_angle_alpha   90.00000000
_cell_angle_beta   90.00000000
_cell_angle_gamma   90.00000000
_symmetry_Int_Tables_number   1
_chemical_formula_structural   PrGe4
_chemical_formula_sum   'Pr2 Ge8'
_cell_volume   185.73786558
_cell_formula_units_Z   2
loop_
 _symmetry_equiv_pos_site_id
 _symmetry_equiv_pos_as_xyz
  1  'x, y, z'
loop_
 _atom_site_type_symbol
 _atom_site_label
 _atom_site_symmetry_multiplicity
 _atom_site_fract_x
 _atom_site_fract_y
 _atom_site_fract_z
 _atom_site_occupancy
  Pr  Pr0  1  0.00000000  0.50000001  0.25207401  1
  Pr  Pr1  1  0.50000001  0.00000000  0.74792601  1
  Ge  Ge2  1  0.00000000  0.00000000  0.50000001  1
  Ge  Ge3  1  0.50000001  0.50000001  0.50000001  1
  Ge  Ge4  1  0.00000000  0.50000001  0.86234802  1
  Ge  Ge5  1  0.50000001  0.00000000  0.13765200  1
  Ge  Ge6  1  0.00000000  0.00000000  0.00000000  1
  Ge  Ge7  1  0.50000001  0.50000001  0.00000000  1
  Ge  Ge8  1  0.00000000  0.50000001  0.62072201  1
  Ge  Ge9  1  0.50000001  0.00000000  0.37927801  1
