# generated using pymatgen
data_Sr3LiCuO4
_symmetry_space_group_name_H-M   'P 1'
_cell_length_a   6.04327106
_cell_length_b   6.09646463
_cell_length_c   8.55957508
_cell_angle_alpha   87.76459503
_cell_angle_beta   70.85046387
_cell_angle_gamma   69.81687927
_symmetry_Int_Tables_number   1
_chemical_formula_structural   Sr3LiCuO4
_chemical_formula_sum   'Sr6 Li2 Cu2 O8'
_cell_volume   278.63365711
_cell_formula_units_Z   2
loop_
 _symmetry_equiv_pos_site_id
 _symmetry_equiv_pos_as_xyz
  1  'x, y, z'
loop_
 _atom_site_type_symbol
 _atom_site_label
 _atom_site_symmetry_multiplicity
 _atom_site_fract_x
 _atom_site_fract_y
 _atom_site_fract_z
 _atom_site_occupancy
  Sr  Sr0  1  0.73636261  0.78015538  0.84897283  1
  Sr  Sr1  1  0.26363740  0.21984463  0.15102717  1
  Sr  Sr2  1  0.19087740  0.72761058  0.01839418  1
  Sr  Sr3  1  0.80912261  0.27238943  0.98160583  1
  Sr  Sr4  1  0.05647795  0.73544090  0.43320198  1
  Sr  Sr5  1  0.94352206  0.26455911  0.56679803  1
  Li  Li6  1  0.57351484  0.20540323  0.37844497  1
  Li  Li7  1  0.42648517  0.79459678  0.62155503  1
  Cu  Cu8  1  0.61367744  0.70069797  0.24312693  1
  Cu  Cu9  1  0.38632257  0.29930204  0.75687308  1
  O  O10  1  0.30074778  0.98132821  0.37793627  1
  O  O11  1  0.69925223  0.01867180  0.62206373  1
  O  O12  1  0.73171932  0.94783736  0.11592616  1
  O  O13  1  0.26828069  0.05216265  0.88407384  1
  O  O14  1  0.41444651  0.52054190  0.20748168  1
  O  O15  1  0.58555351  0.47945810  0.79251833  1
  O  O16  1  0.16432026  0.51200240  0.67198833  1
  O  O17  1  0.83567975  0.48799760  0.32801168  1
