# generated using pymatgen
data_BaNaScInO6
_symmetry_space_group_name_H-M   'P 1'
_cell_length_a   5.73108101
_cell_length_b   5.73108101
_cell_length_c   5.73108053
_cell_angle_alpha   62.31958008
_cell_angle_beta   62.31958008
_cell_angle_gamma   62.31958771
_symmetry_Int_Tables_number   1
_chemical_formula_structural   BaNaScInO6
_chemical_formula_sum   'Ba1 Na1 Sc1 In1 O6'
_cell_volume   139.99486484
_cell_formula_units_Z   1
loop_
 _symmetry_equiv_pos_site_id
 _symmetry_equiv_pos_as_xyz
  1  'x, y, z'
loop_
 _atom_site_type_symbol
 _atom_site_label
 _atom_site_symmetry_multiplicity
 _atom_site_fract_x
 _atom_site_fract_y
 _atom_site_fract_z
 _atom_site_occupancy
  Ba  Ba0  1  0.74206700  0.74206699  0.74206703  1
  Na  Na1  1  0.24206700  0.24206700  0.24206701  1
  Sc  Sc2  1  0.00221900  0.00221900  0.00221900  1
  In  In3  1  0.50221900  0.50221900  0.50221902  1
  O  O4  1  0.76896499  0.15042400  0.35460602  1
  O  O5  1  0.65042400  0.26896500  0.85460602  1
  O  O6  1  0.85460600  0.65042399  0.26896502  1
  O  O7  1  0.15042400  0.35460600  0.76896502  1
  O  O8  1  0.35460600  0.76896499  0.15042402  1
  O  O9  1  0.26896500  0.85460599  0.65042402  1
