# generated using pymatgen
data_Li2O2
_symmetry_space_group_name_H-M   'P 1'
_cell_length_a   5.11684036
_cell_length_b   5.11684036
_cell_length_c   5.19859982
_cell_angle_alpha   100.37550354
_cell_angle_beta   100.37550354
_cell_angle_gamma   118.72267914
_symmetry_Int_Tables_number   1
_chemical_formula_structural   Li2O2
_chemical_formula_sum   'Li6 O6'
_cell_volume   111.66048245
_cell_formula_units_Z   3
loop_
 _symmetry_equiv_pos_site_id
 _symmetry_equiv_pos_as_xyz
  1  'x, y, z'
loop_
 _atom_site_type_symbol
 _atom_site_label
 _atom_site_symmetry_multiplicity
 _atom_site_fract_x
 _atom_site_fract_y
 _atom_site_fract_z
 _atom_site_occupancy
  Li  Li0  1  0.50000001  0.50000000  0.49999993  1
  Li  Li1  1  0.16842501  0.83157500  0.49999993  1
  Li  Li2  1  0.83157500  0.16842500  0.49999993  1
  Li  Li3  1  0.66587100  0.33412900  -0.00000006  1
  Li  Li4  1  0.33412901  0.66587100  -0.00000006  1
  Li  Li5  1  0.00000000  0.00000000  0.00000000  1
  O  O6  1  0.27786000  0.27786000  0.77053196  1
  O  O7  1  0.93366401  0.58032100  0.77140690  1
  O  O8  1  0.58032101  0.93366400  0.77140690  1
  O  O9  1  0.72214001  0.72214000  0.22946791  1
  O  O10  1  0.41967900  0.06633600  0.22859297  1
  O  O11  1  0.06633601  0.41967900  0.22859297  1
