# generated using pymatgen
data_LiS
_symmetry_space_group_name_H-M   'P 1'
_cell_length_a   7.71383524
_cell_length_b   7.71550798
_cell_length_c   7.72975302
_cell_angle_alpha   119.24800873
_cell_angle_beta   119.19672394
_cell_angle_gamma   60.92102051
_symmetry_Int_Tables_number   1
_chemical_formula_structural   LiS
_chemical_formula_sum   'Li7 S7'
_cell_volume   331.35492739
_cell_formula_units_Z   7
loop_
 _symmetry_equiv_pos_site_id
 _symmetry_equiv_pos_as_xyz
  1  'x, y, z'
loop_
 _atom_site_type_symbol
 _atom_site_label
 _atom_site_symmetry_multiplicity
 _atom_site_fract_x
 _atom_site_fract_y
 _atom_site_fract_z
 _atom_site_occupancy
  Li  Li0  1  0.49996303  0.50001299  0.49999802  1
  Li  Li1  1  0.99998904  0.50000399  0.99998407  1
  Li  Li2  1  0.49998306  0.99999898  0.99998201  1
  Li  Li3  1  0.87539506  0.87528998  0.62483004  1
  Li  Li4  1  0.12458601  0.12472100  0.37515001  1
  Li  Li5  1  0.50017203  0.49994699  0.00011402  1
  Li  Li6  1  0.73122705  0.73141598  0.22933003  1
  S  S7  1  0.73077603  0.26717599  0.23312005  1
  S  S8  1  0.25423702  0.25447499  0.24508301  1
  S  S9  1  0.26732504  0.73067798  0.23310899  1
  S  S10  1  0.74572305  0.74552598  0.75487503  1
  S  S11  1  0.73265003  0.26932099  0.76686805  1
  S  S12  1  0.26877502  0.26859599  0.77066902  1
  S  S13  1  0.26920204  0.73284098  0.76688900  1
