# generated using pymatgen
data_ZnFe2Te3S
_symmetry_space_group_name_H-M   'P 1'
_cell_length_a   5.51653194
_cell_length_b   5.51653194
_cell_length_c   5.74486589
_cell_angle_alpha   90.00000000
_cell_angle_beta   90.00000000
_cell_angle_gamma   90.00000000
_symmetry_Int_Tables_number   1
_chemical_formula_structural   ZnFe2Te3S
_chemical_formula_sum   'Zn1 Fe2 Te3 S1'
_cell_volume   174.82847524
_cell_formula_units_Z   1
loop_
 _symmetry_equiv_pos_site_id
 _symmetry_equiv_pos_as_xyz
  1  'x, y, z'
loop_
 _atom_site_type_symbol
 _atom_site_label
 _atom_site_symmetry_multiplicity
 _atom_site_fract_x
 _atom_site_fract_y
 _atom_site_fract_z
 _atom_site_occupancy
  Zn  Zn0  1  0.00000000  0.50000001  0.50000001  1
  Fe  Fe1  1  0.50000001  0.00000000  0.50000001  1
  Fe  Fe2  1  0.00000000  0.00000000  0.00000000  1
  Te  Te3  1  0.74121501  0.74121501  0.23743300  1
  Te  Te4  1  0.25878500  0.25878500  0.23743300  1
  Te  Te5  1  0.25878500  0.74121501  0.76256701  1
  S  S6  1  0.74121501  0.25878500  0.76256701  1
