# generated using pymatgen
data_Mg5VS8
_symmetry_space_group_name_H-M   'P 1'
_cell_length_a   7.56278515
_cell_length_b   7.56377125
_cell_length_c   7.56912518
_cell_angle_alpha   119.33309937
_cell_angle_beta   119.31942749
_cell_angle_gamma   60.73458481
_symmetry_Int_Tables_number   1
_chemical_formula_structural   Mg5VS8
_chemical_formula_sum   'Mg5 V1 S8'
_cell_volume   310.95739515
_cell_formula_units_Z   1
loop_
 _symmetry_equiv_pos_site_id
 _symmetry_equiv_pos_as_xyz
  1  'x, y, z'
loop_
 _atom_site_type_symbol
 _atom_site_label
 _atom_site_symmetry_multiplicity
 _atom_site_fract_x
 _atom_site_fract_y
 _atom_site_fract_z
 _atom_site_occupancy
  Mg  Mg0  1  0.87624401  0.87583403  0.62385003  1
  Mg  Mg1  1  0.12384800  0.12403200  0.37612100  1
  Mg  Mg2  1  0.50010601  0.49988702  0.00004702  1
  Mg  Mg3  1  0.50006301  0.50002102  0.50014801  1
  Mg  Mg4  1  0.99976301  0.50012202  0.99985200  1
  V  V5  1  0.50006600  0.00003700  0.99998397  1
  S  S6  1  0.73238001  0.73234903  0.22356603  1
  S  S7  1  0.72373200  0.26751701  0.23278500  1
  S  S8  1  0.25714300  0.25733601  0.24257801  1
  S  S9  1  0.26690501  0.72429303  0.23331304  1
  S  S10  1  0.74276101  0.74274003  0.75731002  1
  S  S11  1  0.73308400  0.27564801  0.76663599  1
  S  S12  1  0.26757600  0.26772401  0.77651300  1
  S  S13  1  0.27633001  0.73246303  0.76729702  1
