# generated using pymatgen
data_Pr(SiNi)2
_symmetry_space_group_name_H-M   'P 1'
_cell_length_a   4.27185011
_cell_length_b   4.27185011
_cell_length_c   5.80437326
_cell_angle_alpha   111.59143066
_cell_angle_beta   111.59143066
_cell_angle_gamma   90.00000000
_symmetry_Int_Tables_number   1
_chemical_formula_structural   Pr(SiNi)2
_chemical_formula_sum   'Pr1 Si2 Ni2'
_cell_volume   90.44878587
_cell_formula_units_Z   1
loop_
 _symmetry_equiv_pos_site_id
 _symmetry_equiv_pos_as_xyz
  1  'x, y, z'
loop_
 _atom_site_type_symbol
 _atom_site_label
 _atom_site_symmetry_multiplicity
 _atom_site_fract_x
 _atom_site_fract_y
 _atom_site_fract_z
 _atom_site_occupancy
  Pr  Pr0  1  0.00000000  0.00000000  0.00000000  1
  Si  Si1  1  0.63020700  0.63020699  0.26041402  1
  Si  Si2  1  0.36979300  0.36979299  0.73958600  1
  Ni  Ni3  1  0.74999999  0.25000000  0.50000001  1
  Ni  Ni4  1  0.25000001  0.74999999  0.50000001  1
