# generated using pymatgen
data_YInRh
_symmetry_space_group_name_H-M   'P 1'
_cell_length_a   3.86524010
_cell_length_b   7.69411802
_cell_length_c   7.69411850
_cell_angle_alpha   120.00000000
_cell_angle_beta   90.00000000
_cell_angle_gamma   90.00000000
_symmetry_Int_Tables_number   1
_chemical_formula_structural   YInRh
_chemical_formula_sum   'Y3 In3 Rh3'
_cell_volume   198.16402847
_cell_formula_units_Z   3
loop_
 _symmetry_equiv_pos_site_id
 _symmetry_equiv_pos_as_xyz
  1  'x, y, z'
loop_
 _atom_site_type_symbol
 _atom_site_label
 _atom_site_symmetry_multiplicity
 _atom_site_fract_x
 _atom_site_fract_y
 _atom_site_fract_z
 _atom_site_occupancy
  Y  Y0  1  0.49999999  0.40613500  0.40613500  1
  Y  Y1  1  0.49999999  0.59386501  0.00000002  1
  Y  Y2  1  0.49999999  0.00000000  0.59386499  1
  In  In3  1  -0.00000000  0.26075500  0.00000001  1
  In  In4  1  0.00000000  0.00000000  0.26075499  1
  In  In5  1  -0.00000000  0.73924501  0.73924500  1
  Rh  Rh6  1  -0.00000000  0.66666667  0.33333334  1
  Rh  Rh7  1  -0.00000000  0.33333334  0.66666666  1
  Rh  Rh8  1  0.49999999  0.00000000  -0.00000000  1
