# generated using pymatgen
data_CaCeS2
_symmetry_space_group_name_H-M   'P 1'
_cell_length_a   4.06845665
_cell_length_b   4.06845665
_cell_length_c   7.19382906
_cell_angle_alpha   73.57415771
_cell_angle_beta   73.57415771
_cell_angle_gamma   59.99999237
_symmetry_Int_Tables_number   1
_chemical_formula_structural   CaCeS2
_chemical_formula_sum   'Ca1 Ce1 S2'
_cell_volume   97.46965864
_cell_formula_units_Z   1
loop_
 _symmetry_equiv_pos_site_id
 _symmetry_equiv_pos_as_xyz
  1  'x, y, z'
loop_
 _atom_site_type_symbol
 _atom_site_label
 _atom_site_symmetry_multiplicity
 _atom_site_fract_x
 _atom_site_fract_y
 _atom_site_fract_z
 _atom_site_occupancy
  Ca  Ca0  1  0.49999998  0.49999998  0.49999997  1
  Ce  Ce1  1  0.00000000  0.00000000  0.00000000  1
  S  S2  1  0.25396199  0.25396199  0.23811398  1
  S  S3  1  0.74603797  0.74603797  0.76188595  1
