# generated using pymatgen
data_Rb6LiCu5O6
_symmetry_space_group_name_H-M   'P 1'
_cell_length_a   6.03134203
_cell_length_b   6.75490570
_cell_length_c   9.76526928
_cell_angle_alpha   102.48373413
_cell_angle_beta   90.00000000
_cell_angle_gamma   116.51560974
_symmetry_Int_Tables_number   1
_chemical_formula_structural   Rb6LiCu5O6
_chemical_formula_sum   'Rb6 Li1 Cu5 O6'
_cell_volume   345.45595669
_cell_formula_units_Z   1
loop_
 _symmetry_equiv_pos_site_id
 _symmetry_equiv_pos_as_xyz
  1  'x, y, z'
loop_
 _atom_site_type_symbol
 _atom_site_label
 _atom_site_symmetry_multiplicity
 _atom_site_fract_x
 _atom_site_fract_y
 _atom_site_fract_z
 _atom_site_occupancy
  Rb  Rb0  1  0.33305701  0.66611403  0.13621202  1
  Rb  Rb1  1  0.66694300  0.33388601  0.86378797  1
  Rb  Rb2  1  0.32981301  0.65962602  0.75855099  1
  Rb  Rb3  1  0.67018700  0.34037401  0.24144900  1
  Rb  Rb4  1  0.02614800  0.05229600  0.65959397  1
  Rb  Rb5  1  0.21657001  0.43314002  0.42576999  1
  Li  Li6  1  0.97385201  0.94770404  0.34040602  1
  Cu  Cu7  1  0.78343001  0.56686002  0.57422999  1
  Cu  Cu8  1  0.00000000  0.00000000  0.00000000  1
  Cu  Cu9  1  0.50000000  0.00000000  0.49999998  1
  Cu  Cu10  1  0.61075401  0.76662803  0.46953400  1
  Cu  Cu11  1  0.84412600  0.23337201  0.53046598  1
  O  O12  1  0.12488800  0.24977601  0.90724997  1
  O  O13  1  0.10484900  0.20969801  0.18589200  1
  O  O14  1  0.38924600  0.23337201  0.53046598  1
  O  O15  1  0.87511201  0.75022403  0.09275002  1
  O  O16  1  0.89515101  0.79030203  0.81410799  1
  O  O17  1  0.15587401  0.76662803  0.46953400  1
