# generated using pymatgen
data_Rb8BiBr11
_symmetry_space_group_name_H-M   'P 1'
_cell_length_a   4.32160091
_cell_length_b   10.24571323
_cell_length_c   17.96622467
_cell_angle_alpha   90.00000000
_cell_angle_beta   90.00000000
_cell_angle_gamma   90.00000000
_symmetry_Int_Tables_number   1
_chemical_formula_structural   Rb8BiBr11
_chemical_formula_sum   'Rb8 Bi1 Br11'
_cell_volume   795.50640606
_cell_formula_units_Z   1
loop_
 _symmetry_equiv_pos_site_id
 _symmetry_equiv_pos_as_xyz
  1  'x, y, z'
loop_
 _atom_site_type_symbol
 _atom_site_label
 _atom_site_symmetry_multiplicity
 _atom_site_fract_x
 _atom_site_fract_y
 _atom_site_fract_z
 _atom_site_occupancy
  Rb  Rb0  1  0.25000000  0.92958698  0.17242300  1
  Rb  Rb1  1  0.75000001  0.07041300  0.82757702  1
  Rb  Rb2  1  0.75000001  0.57041299  0.67242301  1
  Rb  Rb3  1  0.25000000  0.42958699  0.32757701  1
  Rb  Rb4  1  0.25000000  0.62204199  0.95728802  1
  Rb  Rb5  1  0.75000001  0.37795799  0.04271200  1
  Rb  Rb6  1  0.75000001  0.87795798  0.45728801  1
  Rb  Rb7  1  0.25000000  0.12204200  0.54271201  1
  Bi  Bi8  1  0.25000000  0.54668999  0.12374400  1
  Br  Br9  1  0.75000001  0.45330999  0.87625602  1
  Br  Br10  1  0.75000001  0.95330998  0.62374401  1
  Br  Br11  1  0.25000000  0.04669000  0.37625601  1
  Br  Br12  1  0.25000000  0.67568998  0.50274701  1
  Br  Br13  1  0.75000001  0.32430999  0.49725301  1
  Br  Br14  1  0.75000001  0.82430998  0.00274700  1
  Br  Br15  1  0.25000000  0.17569000  0.99725302  1
  Br  Br16  1  0.25000000  0.77021498  0.80601401  1
  Br  Br17  1  0.75000001  0.22978499  0.19398600  1
  Br  Br18  1  0.75000001  0.72978498  0.30601401  1
  Br  Br19  1  0.25000000  0.27021499  0.69398601  1
