# generated using pymatgen
data_BaReO3
_symmetry_space_group_name_H-M   'P 1'
_cell_length_a   5.92323542
_cell_length_b   5.92323542
_cell_length_c   5.92515707
_cell_angle_alpha   60.01223755
_cell_angle_beta   60.01223755
_cell_angle_gamma   60.00427246
_symmetry_Int_Tables_number   1
_chemical_formula_structural   BaReO3
_chemical_formula_sum   'Ba2 Re2 O6'
_cell_volume   147.02703206
_cell_formula_units_Z   2
loop_
 _symmetry_equiv_pos_site_id
 _symmetry_equiv_pos_as_xyz
  1  'x, y, z'
loop_
 _atom_site_type_symbol
 _atom_site_label
 _atom_site_symmetry_multiplicity
 _atom_site_fract_x
 _atom_site_fract_y
 _atom_site_fract_z
 _atom_site_occupancy
  Ba  Ba0  1  0.25021300  0.25021300  0.25027800  1
  Ba  Ba1  1  0.74978701  0.74978701  0.74972200  1
  Re  Re2  1  0.00000000  0.00000000  0.00000000  1
  Re  Re3  1  0.50000000  0.50000001  0.50000000  1
  O  O4  1  0.73799101  0.73799101  0.25033301  1
  O  O5  1  0.26200900  0.26200900  0.74966699  1
  O  O6  1  0.73237901  0.25594800  0.26816900  1
  O  O7  1  0.26762100  0.74405201  0.73183099  1
  O  O8  1  0.74405201  0.26762100  0.73183099  1
  O  O9  1  0.25594800  0.73237901  0.26816900  1
