# generated using pymatgen
data_Na2LiO3
_symmetry_space_group_name_H-M   'P 1'
_cell_length_a   5.63172722
_cell_length_b   5.64775801
_cell_length_c   5.64775801
_cell_angle_alpha   119.98081207
_cell_angle_beta   99.83255768
_cell_angle_gamma   99.83251953
_symmetry_Int_Tables_number   1
_chemical_formula_structural   Na2LiO3
_chemical_formula_sum   'Na4 Li2 O6'
_cell_volume   146.24862195
_cell_formula_units_Z   2
loop_
 _symmetry_equiv_pos_site_id
 _symmetry_equiv_pos_as_xyz
  1  'x, y, z'
loop_
 _atom_site_type_symbol
 _atom_site_label
 _atom_site_symmetry_multiplicity
 _atom_site_fract_x
 _atom_site_fract_y
 _atom_site_fract_z
 _atom_site_occupancy
  Li  Li0  1  0.00000102  0.66726999  0.33272597  1
  Li  Li1  1  0.99999897  0.33272899  0.66727297  1
  Na  Na2  1  0.49999899  0.16727600  0.83271899  1
  Na  Na3  1  0.49999600  0.83272199  0.16727795  1
  Na  Na4  1  0.00000200  0.00000100  0.00000100  1
  Na  Na5  1  0.50000099  0.49999999  0.49999997  1
  O  O6  1  0.74999898  0.25000100  0.24999997  1
  O  O7  1  0.25000201  0.75000099  0.75000196  1
  O  O8  1  0.24999700  0.42875799  0.07124397  1
  O  O9  1  0.75000300  0.92875698  0.57124294  1
  O  O10  1  0.24999899  0.07124400  0.42875799  1
  O  O11  1  0.75000299  0.57124299  0.92875596  1
