# generated using pymatgen
data_Ca2CdPd
_symmetry_space_group_name_H-M   'P 1'
_cell_length_a   4.35165787
_cell_length_b   5.96874428
_cell_length_c   8.56056213
_cell_angle_alpha   90.00000000
_cell_angle_beta   90.00000000
_cell_angle_gamma   111.37910461
_symmetry_Int_Tables_number   1
_chemical_formula_structural   Ca2CdPd
_chemical_formula_sum   'Ca4 Cd2 Pd2'
_cell_volume   207.05120089
_cell_formula_units_Z   2
loop_
 _symmetry_equiv_pos_site_id
 _symmetry_equiv_pos_as_xyz
  1  'x, y, z'
loop_
 _atom_site_type_symbol
 _atom_site_label
 _atom_site_symmetry_multiplicity
 _atom_site_fract_x
 _atom_site_fract_y
 _atom_site_fract_z
 _atom_site_occupancy
  Ca  Ca0  1  0.43430709  0.86861401  0.74999999  1
  Ca  Ca1  1  0.56569303  0.13138600  0.25000000  1
  Ca  Ca2  1  0.85678509  0.71357001  0.45107999  1
  Ca  Ca3  1  0.14321503  0.28643000  0.95107999  1
  Cd  Cd4  1  0.14321503  0.28643000  0.54891999  1
  Cd  Cd5  1  0.85678509  0.71357001  0.04892000  1
  Pd  Pd6  1  0.72216606  0.44433200  0.74999999  1
  Pd  Pd7  1  0.27783406  0.55566800  0.25000000  1
