# generated using pymatgen
data_LaPd3
_symmetry_space_group_name_H-M   'P 1'
_cell_length_a   4.38857985
_cell_length_b   4.38857985
_cell_length_c   10.34096527
_cell_angle_alpha   90.00000000
_cell_angle_beta   90.00000000
_cell_angle_gamma   90.00000000
_symmetry_Int_Tables_number   1
_chemical_formula_structural   LaPd3
_chemical_formula_sum   'La2 Pd6'
_cell_volume   199.16319660
_cell_formula_units_Z   2
loop_
 _symmetry_equiv_pos_site_id
 _symmetry_equiv_pos_as_xyz
  1  'x, y, z'
loop_
 _atom_site_type_symbol
 _atom_site_label
 _atom_site_symmetry_multiplicity
 _atom_site_fract_x
 _atom_site_fract_y
 _atom_site_fract_z
 _atom_site_occupancy
  La  La0  1  0.00000000  0.50000002  0.74933198  1
  La  La1  1  0.50000002  0.00000000  0.25066799  1
  Pd  Pd2  1  0.50000002  0.50000002  0.49999999  1
  Pd  Pd3  1  0.00000000  0.00000000  0.49999999  1
  Pd  Pd4  1  0.50000002  0.50000002  0.00000000  1
  Pd  Pd5  1  0.00000000  0.00000000  0.00000000  1
  Pd  Pd6  1  0.00000000  0.50000002  0.35144199  1
  Pd  Pd7  1  0.50000002  0.00000000  0.64855798  1
