# generated using pymatgen
data_VCuSe
_symmetry_space_group_name_H-M   'P 1'
_cell_length_a   3.38034177
_cell_length_b   3.38034177
_cell_length_c   6.95318317
_cell_angle_alpha   75.93167877
_cell_angle_beta   75.93167877
_cell_angle_gamma   60.00000381
_symmetry_Int_Tables_number   1
_chemical_formula_structural   VCuSe
_chemical_formula_sum   'V1 Cu1 Se1'
_cell_volume   66.04143586
_cell_formula_units_Z   1
loop_
 _symmetry_equiv_pos_site_id
 _symmetry_equiv_pos_as_xyz
  1  'x, y, z'
loop_
 _atom_site_type_symbol
 _atom_site_label
 _atom_site_symmetry_multiplicity
 _atom_site_fract_x
 _atom_site_fract_y
 _atom_site_fract_z
 _atom_site_occupancy
  V  V0  1  0.00000000  0.00000000  0.00000000  1
  Cu  Cu1  1  0.74418994  0.74419000  0.76743002  1
  Se  Se2  1  0.25580998  0.25581000  0.23257001  1
