# generated using pymatgen
data_Mg
_symmetry_space_group_name_H-M   'P 1'
_cell_length_a   3.96893001
_cell_length_b   4.30662203
_cell_length_c   5.79784966
_cell_angle_alpha   68.19812775
_cell_angle_beta   90.00000000
_cell_angle_gamma   90.00000000
_symmetry_Int_Tables_number   1
_chemical_formula_structural   Mg
_chemical_formula_sum   Mg4
_cell_volume   92.01248272
_cell_formula_units_Z   4
loop_
 _symmetry_equiv_pos_site_id
 _symmetry_equiv_pos_as_xyz
  1  'x, y, z'
loop_
 _atom_site_type_symbol
 _atom_site_label
 _atom_site_symmetry_multiplicity
 _atom_site_fract_x
 _atom_site_fract_y
 _atom_site_fract_z
 _atom_site_occupancy
  Mg  Mg0  1  0.75000000  0.13817100  0.72365803  1
  Mg  Mg1  1  0.25000000  0.86182899  0.27634203  1
  Mg  Mg2  1  0.75000000  0.41476199  0.17047601  1
  Mg  Mg3  1  0.25000000  0.58523799  0.82952404  1
