# generated using pymatgen
data_Ca2MnFeO6
_symmetry_space_group_name_H-M   'P 1'
_cell_length_a   5.54127693
_cell_length_b   5.54127693
_cell_length_c   7.88572502
_cell_angle_alpha   90.00000000
_cell_angle_beta   90.00000000
_cell_angle_gamma   90.00000000
_symmetry_Int_Tables_number   1
_chemical_formula_structural   Ca2MnFeO6
_chemical_formula_sum   'Ca4 Mn2 Fe2 O12'
_cell_volume   242.13710135
_cell_formula_units_Z   2
loop_
 _symmetry_equiv_pos_site_id
 _symmetry_equiv_pos_as_xyz
  1  'x, y, z'
loop_
 _atom_site_type_symbol
 _atom_site_label
 _atom_site_symmetry_multiplicity
 _atom_site_fract_x
 _atom_site_fract_y
 _atom_site_fract_z
 _atom_site_occupancy
  Ca  Ca0  1  0.50000001  0.50000001  0.00000000  1
  Ca  Ca1  1  0.00000000  0.00000000  0.50000000  1
  Ca  Ca2  1  0.50000001  0.50000001  0.50000000  1
  Ca  Ca3  1  0.00000000  0.00000000  0.00000000  1
  Mn  Mn4  1  0.00000000  0.50000001  0.24799100  1
  Mn  Mn5  1  0.50000001  0.00000000  0.75200900  1
  Fe  Fe6  1  0.50000001  0.00000000  0.24799100  1
  Fe  Fe7  1  0.00000000  0.50000001  0.75200900  1
  O  O8  1  0.21691500  0.21691500  0.75354700  1
  O  O9  1  0.72808001  0.72808001  0.24850900  1
  O  O10  1  0.27192000  0.27192000  0.24850900  1
  O  O11  1  0.78308501  0.78308501  0.75354700  1
  O  O12  1  0.78308501  0.21691500  0.24645300  1
  O  O13  1  0.27192000  0.72808001  0.75149100  1
  O  O14  1  0.21691500  0.78308501  0.24645300  1
  O  O15  1  0.72808001  0.27192000  0.75149100  1
  O  O16  1  0.00000000  0.50000001  0.00000000  1
  O  O17  1  0.50000001  0.00000000  0.50000000  1
  O  O18  1  0.50000001  0.00000000  0.00000000  1
  O  O19  1  0.00000000  0.50000001  0.50000000  1
