# generated using pymatgen
data_Pr3MgGa16
_symmetry_space_group_name_H-M   'P 1'
_cell_length_a   6.08963966
_cell_length_b   6.08963966
_cell_length_c   12.40193653
_cell_angle_alpha   75.78793335
_cell_angle_beta   75.78793335
_cell_angle_gamma   60.00000381
_symmetry_Int_Tables_number   1
_chemical_formula_structural   Pr3MgGa16
_chemical_formula_sum   'Pr3 Mg1 Ga16'
_cell_volume   381.95342190
_cell_formula_units_Z   1
loop_
 _symmetry_equiv_pos_site_id
 _symmetry_equiv_pos_as_xyz
  1  'x, y, z'
loop_
 _atom_site_type_symbol
 _atom_site_label
 _atom_site_symmetry_multiplicity
 _atom_site_fract_x
 _atom_site_fract_y
 _atom_site_fract_z
 _atom_site_occupancy
  Pr  Pr0  1  0.13066599  0.13066600  0.60800200  1
  Pr  Pr1  1  0.86933396  0.86933399  0.39199798  1
  Pr  Pr2  1  0.40001598  0.40001600  0.79995199  1
  Mg  Mg3  1  0.59998397  0.59998399  0.20004799  1
  Ga  Ga4  1  0.00000000  0.00000000  0.00000000  1
  Ga  Ga5  1  0.88078397  0.43671800  0.80171399  1
  Ga  Ga6  1  0.88078396  0.88078399  0.80171398  1
  Ga  Ga7  1  0.43671797  0.88078399  0.80171399  1
  Ga  Ga8  1  0.56328198  0.11921600  0.19828599  1
  Ga  Ga9  1  0.11921599  0.11921600  0.19828600  1
  Ga  Ga10  1  0.11921598  0.56328199  0.19828599  1
  Ga  Ga11  1  0.63503498  0.13235600  0.59757399  1
  Ga  Ga12  1  0.63503497  0.63503499  0.59757399  1
  Ga  Ga13  1  0.13235598  0.63503499  0.59757399  1
  Ga  Ga14  1  0.86764397  0.36496500  0.40242599  1
  Ga  Ga15  1  0.36496498  0.36496500  0.40242599  1
  Ga  Ga16  1  0.36496497  0.86764399  0.40242599  1
  Ga  Ga17  1  0.49999998  0.50000000  -0.00000001  1
  Ga  Ga18  1  -0.00000001  0.50000000  -0.00000000  1
  Ga  Ga19  1  0.49999999  0.00000000  -0.00000000  1
