# generated using pymatgen
data_Pr2Fe3Co14
_symmetry_space_group_name_H-M   'P 1'
_cell_length_a   6.30282354
_cell_length_b   6.30282354
_cell_length_c   6.30282354
_cell_angle_alpha   83.08561707
_cell_angle_beta   83.08561707
_cell_angle_gamma   83.08561707
_symmetry_Int_Tables_number   1
_chemical_formula_structural   Pr2Fe3Co14
_chemical_formula_sum   'Pr2 Fe3 Co14'
_cell_volume   245.32599240
_cell_formula_units_Z   1
loop_
 _symmetry_equiv_pos_site_id
 _symmetry_equiv_pos_as_xyz
  1  'x, y, z'
loop_
 _atom_site_type_symbol
 _atom_site_label
 _atom_site_symmetry_multiplicity
 _atom_site_fract_x
 _atom_site_fract_y
 _atom_site_fract_z
 _atom_site_occupancy
  Pr  Pr0  1  0.34491899  0.34491900  0.34491902  1
  Pr  Pr1  1  0.65508099  0.65508099  0.65508104  1
  Fe  Fe2  1  0.00000000  0.00000000  0.49999999  1
  Fe  Fe3  1  0.49999999  0.00000000  0.00000002  1
  Fe  Fe4  1  -0.00000001  0.50000000  1.00000000  1
  Co  Co5  1  0.28499799  0.71500199  0.00000005  1
  Co  Co6  1  -0.00000000  0.28499800  0.71500199  1
  Co  Co7  1  0.71500198  0.99999999  0.28499807  1
  Co  Co8  1  -0.00000001  0.71500199  0.28499803  1
  Co  Co9  1  0.28499800  0.00000000  0.71500199  1
  Co  Co10  1  0.71500199  0.28499800  0.00000005  1
  Co  Co11  1  0.65447799  0.65447799  0.14652806  1
  Co  Co12  1  0.14652799  0.65447799  0.65447802  1
  Co  Co13  1  0.65447799  0.14652800  0.65447802  1
  Co  Co14  1  0.34552199  0.34552200  0.85347201  1
  Co  Co15  1  0.85347199  0.34552200  0.34552205  1
  Co  Co16  1  0.34552199  0.85347199  0.34552205  1
  Co  Co17  1  0.09741000  0.09741000  0.09741001  1
  Co  Co18  1  0.90258998  0.90258999  0.90259006  1
