# generated using pymatgen
data_K6Sb11
_symmetry_space_group_name_H-M   'P 1'
_cell_length_a   7.41962290
_cell_length_b   9.26469135
_cell_length_c   9.29469204
_cell_angle_alpha   108.32308197
_cell_angle_beta   97.16192627
_cell_angle_gamma   105.42796326
_symmetry_Int_Tables_number   1
_chemical_formula_structural   K6Sb11
_chemical_formula_sum   'K6 Sb11'
_cell_volume   569.32252613
_cell_formula_units_Z   1
loop_
 _symmetry_equiv_pos_site_id
 _symmetry_equiv_pos_as_xyz
  1  'x, y, z'
loop_
 _atom_site_type_symbol
 _atom_site_label
 _atom_site_symmetry_multiplicity
 _atom_site_fract_x
 _atom_site_fract_y
 _atom_site_fract_z
 _atom_site_occupancy
  K  K0  1  0.63427309  0.86064607  0.81888004  1
  K  K1  1  0.36572702  0.13935401  0.18112000  1
  K  K2  1  0.97411104  0.29996202  0.09519301  1
  K  K3  1  0.02588907  0.70003806  0.90480704  1
  K  K4  1  0.12430601  0.04501700  0.75380298  1
  K  K5  1  0.87569410  0.95498308  0.24619706  1
  Sb  Sb6  1  0.00000000  0.00000000  0.00000000  1
  Sb  Sb7  1  0.64073706  0.54179504  0.72608202  1
  Sb  Sb8  1  0.35926305  0.45820504  0.27391803  1
  Sb  Sb9  1  0.54841902  0.17506601  0.91535598  1
  Sb  Sb10  1  0.45158108  0.82493407  0.08464406  1
  Sb  Sb11  1  0.20773107  0.73993406  0.65008405  1
  Sb  Sb12  1  0.79226903  0.26006602  0.34991600  1
  Sb  Sb13  1  0.08595804  0.37007703  0.82896001  1
  Sb  Sb14  1  0.91404207  0.62992305  0.17104003  1
  Sb  Sb15  1  0.74819109  0.91633707  0.54189205  1
  Sb  Sb16  1  0.25180901  0.08366301  0.45810799  1
