# generated using pymatgen
data_Li2CuO3
_symmetry_space_group_name_H-M   'P 1'
_cell_length_a   4.99943352
_cell_length_b   5.02372503
_cell_length_c   5.02372503
_cell_angle_alpha   61.72640610
_cell_angle_beta   79.25869751
_cell_angle_gamma   100.74130249
_symmetry_Int_Tables_number   1
_chemical_formula_structural   Li2CuO3
_chemical_formula_sum   'Li4 Cu2 O6'
_cell_volume   103.52841818
_cell_formula_units_Z   2
loop_
 _symmetry_equiv_pos_site_id
 _symmetry_equiv_pos_as_xyz
  1  'x, y, z'
loop_
 _atom_site_type_symbol
 _atom_site_label
 _atom_site_symmetry_multiplicity
 _atom_site_fract_x
 _atom_site_fract_y
 _atom_site_fract_z
 _atom_site_occupancy
  Li  Li0  1  0.49120399  0.73692997  0.75352899  1
  Li  Li1  1  0.49569300  0.40343098  0.43197700  1
  Li  Li2  1  0.99569300  0.56802298  0.59656900  1
  Li  Li3  1  0.99120401  0.24647099  0.26307001  1
  Cu  Cu4  1  0.50361800  0.09015900  0.09184801  1
  Cu  Cu5  1  0.00361797  0.90815197  0.90984098  1
  O  O6  1  0.75209901  0.13792099  0.71050899  1
  O  O7  1  0.25209900  0.28949099  0.86207898  1
  O  O8  1  0.73097600  0.48049598  0.01179602  1
  O  O9  1  0.72420999  0.84455597  0.29623301  1
  O  O10  1  0.23097598  0.98820396  0.51950399  1
  O  O11  1  0.22420998  0.70376697  0.15544400  1
