# generated using pymatgen
data_Li2O
_symmetry_space_group_name_H-M   'P 1'
_cell_length_a   3.38000607
_cell_length_b   6.19924784
_cell_length_c   6.19924784
_cell_angle_alpha   120.00000000
_cell_angle_beta   90.00000000
_cell_angle_gamma   90.00000000
_symmetry_Int_Tables_number   1
_chemical_formula_structural   Li2O
_chemical_formula_sum   'Li6 O3'
_cell_volume   112.49315853
_cell_formula_units_Z   3
loop_
 _symmetry_equiv_pos_site_id
 _symmetry_equiv_pos_as_xyz
  1  'x, y, z'
loop_
 _atom_site_type_symbol
 _atom_site_label
 _atom_site_symmetry_multiplicity
 _atom_site_fract_x
 _atom_site_fract_y
 _atom_site_fract_z
 _atom_site_occupancy
  Li  Li0  1  0.99999998  0.41074301  0.41074299  1
  Li  Li1  1  0.00000000  0.00000000  0.58925699  1
  Li  Li2  1  -0.00000000  0.58925701  -0.00000001  1
  Li  Li3  1  0.49999999  0.75281601  0.75281598  1
  Li  Li4  1  0.49999999  0.00000000  0.24718400  1
  Li  Li5  1  0.49999999  0.24718400  -0.00000001  1
  O  O6  1  0.49999999  0.66666668  0.33333331  1
  O  O7  1  0.49999999  0.33333334  0.66666665  1
  O  O8  1  0.00000000  0.00000000  0.00000000  1
