# generated using pymatgen
data_LiCeNbCu2C5
_symmetry_space_group_name_H-M   'P 1'
_cell_length_a   3.98555994
_cell_length_b   3.98732758
_cell_length_c   10.90999699
_cell_angle_alpha   100.05993652
_cell_angle_beta   90.00000000
_cell_angle_gamma   119.98533630
_symmetry_Int_Tables_number   1
_chemical_formula_structural   LiCeNbCu2C5
_chemical_formula_sum   'Li1 Ce1 Nb1 Cu2 C5'
_cell_volume   147.08703421
_cell_formula_units_Z   1
loop_
 _symmetry_equiv_pos_site_id
 _symmetry_equiv_pos_as_xyz
  1  'x, y, z'
loop_
 _atom_site_type_symbol
 _atom_site_label
 _atom_site_symmetry_multiplicity
 _atom_site_fract_x
 _atom_site_fract_y
 _atom_site_fract_z
 _atom_site_occupancy
  Li  Li0  1  0.00000000  0.00000000  0.00000000  1
  Ce  Ce1  1  0.41353098  0.82706197  0.29260399  1
  Cu  Cu2  1  0.58646900  0.17293799  0.70739600  1
  Nb  Nb3  1  0.76170900  0.52341798  0.33435199  1
  Cu  Cu4  1  0.93393599  0.86787197  0.75593999  1
  C  C5  1  0.50000001  0.00000000  0.50000000  1
  C  C6  1  0.23829099  0.47658198  0.66564799  1
  C  C7  1  0.35771498  0.71542997  0.09244099  1
  C  C8  1  0.64228500  0.28456999  0.90755900  1
  C  C9  1  0.06606400  0.13212799  0.24406000  1
