# generated using pymatgen
data_Ba2Li5CuS6
_symmetry_space_group_name_H-M   'P 1'
_cell_length_a   4.23072100
_cell_length_b   7.34936380
_cell_length_c   11.26924515
_cell_angle_alpha   94.81523132
_cell_angle_beta   90.00000000
_cell_angle_gamma   106.72803497
_symmetry_Int_Tables_number   1
_chemical_formula_structural   Ba2Li5CuS6
_chemical_formula_sum   'Ba2 Li5 Cu1 S6'
_cell_volume   334.27617451
_cell_formula_units_Z   1
loop_
 _symmetry_equiv_pos_site_id
 _symmetry_equiv_pos_as_xyz
  1  'x, y, z'
loop_
 _atom_site_type_symbol
 _atom_site_label
 _atom_site_symmetry_multiplicity
 _atom_site_fract_x
 _atom_site_fract_y
 _atom_site_fract_z
 _atom_site_occupancy
  Ba  Ba0  1  0.25140203  0.50280402  0.70360103  1
  Ba  Ba1  1  0.74859803  0.49719602  0.29639902  1
  Li  Li2  1  0.50000000  0.00000000  0.50000002  1
  Li  Li3  1  0.01872200  0.03744400  0.25635301  1
  Li  Li4  1  0.98127805  0.96255603  0.74364704  1
  Li  Li5  1  0.35155304  0.70310702  0.03762601  1
  Li  Li6  1  0.64844702  0.29689301  0.96237404  1
  Cu  Cu7  1  0.00000000  0.00000000  0.00000000  1
  S  S8  1  0.12529301  0.25058501  0.45441202  1
  S  S9  1  0.87470704  0.74941503  0.54558803  1
  S  S10  1  0.15810302  0.31620601  0.10217401  1
  S  S11  1  0.84189704  0.68379402  0.89782604  1
  S  S12  1  0.41342204  0.82684403  0.26524502  1
  S  S13  1  0.58657801  0.17315601  0.73475503  1
