# generated using pymatgen
data_Ba3Tl
_symmetry_space_group_name_H-M   'P 1'
_cell_length_a   6.55704880
_cell_length_b   8.33619785
_cell_length_c   8.33619881
_cell_angle_alpha   60.00000381
_cell_angle_beta   90.00000000
_cell_angle_gamma   90.00000000
_symmetry_Int_Tables_number   1
_chemical_formula_structural   Ba3Tl
_chemical_formula_sum   'Ba6 Tl2'
_cell_volume   394.61640992
_cell_formula_units_Z   2
loop_
 _symmetry_equiv_pos_site_id
 _symmetry_equiv_pos_as_xyz
  1  'x, y, z'
loop_
 _atom_site_type_symbol
 _atom_site_label
 _atom_site_symmetry_multiplicity
 _atom_site_fract_x
 _atom_site_fract_y
 _atom_site_fract_z
 _atom_site_occupancy
  Ba  Ba0  1  0.25000001  0.33333334  0.33333334  1
  Ba  Ba1  1  0.75000002  0.66666667  0.66666667  1
  Ba  Ba2  1  0.75000002  0.69321500  0.15339301  1
  Ba  Ba3  1  0.75000002  0.15339200  0.15339300  1
  Ba  Ba4  1  0.75000002  0.15339200  0.69321599  1
  Ba  Ba5  1  0.25000001  0.30678500  0.84660699  1
  Tl  Tl6  1  0.25000001  0.84660800  0.84660701  1
  Tl  Tl7  1  0.25000001  0.84660800  0.30678402  1
