# generated using pymatgen
data_La4YInS8
_symmetry_space_group_name_H-M   'P 1'
_cell_length_a   7.38780880
_cell_length_b   7.38780880
_cell_length_c   7.38780880
_cell_angle_alpha   109.01980591
_cell_angle_beta   109.69740295
_cell_angle_gamma   109.69740295
_symmetry_Int_Tables_number   1
_chemical_formula_structural   La4YInS8
_chemical_formula_sum   'La4 Y1 In1 S8'
_cell_volume   310.38791387
_cell_formula_units_Z   1
loop_
 _symmetry_equiv_pos_site_id
 _symmetry_equiv_pos_as_xyz
  1  'x, y, z'
loop_
 _atom_site_type_symbol
 _atom_site_label
 _atom_site_symmetry_multiplicity
 _atom_site_fract_x
 _atom_site_fract_y
 _atom_site_fract_z
 _atom_site_occupancy
  La  La0  1  0.87592708  0.37500004  0.75092710  1
  La  La1  1  0.37592708  0.50092705  0.62500009  1
  La  La2  1  0.12407313  0.87500009  0.49907313  1
  La  La3  1  0.62407305  0.24907302  0.12500007  1
  Y  Y4  1  0.50000012  0.75000008  0.25000013  1
  In  In5  1  0.00000000  0.00000000  0.00000000  1
  S  S6  1  0.24952605  0.27726303  0.87818006  1
  S  S7  1  0.25047412  0.77773708  0.87865412  1
  S  S8  1  0.74952611  0.62818006  0.52726313  1
  S  S9  1  0.39908203  0.12181901  0.37134504  1
  S  S10  1  0.75047411  0.62865406  0.02773712  1
  S  S11  1  0.10091807  0.47273805  0.22226407  1
  S  S12  1  0.60091816  0.97226410  0.72273817  1
  S  S13  1  0.89908204  0.12134501  0.37181907  1
