# generated using pymatgen
data_Li2YS4
_symmetry_space_group_name_H-M   'P 1'
_cell_length_a   5.88064194
_cell_length_b   5.88064194
_cell_length_c   6.86469507
_cell_angle_alpha   115.36131287
_cell_angle_beta   115.36131287
_cell_angle_gamma   90.00000000
_symmetry_Int_Tables_number   1
_chemical_formula_structural   Li2YS4
_chemical_formula_sum   'Li2 Y1 S4'
_cell_volume   188.88539902
_cell_formula_units_Z   1
loop_
 _symmetry_equiv_pos_site_id
 _symmetry_equiv_pos_as_xyz
  1  'x, y, z'
loop_
 _atom_site_type_symbol
 _atom_site_label
 _atom_site_symmetry_multiplicity
 _atom_site_fract_x
 _atom_site_fract_y
 _atom_site_fract_z
 _atom_site_occupancy
  Li  Li0  1  0.25000001  0.75000001  0.50000001  1
  Li  Li1  1  0.50000001  0.50000001  0.00000001  1
  Y  Y2  1  0.00000000  0.00000000  0.00000000  1
  S  S3  1  0.86551103  0.86811802  0.27625702  1
  S  S4  1  0.41074601  0.40813901  0.27625701  1
  S  S5  1  0.59186101  0.13448900  0.72374300  1
  S  S6  1  0.13188201  0.58925401  0.72374300  1
