# generated using pymatgen
data_LiF
_symmetry_space_group_name_H-M   'P 1'
_cell_length_a   3.39089894
_cell_length_b   5.32724905
_cell_length_c   11.25435352
_cell_angle_alpha   90.00000000
_cell_angle_beta   90.00000000
_cell_angle_gamma   90.00000000
_symmetry_Int_Tables_number   1
_chemical_formula_structural   LiF
_chemical_formula_sum   'Li8 F8'
_cell_volume   203.30047845
_cell_formula_units_Z   8
loop_
 _symmetry_equiv_pos_site_id
 _symmetry_equiv_pos_as_xyz
  1  'x, y, z'
loop_
 _atom_site_type_symbol
 _atom_site_label
 _atom_site_symmetry_multiplicity
 _atom_site_fract_x
 _atom_site_fract_y
 _atom_site_fract_z
 _atom_site_occupancy
  Li  Li0  1  0.25000000  0.09832500  0.06666000  1
  Li  Li1  1  0.25000000  0.40167500  0.56666002  1
  Li  Li2  1  0.75000001  0.59832499  0.43334002  1
  Li  Li3  1  0.75000001  0.90167499  0.93334004  1
  Li  Li4  1  0.25000000  0.04715400  0.35947602  1
  Li  Li5  1  0.25000000  0.45284600  0.85947604  1
  Li  Li6  1  0.75000001  0.54715399  0.14052401  1
  Li  Li7  1  0.75000001  0.95284599  0.64052403  1
  F  F8  1  0.25000000  0.18935200  0.70622003  1
  F  F9  1  0.75000001  0.24140000  0.47405102  1
  F  F10  1  0.75000001  0.25860000  0.97405104  1
  F  F11  1  0.25000000  0.31064800  0.20622001  1
  F  F12  1  0.75000001  0.68935199  0.79378003  1
  F  F13  1  0.25000000  0.74139999  0.02594900  1
  F  F14  1  0.25000000  0.75859999  0.52594902  1
  F  F15  1  0.75000001  0.81064799  0.29378001  1
