# generated using pymatgen
data_Sc4Cu3S7
_symmetry_space_group_name_H-M   'P 1'
_cell_length_a   7.47838688
_cell_length_b   7.48859549
_cell_length_c   7.49294281
_cell_angle_alpha   60.22720337
_cell_angle_beta   60.37847900
_cell_angle_gamma   60.43524551
_symmetry_Int_Tables_number   1
_chemical_formula_structural   Sc4Cu3S7
_chemical_formula_sum   'Sc4 Cu3 S7'
_cell_volume   299.04623859
_cell_formula_units_Z   1
loop_
 _symmetry_equiv_pos_site_id
 _symmetry_equiv_pos_as_xyz
  1  'x, y, z'
loop_
 _atom_site_type_symbol
 _atom_site_label
 _atom_site_symmetry_multiplicity
 _atom_site_fract_x
 _atom_site_fract_y
 _atom_site_fract_z
 _atom_site_occupancy
  Sc  Sc0  1  0.62490401  0.12466300  0.12487301  1
  Sc  Sc1  1  0.37509000  0.87536599  0.87511100  1
  Sc  Sc2  1  0.50000701  0.49999700  0.49994400  1
  Sc  Sc3  1  0.00007799  0.99996699  0.49994901  1
  Cu  Cu4  1  0.99995902  0.50004400  0.00000302  1
  Cu  Cu5  1  0.00001400  0.49985500  0.50011700  1
  S  S6  1  0.22341900  0.26362700  0.26348200  1
  Cu  Cu7  1  0.23529500  0.27732700  0.73566399  1
  S  S8  1  0.24251700  0.74220599  0.74190900  1
  S  S9  1  0.23485400  0.73512799  0.27772101  1
  S  S10  1  0.75745101  0.25782300  0.25809901  1
  S  S11  1  0.76512601  0.26490900  0.72227400  1
  S  S12  1  0.77657701  0.73640499  0.73650800  1
  S  S13  1  0.76471101  0.72268099  0.26434002  1
