# generated using pymatgen
data_LuAlSi
_symmetry_space_group_name_H-M   'P 1'
_cell_length_a   4.15381718
_cell_length_b   6.89380407
_cell_length_c   6.89380360
_cell_angle_alpha   120.00000000
_cell_angle_beta   90.00000000
_cell_angle_gamma   90.00000000
_symmetry_Int_Tables_number   1
_chemical_formula_structural   LuAlSi
_chemical_formula_sum   'Lu3 Al3 Si3'
_cell_volume   170.96052867
_cell_formula_units_Z   3
loop_
 _symmetry_equiv_pos_site_id
 _symmetry_equiv_pos_as_xyz
  1  'x, y, z'
loop_
 _atom_site_type_symbol
 _atom_site_label
 _atom_site_symmetry_multiplicity
 _atom_site_fract_x
 _atom_site_fract_y
 _atom_site_fract_z
 _atom_site_occupancy
  Lu  Lu0  1  0.49999998  0.40420599  -0.00000001  1
  Lu  Lu1  1  0.49999998  0.59579398  0.59579399  1
  Lu  Lu2  1  0.49999998  0.00000000  0.40420600  1
  Al  Al3  1  0.99999996  0.00000000  0.77139501  1
  Al  Al4  1  -0.00000000  0.77139498  0.99999998  1
  Al  Al5  1  -0.00000000  0.22860499  0.22860499  1
  Si  Si6  1  0.49999998  0.00000000  -0.00000000  1
  Si  Si7  1  -0.00000000  0.66666665  0.33333331  1
  Si  Si8  1  -0.00000000  0.33333332  0.66666666  1
