# generated using pymatgen
data_Sr2MgCu2
_symmetry_space_group_name_H-M   'P 1'
_cell_length_a   6.05844545
_cell_length_b   6.05844545
_cell_length_c   8.35545540
_cell_angle_alpha   78.52788544
_cell_angle_beta   78.52788544
_cell_angle_gamma   60.00035858
_symmetry_Int_Tables_number   1
_chemical_formula_structural   Sr2MgCu2
_chemical_formula_sum   'Sr4 Mg2 Cu4'
_cell_volume   258.49877164
_cell_formula_units_Z   2
loop_
 _symmetry_equiv_pos_site_id
 _symmetry_equiv_pos_as_xyz
  1  'x, y, z'
loop_
 _atom_site_type_symbol
 _atom_site_label
 _atom_site_symmetry_multiplicity
 _atom_site_fract_x
 _atom_site_fract_y
 _atom_site_fract_z
 _atom_site_occupancy
  Sr  Sr0  1  0.21011101  0.49405898  0.64708898  1
  Sr  Sr1  1  0.50594100  0.78988897  0.85291096  1
  Sr  Sr2  1  0.78988899  0.50594098  0.35291096  1
  Sr  Sr3  1  0.49405899  0.21011099  0.14708898  1
  Mg  Mg4  1  0.86728898  0.13271099  0.74999997  1
  Mg  Mg5  1  0.13271102  0.86728896  0.24999996  1
  Cu  Cu6  1  0.00068402  0.72216297  0.00247097  1
  Cu  Cu7  1  0.27783702  0.99931596  0.49752896  1
  Cu  Cu8  1  0.99931598  0.27783699  0.99752896  1
  Cu  Cu9  1  0.72216298  0.00068400  0.50247098  1
