# generated using pymatgen
data_Mg4Co9
_symmetry_space_group_name_H-M   'P 1'
_cell_length_a   4.98791122
_cell_length_b   6.50755882
_cell_length_c   6.50755882
_cell_angle_alpha   80.42937469
_cell_angle_beta   67.46549988
_cell_angle_gamma   67.46549988
_symmetry_Int_Tables_number   1
_chemical_formula_structural   Mg4Co9
_chemical_formula_sum   'Mg4 Co9'
_cell_volume   180.15925671
_cell_formula_units_Z   1
loop_
 _symmetry_equiv_pos_site_id
 _symmetry_equiv_pos_as_xyz
  1  'x, y, z'
loop_
 _atom_site_type_symbol
 _atom_site_label
 _atom_site_symmetry_multiplicity
 _atom_site_fract_x
 _atom_site_fract_y
 _atom_site_fract_z
 _atom_site_occupancy
  Mg  Mg0  1  0.00000000  0.00000000  0.00000000  1
  Mg  Mg1  1  0.00000007  0.66876299  0.33123695  1
  Mg  Mg2  1  0.00000004  0.33123699  0.66876298  1
  Mg  Mg3  1  0.34057005  0.65942999  0.65942997  1
  Co  Co4  1  0.65942999  0.34056999  0.34057000  1
  Co  Co5  1  0.32685300  0.17314700  0.17314700  1
  Co  Co6  1  0.67314704  0.82685299  0.82685297  1
  Co  Co7  1  0.49999999  0.24412000  0.75588000  1
  Co  Co8  1  0.50000005  0.75587999  0.24411997  1
  Co  Co9  1  0.00000005  0.49999999  -0.00000004  1
  Co  Co10  1  0.50000002  0.49999999  -0.00000002  1
  Co  Co11  1  0.00000000  0.00000000  0.50000000  1
  Co  Co12  1  0.49999997  0.00000000  0.50000002  1
