# generated using pymatgen
data_CaLa3YInS8
_symmetry_space_group_name_H-M   'P 1'
_cell_length_a   7.47079515
_cell_length_b   7.47079515
_cell_length_c   7.47079515
_cell_angle_alpha   109.86915588
_cell_angle_beta   109.27262115
_cell_angle_gamma   109.27262115
_symmetry_Int_Tables_number   1
_chemical_formula_structural   CaLa3YInS8
_chemical_formula_sum   'Ca1 La3 Y1 In1 S8'
_cell_volume   320.96883023
_cell_formula_units_Z   1
loop_
 _symmetry_equiv_pos_site_id
 _symmetry_equiv_pos_as_xyz
  1  'x, y, z'
loop_
 _atom_site_type_symbol
 _atom_site_label
 _atom_site_symmetry_multiplicity
 _atom_site_fract_x
 _atom_site_fract_y
 _atom_site_fract_z
 _atom_site_occupancy
  La  La0  1  0.00000000  0.00000000  0.00000000  1
  Ca  Ca1  1  0.38056203  0.49949802  0.62247702  1
  La  La2  1  0.50000004  0.75000003  0.25000002  1
  La  La3  1  0.61943803  0.24191501  0.11893602  1
  Y  Y4  1  0.87702104  0.37752301  0.75808504  1
  In  In5  1  0.12297904  0.88106403  0.50050202  1
  S  S6  1  0.74173204  0.61293502  0.50582603  1
  S  S7  1  0.74138504  0.61170702  0.02574602  1
  S  S8  1  0.58596105  0.97425403  0.71563904  1
  S  S9  1  0.25861502  0.28436101  0.87032202  1
  S  S10  1  0.89289003  0.12879600  0.38706403  1
  S  S11  1  0.25826804  0.76409403  0.87120403  1
  S  S12  1  0.10711002  0.49417402  0.23590701  1
  S  S13  1  0.41403902  0.12967800  0.38829302  1
