# generated using pymatgen
data_Pr5Sn3
_symmetry_space_group_name_H-M   'P 1'
_cell_length_a   6.29424620
_cell_length_b   9.02176094
_cell_length_c   9.02176189
_cell_angle_alpha   119.97631836
_cell_angle_beta   90.00000000
_cell_angle_gamma   90.00000000
_symmetry_Int_Tables_number   1
_chemical_formula_structural   Pr5Sn3
_chemical_formula_sum   'Pr10 Sn6'
_cell_volume   443.77273976
_cell_formula_units_Z   2
loop_
 _symmetry_equiv_pos_site_id
 _symmetry_equiv_pos_as_xyz
  1  'x, y, z'
loop_
 _atom_site_type_symbol
 _atom_site_label
 _atom_site_symmetry_multiplicity
 _atom_site_fract_x
 _atom_site_fract_y
 _atom_site_fract_z
 _atom_site_occupancy
  Pr  Pr0  1  0.49999998  0.66666667  0.33333330  1
  Pr  Pr1  1  0.49999998  0.33333334  0.66666664  1
  Pr  Pr2  1  -0.00000000  0.33333334  0.66666664  1
  Pr  Pr3  1  -0.00000000  0.66666667  0.33333330  1
  Pr  Pr4  1  0.25000099  0.75262501  0.75262496  1
  Pr  Pr5  1  0.24999899  0.24730500  0.99997398  1
  Pr  Pr6  1  0.24999899  0.99997401  0.24730496  1
  Pr  Pr7  1  0.75000098  0.24737500  0.24737499  1
  Pr  Pr8  1  0.74999898  0.75269501  0.00002597  1
  Pr  Pr9  1  0.74999898  0.00002600  0.75269499  1
  Sn  Sn10  1  0.25000399  0.38778500  0.38778498  1
  Sn  Sn11  1  0.24999799  0.61223001  0.00000698  1
  Sn  Sn12  1  0.24999799  0.00000800  0.61223099  1
  Sn  Sn13  1  0.75000398  0.61221501  0.61221497  1
  Sn  Sn14  1  0.74999798  0.38777000  0.99999297  1
  Sn  Sn15  1  0.74999798  0.99999201  0.38776896  1
