# generated using pymatgen
data_Li2O2
_symmetry_space_group_name_H-M   'P 1'
_cell_length_a   5.84955263
_cell_length_b   5.90577793
_cell_length_c   6.00946999
_cell_angle_alpha   119.26430511
_cell_angle_beta   119.12319183
_cell_angle_gamma   90.00003052
_symmetry_Int_Tables_number   1
_chemical_formula_structural   Li2O2
_chemical_formula_sum   'Li8 O8'
_cell_volume   150.30449916
_cell_formula_units_Z   4
loop_
 _symmetry_equiv_pos_site_id
 _symmetry_equiv_pos_as_xyz
  1  'x, y, z'
loop_
 _atom_site_type_symbol
 _atom_site_label
 _atom_site_symmetry_multiplicity
 _atom_site_fract_x
 _atom_site_fract_y
 _atom_site_fract_z
 _atom_site_occupancy
  Li  Li0  1  0.50000001  0.00000100  0.00000000  1
  Li  Li1  1  -0.00000000  0.00000100  -0.00000000  1
  Li  Li2  1  -0.00000005  0.50000098  0.49999992  1
  Li  Li3  1  0.49999996  0.50000098  0.49999993  1
  Li  Li4  1  0.50000101  0.00000100  0.50000099  1
  Li  Li5  1  0.99999901  0.00000000  0.49999699  1
  Li  Li6  1  0.00000195  0.50000298  0.00000194  1
  Li  Li7  1  0.49999896  0.49998798  0.00000094  1
  O  O8  1  0.26300998  0.23922999  0.52642496  1
  O  O9  1  0.76341199  0.23923099  0.52642496  1
  O  O10  1  0.73699093  0.76077097  0.47357489  1
  O  O11  1  0.23658793  0.76077097  0.47357489  1
  O  O12  1  0.74451594  0.73074297  0.98903489  1
  O  O13  1  0.24426893  0.73048597  0.98853888  1
  O  O14  1  0.25548398  0.26925799  0.01096497  1
  O  O15  1  0.75573198  0.26951499  0.01146097  1
