# generated using pymatgen
data_CeGe
_symmetry_space_group_name_H-M   'P 1'
_cell_length_a   3.60349488
_cell_length_b   3.60349488
_cell_length_c   18.08652306
_cell_angle_alpha   90.00000000
_cell_angle_beta   90.00000000
_cell_angle_gamma   90.00000000
_symmetry_Int_Tables_number   1
_chemical_formula_structural   CeGe
_chemical_formula_sum   'Ce5 Ge5'
_cell_volume   234.85667369
_cell_formula_units_Z   5
loop_
 _symmetry_equiv_pos_site_id
 _symmetry_equiv_pos_as_xyz
  1  'x, y, z'
loop_
 _atom_site_type_symbol
 _atom_site_label
 _atom_site_symmetry_multiplicity
 _atom_site_fract_x
 _atom_site_fract_y
 _atom_site_fract_z
 _atom_site_occupancy
  Ce  Ce0  1  0.00000000  0.00000000  0.00000000  1
  Ce  Ce1  1  0.00000000  0.00000000  0.19996100  1
  Ce  Ce2  1  0.00000000  0.00000000  0.40034800  1
  Ce  Ce3  1  0.00000000  0.00000000  0.59965200  1
  Ce  Ce4  1  0.00000000  0.00000000  0.80003900  1
  Ge  Ge5  1  0.50000002  0.50000002  0.10162300  1
  Ge  Ge6  1  0.50000002  0.50000002  0.30023600  1
  Ge  Ge7  1  0.50000002  0.50000002  0.50000000  1
  Ge  Ge8  1  0.50000002  0.50000002  0.69976400  1
  Ge  Ge9  1  0.50000002  0.50000002  0.89837700  1
