# generated using pymatgen
data_BaH4O3
_symmetry_space_group_name_H-M   'P 1'
_cell_length_a   3.69473910
_cell_length_b   6.20974874
_cell_length_c   6.84351110
_cell_angle_alpha   90.00000000
_cell_angle_beta   90.00000000
_cell_angle_gamma   89.82012177
_symmetry_Int_Tables_number   1
_chemical_formula_structural   BaH4O3
_chemical_formula_sum   'Ba2 H8 O6'
_cell_volume   157.01264923
_cell_formula_units_Z   2
loop_
 _symmetry_equiv_pos_site_id
 _symmetry_equiv_pos_as_xyz
  1  'x, y, z'
loop_
 _atom_site_type_symbol
 _atom_site_label
 _atom_site_symmetry_multiplicity
 _atom_site_fract_x
 _atom_site_fract_y
 _atom_site_fract_z
 _atom_site_occupancy
  Ba  Ba0  1  0.99253793  0.62202699  0.75424899  1
  Ba  Ba1  1  0.00746197  0.37797299  0.25424900  1
  H  H2  1  0.78574097  0.11865900  0.82058599  1
  H  H3  1  0.20517499  0.11287700  0.83256699  1
  H  H4  1  0.21425893  0.88134098  0.32058600  1
  H  H5  1  0.79482491  0.88712298  0.33256699  1
  H  H6  1  0.44885792  0.94669598  0.60351999  1
  H  H7  1  0.55114198  0.05330400  0.10352000  1
  H  H8  1  0.50218996  0.29077999  0.59259899  1
  H  H9  1  0.49780993  0.70921998  0.09259900  1
  O  O10  1  0.99258696  0.20678700  0.87459199  1
  O  O11  1  0.00741294  0.79321298  0.37459199  1
  O  O12  1  0.48677392  0.93094298  0.74355699  1
  O  O13  1  0.51322598  0.06905700  0.24355700  1
  O  O14  1  0.49871995  0.43624999  0.53793199  1
  O  O15  1  0.50127994  0.56374999  0.03793200  1
