# generated using pymatgen
data_La3Ag10
_symmetry_space_group_name_H-M   'P 1'
_cell_length_a   5.93610620
_cell_length_b   7.90676498
_cell_length_c   7.90676498
_cell_angle_alpha   81.89942169
_cell_angle_beta   67.95211029
_cell_angle_gamma   67.95211029
_symmetry_Int_Tables_number   1
_chemical_formula_structural   La3Ag10
_chemical_formula_sum   'La3 Ag10'
_cell_volume   318.81398940
_cell_formula_units_Z   1
loop_
 _symmetry_equiv_pos_site_id
 _symmetry_equiv_pos_as_xyz
  1  'x, y, z'
loop_
 _atom_site_type_symbol
 _atom_site_label
 _atom_site_symmetry_multiplicity
 _atom_site_fract_x
 _atom_site_fract_y
 _atom_site_fract_z
 _atom_site_occupancy
  La  La0  1  0.00000000  0.00000000  0.00000000  1
  La  La1  1  0.49999999  0.50000000  0.00000001  1
  La  La2  1  0.00000002  0.50000000  1.00000001  1
  Ag  Ag3  1  0.00000000  0.00000000  0.50000001  1
  Ag  Ag4  1  0.50000001  1.00000000  0.50000002  1
  Ag  Ag5  1  0.00000001  0.35262500  0.64737501  1
  Ag  Ag6  1  0.00000002  0.64737500  0.35262501  1
  Ag  Ag7  1  0.35262501  0.64737500  0.64737502  1
  Ag  Ag8  1  0.64737498  0.35262500  0.35262502  1
  Ag  Ag9  1  0.50000000  0.78194600  0.21805402  1
  Ag  Ag10  1  0.49999998  0.21805400  0.78194602  1
  Ag  Ag11  1  0.28194599  0.21805400  0.21805401  1
  Ag  Ag12  1  0.71805399  0.78194600  0.78194603  1
