# generated using pymatgen
data_NaCu4HO9
_symmetry_space_group_name_H-M   'P 1'
_cell_length_a   5.83758163
_cell_length_b   5.83758163
_cell_length_c   8.30297852
_cell_angle_alpha   98.90053558
_cell_angle_beta   104.62229156
_cell_angle_gamma   114.88988495
_symmetry_Int_Tables_number   1
_chemical_formula_structural   NaCu4HO9
_chemical_formula_sum   'Na1 Cu4 H1 O9'
_cell_volume   237.11941804
_cell_formula_units_Z   1
loop_
 _symmetry_equiv_pos_site_id
 _symmetry_equiv_pos_as_xyz
  1  'x, y, z'
loop_
 _atom_site_type_symbol
 _atom_site_label
 _atom_site_symmetry_multiplicity
 _atom_site_fract_x
 _atom_site_fract_y
 _atom_site_fract_z
 _atom_site_occupancy
  Na  Na0  1  0.00000004  0.50000001  0.50000003  1
  Cu  Cu1  1  0.50000000  0.00000000  0.00000001  1
  Cu  Cu2  1  0.00000004  0.50000001  0.00000002  1
  Cu  Cu3  1  0.79398407  0.93742003  0.73140406  1
  Cu  Cu4  1  0.20601600  0.06258000  0.26859601  1
  H  H5  1  0.99789706  0.82967602  0.82757306  1
  O  O6  1  0.00210301  0.17032401  0.17242701  1
  O  O7  1  0.68587907  0.83197902  0.51785805  1
  O  O8  1  0.31412101  0.16802100  0.48214202  1
  O  O9  1  0.96020302  0.27967101  0.78974404  1
  O  O10  1  0.51007307  0.82954102  0.78974405  1
  O  O11  1  0.03979706  0.72032902  0.21025603  1
  O  O12  1  0.48992701  0.17045901  0.21025602  1
  O  O13  1  0.64290802  0.31369601  0.95660404  1
  O  O14  1  0.35709205  0.68630402  0.04339603  1
