# generated using pymatgen
data_Sc2Cu3
_symmetry_space_group_name_H-M   'P 1'
_cell_length_a   6.99658537
_cell_length_b   6.99658537
_cell_length_c   7.38330841
_cell_angle_alpha   61.71804428
_cell_angle_beta   61.71804428
_cell_angle_gamma   60.00000763
_symmetry_Int_Tables_number   1
_chemical_formula_structural   Sc2Cu3
_chemical_formula_sum   'Sc4 Cu6'
_cell_volume   262.00586224
_cell_formula_units_Z   2
loop_
 _symmetry_equiv_pos_site_id
 _symmetry_equiv_pos_as_xyz
  1  'x, y, z'
loop_
 _atom_site_type_symbol
 _atom_site_label
 _atom_site_symmetry_multiplicity
 _atom_site_fract_x
 _atom_site_fract_y
 _atom_site_fract_z
 _atom_site_occupancy
  Sc  Sc0  1  0.00000000  0.00000000  0.00000000  1
  Sc  Sc1  1  0.20749599  0.20749599  0.37751202  1
  Sc  Sc2  1  0.49999998  0.49999999  0.50000003  1
  Sc  Sc3  1  0.79250397  0.79250398  0.62248805  1
  Cu  Cu4  1  0.38265998  0.77016098  0.74416804  1
  Cu  Cu5  1  0.77016098  0.10301100  0.74416804  1
  Cu  Cu6  1  0.10301099  0.38265999  0.74416803  1
  Cu  Cu7  1  0.89698897  0.61733998  0.25583204  1
  Cu  Cu8  1  0.22983899  0.89698898  0.25583203  1
  Cu  Cu9  1  0.61733998  0.22983899  0.25583202  1
