# generated using pymatgen
data_Pr4Ag5
_symmetry_space_group_name_H-M   'P 1'
_cell_length_a   4.08168983
_cell_length_b   8.25801945
_cell_length_c   8.26963997
_cell_angle_alpha   119.95352936
_cell_angle_beta   90.00000000
_cell_angle_gamma   90.00000000
_symmetry_Int_Tables_number   1
_chemical_formula_structural   Pr4Ag5
_chemical_formula_sum   'Pr4 Ag5'
_cell_volume   241.51066367
_cell_formula_units_Z   1
loop_
 _symmetry_equiv_pos_site_id
 _symmetry_equiv_pos_as_xyz
  1  'x, y, z'
loop_
 _atom_site_type_symbol
 _atom_site_label
 _atom_site_symmetry_multiplicity
 _atom_site_fract_x
 _atom_site_fract_y
 _atom_site_fract_z
 _atom_site_occupancy
  Pr  Pr0  1  0.50000002  0.60576903  0.00000000  1
  Pr  Pr1  1  0.50000002  0.39397502  0.39391098  1
  Pr  Pr2  1  0.50000002  0.00006300  0.60608897  1
  Pr  Pr3  1  0.00000000  0.23767801  0.00000000  1
  Ag  Ag4  1  0.00000000  0.76236104  0.76203896  1
  Ag  Ag5  1  -0.00000000  0.00032200  0.23796099  1
  Ag  Ag6  1  0.50000002  0.99980606  0.00000000  1
  Ag  Ag7  1  0.00000000  0.33333335  0.66666663  1
  Ag  Ag8  1  0.00000000  0.66666670  0.33333332  1
