# generated using pymatgen
data_Sc9Ge8
_symmetry_space_group_name_H-M   'P 1'
_cell_length_a   7.49715090
_cell_length_b   7.49715090
_cell_length_c   7.49715090
_cell_angle_alpha   109.47122192
_cell_angle_beta   109.47122192
_cell_angle_gamma   109.47122192
_symmetry_Int_Tables_number   1
_chemical_formula_structural   Sc9Ge8
_chemical_formula_sum   'Sc9 Ge8'
_cell_volume   324.38954230
_cell_formula_units_Z   1
loop_
 _symmetry_equiv_pos_site_id
 _symmetry_equiv_pos_as_xyz
  1  'x, y, z'
loop_
 _atom_site_type_symbol
 _atom_site_label
 _atom_site_symmetry_multiplicity
 _atom_site_fract_x
 _atom_site_fract_y
 _atom_site_fract_z
 _atom_site_occupancy
  Sc  Sc0  1  0.50000003  0.50000001  0.50000003  1
  Sc  Sc1  1  0.00000003  0.50000001  0.00000003  1
  Sc  Sc2  1  0.00000000  0.00000000  0.49999999  1
  Sc  Sc3  1  0.49999999  0.00000000  0.00000001  1
  Sc  Sc4  1  0.50000004  0.75000001  0.25000005  1
  Sc  Sc5  1  0.75000001  0.25000000  0.50000002  1
  Sc  Sc6  1  0.25000003  0.50000001  0.75000002  1
  Sc  Sc7  1  0.25000004  0.75000001  0.50000004  1
  Ge  Ge8  1  0.50000001  0.25000000  0.75000001  1
  Sc  Sc9  1  0.75000002  0.50000001  0.25000004  1
  Ge  Ge10  1  0.00000004  0.70291201  0.70291202  1
  Ge  Ge11  1  0.70291204  0.70291201  0.00000006  1
  Ge  Ge12  1  0.70291205  1.00000002  0.70291206  1
  Ge  Ge13  1  0.00000002  0.29708801  0.29708801  1
  Ge  Ge14  1  0.29708802  0.29708801  0.00000002  1
  Ge  Ge15  1  0.29708806  1.00000002  0.29708806  1
  Ge  Ge16  1  0.00000000  0.00000000  0.00000000  1
