# generated using pymatgen
data_Sr4MgFeCoBO9
_symmetry_space_group_name_H-M   'P 1'
_cell_length_a   6.91765547
_cell_length_b   6.91765547
_cell_length_c   6.91765547
_cell_angle_alpha   60.00000000
_cell_angle_beta   60.00000000
_cell_angle_gamma   60.00000000
_symmetry_Int_Tables_number   1
_chemical_formula_structural   Sr4MgFeCoBO9
_chemical_formula_sum   'Sr4 Mg1 Fe1 Co1 B1 O9'
_cell_volume   234.07864082
_cell_formula_units_Z   1
loop_
 _symmetry_equiv_pos_site_id
 _symmetry_equiv_pos_as_xyz
  1  'x, y, z'
loop_
 _atom_site_type_symbol
 _atom_site_label
 _atom_site_symmetry_multiplicity
 _atom_site_fract_x
 _atom_site_fract_y
 _atom_site_fract_z
 _atom_site_occupancy
  Sr  Sr0  1  0.23570400  0.76429599  0.23570400  1
  Sr  Sr1  1  0.23570400  0.76429599  0.76429599  1
  Sr  Sr2  1  0.76429599  0.23570400  0.23570400  1
  Sr  Sr3  1  0.23570400  0.23570400  0.76429599  1
  Mg  Mg4  1  0.76429599  0.76429599  0.23570400  1
  Fe  Fe5  1  0.76429599  0.23570400  0.76429599  1
  Co  Co6  1  0.74999999  0.74999999  0.74999999  1
  B  B7  1  0.25000000  0.25000000  0.25000000  1
  O  O8  1  0.00000000  0.00000000  0.00000000  1
  O  O9  1  0.66179199  0.01462400  0.66179199  1
  O  O10  1  0.33820799  0.33820799  0.33820799  1
  O  O11  1  0.98537598  0.33820799  0.33820799  1
  O  O12  1  0.33820799  0.33820799  0.98537598  1
  O  O13  1  0.66179199  0.66179199  0.01462400  1
  O  O14  1  0.66179199  0.66179199  0.66179199  1
  O  O15  1  0.01462400  0.66179199  0.66179199  1
  O  O16  1  0.33820799  0.98537598  0.33820799  1
