# generated using pymatgen
data_YFeC
_symmetry_space_group_name_H-M   'P 1'
_cell_length_a   3.55814910
_cell_length_b   3.55814910
_cell_length_c   7.06902409
_cell_angle_alpha   90.00000000
_cell_angle_beta   90.00000000
_cell_angle_gamma   90.00000000
_symmetry_Int_Tables_number   1
_chemical_formula_structural   YFeC
_chemical_formula_sum   'Y2 Fe2 C2'
_cell_volume   89.49684936
_cell_formula_units_Z   2
loop_
 _symmetry_equiv_pos_site_id
 _symmetry_equiv_pos_as_xyz
  1  'x, y, z'
loop_
 _atom_site_type_symbol
 _atom_site_label
 _atom_site_symmetry_multiplicity
 _atom_site_fract_x
 _atom_site_fract_y
 _atom_site_fract_z
 _atom_site_occupancy
  Y  Y0  1  0.00000000  0.00000000  0.74999999  1
  Y  Y1  1  0.00000000  0.00000000  0.25000000  1
  Fe  Fe2  1  0.49999999  0.49999999  0.00000000  1
  Fe  Fe3  1  0.49999999  0.49999999  0.49999999  1
  C  C4  1  0.49999999  0.00000000  0.49999999  1
  C  C5  1  0.00000000  0.49999999  0.00000000  1
