# generated using pymatgen
data_Rb4Cl7O9
_symmetry_space_group_name_H-M   'P 1'
_cell_length_a   7.34769583
_cell_length_b   7.68337536
_cell_length_c   10.20051670
_cell_angle_alpha   75.16119385
_cell_angle_beta   81.33174133
_cell_angle_gamma   84.61791992
_symmetry_Int_Tables_number   1
_chemical_formula_structural   Rb4Cl7O9
_chemical_formula_sum   'Rb4 Cl7 O9'
_cell_volume   549.38867722
_cell_formula_units_Z   1
loop_
 _symmetry_equiv_pos_site_id
 _symmetry_equiv_pos_as_xyz
  1  'x, y, z'
loop_
 _atom_site_type_symbol
 _atom_site_label
 _atom_site_symmetry_multiplicity
 _atom_site_fract_x
 _atom_site_fract_y
 _atom_site_fract_z
 _atom_site_occupancy
  Rb  Rb0  1  0.19430701  0.15546200  0.23431700  1
  Rb  Rb1  1  0.80569303  0.84453800  0.76568299  1
  Rb  Rb2  1  0.96861003  0.58895700  0.08373196  1
  Rb  Rb3  1  0.03139000  0.41104300  0.91626803  1
  Cl  Cl4  1  0.39069002  0.80862200  0.44888399  1
  Cl  Cl5  1  0.60931002  0.19137800  0.55111600  1
  Cl  Cl6  1  0.70167702  0.02725900  0.64886901  1
  Cl  Cl7  1  0.06254900  0.38634100  0.07742399  1
  O  O8  1  0.29832302  0.97274100  0.35113098  1
  Cl  Cl9  1  0.93745103  0.61365900  0.92257600  1
  Cl  Cl10  1  0.90468603  0.63788200  0.63401899  1
  Cl  Cl11  1  0.51147702  0.64645700  0.32332898  1
  O  O12  1  0.23689001  0.04070300  0.04106399  1
  O  O13  1  0.52908202  0.69525200  0.84355700  1
  O  O14  1  0.76311003  0.95929700  0.95893600  1
  O  O15  1  0.09531401  0.36211800  0.36598100  1
  O  O16  1  0.10243701  0.96240600  0.70565600  1
  O  O17  1  0.48852302  0.35354300  0.67667101  1
  O  O18  1  0.89756303  0.03759400  0.29434399  1
  O  O19  1  0.47091802  0.30474800  0.15644299  1
