# generated using pymatgen
data_Li3CuAg
_symmetry_space_group_name_H-M   'P 1'
_cell_length_a   4.38520813
_cell_length_b   4.38520861
_cell_length_c   7.23605013
_cell_angle_alpha   90.00000000
_cell_angle_beta   90.00000000
_cell_angle_gamma   120.00000000
_symmetry_Int_Tables_number   1
_chemical_formula_structural   Li3CuAg
_chemical_formula_sum   'Li3 Cu1 Ag1'
_cell_volume   120.50710878
_cell_formula_units_Z   1
loop_
 _symmetry_equiv_pos_site_id
 _symmetry_equiv_pos_as_xyz
  1  'x, y, z'
loop_
 _atom_site_type_symbol
 _atom_site_label
 _atom_site_symmetry_multiplicity
 _atom_site_fract_x
 _atom_site_fract_y
 _atom_site_fract_z
 _atom_site_occupancy
  Li  Li0  1  0.00000000  0.00000000  0.00000000  1
  Li  Li1  1  0.66666667  0.33333333  0.37904499  1
  Li  Li2  1  0.33333336  0.66666666  0.62095499  1
  Cu  Cu3  1  0.66666667  0.33333333  0.76587199  1
  Ag  Ag4  1  0.33333336  0.66666666  0.23412800  1
