# generated using pymatgen
data_FeSi
_symmetry_space_group_name_H-M   'P 1'
_cell_length_a   3.97058392
_cell_length_b   4.95446491
_cell_length_c   6.77867413
_cell_angle_alpha   90.00000000
_cell_angle_beta   90.00000000
_cell_angle_gamma   90.00000000
_symmetry_Int_Tables_number   1
_chemical_formula_structural   FeSi
_chemical_formula_sum   'Fe5 Si5'
_cell_volume   133.35088198
_cell_formula_units_Z   5
loop_
 _symmetry_equiv_pos_site_id
 _symmetry_equiv_pos_as_xyz
  1  'x, y, z'
loop_
 _atom_site_type_symbol
 _atom_site_label
 _atom_site_symmetry_multiplicity
 _atom_site_fract_x
 _atom_site_fract_y
 _atom_site_fract_z
 _atom_site_occupancy
  Fe  Fe0  1  0.50000001  0.75000001  0.15926700  1
  Fe  Fe1  1  0.50000001  0.25000000  0.84073298  1
  Fe  Fe2  1  0.50000001  0.00000000  0.49999999  1
  Fe  Fe3  1  0.50000001  0.50000001  0.49999999  1
  Fe  Fe4  1  0.00000000  0.50000001  0.00000000  1
  Si  Si5  1  0.00000000  0.00000000  0.00000000  1
  Si  Si6  1  0.00000000  0.75000001  0.37555399  1
  Si  Si7  1  0.00000000  0.25000000  0.62444599  1
  Si  Si8  1  0.50000001  0.25000000  0.19312500  1
  Si  Si9  1  0.50000001  0.75000001  0.80687499  1
