# generated using pymatgen
data_Li7MgCuO5
_symmetry_space_group_name_H-M   'P 1'
_cell_length_a   6.29518080
_cell_length_b   6.29518080
_cell_length_c   6.29518080
_cell_angle_alpha   60.00000000
_cell_angle_beta   60.00000000
_cell_angle_gamma   60.00000000
_symmetry_Int_Tables_number   1
_chemical_formula_structural   Li7MgCuO5
_chemical_formula_sum   'Li7 Mg1 Cu1 O5'
_cell_volume   176.40448589
_cell_formula_units_Z   1
loop_
 _symmetry_equiv_pos_site_id
 _symmetry_equiv_pos_as_xyz
  1  'x, y, z'
loop_
 _atom_site_type_symbol
 _atom_site_label
 _atom_site_symmetry_multiplicity
 _atom_site_fract_x
 _atom_site_fract_y
 _atom_site_fract_z
 _atom_site_occupancy
  Mg  Mg0  1  0.74999999  0.74999999  0.74999999  1
  Li  Li1  1  0.00000000  0.00000000  0.00000000  1
  Li  Li2  1  0.37500000  0.87499999  0.37500000  1
  Li  Li3  1  0.37500000  0.37500000  0.37500000  1
  Li  Li4  1  0.87499999  0.37500000  0.37500000  1
  Li  Li5  1  0.37500000  0.37500000  0.87499999  1
  Li  Li6  1  0.14249600  0.14249600  0.14249600  1
  Li  Li7  1  0.57251200  0.14249600  0.14249600  1
  Cu  Cu8  1  0.14249600  0.14249600  0.57251200  1
  O  O9  1  0.60750400  0.17748800  0.60750400  1
  O  O10  1  0.60750400  0.60750400  0.17748800  1
  O  O11  1  0.17748800  0.60750400  0.60750400  1
  O  O12  1  0.14249600  0.57251200  0.14249600  1
  O  O13  1  0.60750400  0.60750400  0.60750400  1
