# generated using pymatgen
data_Ca3HfN5
_symmetry_space_group_name_H-M   'P 1'
_cell_length_a   5.72115421
_cell_length_b   5.72115421
_cell_length_c   8.36856842
_cell_angle_alpha   90.00000000
_cell_angle_beta   90.00000000
_cell_angle_gamma   90.00000000
_symmetry_Int_Tables_number   1
_chemical_formula_structural   Ca3HfN5
_chemical_formula_sum   'Ca6 Hf2 N10'
_cell_volume   273.91668037
_cell_formula_units_Z   2
loop_
 _symmetry_equiv_pos_site_id
 _symmetry_equiv_pos_as_xyz
  1  'x, y, z'
loop_
 _atom_site_type_symbol
 _atom_site_label
 _atom_site_symmetry_multiplicity
 _atom_site_fract_x
 _atom_site_fract_y
 _atom_site_fract_z
 _atom_site_occupancy
  Ca  Ca0  1  0.49999998  0.49999998  -0.00000000  1
  Ca  Ca1  1  0.00000000  0.00000000  0.00000000  1
  Ca  Ca2  1  0.00000000  0.49999998  0.24191599  1
  Ca  Ca3  1  0.49999998  0.00000000  0.75808396  1
  Ca  Ca4  1  0.00000000  0.00000000  0.49999997  1
  Ca  Ca5  1  0.49999998  0.49999998  0.49999997  1
  Hf  Hf6  1  0.49999998  0.00000000  0.26140199  1
  Hf  Hf7  1  0.00000000  0.49999998  0.73859796  1
  N  N8  1  0.00000000  0.49999998  0.96286795  1
  N  N9  1  0.49999998  0.00000000  0.03713200  1
  N  N10  1  0.23264199  0.73264197  0.66537097  1
  N  N11  1  0.76735797  0.26735799  0.66537097  1
  N  N12  1  0.73264197  0.23264199  0.33462898  1
  N  N13  1  0.23264199  0.26735799  0.66537097  1
  N  N14  1  0.76735797  0.73264197  0.66537097  1
  N  N15  1  0.26735799  0.23264199  0.33462898  1
  N  N16  1  0.26735799  0.76735797  0.33462898  1
  N  N17  1  0.73264197  0.76735797  0.33462898  1
