# generated using pymatgen
data_NaSr3Cu3O10
_symmetry_space_group_name_H-M   'P 1'
_cell_length_a   3.86066008
_cell_length_b   3.86066008
_cell_length_c   14.89575291
_cell_angle_alpha   97.44586182
_cell_angle_beta   97.44586182
_cell_angle_gamma   90.00000000
_symmetry_Int_Tables_number   1
_chemical_formula_structural   NaSr3Cu3O10
_chemical_formula_sum   'Na1 Sr3 Cu3 O10'
_cell_volume   218.25641525
_cell_formula_units_Z   1
loop_
 _symmetry_equiv_pos_site_id
 _symmetry_equiv_pos_as_xyz
  1  'x, y, z'
loop_
 _atom_site_type_symbol
 _atom_site_label
 _atom_site_symmetry_multiplicity
 _atom_site_fract_x
 _atom_site_fract_y
 _atom_site_fract_z
 _atom_site_occupancy
  Sr  Sr0  1  0.41994000  0.41993999  0.83987999  1
  Sr  Sr1  1  0.57690700  0.57690699  0.15381401  1
  Na  Na2  1  0.70711400  0.70711399  0.41422800  1
  Sr  Sr3  1  0.29466700  0.29466700  0.58933399  1
  Cu  Cu4  1  0.85549800  0.85549799  0.71099600  1
  Cu  Cu5  1  0.14389800  0.14389800  0.28779600  1
  Cu  Cu6  1  0.99997100  0.99997099  0.99994200  1
  O  O7  1  0.93107600  0.93107599  0.86215200  1
  O  O8  1  0.06978900  0.06978900  0.13957800  1
  O  O9  1  0.84747499  0.34747499  0.69495000  1
  O  O10  1  0.34747500  0.84747499  0.69495000  1
  O  O11  1  0.15320100  0.65320099  0.30640200  1
  O  O12  1  0.65320099  0.15320100  0.30640200  1
  O  O13  1  0.74941399  0.24941400  0.49882800  1
  O  O14  1  0.24941400  0.74941399  0.49882800  1
  O  O15  1  0.00048001  0.50047999  0.00096001  1
  O  O16  1  0.50047999  0.00048000  0.00096000  1
