# generated using pymatgen
data_Mg4Ge
_symmetry_space_group_name_H-M   'P 1'
_cell_length_a   4.11873817
_cell_length_b   5.15791178
_cell_length_c   5.15791178
_cell_angle_alpha   80.82723999
_cell_angle_beta   66.46781921
_cell_angle_gamma   66.46781921
_symmetry_Int_Tables_number   1
_chemical_formula_structural   Mg4Ge
_chemical_formula_sum   'Mg4 Ge1'
_cell_volume   92.10756248
_cell_formula_units_Z   1
loop_
 _symmetry_equiv_pos_site_id
 _symmetry_equiv_pos_as_xyz
  1  'x, y, z'
loop_
 _atom_site_type_symbol
 _atom_site_label
 _atom_site_symmetry_multiplicity
 _atom_site_fract_x
 _atom_site_fract_y
 _atom_site_fract_z
 _atom_site_occupancy
  Mg  Mg0  1  0.00000000  0.00000000  0.00000000  1
  Mg  Mg1  1  0.20011801  0.39946400  0.20029998  1
  Mg  Mg2  1  0.59958198  0.20030000  0.60053600  1
  Mg  Mg3  1  0.40041802  0.79970000  0.39946397  1
  Ge  Ge4  1  0.79988199  0.60053600  0.79969998  1
