# generated using pymatgen
data_La(GaGe)2
_symmetry_space_group_name_H-M   'P 1'
_cell_length_a   4.48142576
_cell_length_b   4.48142576
_cell_length_c   6.13246918
_cell_angle_alpha   111.43128967
_cell_angle_beta   111.43128967
_cell_angle_gamma   90.00000000
_symmetry_Int_Tables_number   1
_chemical_formula_structural   La(GaGe)2
_chemical_formula_sum   'La1 Ga2 Ge2'
_cell_volume   105.44257931
_cell_formula_units_Z   1
loop_
 _symmetry_equiv_pos_site_id
 _symmetry_equiv_pos_as_xyz
  1  'x, y, z'
loop_
 _atom_site_type_symbol
 _atom_site_label
 _atom_site_symmetry_multiplicity
 _atom_site_fract_x
 _atom_site_fract_y
 _atom_site_fract_z
 _atom_site_occupancy
  La  La0  1  0.00000000  0.00000000  0.00000000  1
  Ga  Ga1  1  0.25000006  0.75000006  0.50000005  1
  Ga  Ga2  1  0.75000007  0.25000002  0.50000004  1
  Ge  Ge3  1  0.63802708  0.63802705  0.27605407  1
  Ge  Ge4  1  0.36197305  0.36197303  0.72394602  1
