# generated using pymatgen
data_Na4CuO4
_symmetry_space_group_name_H-M   'P 1'
_cell_length_a   6.03998804
_cell_length_b   6.09507465
_cell_length_c   8.50192738
_cell_angle_alpha   89.09832764
_cell_angle_beta   73.83489227
_cell_angle_gamma   69.40070343
_symmetry_Int_Tables_number   1
_chemical_formula_structural   Na4CuO4
_chemical_formula_sum   'Na8 Cu2 O8'
_cell_volume   280.21752200
_cell_formula_units_Z   2
loop_
 _symmetry_equiv_pos_site_id
 _symmetry_equiv_pos_as_xyz
  1  'x, y, z'
loop_
 _atom_site_type_symbol
 _atom_site_label
 _atom_site_symmetry_multiplicity
 _atom_site_fract_x
 _atom_site_fract_y
 _atom_site_fract_z
 _atom_site_occupancy
  Na  Na0  1  0.78348694  0.75760205  0.84388507  1
  Na  Na1  1  0.21651298  0.24239801  0.15611502  1
  Na  Na2  1  0.23214295  0.73131004  0.01094503  1
  Na  Na3  1  0.76785697  0.26869002  0.98905505  1
  Na  Na4  1  0.04015195  0.73565505  0.41951704  1
  Na  Na5  1  0.95984797  0.26434502  0.58048305  1
  Na  Na6  1  0.57257298  0.21918701  0.38043203  1
  Na  Na7  1  0.42742694  0.78081305  0.61956806  1
  Cu  Cu8  1  0.60047295  0.71769904  0.24412405  1
  Cu  Cu9  1  0.39952698  0.28230102  0.75587604  1
  O  O10  1  0.30244193  0.96946406  0.36875705  1
  O  O11  1  0.69755799  0.03053600  0.63124303  1
  O  O12  1  0.78128593  0.90506506  0.13090305  1
  O  O13  1  0.21871399  0.09493501  0.86909703  1
  O  O14  1  0.40515496  0.50688803  0.21376303  1
  O  O15  1  0.59484496  0.49311203  0.78623705  1
  O  O16  1  0.18557296  0.51415703  0.65813204  1
  O  O17  1  0.81442696  0.48584303  0.34186804  1
