# generated using pymatgen
data_Nb4FeP3
_symmetry_space_group_name_H-M   'P 1'
_cell_length_a   3.62618709
_cell_length_b   7.27582693
_cell_length_c   7.27582693
_cell_angle_alpha   119.10164642
_cell_angle_beta   90.00000000
_cell_angle_gamma   90.00000000
_symmetry_Int_Tables_number   1
_chemical_formula_structural   Nb4FeP3
_chemical_formula_sum   'Nb4 Fe1 P3'
_cell_volume   167.72824975
_cell_formula_units_Z   1
loop_
 _symmetry_equiv_pos_site_id
 _symmetry_equiv_pos_as_xyz
  1  'x, y, z'
loop_
 _atom_site_type_symbol
 _atom_site_label
 _atom_site_symmetry_multiplicity
 _atom_site_fract_x
 _atom_site_fract_y
 _atom_site_fract_z
 _atom_site_occupancy
  Nb  Nb0  1  0.49999999  0.75026701  0.74973300  1
  Nb  Nb1  1  0.49999999  0.25856000  0.24144000  1
  Nb  Nb2  1  0.99999998  0.99427401  0.99179800  1
  Nb  Nb3  1  0.99999998  0.50820201  0.50572600  1
  P  P4  1  0.99999998  0.60498101  0.89501901  1
  Fe  Fe5  1  0.99999998  0.13660800  0.36339201  1
  P  P6  1  0.49999999  0.62403201  0.37692399  1
  P  P7  1  0.49999999  0.12307600  0.87596802  1
