# generated using pymatgen
data_Sr3MgSi7
_symmetry_space_group_name_H-M   'P 1'
_cell_length_a   4.16747189
_cell_length_b   4.17389202
_cell_length_c   12.38237667
_cell_angle_alpha   99.70304108
_cell_angle_beta   99.68796539
_cell_angle_gamma   90.00000000
_symmetry_Int_Tables_number   1
_chemical_formula_structural   Sr3MgSi7
_chemical_formula_sum   'Sr3 Mg1 Si7'
_cell_volume   209.18811402
_cell_formula_units_Z   1
loop_
 _symmetry_equiv_pos_site_id
 _symmetry_equiv_pos_as_xyz
  1  'x, y, z'
loop_
 _atom_site_type_symbol
 _atom_site_label
 _atom_site_symmetry_multiplicity
 _atom_site_fract_x
 _atom_site_fract_y
 _atom_site_fract_z
 _atom_site_occupancy
  Sr  Sr0  1  0.34925601  0.84925600  0.69851201  1
  Sr  Sr1  1  0.65074401  0.15074400  0.30148799  1
  Sr  Sr2  1  0.00000000  0.00000000  0.00000000  1
  Mg  Mg3  1  0.24850600  0.24850500  0.49701100  1
  Si  Si4  1  0.75149401  0.75149500  0.50298900  1
  Si  Si5  1  0.09922800  0.59922800  0.19845601  1
  Si  Si6  1  0.90077202  0.40077200  0.80154398  1
  Si  Si7  1  0.19858500  0.69858500  0.39717001  1
  Si  Si8  1  0.80141501  0.30141500  0.60282999  1
  Si  Si9  1  0.44664901  0.44665000  0.89329899  1
  Si  Si10  1  0.55335101  0.55335000  0.10670100  1
