# generated using pymatgen
data_LuCoO3
_symmetry_space_group_name_H-M   'P 1'
_cell_length_a   5.12414217
_cell_length_b   5.31383324
_cell_length_c   7.43516922
_cell_angle_alpha   90.00000000
_cell_angle_beta   90.00000000
_cell_angle_gamma   90.00000000
_symmetry_Int_Tables_number   1
_chemical_formula_structural   LuCoO3
_chemical_formula_sum   'Lu4 Co4 O12'
_cell_volume   202.45101055
_cell_formula_units_Z   4
loop_
 _symmetry_equiv_pos_site_id
 _symmetry_equiv_pos_as_xyz
  1  'x, y, z'
loop_
 _atom_site_type_symbol
 _atom_site_label
 _atom_site_symmetry_multiplicity
 _atom_site_fract_x
 _atom_site_fract_y
 _atom_site_fract_z
 _atom_site_occupancy
  Lu  Lu0  1  0.02167000  0.93628196  0.24999999  1
  Lu  Lu1  1  0.47832998  0.43628198  0.24999999  1
  Lu  Lu2  1  0.52166998  0.56371797  0.74999998  1
  Lu  Lu3  1  0.97832997  0.06371800  0.74999998  1
  Co  Co4  1  -0.00000000  0.49999998  0.49999999  1
  Co  Co5  1  -0.00000000  0.49999998  0.00000000  1
  Co  Co6  1  0.49999998  0.00000000  0.49999999  1
  Co  Co7  1  0.49999998  0.00000000  -0.00000000  1
  O  O8  1  0.11887600  0.45114298  0.74999998  1
  O  O9  1  0.19710999  0.20029399  0.06381100  1
  O  O10  1  0.19710999  0.20029399  0.43618899  1
  O  O11  1  0.30288999  0.70029397  0.43618899  1
  O  O12  1  0.30288999  0.70029397  0.06381100  1
  O  O13  1  0.38112399  0.95114296  0.74999998  1
  O  O14  1  0.61887598  0.04885700  0.24999999  1
  O  O15  1  0.69710998  0.29970599  0.93618897  1
  O  O16  1  0.69710998  0.29970599  0.56381098  1
  O  O17  1  0.80288997  0.79970596  0.56381098  1
  O  O18  1  0.80288997  0.79970596  0.93618897  1
  O  O19  1  0.88112397  0.54885698  0.24999999  1
