# generated using pymatgen
data_HoGa
_symmetry_space_group_name_H-M   'P 1'
_cell_length_a   3.91027594
_cell_length_b   7.72046423
_cell_length_c   14.94901466
_cell_angle_alpha   90.00000000
_cell_angle_beta   90.00000000
_cell_angle_gamma   104.66938019
_symmetry_Int_Tables_number   1
_chemical_formula_structural   HoGa
_chemical_formula_sum   'Ho9 Ga9'
_cell_volume   436.58712093
_cell_formula_units_Z   9
loop_
 _symmetry_equiv_pos_site_id
 _symmetry_equiv_pos_as_xyz
  1  'x, y, z'
loop_
 _atom_site_type_symbol
 _atom_site_label
 _atom_site_symmetry_multiplicity
 _atom_site_fract_x
 _atom_site_fract_y
 _atom_site_fract_z
 _atom_site_occupancy
  Ho  Ho0  1  0.39349100  0.78698200  0.75000002  1
  Ho  Ho1  1  0.25877500  0.51755000  0.36877801  1
  Ho  Ho2  1  0.03846200  0.07692400  0.87340502  1
  Ho  Ho3  1  0.96153801  0.92307600  0.12659500  1
  Ho  Ho4  1  0.60650901  0.21301800  0.25000001  1
  Ho  Ho5  1  0.03846200  0.07692400  0.62659501  1
  Ho  Ho6  1  0.96153801  0.92307600  0.37340501  1
  Ho  Ho7  1  0.74122501  0.48245000  0.86877802  1
  Ga  Ga8  1  0.74122501  0.48245000  0.63122201  1
  Ho  Ho9  1  0.25877500  0.51755000  0.13122200  1
  Ga  Ga10  1  0.58773201  0.17546400  0.75000002  1
  Ga  Ga11  1  0.41226800  0.82453600  0.25000001  1
  Ga  Ga12  1  0.18049500  0.36099000  0.75000002  1
  Ga  Ga13  1  0.81950501  0.63901000  0.25000001  1
  Ga  Ga14  1  0.38213300  0.76426600  0.96202502  1
  Ga  Ga15  1  0.38213300  0.76426600  0.53797501  1
  Ga  Ga16  1  0.61786701  0.23573400  0.46202501  1
  Ga  Ga17  1  0.61786701  0.23573400  0.03797500  1
