# generated using pymatgen
data_Li8NiO11
_symmetry_space_group_name_H-M   'P 1'
_cell_length_a   5.09465265
_cell_length_b   5.51976967
_cell_length_c   8.98308563
_cell_angle_alpha   107.59282684
_cell_angle_beta   90.35124207
_cell_angle_gamma   116.32862854
_symmetry_Int_Tables_number   1
_chemical_formula_structural   Li8NiO11
_chemical_formula_sum   'Li8 Ni1 O11'
_cell_volume   212.89624548
_cell_formula_units_Z   1
loop_
 _symmetry_equiv_pos_site_id
 _symmetry_equiv_pos_as_xyz
  1  'x, y, z'
loop_
 _atom_site_type_symbol
 _atom_site_label
 _atom_site_symmetry_multiplicity
 _atom_site_fract_x
 _atom_site_fract_y
 _atom_site_fract_z
 _atom_site_occupancy
  Li  Li0  1  0.66281205  0.39515501  0.56712298  1
  Li  Li1  1  0.18698203  0.40205801  0.07230299  1
  Li  Li2  1  0.79703307  0.56763102  0.90705697  1
  Li  Li3  1  0.29534805  0.56467302  0.41405798  1
  Li  Li4  1  0.99176310  0.94380703  0.31608399  1
  Li  Li5  1  0.48835608  0.94841503  0.81972695  1
  Li  Li6  1  0.01504100  0.04169900  0.67949897  1
  Li  Li7  1  0.52549002  0.02237700  0.17584701  1
  Ni  Ni8  1  0.56044807  0.76995503  0.96899595  1
  O  O9  1  0.05263005  0.79648903  0.46373196  1
  O  O10  1  0.45778604  0.25252101  0.74581897  1
  O  O11  1  0.95802006  0.23736301  0.24470301  1
  O  O12  1  0.92009306  0.26048101  0.87078598  1
  O  O13  1  0.41273303  0.23690201  0.36126099  1
  O  O14  1  0.57245907  0.76203803  0.62046597  1
  O  O15  1  0.05703405  0.75365803  0.11865498  1
  O  O16  1  0.02771205  0.76096603  0.79337195  1
  O  O17  1  0.55070107  0.75685803  0.28556298  1
  O  O18  1  0.98828106  0.27711901  0.54028200  1
  O  O19  1  0.47928204  0.24983501  0.03466901  1
