# generated using pymatgen
data_Li4NbO3
_symmetry_space_group_name_H-M   'P 1'
_cell_length_a   5.81744623
_cell_length_b   6.07216311
_cell_length_c   5.88969517
_cell_angle_alpha   90.00000000
_cell_angle_beta   75.93801117
_cell_angle_gamma   90.00000000
_symmetry_Int_Tables_number   1
_chemical_formula_structural   Li4NbO3
_chemical_formula_sum   'Li8 Nb2 O6'
_cell_volume   201.81587338
_cell_formula_units_Z   2
loop_
 _symmetry_equiv_pos_site_id
 _symmetry_equiv_pos_as_xyz
  1  'x, y, z'
loop_
 _atom_site_type_symbol
 _atom_site_label
 _atom_site_symmetry_multiplicity
 _atom_site_fract_x
 _atom_site_fract_y
 _atom_site_fract_z
 _atom_site_occupancy
  Li  Li0  1  0.18171199  0.13248700  0.33444998  1
  Li  Li1  1  0.31828799  0.63248699  0.66554997  1
  Li  Li2  1  0.81828797  0.86751298  0.66554995  1
  Li  Li3  1  0.68171198  0.36751299  0.33444997  1
  Li  Li4  1  0.30496899  0.07250000  0.79865396  1
  Li  Li5  1  0.80496897  0.42749999  0.79865395  1
  Li  Li6  1  0.69503098  0.92749998  0.20134597  1
  Li  Li7  1  0.19503099  0.57249999  0.20134599  1
  O  O8  1  0.98647597  0.24690200  0.08959397  1
  Nb  Nb9  1  0.69365498  0.13727400  0.56671296  1
  Nb  Nb10  1  0.51352398  0.74690199  0.91040595  1
  O  O11  1  0.01352400  0.75309799  0.91040597  1
  O  O12  1  0.30634499  0.86272599  0.43328698  1
  O  O13  1  0.80634497  0.63727399  0.43328696  1
  O  O14  1  0.19365499  0.36272599  0.56671298  1
  O  O15  1  0.48647598  0.25309800  0.08959398  1
