# generated using pymatgen
data_PrGaNiGe2
_symmetry_space_group_name_H-M   'P 1'
_cell_length_a   4.20017815
_cell_length_b   4.20017815
_cell_length_c   5.84183979
_cell_angle_alpha   111.06893921
_cell_angle_beta   111.06893921
_cell_angle_gamma   90.00000000
_symmetry_Int_Tables_number   1
_chemical_formula_structural   PrGaNiGe2
_chemical_formula_sum   'Pr1 Ga1 Ni1 Ge2'
_cell_volume   88.74627783
_cell_formula_units_Z   1
loop_
 _symmetry_equiv_pos_site_id
 _symmetry_equiv_pos_as_xyz
  1  'x, y, z'
loop_
 _atom_site_type_symbol
 _atom_site_label
 _atom_site_symmetry_multiplicity
 _atom_site_fract_x
 _atom_site_fract_y
 _atom_site_fract_z
 _atom_site_occupancy
  Pr  Pr0  1  0.00000000  0.00000000  0.00000000  1
  Ga  Ga1  1  0.61677694  0.61677696  0.23355393  1
  Ge  Ge2  1  0.38322296  0.38322298  0.76644594  1
  Ni  Ni3  1  0.24999995  0.74999995  0.49999994  1
  Ge  Ge4  1  0.74999995  0.24999998  0.49999994  1
