# generated using pymatgen
data_La
_symmetry_space_group_name_H-M   'P 1'
_cell_length_a   5.89930820
_cell_length_b   7.45646000
_cell_length_c   7.45646000
_cell_angle_alpha   60.00000000
_cell_angle_beta   90.00000000
_cell_angle_gamma   90.00000000
_symmetry_Int_Tables_number   1
_chemical_formula_structural   La
_chemical_formula_sum   La8
_cell_volume   284.05151019
_cell_formula_units_Z   8
loop_
 _symmetry_equiv_pos_site_id
 _symmetry_equiv_pos_as_xyz
  1  'x, y, z'
loop_
 _atom_site_type_symbol
 _atom_site_label
 _atom_site_symmetry_multiplicity
 _atom_site_fract_x
 _atom_site_fract_y
 _atom_site_fract_z
 _atom_site_occupancy
  La  La0  1  0.74999997  0.65005401  0.17497299  1
  La  La1  1  0.74999997  0.17497300  0.17497300  1
  La  La2  1  0.74999997  0.17497300  0.65005401  1
  La  La3  1  0.24999999  0.34994600  0.82502702  1
  La  La4  1  0.24999999  0.82502701  0.82502701  1
  La  La5  1  0.24999999  0.82502701  0.34994600  1
  La  La6  1  0.24999999  0.33333334  0.33333334  1
  La  La7  1  0.74999997  0.66666667  0.66666667  1
