# generated using pymatgen
data_Ta2S3
_symmetry_space_group_name_H-M   'P 1'
_cell_length_a   5.86779976
_cell_length_b   5.86780119
_cell_length_c   11.35800838
_cell_angle_alpha   90.00000000
_cell_angle_beta   90.00000000
_cell_angle_gamma   119.99999237
_symmetry_Int_Tables_number   1
_chemical_formula_structural   Ta2S3
_chemical_formula_sum   'Ta8 S12'
_cell_volume   338.67530127
_cell_formula_units_Z   4
loop_
 _symmetry_equiv_pos_site_id
 _symmetry_equiv_pos_as_xyz
  1  'x, y, z'
loop_
 _atom_site_type_symbol
 _atom_site_label
 _atom_site_symmetry_multiplicity
 _atom_site_fract_x
 _atom_site_fract_y
 _atom_site_fract_z
 _atom_site_occupancy
  Ta  Ta0  1  0.33333332  0.66666663  0.50569698  1
  Ta  Ta1  1  0.33333332  0.66666663  0.99430297  1
  Ta  Ta2  1  0.66666668  0.33333331  0.49430298  1
  Ta  Ta3  1  0.66666668  0.33333331  0.00569700  1
  Ta  Ta4  1  0.00000000  0.00000000  0.49999998  1
  Ta  Ta5  1  0.00000000  0.00000000  0.00000000  1
  Ta  Ta6  1  0.33333332  0.66666663  0.24999999  1
  Ta  Ta7  1  0.66666668  0.33333331  0.74999997  1
  S  S8  1  0.33090197  0.99542294  0.12801300  1
  S  S9  1  0.66452100  0.66909796  0.12801300  1
  S  S10  1  0.00457699  0.33547898  0.12801300  1
  S  S11  1  0.66452099  0.99542294  0.37198699  1
  S  S12  1  0.00457697  0.66909796  0.37198699  1
  S  S13  1  0.33090200  0.33547898  0.37198699  1
  S  S14  1  0.66909803  0.00457700  0.87198697  1
  S  S15  1  0.33547900  0.33090198  0.87198697  1
  S  S16  1  0.66909800  0.66452096  0.62801298  1
  S  S17  1  0.99542303  0.33090198  0.62801298  1
  S  S18  1  0.33547901  0.00457700  0.62801298  1
  S  S19  1  0.99542301  0.66452096  0.87198697  1
