# generated using pymatgen
data_NdGa2Pd
_symmetry_space_group_name_H-M   'P 1'
_cell_length_a   4.34171581
_cell_length_b   5.66042471
_cell_length_c   7.43748093
_cell_angle_alpha   90.00000000
_cell_angle_beta   90.00000000
_cell_angle_gamma   112.55158234
_symmetry_Int_Tables_number   1
_chemical_formula_structural   NdGa2Pd
_chemical_formula_sum   'Nd2 Ga4 Pd2'
_cell_volume   168.80661598
_cell_formula_units_Z   2
loop_
 _symmetry_equiv_pos_site_id
 _symmetry_equiv_pos_as_xyz
  1  'x, y, z'
loop_
 _atom_site_type_symbol
 _atom_site_label
 _atom_site_symmetry_multiplicity
 _atom_site_fract_x
 _atom_site_fract_y
 _atom_site_fract_z
 _atom_site_occupancy
  Nd  Nd0  1  0.42926899  0.85853796  0.25000000  1
  Nd  Nd1  1  0.57073102  0.14146199  0.75000001  1
  Ga  Ga2  1  0.14060700  0.28121399  0.44802800  1
  Ga  Ga3  1  0.14060700  0.28121399  0.05197200  1
  Ga  Ga4  1  0.85939301  0.71878596  0.94802801  1
  Ga  Ga5  1  0.85939301  0.71878596  0.55197201  1
  Pd  Pd6  1  0.28365899  0.56731797  0.75000001  1
  Pd  Pd7  1  0.71634101  0.43268198  0.25000000  1
