# generated using pymatgen
data_Li4NO7
_symmetry_space_group_name_H-M   'P 1'
_cell_length_a   3.75174117
_cell_length_b   6.24297667
_cell_length_c   6.71806717
_cell_angle_alpha   105.70471191
_cell_angle_beta   90.00000000
_cell_angle_gamma   107.48624420
_symmetry_Int_Tables_number   1
_chemical_formula_structural   Li4NO7
_chemical_formula_sum   'Li4 N1 O7'
_cell_volume   143.90899355
_cell_formula_units_Z   1
loop_
 _symmetry_equiv_pos_site_id
 _symmetry_equiv_pos_as_xyz
  1  'x, y, z'
loop_
 _atom_site_type_symbol
 _atom_site_label
 _atom_site_symmetry_multiplicity
 _atom_site_fract_x
 _atom_site_fract_y
 _atom_site_fract_z
 _atom_site_occupancy
  Li  Li0  1  0.60403401  0.20806801  0.73830605  1
  Li  Li1  1  0.39300001  0.78600003  0.27270104  1
  Li  Li2  1  0.69782101  0.39564202  0.31114704  1
  Li  Li3  1  0.29857401  0.59714802  0.70172705  1
  N  N4  1  0.86817502  0.73635003  0.31648606  1
  O  O5  1  0.75303901  0.50607802  0.63056806  1
  O  O6  1  0.63968301  0.27936601  0.00350703  1
  O  O7  1  0.55369501  0.10739000  0.34463903  1
  O  O8  1  0.45362901  0.90725804  0.64813206  1
  O  O9  1  0.36942101  0.73884203  0.02103803  1
  O  O10  1  0.23563800  0.47127602  0.31024103  1
  O  O11  1  0.13329300  0.26658601  0.70150703  1
