# generated using pymatgen
data_CeIn
_symmetry_space_group_name_H-M   'P 1'
_cell_length_a   5.57325315
_cell_length_b   7.12872219
_cell_length_c   7.12872171
_cell_angle_alpha   120.00000000
_cell_angle_beta   90.00000000
_cell_angle_gamma   90.00000000
_symmetry_Int_Tables_number   1
_chemical_formula_structural   CeIn
_chemical_formula_sum   'Ce4 In4'
_cell_volume   245.28034818
_cell_formula_units_Z   4
loop_
 _symmetry_equiv_pos_site_id
 _symmetry_equiv_pos_as_xyz
  1  'x, y, z'
loop_
 _atom_site_type_symbol
 _atom_site_label
 _atom_site_symmetry_multiplicity
 _atom_site_fract_x
 _atom_site_fract_y
 _atom_site_fract_z
 _atom_site_occupancy
  Ce  Ce0  1  0.24999999  0.66666664  0.33333331  1
  Ce  Ce1  1  0.74999998  0.33333332  0.66666666  1
  Ce  Ce2  1  0.74999998  0.83513397  0.16486598  1
  In  In3  1  0.74999998  0.32973199  0.16486599  1
  In  In4  1  0.74999998  0.83513397  0.67026798  1
  Ce  Ce5  1  0.24999999  0.16486599  0.83513399  1
  In  In6  1  0.24999999  0.67026797  0.83513398  1
  In  In7  1  0.24999999  0.16486599  0.32973199  1
