# generated using pymatgen
data_GdAu
_symmetry_space_group_name_H-M   'P 1'
_cell_length_a   3.49943709
_cell_length_b   3.49943709
_cell_length_c   6.67784405
_cell_angle_alpha   90.00000000
_cell_angle_beta   90.00000000
_cell_angle_gamma   90.00000000
_symmetry_Int_Tables_number   1
_chemical_formula_structural   GdAu
_chemical_formula_sum   'Gd2 Au2'
_cell_volume   81.77727870
_cell_formula_units_Z   2
loop_
 _symmetry_equiv_pos_site_id
 _symmetry_equiv_pos_as_xyz
  1  'x, y, z'
loop_
 _atom_site_type_symbol
 _atom_site_label
 _atom_site_symmetry_multiplicity
 _atom_site_fract_x
 _atom_site_fract_y
 _atom_site_fract_z
 _atom_site_occupancy
  Gd  Gd0  1  0.49999999  0.00000000  0.14256800  1
  Gd  Gd1  1  0.00000000  0.49999999  0.85743199  1
  Au  Au2  1  0.49999999  0.00000000  0.61487400  1
  Au  Au3  1  0.00000000  0.49999999  0.38512600  1
