# generated using pymatgen
data_Li4FePO10
_symmetry_space_group_name_H-M   'P 1'
_cell_length_a   5.35539103
_cell_length_b   5.41166639
_cell_length_c   7.34038687
_cell_angle_alpha   68.38512421
_cell_angle_beta   68.68043518
_cell_angle_gamma   89.97461700
_symmetry_Int_Tables_number   1
_chemical_formula_structural   Li4FePO10
_chemical_formula_sum   'Li4 Fe1 P1 O10'
_cell_volume   182.04072936
_cell_formula_units_Z   1
loop_
 _symmetry_equiv_pos_site_id
 _symmetry_equiv_pos_as_xyz
  1  'x, y, z'
loop_
 _atom_site_type_symbol
 _atom_site_label
 _atom_site_symmetry_multiplicity
 _atom_site_fract_x
 _atom_site_fract_y
 _atom_site_fract_z
 _atom_site_occupancy
  Li  Li0  1  0.00000000  0.00000000  0.00000000  1
  Li  Li1  1  0.49999998  0.00000000  0.00000002  1
  Li  Li2  1  0.49999999  0.50000000  0.50000000  1
  Li  Li3  1  0.50000000  1.00000001  0.49999997  1
  P  P4  1  0.87970997  0.62939601  0.74134801  1
  Fe  Fe5  1  0.12029000  0.37060400  0.25865199  1
  O  O6  1  0.81273797  0.32021300  0.87523502  1
  O  O7  1  0.81233297  0.30348300  0.39316302  1
  O  O8  1  0.29425099  0.30328200  0.39316200  1
  O  O9  1  0.81284298  0.80467001  0.87520399  1
  O  O10  1  0.18726200  0.67978701  0.12476497  1
  O  O11  1  0.18766700  0.69651801  0.60683697  1
  O  O12  1  0.70574998  0.69671901  0.60683699  1
  O  O13  1  0.18715700  0.19533000  0.12479600  1
  O  O14  1  0.36244999  0.11218000  0.77556601  1
  O  O15  1  0.63754999  0.88782001  0.22443398  1
