# generated using pymatgen
data_Tm5Rh3
_symmetry_space_group_name_H-M   'P 1'
_cell_length_a   4.94933414
_cell_length_b   6.00986624
_cell_length_c   6.00986624
_cell_angle_alpha   60.00000000
_cell_angle_beta   90.00000000
_cell_angle_gamma   90.00000000
_symmetry_Int_Tables_number   1
_chemical_formula_structural   Tm5Rh3
_chemical_formula_sum   'Tm5 Rh3'
_cell_volume   154.81285470
_cell_formula_units_Z   1
loop_
 _symmetry_equiv_pos_site_id
 _symmetry_equiv_pos_as_xyz
  1  'x, y, z'
loop_
 _atom_site_type_symbol
 _atom_site_label
 _atom_site_symmetry_multiplicity
 _atom_site_fract_x
 _atom_site_fract_y
 _atom_site_fract_z
 _atom_site_occupancy
  Tm  Tm0  1  0.74999998  0.65838399  0.17080798  1
  Tm  Tm1  1  0.74999998  0.17080800  0.17080800  1
  Tm  Tm2  1  0.74999998  0.17080800  0.65838400  1
  Tm  Tm3  1  0.24999999  0.34161599  0.82919200  1
  Tm  Tm4  1  0.24999999  0.82919198  0.82919198  1
  Rh  Rh5  1  0.24999999  0.82919198  0.34161598  1
  Rh  Rh6  1  0.24999999  0.33333333  0.33333333  1
  Rh  Rh7  1  0.74999998  0.66666665  0.66666665  1
