# generated using pymatgen
data_YMgPd
_symmetry_space_group_name_H-M   'P 1'
_cell_length_a   3.96614289
_cell_length_b   7.73780203
_cell_length_c   7.73780203
_cell_angle_alpha   120.00000000
_cell_angle_beta   90.00000000
_cell_angle_gamma   90.00000000
_symmetry_Int_Tables_number   1
_chemical_formula_structural   YMgPd
_chemical_formula_sum   'Y3 Mg3 Pd3'
_cell_volume   205.65260587
_cell_formula_units_Z   3
loop_
 _symmetry_equiv_pos_site_id
 _symmetry_equiv_pos_as_xyz
  1  'x, y, z'
loop_
 _atom_site_type_symbol
 _atom_site_label
 _atom_site_symmetry_multiplicity
 _atom_site_fract_x
 _atom_site_fract_y
 _atom_site_fract_z
 _atom_site_occupancy
  Y  Y0  1  0.50000001  0.59439600  -0.00000000  1
  Y  Y1  1  0.50000001  0.40560400  0.40560399  1
  Y  Y2  1  0.50000001  0.00000000  0.59439599  1
  Mg  Mg3  1  -0.00000000  0.25473400  -0.00000000  1
  Mg  Mg4  1  1.00000003  0.74526599  0.74526598  1
  Mg  Mg5  1  0.00000000  0.00000000  0.25473400  1
  Pd  Pd6  1  1.00000003  0.33333333  0.66666665  1
  Pd  Pd7  1  -0.00000000  0.66666666  0.33333332  1
  Pd  Pd8  1  0.50000001  0.00000000  -0.00000000  1
