# generated using pymatgen
data_CsK(BrO3)2
_symmetry_space_group_name_H-M   'P 1'
_cell_length_a   5.27500677
_cell_length_b   5.27500677
_cell_length_c   5.61831903
_cell_angle_alpha   90.00000000
_cell_angle_beta   90.00000000
_cell_angle_gamma   96.56771851
_symmetry_Int_Tables_number   1
_chemical_formula_structural   CsK(BrO3)2
_chemical_formula_sum   'Cs1 K1 Br2 O6'
_cell_volume   155.30767941
_cell_formula_units_Z   1
loop_
 _symmetry_equiv_pos_site_id
 _symmetry_equiv_pos_as_xyz
  1  'x, y, z'
loop_
 _atom_site_type_symbol
 _atom_site_label
 _atom_site_symmetry_multiplicity
 _atom_site_fract_x
 _atom_site_fract_y
 _atom_site_fract_z
 _atom_site_occupancy
  K  K0  1  0.49999999  0.50000001  -0.00000000  1
  Cs  Cs1  1  0.00000000  0.00000000  0.50000000  1
  Br  Br2  1  0.85535502  0.14464500  0.50000000  1
  Br  Br3  1  0.14464495  0.85535502  0.50000000  1
  O  O4  1  0.69353198  0.69353202  0.75775300  1
  O  O5  1  0.30646799  0.30646801  0.75775300  1
  O  O6  1  0.69353198  0.69353202  0.24224700  1
  O  O7  1  0.30646799  0.30646801  0.24224700  1
  O  O8  1  0.25670296  0.74329702  -0.00000000  1
  O  O9  1  0.74329701  0.25670301  -0.00000000  1
