# generated using pymatgen
data_LaGe3
_symmetry_space_group_name_H-M   'P 1'
_cell_length_a   4.37708187
_cell_length_b   4.46087980
_cell_length_c   9.42665768
_cell_angle_alpha   90.00000000
_cell_angle_beta   103.42457581
_cell_angle_gamma   90.00000000
_symmetry_Int_Tables_number   1
_chemical_formula_structural   LaGe3
_chemical_formula_sum   'La2 Ge6'
_cell_volume   179.03226241
_cell_formula_units_Z   2
loop_
 _symmetry_equiv_pos_site_id
 _symmetry_equiv_pos_as_xyz
  1  'x, y, z'
loop_
 _atom_site_type_symbol
 _atom_site_label
 _atom_site_symmetry_multiplicity
 _atom_site_fract_x
 _atom_site_fract_y
 _atom_site_fract_z
 _atom_site_occupancy
  La  La0  1  0.11391500  0.75000003  0.22782999  1
  La  La1  1  0.88608503  0.25000001  0.77216998  1
  Ge  Ge2  1  0.68003702  0.25000001  0.36007399  1
  Ge  Ge3  1  0.31996301  0.75000003  0.63992598  1
  Ge  Ge4  1  0.54840702  0.25000001  0.09681400  1
  Ge  Ge5  1  0.25168001  0.25000001  0.50335998  1
  Ge  Ge6  1  0.45159301  0.75000003  0.90318597  1
  Ge  Ge7  1  0.74832002  0.75000003  0.49663999  1
