# generated using pymatgen
data_Rb2NaUF6
_symmetry_space_group_name_H-M   'P 1'
_cell_length_a   5.94362497
_cell_length_b   7.05616188
_cell_length_c   7.05616236
_cell_angle_alpha   60.00000000
_cell_angle_beta   90.00000000
_cell_angle_gamma   90.00000000
_symmetry_Int_Tables_number   1
_chemical_formula_structural   Rb2NaUF6
_chemical_formula_sum   'Rb2 Na1 U1 F6'
_cell_volume   256.28260588
_cell_formula_units_Z   1
loop_
 _symmetry_equiv_pos_site_id
 _symmetry_equiv_pos_as_xyz
  1  'x, y, z'
loop_
 _atom_site_type_symbol
 _atom_site_label
 _atom_site_symmetry_multiplicity
 _atom_site_fract_x
 _atom_site_fract_y
 _atom_site_fract_z
 _atom_site_occupancy
  Rb  Rb0  1  0.75000000  0.66666669  0.66666664  1
  Rb  Rb1  1  0.25000000  0.33333335  0.33333332  1
  Na  Na2  1  0.50000000  0.00000000  0.00000000  1
  U  U3  1  0.00000000  0.00000000  0.00000000  1
  F  F4  1  0.25000000  0.31005201  0.84497399  1
  F  F5  1  0.75000000  0.15502601  0.68994800  1
  F  F6  1  0.75000000  0.15502601  0.15502599  1
  F  F7  1  0.25000000  0.84497403  0.84497397  1
  F  F8  1  0.75000000  0.68994802  0.15502598  1
  F  F9  1  0.25000000  0.84497403  0.31005197  1
