# generated using pymatgen
data_FeSi
_symmetry_space_group_name_H-M   'P 1'
_cell_length_a   4.78510904
_cell_length_b   4.78510904
_cell_length_c   4.78510904
_cell_angle_alpha   90.00000000
_cell_angle_beta   90.00000000
_cell_angle_gamma   90.00000000
_symmetry_Int_Tables_number   1
_chemical_formula_structural   FeSi
_chemical_formula_sum   'Fe4 Si4'
_cell_volume   109.56592682
_cell_formula_units_Z   4
loop_
 _symmetry_equiv_pos_site_id
 _symmetry_equiv_pos_as_xyz
  1  'x, y, z'
loop_
 _atom_site_type_symbol
 _atom_site_label
 _atom_site_symmetry_multiplicity
 _atom_site_fract_x
 _atom_site_fract_y
 _atom_site_fract_z
 _atom_site_occupancy
  Fe  Fe0  1  0.65519399  0.15519400  0.34480600  1
  Fe  Fe1  1  0.15519400  0.34480600  0.65519399  1
  Fe  Fe2  1  0.34480600  0.65519399  0.15519400  1
  Fe  Fe3  1  0.84480599  0.84480599  0.84480599  1
  Si  Si4  1  0.36494500  0.86494499  0.63505499  1
  Si  Si5  1  0.86494499  0.63505499  0.36494500  1
  Si  Si6  1  0.63505499  0.36494500  0.86494499  1
  Si  Si7  1  0.13505500  0.13505500  0.13505500  1
