# generated using pymatgen
data_La5Mg3
_symmetry_space_group_name_H-M   'P 1'
_cell_length_a   5.97765589
_cell_length_b   7.31184816
_cell_length_c   7.31184864
_cell_angle_alpha   60.00000381
_cell_angle_beta   90.00000000
_cell_angle_gamma   90.00000000
_symmetry_Int_Tables_number   1
_chemical_formula_structural   La5Mg3
_chemical_formula_sum   'La5 Mg3'
_cell_volume   276.76802588
_cell_formula_units_Z   1
loop_
 _symmetry_equiv_pos_site_id
 _symmetry_equiv_pos_as_xyz
  1  'x, y, z'
loop_
 _atom_site_type_symbol
 _atom_site_label
 _atom_site_symmetry_multiplicity
 _atom_site_fract_x
 _atom_site_fract_y
 _atom_site_fract_z
 _atom_site_occupancy
  La  La0  1  0.75000001  0.66666665  0.66666668  1
  La  La1  1  0.25000000  0.33333332  0.33333334  1
  La  La2  1  0.75000001  0.16639200  0.66721601  1
  La  La3  1  0.75000001  0.16639200  0.16639300  1
  Mg  Mg4  1  0.75000001  0.66721498  0.16639301  1
  La  La5  1  0.25000000  0.83360798  0.33278401  1
  Mg  Mg6  1  0.25000000  0.83360798  0.83360702  1
  Mg  Mg7  1  0.25000000  0.33278499  0.83360702  1
