# generated using pymatgen
data_CeAgAu
_symmetry_space_group_name_H-M   'P 1'
_cell_length_a   4.71144819
_cell_length_b   4.71144724
_cell_length_c   7.45786190
_cell_angle_alpha   90.00000000
_cell_angle_beta   90.00000000
_cell_angle_gamma   120.00000763
_symmetry_Int_Tables_number   1
_chemical_formula_structural   CeAgAu
_chemical_formula_sum   'Ce2 Ag2 Au2'
_cell_volume   143.36848217
_cell_formula_units_Z   2
loop_
 _symmetry_equiv_pos_site_id
 _symmetry_equiv_pos_as_xyz
  1  'x, y, z'
loop_
 _atom_site_type_symbol
 _atom_site_label
 _atom_site_symmetry_multiplicity
 _atom_site_fract_x
 _atom_site_fract_y
 _atom_site_fract_z
 _atom_site_occupancy
  Ce  Ce0  1  0.00000000  0.00000000  0.75217001  1
  Ce  Ce1  1  0.00000000  0.00000000  0.25217000  1
  Ag  Ag2  1  0.33333337  0.66666672  0.02545200  1
  Ag  Ag3  1  0.66666666  0.33333336  0.52545201  1
  Au  Au4  1  0.66666666  0.33333336  0.92387801  1
  Au  Au5  1  0.33333337  0.66666672  0.42387801  1
