# generated using pymatgen
data_Y2Ga3
_symmetry_space_group_name_H-M   'P 1'
_cell_length_a   3.65158010
_cell_length_b   7.63002777
_cell_length_c   7.63002777
_cell_angle_alpha   90.00000000
_cell_angle_beta   90.00000000
_cell_angle_gamma   90.00000000
_symmetry_Int_Tables_number   1
_chemical_formula_structural   Y2Ga3
_chemical_formula_sum   'Y4 Ga6'
_cell_volume   212.58522074
_cell_formula_units_Z   2
loop_
 _symmetry_equiv_pos_site_id
 _symmetry_equiv_pos_as_xyz
  1  'x, y, z'
loop_
 _atom_site_type_symbol
 _atom_site_label
 _atom_site_symmetry_multiplicity
 _atom_site_fract_x
 _atom_site_fract_y
 _atom_site_fract_z
 _atom_site_occupancy
  Y  Y0  1  0.49999999  0.67673502  0.17673501  1
  Y  Y1  1  0.49999999  0.32326501  0.82326502  1
  Y  Y2  1  0.49999999  0.17673501  0.32326501  1
  Y  Y3  1  0.49999999  0.82326502  0.67673502  1
  Ga  Ga4  1  0.00000000  0.00000000  0.00000000  1
  Ga  Ga5  1  -0.00000000  0.50000002  0.50000002  1
  Ga  Ga6  1  0.99999997  0.11702000  0.61702002  1
  Ga  Ga7  1  -0.00000000  0.88298003  0.38298001  1
  Ga  Ga8  1  0.00000000  0.61702002  0.88298003  1
  Ga  Ga9  1  -0.00000000  0.38298001  0.11702000  1
