# generated using pymatgen
data_Pr2Fe3Co14
_symmetry_space_group_name_H-M   'P 1'
_cell_length_a   6.32856989
_cell_length_b   6.32856989
_cell_length_c   6.32856989
_cell_angle_alpha   83.65629578
_cell_angle_beta   83.65629578
_cell_angle_gamma   83.65630341
_symmetry_Int_Tables_number   1
_chemical_formula_structural   Pr2Fe3Co14
_chemical_formula_sum   'Pr2 Fe3 Co14'
_cell_volume   249.12742091
_cell_formula_units_Z   1
loop_
 _symmetry_equiv_pos_site_id
 _symmetry_equiv_pos_as_xyz
  1  'x, y, z'
loop_
 _atom_site_type_symbol
 _atom_site_label
 _atom_site_symmetry_multiplicity
 _atom_site_fract_x
 _atom_site_fract_y
 _atom_site_fract_z
 _atom_site_occupancy
  Pr  Pr0  1  0.34412001  0.34412001  0.34412000  1
  Pr  Pr1  1  0.65537703  0.65537702  0.65537701  1
  Fe  Fe2  1  0.71655003  0.28284701  0.00004599  1
  Co  Co3  1  0.28284701  0.00004600  0.71655001  1
  Fe  Fe4  1  0.00004600  0.71655003  0.28284700  1
  Fe  Fe5  1  0.71655003  0.00004600  0.28284700  1
  Co  Co6  1  0.00004600  0.28284701  0.71655001  1
  Co  Co7  1  0.28284701  0.71655003  0.00004599  1
  Co  Co8  1  0.65487103  0.65487102  0.15242499  1
  Co  Co9  1  0.65487102  0.15242501  0.65487101  1
  Co  Co10  1  0.15242501  0.65487102  0.65487101  1
  Co  Co11  1  0.34242501  0.34242501  0.84974101  1
  Co  Co12  1  0.34242502  0.84974103  0.34242500  1
  Co  Co13  1  0.84974103  0.34242501  0.34242500  1
  Co  Co14  1  0.00248500  0.00248500  0.49581301  1
  Co  Co15  1  0.00248500  0.49581302  0.00248500  1
  Co  Co16  1  0.49581302  0.00248500  0.00248500  1
  Co  Co17  1  0.10299600  0.10299600  0.10299600  1
  Co  Co18  1  0.90107804  0.90107803  0.90107801  1
