# generated using pymatgen
data_Mn5Ge7
_symmetry_space_group_name_H-M   'P 1'
_cell_length_a   2.85367298
_cell_length_b   4.86285496
_cell_length_c   13.77393532
_cell_angle_alpha   90.00000000
_cell_angle_beta   90.00000000
_cell_angle_gamma   90.00000000
_symmetry_Int_Tables_number   1
_chemical_formula_structural   Mn5Ge7
_chemical_formula_sum   'Mn5 Ge7'
_cell_volume   191.14087016
_cell_formula_units_Z   1
loop_
 _symmetry_equiv_pos_site_id
 _symmetry_equiv_pos_as_xyz
  1  'x, y, z'
loop_
 _atom_site_type_symbol
 _atom_site_label
 _atom_site_symmetry_multiplicity
 _atom_site_fract_x
 _atom_site_fract_y
 _atom_site_fract_z
 _atom_site_occupancy
  Mn  Mn0  1  -0.00000000  0.69175601  0.34046199  1
  Mn  Mn1  1  0.00000000  0.32999500  0.16612400  1
  Mn  Mn2  1  -0.00000000  0.69175601  0.65953798  1
  Mn  Mn3  1  0.00000000  0.32999500  0.83387598  1
  Mn  Mn4  1  -0.00000000  0.95331801  0.00000000  1
  Ge  Ge5  1  0.50000000  0.46288900  0.00000000  1
  Ge  Ge6  1  0.50000000  0.50963900  0.49999999  1
  Ge  Ge7  1  0.50000000  0.17805000  0.33595699  1
  Ge  Ge8  1  0.50000000  0.82629601  0.17013700  1
  Ge  Ge9  1  0.50000000  0.17805000  0.66404298  1
  Ge  Ge10  1  0.50000000  0.82629601  0.82986298  1
  Ge  Ge11  1  -0.00000000  0.02196000  0.49999999  1
