# generated using pymatgen
data_BaSr3S4
_symmetry_space_group_name_H-M   'P 1'
_cell_length_a   4.26647377
_cell_length_b   4.26647425
_cell_length_c   16.02652931
_cell_angle_alpha   90.00000000
_cell_angle_beta   90.00000000
_cell_angle_gamma   120.00000000
_symmetry_Int_Tables_number   1
_chemical_formula_structural   BaSr3S4
_chemical_formula_sum   'Ba1 Sr3 S4'
_cell_volume   252.64361237
_cell_formula_units_Z   1
loop_
 _symmetry_equiv_pos_site_id
 _symmetry_equiv_pos_as_xyz
  1  'x, y, z'
loop_
 _atom_site_type_symbol
 _atom_site_label
 _atom_site_symmetry_multiplicity
 _atom_site_fract_x
 _atom_site_fract_y
 _atom_site_fract_z
 _atom_site_occupancy
  Sr  Sr0  1  0.66666671  0.33333333  0.75000003  1
  Sr  Sr1  1  0.33333336  0.66666665  0.25000001  1
  Sr  Sr2  1  0.00000000  0.00000000  0.50000002  1
  Ba  Ba3  1  0.00000000  0.00000000  0.00000000  1
  S  S4  1  0.66666671  0.33333333  0.09198600  1
  S  S5  1  0.33333336  0.66666665  0.90801404  1
  S  S6  1  0.33333336  0.66666665  0.59198603  1
  S  S7  1  0.66666671  0.33333333  0.40801402  1
