# generated using pymatgen
data_Lu2AlSi4
_symmetry_space_group_name_H-M   'P 1'
_cell_length_a   4.18765211
_cell_length_b   8.13879108
_cell_length_c   8.13879108
_cell_angle_alpha   75.42254639
_cell_angle_beta   75.09216309
_cell_angle_gamma   75.09216309
_symmetry_Int_Tables_number   1
_chemical_formula_structural   Lu2AlSi4
_chemical_formula_sum   'Lu4 Al2 Si8'
_cell_volume   253.86822171
_cell_formula_units_Z   2
loop_
 _symmetry_equiv_pos_site_id
 _symmetry_equiv_pos_as_xyz
  1  'x, y, z'
loop_
 _atom_site_type_symbol
 _atom_site_label
 _atom_site_symmetry_multiplicity
 _atom_site_fract_x
 _atom_site_fract_y
 _atom_site_fract_z
 _atom_site_occupancy
  Lu  Lu0  1  0.50000000  0.50000002  0.50000000  1
  Lu  Lu1  1  0.17200102  0.82799903  0.82799899  1
  Lu  Lu2  1  0.82799898  0.17200101  0.17200100  1
  Lu  Lu3  1  0.37313900  0.33912401  0.91459802  1
  Si  Si4  1  0.62686100  0.66087602  0.08540198  1
  Al  Al5  1  0.37313902  0.91459803  0.33912398  1
  Al  Al6  1  0.62686098  0.08540200  0.66087602  1
  Si  Si7  1  0.16401201  0.46307102  0.20890599  1
  Si  Si8  1  0.83598799  0.53692902  0.79109401  1
  Si  Si9  1  0.16401100  0.20890701  0.46307101  1
  Si  Si10  1  0.83598900  0.79109303  0.53692899  1
  Si  Si11  1  0.50000002  1.00000003  0.99999999  1
  Si  Si12  1  1.00000000  0.78774303  0.21225698  1
  Si  Si13  1  0.99999998  0.21225701  0.78774302  1
