# generated using pymatgen
data_Li6CoO8
_symmetry_space_group_name_H-M   'P 1'
_cell_length_a   5.82602310
_cell_length_b   5.85040045
_cell_length_c   5.85040045
_cell_angle_alpha   88.57759094
_cell_angle_beta   60.83786774
_cell_angle_gamma   119.16213226
_symmetry_Int_Tables_number   1
_chemical_formula_structural   Li6CoO8
_chemical_formula_sum   'Li6 Co1 O8'
_cell_volume   142.78347647
_cell_formula_units_Z   1
loop_
 _symmetry_equiv_pos_site_id
 _symmetry_equiv_pos_as_xyz
  1  'x, y, z'
loop_
 _atom_site_type_symbol
 _atom_site_label
 _atom_site_symmetry_multiplicity
 _atom_site_fract_x
 _atom_site_fract_y
 _atom_site_fract_z
 _atom_site_occupancy
  Li  Li0  1  0.49999999  0.00000000  0.00000001  1
  Li  Li1  1  0.49999999  0.00000000  0.50000000  1
  Li  Li2  1  0.49999994  0.49999996  0.00000006  1
  Li  Li3  1  0.49999994  0.49999996  0.50000004  1
  Li  Li4  1  -0.00000005  0.49999996  0.00000004  1
  Li  Li5  1  0.00000000  0.00000000  0.00000000  1
  Co  Co6  1  0.00000000  0.00000000  0.49999998  1
  O  O7  1  0.49999992  0.74936394  0.74936406  1
  O  O8  1  0.00029793  0.75041694  0.24958306  1
  O  O9  1  -0.00000002  0.24354098  0.24354101  1
  O  O10  1  0.46236097  0.24444998  0.75555001  1
  O  O11  1  0.53763892  0.75554994  0.24445007  1
  O  O12  1  0.99999991  0.75645894  0.75645907  1
  O  O13  1  0.99970195  0.24958298  0.75041703  1
  O  O14  1  0.49999997  0.25063598  0.25063603  1
