# generated using pymatgen
data_DySi2
_symmetry_space_group_name_H-M   'P 1'
_cell_length_a   4.99126005
_cell_length_b   5.03403664
_cell_length_c   5.01834822
_cell_angle_alpha   119.89695740
_cell_angle_beta   90.00000000
_cell_angle_gamma   119.71929932
_symmetry_Int_Tables_number   1
_chemical_formula_structural   DySi2
_chemical_formula_sum   'Dy2 Si4'
_cell_volume   89.67492407
_cell_formula_units_Z   2
loop_
 _symmetry_equiv_pos_site_id
 _symmetry_equiv_pos_as_xyz
  1  'x, y, z'
loop_
 _atom_site_type_symbol
 _atom_site_label
 _atom_site_symmetry_multiplicity
 _atom_site_fract_x
 _atom_site_fract_y
 _atom_site_fract_z
 _atom_site_occupancy
  Dy  Dy0  1  0.87745995  0.75491997  0.12745995  1
  Dy  Dy1  1  0.12253999  0.24507999  0.87253995  1
  Si  Si2  1  0.49999997  0.49999998  0.49999995  1
  Si  Si3  1  0.99999996  0.49999998  0.49999995  1
  Si  Si4  1  0.49999994  0.99999996  0.99999990  1
  Si  Si5  1  0.50000000  0.00000000  0.49999998  1
