# generated using pymatgen
data_NbFe2
_symmetry_space_group_name_H-M   'P 1'
_cell_length_a   4.88903856
_cell_length_b   4.88903856
_cell_length_c   4.88903856
_cell_angle_alpha   61.55155945
_cell_angle_beta   61.55155945
_cell_angle_gamma   61.55155945
_symmetry_Int_Tables_number   1
_chemical_formula_structural   NbFe2
_chemical_formula_sum   'Nb2 Fe4'
_cell_volume   85.51031271
_cell_formula_units_Z   2
loop_
 _symmetry_equiv_pos_site_id
 _symmetry_equiv_pos_as_xyz
  1  'x, y, z'
loop_
 _atom_site_type_symbol
 _atom_site_label
 _atom_site_symmetry_multiplicity
 _atom_site_fract_x
 _atom_site_fract_y
 _atom_site_fract_z
 _atom_site_occupancy
  Nb  Nb0  1  0.37340200  0.37340202  0.37340201  1
  Nb  Nb1  1  0.62659800  0.62659803  0.62659802  1
  Fe  Fe2  1  0.00000000  0.00000000  0.00000000  1
  Fe  Fe3  1  0.50000002  0.00000000  -0.00000000  1
  Fe  Fe4  1  -0.00000002  0.50000002  0.00000000  1
  Fe  Fe5  1  0.00000000  0.00000000  0.50000002  1
