# generated using pymatgen
data_Pr(CoSi)2
_symmetry_space_group_name_H-M   'P 1'
_cell_length_a   4.03563786
_cell_length_b   4.03563786
_cell_length_c   5.91274977
_cell_angle_alpha   109.95401001
_cell_angle_beta   109.95401001
_cell_angle_gamma   90.00000000
_symmetry_Int_Tables_number   1
_chemical_formula_structural   Pr(CoSi)2
_chemical_formula_sum   'Pr1 Co2 Si2'
_cell_volume   84.33986266
_cell_formula_units_Z   1
loop_
 _symmetry_equiv_pos_site_id
 _symmetry_equiv_pos_as_xyz
  1  'x, y, z'
loop_
 _atom_site_type_symbol
 _atom_site_label
 _atom_site_symmetry_multiplicity
 _atom_site_fract_x
 _atom_site_fract_y
 _atom_site_fract_z
 _atom_site_occupancy
  Pr  Pr0  1  0.00000000  0.00000000  0.00000000  1
  Co  Co1  1  0.75000003  0.25000001  0.50000000  1
  Co  Co2  1  0.25000001  0.75000003  0.50000000  1
  Si  Si3  1  0.61859203  0.61859202  0.23718400  1
  Si  Si4  1  0.38140802  0.38140801  0.76281599  1
