# generated using pymatgen
data_Eu2GaNiGe2
_symmetry_space_group_name_H-M   'P 1'
_cell_length_a   4.24349594
_cell_length_b   4.24349594
_cell_length_c   7.86266422
_cell_angle_alpha   90.00000000
_cell_angle_beta   90.00000000
_cell_angle_gamma   120.00000000
_symmetry_Int_Tables_number   1
_chemical_formula_structural   Eu2GaNiGe2
_chemical_formula_sum   'Eu2 Ga1 Ni1 Ge2'
_cell_volume   122.61622557
_cell_formula_units_Z   1
loop_
 _symmetry_equiv_pos_site_id
 _symmetry_equiv_pos_as_xyz
  1  'x, y, z'
loop_
 _atom_site_type_symbol
 _atom_site_label
 _atom_site_symmetry_multiplicity
 _atom_site_fract_x
 _atom_site_fract_y
 _atom_site_fract_z
 _atom_site_occupancy
  Eu  Eu0  1  0.00000000  0.00000000  0.49999999  1
  Eu  Eu1  1  0.00000000  0.00000000  0.00000000  1
  Ga  Ga2  1  0.33333331  0.66666662  0.74999998  1
  Ni  Ni3  1  0.66666666  0.33333331  0.24999999  1
  Ge  Ge4  1  0.66666666  0.33333331  0.74999998  1
  Ge  Ge5  1  0.33333331  0.66666662  0.24999999  1
