# generated using pymatgen
data_LiCuO4
_symmetry_space_group_name_H-M   'P 1'
_cell_length_a   5.27976227
_cell_length_b   5.47535181
_cell_length_c   6.85044384
_cell_angle_alpha   112.43708038
_cell_angle_beta   111.51393127
_cell_angle_gamma   92.67220306
_symmetry_Int_Tables_number   1
_chemical_formula_structural   LiCuO4
_chemical_formula_sum   'Li2 Cu2 O8'
_cell_volume   166.23448934
_cell_formula_units_Z   2
loop_
 _symmetry_equiv_pos_site_id
 _symmetry_equiv_pos_as_xyz
  1  'x, y, z'
loop_
 _atom_site_type_symbol
 _atom_site_label
 _atom_site_symmetry_multiplicity
 _atom_site_fract_x
 _atom_site_fract_y
 _atom_site_fract_z
 _atom_site_occupancy
  Li  Li0  1  0.87727802  0.62727798  0.25455603  1
  Li  Li1  1  0.12272199  0.37272199  0.74544403  1
  Cu  Cu2  1  0.36199701  0.11199700  0.22399402  1
  Cu  Cu3  1  0.63800300  0.88800297  0.77600604  1
  O  O4  1  0.21161801  0.05316200  0.41638102  1
  O  O5  1  0.70476302  0.36321899  0.41638103  1
  O  O6  1  0.78838200  0.94683796  0.58361904  1
  O  O7  1  0.29523699  0.63678098  0.58361903  1
  O  O8  1  0.90024202  0.71836397  0.93096606  1
  O  O9  1  0.53072402  0.21260199  0.93096605  1
  O  O10  1  0.09975800  0.28163599  0.06903401  1
  O  O11  1  0.46927600  0.78739797  0.06903402  1
