# generated using pymatgen
data_Ce4In3Bi3Sb4
_symmetry_space_group_name_H-M   'P 1'
_cell_length_a   4.41733217
_cell_length_b   4.41749287
_cell_length_c   21.81827736
_cell_angle_alpha   90.00000000
_cell_angle_beta   95.81000519
_cell_angle_gamma   90.00000000
_symmetry_Int_Tables_number   1
_chemical_formula_structural   Ce4In3Bi3Sb4
_chemical_formula_sum   'Ce4 In3 Bi3 Sb4'
_cell_volume   423.56461667
_cell_formula_units_Z   1
loop_
 _symmetry_equiv_pos_site_id
 _symmetry_equiv_pos_as_xyz
  1  'x, y, z'
loop_
 _atom_site_type_symbol
 _atom_site_label
 _atom_site_symmetry_multiplicity
 _atom_site_fract_x
 _atom_site_fract_y
 _atom_site_fract_z
 _atom_site_occupancy
  Ce  Ce0  1  0.90330396  0.75000002  0.80660800  1
  Ce  Ce1  1  0.09669600  0.25000001  0.19339200  1
  Ce  Ce2  1  0.69282397  0.75000002  0.38564800  1
  Ce  Ce3  1  0.30717599  0.25000001  0.61435200  1
  In  In4  1  0.04189300  0.75000002  0.08378600  1
  In  In5  1  0.95810696  0.25000001  0.91621400  1
  Sb  Sb6  1  0.45781598  0.75000002  0.91563200  1
  In  In7  1  0.54218398  0.25000001  0.08436799  1
  Bi  Bi8  1  0.24998999  0.75000002  0.49998000  1
  Bi  Bi9  1  0.75000997  0.25000001  0.50002000  1
  Sb  Sb10  1  0.82660796  0.75000002  0.65321600  1
  Bi  Bi11  1  0.17339199  0.25000001  0.34678400  1
  Sb  Sb12  1  0.61827397  0.75000002  0.23654800  1
  Sb  Sb13  1  0.38172598  0.25000001  0.76345200  1
