# generated using pymatgen
data_FeSi4
_symmetry_space_group_name_H-M   'P 1'
_cell_length_a   2.96544504
_cell_length_b   9.10841751
_cell_length_c   9.15723038
_cell_angle_alpha   90.17316437
_cell_angle_beta   90.00000000
_cell_angle_gamma   90.00000000
_symmetry_Int_Tables_number   1
_chemical_formula_structural   FeSi4
_chemical_formula_sum   'Fe4 Si16'
_cell_volume   247.34034719
_cell_formula_units_Z   4
loop_
 _symmetry_equiv_pos_site_id
 _symmetry_equiv_pos_as_xyz
  1  'x, y, z'
loop_
 _atom_site_type_symbol
 _atom_site_label
 _atom_site_symmetry_multiplicity
 _atom_site_fract_x
 _atom_site_fract_y
 _atom_site_fract_z
 _atom_site_occupancy
  Fe  Fe0  1  -0.00000000  0.17648200  0.68207800  1
  Fe  Fe1  1  -0.00000000  0.82351799  0.31792199  1
  Fe  Fe2  1  0.00000000  0.32176200  0.17388500  1
  Fe  Fe3  1  0.00000000  0.67823800  0.82611499  1
  Si  Si4  1  0.00000000  0.50000000  0.49999999  1
  Si  Si5  1  0.00000000  0.00000000  0.00000000  1
  Si  Si6  1  -0.00000000  0.62580800  0.12650999  1
  Si  Si7  1  -0.00000000  0.37419200  0.87349000  1
  Si  Si8  1  0.00000000  0.87586999  0.62709899  1
  Si  Si9  1  -0.00000000  0.12413000  0.37290100  1
  Si  Si10  1  0.49999999  0.78719599  0.07274799  1
  Si  Si11  1  0.49999999  0.21280400  0.92725200  1
  Si  Si12  1  0.49999999  0.57196300  0.28752599  1
  Si  Si13  1  0.49999999  0.42803700  0.71247400  1
  Si  Si14  1  0.49999999  0.07333300  0.21322500  1
  Si  Si15  1  0.49999999  0.92666699  0.78677499  1
  Si  Si16  1  0.49999999  0.00000000  0.50000000  1
  Si  Si17  1  0.49999999  0.50000000  -0.00000001  1
  Si  Si18  1  0.49999999  0.71518800  0.57251999  1
  Si  Si19  1  0.49999999  0.28481200  0.42748000  1
