# generated using pymatgen
data_Li3MgS4
_symmetry_space_group_name_H-M   'P 1'
_cell_length_a   5.70658779
_cell_length_b   5.70658779
_cell_length_c   6.99923515
_cell_angle_alpha   114.05780029
_cell_angle_beta   114.05780029
_cell_angle_gamma   90.00000000
_symmetry_Int_Tables_number   1
_chemical_formula_structural   Li3MgS4
_chemical_formula_sum   'Li3 Mg1 S4'
_cell_volume   186.23935958
_cell_formula_units_Z   1
loop_
 _symmetry_equiv_pos_site_id
 _symmetry_equiv_pos_as_xyz
  1  'x, y, z'
loop_
 _atom_site_type_symbol
 _atom_site_label
 _atom_site_symmetry_multiplicity
 _atom_site_fract_x
 _atom_site_fract_y
 _atom_site_fract_z
 _atom_site_occupancy
  Li  Li0  1  0.75000007  0.25000002  0.50000007  1
  Li  Li1  1  0.00000000  0.00000000  0.00000000  1
  Li  Li2  1  0.25000007  0.75000006  0.50000009  1
  Mg  Mg3  1  0.50000007  0.50000004  0.00000007  1
  S  S4  1  0.37500009  0.89655207  0.25000010  1
  S  S5  1  0.64655209  0.62500005  0.75000010  1
  S  S6  1  0.10344802  0.12500001  0.75000003  1
  S  S7  1  0.87500008  0.35344803  0.25000009  1
