# generated using pymatgen
data_Y2Ge3
_symmetry_space_group_name_H-M   'P 1'
_cell_length_a   3.55263901
_cell_length_b   7.93274403
_cell_length_c   7.93274403
_cell_angle_alpha   90.00000000
_cell_angle_beta   90.00000000
_cell_angle_gamma   90.00000000
_symmetry_Int_Tables_number   1
_chemical_formula_structural   Y2Ge3
_chemical_formula_sum   'Y4 Ge6'
_cell_volume   223.56198723
_cell_formula_units_Z   2
loop_
 _symmetry_equiv_pos_site_id
 _symmetry_equiv_pos_as_xyz
  1  'x, y, z'
loop_
 _atom_site_type_symbol
 _atom_site_label
 _atom_site_symmetry_multiplicity
 _atom_site_fract_x
 _atom_site_fract_y
 _atom_site_fract_z
 _atom_site_occupancy
  Y  Y0  1  0.50000000  0.66911400  0.16911400  1
  Y  Y1  1  0.50000000  0.16911400  0.33088600  1
  Y  Y2  1  0.50000000  0.83088600  0.66911400  1
  Y  Y3  1  0.50000000  0.33088600  0.83088600  1
  Ge  Ge4  1  0.00000000  0.37371700  0.12628300  1
  Ge  Ge5  1  0.00000000  0.12628300  0.62628300  1
  Ge  Ge6  1  0.00000000  0.62628300  0.87371700  1
  Ge  Ge7  1  0.00000000  0.87371700  0.37371700  1
  Ge  Ge8  1  0.00000000  0.00000000  0.00000000  1
  Ge  Ge9  1  0.00000000  0.50000000  0.50000000  1
