# generated using pymatgen
data_TaFe5Si3
_symmetry_space_group_name_H-M   'P 1'
_cell_length_a   4.77708006
_cell_length_b   4.77708054
_cell_length_c   11.69867706
_cell_angle_alpha   90.00000000
_cell_angle_beta   90.00000000
_cell_angle_gamma   120.00000000
_symmetry_Int_Tables_number   1
_chemical_formula_structural   TaFe5Si3
_chemical_formula_sum   'Ta2 Fe10 Si6'
_cell_volume   231.20246871
_cell_formula_units_Z   2
loop_
 _symmetry_equiv_pos_site_id
 _symmetry_equiv_pos_as_xyz
  1  'x, y, z'
loop_
 _atom_site_type_symbol
 _atom_site_label
 _atom_site_symmetry_multiplicity
 _atom_site_fract_x
 _atom_site_fract_y
 _atom_site_fract_z
 _atom_site_occupancy
  Fe  Fe0  1  0.00000000  0.00000000  0.00015500  1
  Ta  Ta1  1  0.33333336  0.66666665  0.66509100  1
  Ta  Ta2  1  0.66666667  0.33333333  0.33441900  1
  Fe  Fe3  1  0.16940401  0.33880799  0.21132000  1
  Fe  Fe4  1  0.50075499  0.00151000  0.87106900  1
  Fe  Fe5  1  0.83487602  0.66975198  0.54129000  1
  Fe  Fe6  1  0.16940403  0.83059598  0.21132000  1
  Fe  Fe7  1  0.50075502  0.49924499  0.87106900  1
  Fe  Fe8  1  0.83487600  0.16512400  0.54129000  1
  Fe  Fe9  1  0.33333336  0.66666665  0.04359000  1
  Fe  Fe10  1  0.66666667  0.33333333  0.70809100  1
  Fe  Fe11  1  0.00000000  0.00000000  0.37715600  1
  Si  Si12  1  0.66119203  0.83059598  0.21132000  1
  Si  Si13  1  0.99849001  0.49924499  0.87106900  1
  Si  Si14  1  0.33024800  0.16512400  0.54129000  1
  Si  Si15  1  0.00000000  0.00000000  0.74469500  1
  Si  Si16  1  0.33333336  0.66666665  0.41691300  1
  Si  Si17  1  0.66666667  0.33333333  0.08885300  1
