# generated using pymatgen
data_Li4Mn3S8
_symmetry_space_group_name_H-M   'P 1'
_cell_length_a   6.65851498
_cell_length_b   6.73156309
_cell_length_c   6.79470444
_cell_angle_alpha   89.11258698
_cell_angle_beta   89.24878693
_cell_angle_gamma   87.91486359
_symmetry_Int_Tables_number   1
_chemical_formula_structural   Li4Mn3S8
_chemical_formula_sum   'Li4 Mn3 S8'
_cell_volume   304.29154125
_cell_formula_units_Z   1
loop_
 _symmetry_equiv_pos_site_id
 _symmetry_equiv_pos_as_xyz
  1  'x, y, z'
loop_
 _atom_site_type_symbol
 _atom_site_label
 _atom_site_symmetry_multiplicity
 _atom_site_fract_x
 _atom_site_fract_y
 _atom_site_fract_z
 _atom_site_occupancy
  Li  Li0  1  0.00000000  0.00000000  0.00000000  1
  Li  Li1  1  0.56742498  0.41651701  0.23325000  1
  Li  Li2  1  0.43257497  0.58348301  0.76675000  1
  Li  Li3  1  0.41801599  0.23352500  0.56388701  1
  Mn  Mn4  1  0.58198397  0.76647501  0.43611299  1
  Mn  Mn5  1  0.24177597  0.56369901  0.41952599  1
  Mn  Mn6  1  0.75822398  0.43630101  0.58047401  1
  S  S7  1  0.26099099  0.24574000  0.25218000  1
  S  S8  1  0.73900897  0.75426001  0.74782000  1
  S  S9  1  0.39203997  0.73021001  0.12582698  1
  S  S10  1  0.60795999  0.26979000  0.87417303  1
  S  S11  1  0.73358000  0.12317100  0.38671103  1
  S  S12  1  0.26641996  0.87682901  0.61328898  1
  S  S13  1  0.12568198  0.39161701  0.73312400  1
  S  S14  1  0.87431797  0.60838301  0.26687600  1
