# generated using pymatgen
data_PrGa2
_symmetry_space_group_name_H-M   'P 1'
_cell_length_a   4.32969522
_cell_length_b   4.36334991
_cell_length_c   7.54475212
_cell_angle_alpha   90.00000000
_cell_angle_beta   90.00000000
_cell_angle_gamma   90.00000000
_symmetry_Int_Tables_number   1
_chemical_formula_structural   PrGa2
_chemical_formula_sum   'Pr2 Ga4'
_cell_volume   142.53527063
_cell_formula_units_Z   2
loop_
 _symmetry_equiv_pos_site_id
 _symmetry_equiv_pos_as_xyz
  1  'x, y, z'
loop_
 _atom_site_type_symbol
 _atom_site_label
 _atom_site_symmetry_multiplicity
 _atom_site_fract_x
 _atom_site_fract_y
 _atom_site_fract_z
 _atom_site_occupancy
  Pr  Pr0  1  -0.00000000  0.50000001  0.00155600  1
  Pr  Pr1  1  0.00000000  0.00000000  0.49855999  1
  Ga  Ga2  1  0.49999997  0.00000000  0.83225099  1
  Ga  Ga3  1  0.49999997  0.00000000  0.16687400  1
  Ga  Ga4  1  0.49999997  0.50000001  0.66595999  1
  Ga  Ga5  1  0.49999997  0.50000001  0.33479899  1
