# generated using pymatgen
data_Mg4Ni9
_symmetry_space_group_name_H-M   'P 1'
_cell_length_a   5.18552017
_cell_length_b   5.18656588
_cell_length_c   8.13187790
_cell_angle_alpha   90.00000000
_cell_angle_beta   90.00000000
_cell_angle_gamma   119.99333191
_symmetry_Int_Tables_number   1
_chemical_formula_structural   Mg4Ni9
_chemical_formula_sum   'Mg4 Ni9'
_cell_volume   189.41871427
_cell_formula_units_Z   1
loop_
 _symmetry_equiv_pos_site_id
 _symmetry_equiv_pos_as_xyz
  1  'x, y, z'
loop_
 _atom_site_type_symbol
 _atom_site_label
 _atom_site_symmetry_multiplicity
 _atom_site_fract_x
 _atom_site_fract_y
 _atom_site_fract_z
 _atom_site_occupancy
  Mg  Mg0  1  0.99999496  0.00000000  0.00000000  1
  Mg  Mg1  1  0.49998798  0.00000000  0.25072200  1
  Mg  Mg2  1  0.50000401  0.49998704  0.25063300  1
  Mg  Mg3  1  0.00001603  0.50001304  0.25063300  1
  Ni  Ni4  1  0.49998798  0.00000000  0.74927801  1
  Ni  Ni5  1  0.50000401  0.49998704  0.74936701  1
  Ni  Ni6  1  0.00001603  0.50001304  0.74936701  1
  Ni  Ni7  1  0.33333336  0.66666671  -0.00000000  1
  Ni  Ni8  1  0.66666666  0.33333336  -0.00000000  1
  Ni  Ni9  1  0.33321303  0.66657105  0.50000001  1
  Ni  Ni10  1  0.66666666  0.33342902  0.50000001  1
  Ni  Ni11  1  0.99998196  0.00000000  0.34097100  1
  Ni  Ni12  1  0.99998196  0.00000000  0.65902901  1
