# generated using pymatgen
data_Li3Cu2H5O8
_symmetry_space_group_name_H-M   'P 1'
_cell_length_a   5.47208309
_cell_length_b   6.48863983
_cell_length_c   8.21140480
_cell_angle_alpha   113.27216339
_cell_angle_beta   104.21228790
_cell_angle_gamma   90.00000000
_symmetry_Int_Tables_number   1
_chemical_formula_structural   Li3Cu2H5O8
_chemical_formula_sum   'Li3 Cu2 H5 O8'
_cell_volume   258.09301239
_cell_formula_units_Z   1
loop_
 _symmetry_equiv_pos_site_id
 _symmetry_equiv_pos_as_xyz
  1  'x, y, z'
loop_
 _atom_site_type_symbol
 _atom_site_label
 _atom_site_symmetry_multiplicity
 _atom_site_fract_x
 _atom_site_fract_y
 _atom_site_fract_z
 _atom_site_occupancy
  Li  Li0  1  0.01783198  0.85032701  0.53884297  1
  Li  Li1  1  0.98216797  0.31148400  0.46115697  1
  Li  Li2  1  0.75877697  0.51962300  0.18217397  1
  Cu  Cu3  1  0.24122299  0.33744900  0.81782598  1
  Cu  Cu4  1  0.05360798  0.52291900  0.20718698  1
  H  H5  1  0.94639197  0.31573200  0.79281296  1
  H  H6  1  0.34553299  0.02265400  0.04813399  1
  H  H7  1  0.65446696  0.97452001  0.95186595  1
  H  H8  1  0.41789597  0.90337701  0.26821996  1
  H  H9  1  0.58210397  0.63515701  0.73177996  1
  O  O10  1  0.38584897  0.65536501  0.18314097  1
  O  O11  1  0.61415097  0.47222400  0.81685897  1
  O  O12  1  0.21856797  0.99950001  0.35821496  1
  O  O13  1  0.78143197  0.64128501  0.64178496  1
  O  O14  1  0.67623896  0.99964301  0.38276595  1
  O  O15  1  0.32376098  0.61687701  0.61723397  1
  O  O16  1  0.91708797  0.49967600  0.25854496  1
  O  O17  1  0.08291199  0.24113100  0.74145499  1
