# generated using pymatgen
data_Rb4GeF
_symmetry_space_group_name_H-M   'P 1'
_cell_length_a   4.59503889
_cell_length_b   7.37104082
_cell_length_c   8.02273083
_cell_angle_alpha   89.73227692
_cell_angle_beta   90.00000000
_cell_angle_gamma   90.00000000
_symmetry_Int_Tables_number   1
_chemical_formula_structural   Rb4GeF
_chemical_formula_sum   'Rb4 Ge1 F1'
_cell_volume   271.72868557
_cell_formula_units_Z   1
loop_
 _symmetry_equiv_pos_site_id
 _symmetry_equiv_pos_as_xyz
  1  'x, y, z'
loop_
 _atom_site_type_symbol
 _atom_site_label
 _atom_site_symmetry_multiplicity
 _atom_site_fract_x
 _atom_site_fract_y
 _atom_site_fract_z
 _atom_site_occupancy
  Rb  Rb0  1  0.50000001  0.00000000  0.49999998  1
  Rb  Rb1  1  0.00000000  0.00000000  0.00000000  1
  Rb  Rb2  1  -0.00000000  0.24137901  0.65791697  1
  Rb  Rb3  1  0.50000001  0.24788001  0.17652599  1
  F  F4  1  0.50000001  0.75212002  0.82347395  1
  Ge  Ge5  1  -0.00000000  0.75862102  0.34208297  1
