# generated using pymatgen
data_Sr2MnCuO6
_symmetry_space_group_name_H-M   'P 1'
_cell_length_a   5.50222015
_cell_length_b   5.50366879
_cell_length_c   9.62244225
_cell_angle_alpha   106.45919037
_cell_angle_beta   90.12229919
_cell_angle_gamma   119.95418549
_symmetry_Int_Tables_number   1
_chemical_formula_structural   Sr2MnCuO6
_chemical_formula_sum   'Sr4 Mn2 Cu2 O12'
_cell_volume   238.47904830
_cell_formula_units_Z   2
loop_
 _symmetry_equiv_pos_site_id
 _symmetry_equiv_pos_as_xyz
  1  'x, y, z'
loop_
 _atom_site_type_symbol
 _atom_site_label
 _atom_site_symmetry_multiplicity
 _atom_site_fract_x
 _atom_site_fract_y
 _atom_site_fract_z
 _atom_site_occupancy
  Sr  Sr0  1  0.37505500  0.25003898  0.62503499  1
  Sr  Sr1  1  0.62494099  0.75025295  0.37537199  1
  Sr  Sr2  1  0.87500000  0.24995698  0.12493102  1
  Sr  Sr3  1  0.12504298  0.74973595  0.87461396  1
  Mn  Mn4  1  0.74934599  0.99869494  0.74808098  1
  Mn  Mn5  1  0.00065499  0.50127597  0.50185497  1
  Cu  Cu6  1  0.24795598  0.99559394  0.24410797  1
  Cu  Cu7  1  0.50204299  0.50445797  0.00598500  1
  O  O8  1  0.87497199  0.74996995  0.62497699  1
  O  O9  1  0.12663300  0.25688898  0.38162499  1
  O  O10  1  0.37496299  0.74998495  0.12501299  1
  O  O11  1  0.62345600  0.24309998  0.86838600  1
  O  O12  1  0.12571298  0.75327395  0.38229797  1
  O  O13  1  0.37496400  0.24999798  0.12501400  1
  O  O14  1  0.62436999  0.74681395  0.86770598  1
  O  O15  1  0.87495400  0.24997298  0.62498101  1
  O  O16  1  0.37498999  0.75000995  0.62501898  1
  O  O17  1  0.63051000  0.25654398  0.38218800  1
  O  O18  1  0.87495899  0.74999795  0.12503100  1
  O  O19  1  0.11947900  0.24343698  0.86778298  1
