# generated using pymatgen
data_Nb3Al
_symmetry_space_group_name_H-M   'P 1'
_cell_length_a   4.70364380
_cell_length_b   5.81477594
_cell_length_c   5.81477547
_cell_angle_alpha   120.00000000
_cell_angle_beta   90.00000000
_cell_angle_gamma   90.00000000
_symmetry_Int_Tables_number   1
_chemical_formula_structural   Nb3Al
_chemical_formula_sum   'Nb6 Al2'
_cell_volume   137.73077522
_cell_formula_units_Z   2
loop_
 _symmetry_equiv_pos_site_id
 _symmetry_equiv_pos_as_xyz
  1  'x, y, z'
loop_
 _atom_site_type_symbol
 _atom_site_label
 _atom_site_symmetry_multiplicity
 _atom_site_fract_x
 _atom_site_fract_y
 _atom_site_fract_z
 _atom_site_occupancy
  Nb  Nb0  1  0.75000003  0.82921098  0.17078894  1
  Nb  Nb1  1  0.75000003  0.34157799  0.17078897  1
  Nb  Nb2  1  0.75000003  0.82921098  0.65842193  1
  Nb  Nb3  1  0.25000001  0.17078900  0.82921097  1
  Nb  Nb4  1  0.25000001  0.65842198  0.82921094  1
  Nb  Nb5  1  0.25000001  0.17078900  0.34157798  1
  Al  Al6  1  0.25000001  0.66666665  0.33333328  1
  Al  Al7  1  0.75000003  0.33333332  0.66666663  1
