# generated using pymatgen
data_LaCe2As3F10
_symmetry_space_group_name_H-M   'P 1'
_cell_length_a   4.74834919
_cell_length_b   5.82888317
_cell_length_c   10.16479397
_cell_angle_alpha   90.00000000
_cell_angle_beta   90.00000000
_cell_angle_gamma   90.00000000
_symmetry_Int_Tables_number   1
_chemical_formula_structural   LaCe2As3F10
_chemical_formula_sum   'La1 Ce2 As3 F10'
_cell_volume   281.33682386
_cell_formula_units_Z   1
loop_
 _symmetry_equiv_pos_site_id
 _symmetry_equiv_pos_as_xyz
  1  'x, y, z'
loop_
 _atom_site_type_symbol
 _atom_site_label
 _atom_site_symmetry_multiplicity
 _atom_site_fract_x
 _atom_site_fract_y
 _atom_site_fract_z
 _atom_site_occupancy
  La  La0  1  0.49999998  0.00000000  0.16523100  1
  Ce  Ce1  1  0.49999998  0.49999999  0.66477300  1
  Ce  Ce2  1  0.49999998  0.74049198  0.41166800  1
  As  As3  1  0.49999998  0.24992599  0.92714600  1
  As  As4  1  0.49999998  0.25950799  0.41166800  1
  F  F5  1  0.49999998  0.75007398  0.92714600  1
  F  F6  1  0.00000000  0.49999999  0.33232500  1
  As  As7  1  0.00000000  0.00000000  0.83414400  1
  F  F8  1  0.00000000  0.74970398  0.08153200  1
  F  F9  1  0.00000000  0.25618099  0.58112600  1
  F  F10  1  0.00000000  0.25029599  0.08153200  1
  F  F11  1  0.00000000  0.74381898  0.58112600  1
  F  F12  1  0.49999998  0.49999999  0.16776600  1
  F  F13  1  0.49999998  0.00000000  0.66646800  1
  F  F14  1  0.00000000  0.00000000  0.33453000  1
  F  F15  1  0.00000000  0.49999999  0.83177300  1
