# generated using pymatgen
data_SrSnHg14
_symmetry_space_group_name_H-M   'P 1'
_cell_length_a   9.19288349
_cell_length_b   9.19288349
_cell_length_c   9.19288349
_cell_angle_alpha   60.00000000
_cell_angle_beta   60.00000000
_cell_angle_gamma   60.00000000
_symmetry_Int_Tables_number   1
_chemical_formula_structural   SrSnHg14
_chemical_formula_sum   'Sr1 Sn1 Hg14'
_cell_volume   549.33879456
_cell_formula_units_Z   1
loop_
 _symmetry_equiv_pos_site_id
 _symmetry_equiv_pos_as_xyz
  1  'x, y, z'
loop_
 _atom_site_type_symbol
 _atom_site_label
 _atom_site_symmetry_multiplicity
 _atom_site_fract_x
 _atom_site_fract_y
 _atom_site_fract_z
 _atom_site_occupancy
  Sr  Sr0  1  0.87499997  0.87499997  0.87499997  1
  Hg  Hg1  1  0.87499997  0.37499999  0.87499997  1
  Hg  Hg2  1  0.87499997  0.87499997  0.37499999  1
  Hg  Hg3  1  0.37499999  0.87499997  0.87499997  1
  Hg  Hg4  1  0.37499999  0.37499999  0.37499999  1
  Hg  Hg5  1  0.87499997  0.37499999  0.37499999  1
  Hg  Hg6  1  0.37499999  0.37499999  0.87499997  1
  Hg  Hg7  1  0.37499999  0.87499997  0.37499999  1
  Hg  Hg8  1  0.62216798  0.62216898  0.62216898  1
  Sn  Sn9  1  0.12783199  0.12783099  0.12783099  1
  Hg  Hg10  1  0.12783199  0.61650598  0.12783099  1
  Hg  Hg11  1  0.61650698  0.12783099  0.12783099  1
  Hg  Hg12  1  0.62216798  0.62216898  0.13349399  1
  Hg  Hg13  1  0.62216798  0.13349399  0.62216898  1
  Hg  Hg14  1  0.13349299  0.62216898  0.62216898  1
  Hg  Hg15  1  0.12783199  0.12783099  0.61650598  1
