# generated using pymatgen
data_Sc2S3
_symmetry_space_group_name_H-M   'P 1'
_cell_length_a   6.40112019
_cell_length_b   6.52896118
_cell_length_c   9.02851486
_cell_angle_alpha   90.00000000
_cell_angle_beta   90.00000000
_cell_angle_gamma   90.00000000
_symmetry_Int_Tables_number   1
_chemical_formula_structural   Sc2S3
_chemical_formula_sum   'Sc8 S12'
_cell_volume   377.32569900
_cell_formula_units_Z   4
loop_
 _symmetry_equiv_pos_site_id
 _symmetry_equiv_pos_as_xyz
  1  'x, y, z'
loop_
 _atom_site_type_symbol
 _atom_site_label
 _atom_site_symmetry_multiplicity
 _atom_site_fract_x
 _atom_site_fract_y
 _atom_site_fract_z
 _atom_site_occupancy
  Sc  Sc0  1  0.74823298  0.53248199  0.10764700  1
  Sc  Sc1  1  0.75176698  0.03248200  0.39235301  1
  Sc  Sc2  1  0.75176698  0.46751799  0.60764701  1
  Sc  Sc3  1  0.74823298  0.96751797  0.89235301  1
  Sc  Sc4  1  0.25176699  0.46751799  0.89235301  1
  Sc  Sc5  1  0.24823299  0.96751797  0.60764701  1
  Sc  Sc6  1  0.24823299  0.53248199  0.39235301  1
  Sc  Sc7  1  0.25176699  0.03248200  0.10764700  1
  S  S8  1  0.60970698  0.89461898  0.15149600  1
  S  S9  1  0.89029297  0.39461899  0.34850401  1
  S  S10  1  0.89029297  0.10538100  0.65149601  1
  S  S11  1  0.60970698  0.60538098  0.84850401  1
  S  S12  1  0.39029299  0.10538100  0.84850401  1
  S  S13  1  0.10970700  0.60538098  0.65149601  1
  S  S14  1  0.10970700  0.89461898  0.34850401  1
  S  S15  1  0.39029299  0.39461899  0.15149600  1
  S  S16  1  0.04469000  0.74999998  -0.00000000  1
  S  S17  1  0.45530999  0.24999999  0.50000001  1
  S  S18  1  0.95530997  0.24999999  -0.00000000  1
  S  S19  1  0.54468998  0.74999998  0.50000001  1
