# generated using pymatgen
data_Pr3Sn13
_symmetry_space_group_name_H-M   'P 1'
_cell_length_a   6.31760406
_cell_length_b   6.31760454
_cell_length_c   10.23417568
_cell_angle_alpha   90.00000000
_cell_angle_beta   90.00000000
_cell_angle_gamma   120.00000000
_symmetry_Int_Tables_number   1
_chemical_formula_structural   Pr3Sn13
_chemical_formula_sum   'Pr3 Sn13'
_cell_volume   353.74339636
_cell_formula_units_Z   1
loop_
 _symmetry_equiv_pos_site_id
 _symmetry_equiv_pos_as_xyz
  1  'x, y, z'
loop_
 _atom_site_type_symbol
 _atom_site_label
 _atom_site_symmetry_multiplicity
 _atom_site_fract_x
 _atom_site_fract_y
 _atom_site_fract_z
 _atom_site_occupancy
  Pr  Pr0  1  0.33333336  0.66666666  0.50000002  1
  Pr  Pr1  1  0.83494500  0.16505500  -0.00000000  1
  Pr  Pr2  1  0.83281600  0.16718500  0.50000002  1
  Sn  Sn3  1  0.83494502  0.66989000  -0.00000000  1
  Sn  Sn4  1  0.83281602  0.66563200  0.50000002  1
  Sn  Sn5  1  0.33011000  0.16505500  1.00000003  1
  Sn  Sn6  1  0.33436900  0.16718500  0.50000002  1
  Sn  Sn7  1  0.00390402  0.50195200  0.75541002  1
  Sn  Sn8  1  0.00390402  0.50195200  0.24459001  1
  Sn  Sn9  1  0.49804804  0.99609600  0.75541002  1
  Sn  Sn10  1  0.49804804  0.99609600  0.24459001  1
  Sn  Sn11  1  0.49804802  0.50195200  0.75541002  1
  Sn  Sn12  1  0.49804802  0.50195200  0.24459001  1
  Sn  Sn13  1  0.00000000  0.00000000  0.74945402  1
  Sn  Sn14  1  0.00000000  0.00000000  0.25054601  1
  Sn  Sn15  1  0.33333336  0.66666666  1.00000003  1
