# generated using pymatgen
data_YbGe2
_symmetry_space_group_name_H-M   'P 1'
_cell_length_a   4.50603485
_cell_length_b   7.02666521
_cell_length_c   7.58355618
_cell_angle_alpha   90.00000000
_cell_angle_beta   90.00000000
_cell_angle_gamma   90.00000000
_symmetry_Int_Tables_number   1
_chemical_formula_structural   YbGe2
_chemical_formula_sum   'Yb4 Ge8'
_cell_volume   240.11357635
_cell_formula_units_Z   4
loop_
 _symmetry_equiv_pos_site_id
 _symmetry_equiv_pos_as_xyz
  1  'x, y, z'
loop_
 _atom_site_type_symbol
 _atom_site_label
 _atom_site_symmetry_multiplicity
 _atom_site_fract_x
 _atom_site_fract_y
 _atom_site_fract_z
 _atom_site_occupancy
  Yb  Yb0  1  0.25000001  0.49128499  0.20503700  1
  Yb  Yb1  1  0.25000001  0.99128497  0.29496299  1
  Yb  Yb2  1  0.75000002  0.50871498  0.79496298  1
  Yb  Yb3  1  0.75000002  0.00871500  0.70503698  1
  Ge  Ge4  1  0.75000002  0.29473799  0.42265299  1
  Ge  Ge5  1  0.25000001  0.70526198  0.57734699  1
  Ge  Ge6  1  0.25000001  0.20526199  0.92265298  1
  Ge  Ge7  1  0.75000002  0.79473798  0.07734700  1
  Ge  Ge8  1  0.25000001  0.30730799  0.59016599  1
  Ge  Ge9  1  0.25000001  0.80730798  0.90983398  1
  Ge  Ge10  1  0.75000002  0.19269199  0.09016600  1
  Ge  Ge11  1  0.75000002  0.69269198  0.40983399  1
