# generated using pymatgen
data_LiBe(HO2)3
_symmetry_space_group_name_H-M   'P 1'
_cell_length_a   5.51709604
_cell_length_b   5.51709557
_cell_length_c   5.62376595
_cell_angle_alpha   90.00000000
_cell_angle_beta   90.00000000
_cell_angle_gamma   120.00000000
_symmetry_Int_Tables_number   1
_chemical_formula_structural   LiBe(HO2)3
_chemical_formula_sum   'Li1 Be1 H3 O6'
_cell_volume   148.24461288
_cell_formula_units_Z   1
loop_
 _symmetry_equiv_pos_site_id
 _symmetry_equiv_pos_as_xyz
  1  'x, y, z'
loop_
 _atom_site_type_symbol
 _atom_site_label
 _atom_site_symmetry_multiplicity
 _atom_site_fract_x
 _atom_site_fract_y
 _atom_site_fract_z
 _atom_site_occupancy
  Li  Li0  1  0.00000000  0.00000000  0.00000000  1
  Be  Be1  1  0.33333331  0.66666668  0.29172300  1
  H  H2  1  0.66666665  0.33333334  0.70827701  1
  H  H3  1  0.33333331  0.66666668  0.54141401  1
  H  H4  1  0.66666665  0.33333334  0.45858600  1
  O  O5  1  0.64011897  0.80326501  0.21322500  1
  O  O6  1  0.19673497  0.83685402  0.21322500  1
  O  O7  1  0.16314599  0.35988101  0.21322500  1
  O  O8  1  0.35988099  0.19673500  0.78677501  1
  O  O9  1  0.80326499  0.16314600  0.78677501  1
  O  O10  1  0.83685397  0.64011901  0.78677501  1
