# generated using pymatgen
data_Be3CN3
_symmetry_space_group_name_H-M   'P 1'
_cell_length_a   4.90236521
_cell_length_b   4.90236521
_cell_length_c   4.90236521
_cell_angle_alpha   88.28782654
_cell_angle_beta   60.98355103
_cell_angle_gamma   119.01644897
_symmetry_Int_Tables_number   1
_chemical_formula_structural   Be3CN3
_chemical_formula_sum   'Be3 C1 N3'
_cell_volume   84.50863059
_cell_formula_units_Z   1
loop_
 _symmetry_equiv_pos_site_id
 _symmetry_equiv_pos_as_xyz
  1  'x, y, z'
loop_
 _atom_site_type_symbol
 _atom_site_label
 _atom_site_symmetry_multiplicity
 _atom_site_fract_x
 _atom_site_fract_y
 _atom_site_fract_z
 _atom_site_occupancy
  Be  Be0  1  0.99999998  0.50000000  0.50000001  1
  Be  Be1  1  0.00000000  0.00000000  0.00000000  1
  Be  Be2  1  0.49999999  0.25000000  0.25000000  1
  C  C3  1  0.86520799  0.30194700  0.19377101  1
  N  N4  1  0.49571799  0.19377100  0.94102101  1
  N  N5  1  0.50428199  0.56326100  0.30194699  1
  N  N6  1  0.13479199  0.94102100  0.56326096  1
