# generated using pymatgen
data_Ca3W2O11
_symmetry_space_group_name_H-M   'P 1'
_cell_length_a   5.10174561
_cell_length_b   5.10174561
_cell_length_c   7.34132099
_cell_angle_alpha   90.00000000
_cell_angle_beta   90.00000000
_cell_angle_gamma   91.27688599
_symmetry_Int_Tables_number   1
_chemical_formula_structural   Ca3W2O11
_chemical_formula_sum   'Ca3 W2 O11'
_cell_volume   191.03104633
_cell_formula_units_Z   1
loop_
 _symmetry_equiv_pos_site_id
 _symmetry_equiv_pos_as_xyz
  1  'x, y, z'
loop_
 _atom_site_type_symbol
 _atom_site_label
 _atom_site_symmetry_multiplicity
 _atom_site_fract_x
 _atom_site_fract_y
 _atom_site_fract_z
 _atom_site_occupancy
  Ca  Ca0  1  0.50000001  0.00000000  0.50000000  1
  Ca  Ca1  1  0.00000002  0.50000001  0.50000000  1
  Ca  Ca2  1  0.50000001  0.00000000  -0.00000000  1
  W  W3  1  0.00000002  0.50000001  1.00000000  1
  O  O4  1  0.32914102  0.32914100  0.50000000  1
  W  W5  1  0.67085903  0.67085901  -0.00000000  1
  O  O6  1  0.67085903  0.67085901  0.50000000  1
  O  O7  1  0.32914102  0.32914100  -0.00000000  1
  O  O8  1  0.82842102  0.17157900  0.92629900  1
  O  O9  1  0.17157903  0.82842101  0.07370100  1
  O  O10  1  0.17157903  0.82842101  0.42629900  1
  O  O11  1  0.82842102  0.17157900  0.57370100  1
  O  O12  1  0.59799301  0.05187000  0.25000000  1
  O  O13  1  0.94813003  0.40200701  0.25000000  1
  O  O14  1  0.40200704  0.94813001  0.75000000  1
  O  O15  1  0.05187002  0.59799301  0.75000000  1
