# generated using pymatgen
data_Ca4Mo2O7
_symmetry_space_group_name_H-M   'P 1'
_cell_length_a   3.88819504
_cell_length_b   3.91798306
_cell_length_c   12.62761116
_cell_angle_alpha   89.81816864
_cell_angle_beta   90.00000000
_cell_angle_gamma   90.00000000
_symmetry_Int_Tables_number   1
_chemical_formula_structural   Ca4Mo2O7
_chemical_formula_sum   'Ca4 Mo2 O7'
_cell_volume   192.36657310
_cell_formula_units_Z   1
loop_
 _symmetry_equiv_pos_site_id
 _symmetry_equiv_pos_as_xyz
  1  'x, y, z'
loop_
 _atom_site_type_symbol
 _atom_site_label
 _atom_site_symmetry_multiplicity
 _atom_site_fract_x
 _atom_site_fract_y
 _atom_site_fract_z
 _atom_site_occupancy
  Ca  Ca0  1  0.50000000  0.48424499  0.79774702  1
  Ca  Ca1  1  0.50000000  0.48336999  0.20745100  1
  Ca  Ca2  1  0.50000000  0.49659199  0.49537801  1
  Ca  Ca3  1  0.00000000  0.91381699  0.00799499  1
  Mo  Mo4  1  0.00000000  0.99455899  0.63170801  1
  Mo  Mo5  1  -0.00000000  0.99572199  0.35442200  1
  O  O6  1  0.50000000  0.99478999  0.61705401  1
  O  O7  1  0.00000000  0.49468099  0.61781502  1
  O  O8  1  0.50000000  0.99639899  0.37278600  1
  O  O9  1  0.00000000  0.49519899  0.37144601  1
  O  O10  1  0.00000000  0.99404299  0.83910402  1
  O  O11  1  0.00000000  0.00568700  0.17514201  1
  O  O12  1  0.50000000  0.56989599  0.01195300  1
