# generated using pymatgen
data_Ni2Ru
_symmetry_space_group_name_H-M   'P 1'
_cell_length_a   2.52150989
_cell_length_b   3.57551193
_cell_length_c   4.38176012
_cell_angle_alpha   114.07923126
_cell_angle_beta   106.72198486
_cell_angle_gamma   90.00000000
_symmetry_Int_Tables_number   1
_chemical_formula_structural   Ni2Ru
_chemical_formula_sum   'Ni2 Ru1'
_cell_volume   34.22905217
_cell_formula_units_Z   1
loop_
 _symmetry_equiv_pos_site_id
 _symmetry_equiv_pos_as_xyz
  1  'x, y, z'
loop_
 _atom_site_type_symbol
 _atom_site_label
 _atom_site_symmetry_multiplicity
 _atom_site_fract_x
 _atom_site_fract_y
 _atom_site_fract_z
 _atom_site_occupancy
  Ni  Ni0  1  0.00000000  0.00000000  0.00000000  1
  Ni  Ni1  1  0.33211004  0.33211001  0.66422003  1
  Ru  Ru2  1  0.66789007  0.66789003  0.33578005  1
