# generated using pymatgen
data_Ba4Mg2CoO12
_symmetry_space_group_name_H-M   'P 1'
_cell_length_a   5.73962593
_cell_length_b   5.73962593
_cell_length_c   9.82892895
_cell_angle_alpha   73.02369690
_cell_angle_beta   73.02369690
_cell_angle_gamma   60.00000000
_symmetry_Int_Tables_number   1
_chemical_formula_structural   Ba4Mg2CoO12
_chemical_formula_sum   'Ba4 Mg2 Co1 O12'
_cell_volume   263.99914516
_cell_formula_units_Z   1
loop_
 _symmetry_equiv_pos_site_id
 _symmetry_equiv_pos_as_xyz
  1  'x, y, z'
loop_
 _atom_site_type_symbol
 _atom_site_label
 _atom_site_symmetry_multiplicity
 _atom_site_fract_x
 _atom_site_fract_y
 _atom_site_fract_z
 _atom_site_occupancy
  Ba  Ba0  1  0.70845397  0.70845400  0.87463803  1
  Ba  Ba1  1  0.29116999  0.29117000  0.12649001  1
  Ba  Ba2  1  0.13096499  0.13096500  0.60710500  1
  Ba  Ba3  1  0.87267197  0.87267200  0.38198404  1
  Mg  Mg4  1  0.99931596  0.99931600  0.00205204  1
  Mg  Mg5  1  0.42204898  0.42204900  0.73385302  1
  Co  Co6  1  0.57784898  0.57784900  0.26645302  1
  O  O7  1  0.78479898  0.28994700  0.14045502  1
  O  O8  1  0.28994697  0.78479900  0.14045502  1
  O  O9  1  0.78479897  0.78479900  0.14045503  1
  O  O10  1  0.37898998  0.37899000  0.37272401  1
  O  O11  1  0.86929598  0.37899000  0.37272402  1
  O  O12  1  0.37898997  0.86929600  0.37272403  1
  O  O13  1  0.61648499  0.14007600  0.62695401  1
  O  O14  1  0.14007598  0.61648500  0.62695401  1
  O  O15  1  0.61648498  0.61648500  0.62695402  1
  O  O16  1  0.22228199  0.22228200  0.86234201  1
  O  O17  1  0.69309399  0.22228200  0.86234202  1
  O  O18  1  0.22228198  0.69309400  0.86234202  1
