# generated using pymatgen
data_Li2CuS4
_symmetry_space_group_name_H-M   'P 1'
_cell_length_a   3.22423601
_cell_length_b   5.85472679
_cell_length_c   6.29195213
_cell_angle_alpha   114.84997559
_cell_angle_beta   104.84583282
_cell_angle_gamma   90.00000000
_symmetry_Int_Tables_number   1
_chemical_formula_structural   Li2CuS4
_chemical_formula_sum   'Li2 Cu1 S4'
_cell_volume   103.39058236
_cell_formula_units_Z   1
loop_
 _symmetry_equiv_pos_site_id
 _symmetry_equiv_pos_as_xyz
  1  'x, y, z'
loop_
 _atom_site_type_symbol
 _atom_site_label
 _atom_site_symmetry_multiplicity
 _atom_site_fract_x
 _atom_site_fract_y
 _atom_site_fract_z
 _atom_site_occupancy
  Li  Li0  1  0.25820901  0.30909500  0.51641802  1
  Li  Li1  1  0.74179103  0.69090501  0.48358204  1
  Cu  Cu2  1  0.00000000  0.00000000  0.00000000  1
  S  S3  1  0.89270802  0.55341401  0.78541604  1
  S  S4  1  0.63857904  0.98008901  0.27715805  1
  S  S5  1  0.10729202  0.44658600  0.21458402  1
  S  S6  1  0.36142100  0.01991100  0.72284202  1
