# generated using pymatgen
data_YNi2
_symmetry_space_group_name_H-M   'P 1'
_cell_length_a   5.25864840
_cell_length_b   5.34526968
_cell_length_c   5.34526968
_cell_angle_alpha   62.70526123
_cell_angle_beta   60.53463364
_cell_angle_gamma   60.53463364
_symmetry_Int_Tables_number   1
_chemical_formula_structural   YNi2
_chemical_formula_sum   'Y2 Ni4'
_cell_volume   109.14601842
_cell_formula_units_Z   2
loop_
 _symmetry_equiv_pos_site_id
 _symmetry_equiv_pos_as_xyz
  1  'x, y, z'
loop_
 _atom_site_type_symbol
 _atom_site_label
 _atom_site_symmetry_multiplicity
 _atom_site_fract_x
 _atom_site_fract_y
 _atom_site_fract_z
 _atom_site_occupancy
  Y  Y0  1  0.25211801  0.24788200  0.24788200  1
  Y  Y1  1  0.99788200  0.00211800  0.00211803  1
  Ni  Ni2  1  0.62500002  0.62500001  0.62500001  1
  Ni  Ni3  1  0.12500002  0.62500001  0.62500000  1
  Ni  Ni4  1  0.62500001  0.12500000  0.62500003  1
  Ni  Ni5  1  0.62500002  0.62500001  0.12500000  1
