# generated using pymatgen
data_Li10NbO9
_symmetry_space_group_name_H-M   'P 1'
_cell_length_a   5.16166210
_cell_length_b   5.21547699
_cell_length_c   7.90439415
_cell_angle_alpha   71.09842682
_cell_angle_beta   71.10227966
_cell_angle_gamma   80.63913727
_symmetry_Int_Tables_number   1
_chemical_formula_structural   Li10NbO9
_chemical_formula_sum   'Li10 Nb1 O9'
_cell_volume   190.06816406
_cell_formula_units_Z   1
loop_
 _symmetry_equiv_pos_site_id
 _symmetry_equiv_pos_as_xyz
  1  'x, y, z'
loop_
 _atom_site_type_symbol
 _atom_site_label
 _atom_site_symmetry_multiplicity
 _atom_site_fract_x
 _atom_site_fract_y
 _atom_site_fract_z
 _atom_site_occupancy
  Li  Li0  1  0.49469605  0.77927001  0.41797794  1
  Li  Li1  1  0.50560004  0.60673700  0.77988996  1
  Li  Li2  1  0.00000003  0.50000000  0.49999998  1
  Li  Li3  1  0.50530402  0.22073000  0.58202198  1
  Li  Li4  1  0.49440003  0.39326300  0.22010996  1
  Li  Li5  1  0.50000000  0.00000000  -0.00000002  1
  Li  Li6  1  0.00425906  0.90136201  0.69191996  1
  Li  Li7  1  0.99509505  0.68955501  0.11377192  1
  Li  Li8  1  0.00490502  0.31044500  0.88622800  1
  Li  Li9  1  0.99574101  0.09863800  0.30807996  1
  Nb  Nb10  1  0.23083306  0.94863301  0.86574795  1
  O  O11  1  0.76224606  0.85688201  0.54850193  1
  O  O12  1  0.76079405  0.66752001  0.95137895  1
  O  O13  1  0.24470105  0.76468901  0.23918695  1
  O  O14  1  0.22287504  0.54909800  0.66800297  1
  O  O15  1  0.77712503  0.45090200  0.33199695  1
  O  O16  1  0.75529902  0.23531100  0.76081297  1
  O  O17  1  0.23920602  0.33248000  0.04862097  1
  O  O18  1  0.23775401  0.14311800  0.45149799  1
  O  O19  1  0.76916700  0.05136700  0.13425197  1
