# generated using pymatgen
data_Li5NiO6
_symmetry_space_group_name_H-M   'P 1'
_cell_length_a   5.14502478
_cell_length_b   5.18277121
_cell_length_c   6.22070026
_cell_angle_alpha   114.37680054
_cell_angle_beta   114.41262054
_cell_angle_gamma   89.97875977
_symmetry_Int_Tables_number   1
_chemical_formula_structural   Li5NiO6
_chemical_formula_sum   'Li5 Ni1 O6'
_cell_volume   134.65315233
_cell_formula_units_Z   1
loop_
 _symmetry_equiv_pos_site_id
 _symmetry_equiv_pos_as_xyz
  1  'x, y, z'
loop_
 _atom_site_type_symbol
 _atom_site_label
 _atom_site_symmetry_multiplicity
 _atom_site_fract_x
 _atom_site_fract_y
 _atom_site_fract_z
 _atom_site_occupancy
  Li  Li0  1  0.25046098  0.24610000  0.50133299  1
  Li  Li1  1  0.74738195  0.74766800  0.50022998  1
  Li  Li2  1  0.50195498  0.00160000  0.99919697  1
  Li  Li3  1  0.99876094  0.50279800  0.00116297  1
  O  O4  1  0.44306097  0.31680900  0.26644199  1
  Li  Li5  1  0.17561799  0.04888600  0.72966999  1
  Ni  Ni6  1  0.55889996  0.68402000  0.73220199  1
  O  O7  1  0.05742498  0.55301500  0.73428501  1
  O  O8  1  0.81835494  0.94661399  0.26862699  1
  O  O9  1  0.32090996  0.82004800  0.27305901  1
  O  O10  1  0.94546694  0.44875000  0.26953797  1
  O  O11  1  0.67551296  0.18566600  0.73443597  1
