# generated using pymatgen
data_Li2O2
_symmetry_space_group_name_H-M   'P 1'
_cell_length_a   5.75779057
_cell_length_b   5.75778961
_cell_length_c   6.18461657
_cell_angle_alpha   117.70771027
_cell_angle_beta   117.70661163
_cell_angle_gamma   90.06645966
_symmetry_Int_Tables_number   1
_chemical_formula_structural   Li2O2
_chemical_formula_sum   'Li8 O8'
_cell_volume   154.40725537
_cell_formula_units_Z   4
loop_
 _symmetry_equiv_pos_site_id
 _symmetry_equiv_pos_as_xyz
  1  'x, y, z'
loop_
 _atom_site_type_symbol
 _atom_site_label
 _atom_site_symmetry_multiplicity
 _atom_site_fract_x
 _atom_site_fract_y
 _atom_site_fract_z
 _atom_site_occupancy
  Li  Li0  1  -0.00000007  0.49999995  -0.00000007  1
  Li  Li1  1  0.49999993  0.49999995  0.49999991  1
  Li  Li2  1  0.49999993  0.49999995  -0.00000009  1
  Li  Li3  1  0.50000000  0.00000000  0.49999998  1
  Li  Li4  1  -0.00000007  0.49999995  0.49999992  1
  Li  Li5  1  0.00000000  0.00000000  0.00000000  1
  Li  Li6  1  0.00000100  0.00000000  0.50000000  1
  Li  Li7  1  0.49999900  0.00000000  -0.00000002  1
  O  O8  1  0.22988890  0.74914593  0.49850088  1
  O  O9  1  0.74935590  0.76861193  0.99850085  1
  O  O10  1  0.77011097  0.25085398  0.50149893  1
  O  O11  1  0.23138897  0.25064598  0.50149895  1
  O  O12  1  0.25085189  0.77010993  0.00149888  1
  O  O13  1  0.25064397  0.23138798  0.00149896  1
  O  O14  1  0.74914797  0.22988998  0.99850093  1
  O  O15  1  0.76861090  0.74935293  0.49850086  1
