# generated using pymatgen
data_NaNbO3
_symmetry_space_group_name_H-M   'P 1'
_cell_length_a   5.64448214
_cell_length_b   5.68403578
_cell_length_c   5.64448214
_cell_angle_alpha   119.77007294
_cell_angle_beta   90.00000000
_cell_angle_gamma   119.77007294
_symmetry_Int_Tables_number   1
_chemical_formula_structural   NaNbO3
_chemical_formula_sum   'Na2 Nb2 O6'
_cell_volume   128.93800285
_cell_formula_units_Z   2
loop_
 _symmetry_equiv_pos_site_id
 _symmetry_equiv_pos_as_xyz
  1  'x, y, z'
loop_
 _atom_site_type_symbol
 _atom_site_label
 _atom_site_symmetry_multiplicity
 _atom_site_fract_x
 _atom_site_fract_y
 _atom_site_fract_z
 _atom_site_occupancy
  Na  Na0  1  0.75000001  0.50000005  0.25000002  1
  Na  Na1  1  0.25000002  0.50000005  0.75000001  1
  Nb  Nb2  1  0.00000000  0.00000000  0.00000000  1
  Nb  Nb3  1  0.49999999  0.00000000  0.49999999  1
  O  O4  1  0.74019101  0.48038205  0.74019101  1
  O  O5  1  0.25980902  0.51961805  0.25980902  1
  O  O6  1  0.77716004  0.99999910  0.29773605  1
  O  O7  1  0.22283999  0.00000100  0.70226398  1
  O  O8  1  0.29773705  1.00000010  0.22284005  1
  O  O9  1  0.70226298  0.00000000  0.77715998  1
