# generated using pymatgen
data_ErMgAl3Pd
_symmetry_space_group_name_H-M   'P 1'
_cell_length_a   3.97866011
_cell_length_b   3.97866011
_cell_length_c   8.17147446
_cell_angle_alpha   90.00000000
_cell_angle_beta   90.00000000
_cell_angle_gamma   90.00000000
_symmetry_Int_Tables_number   1
_chemical_formula_structural   ErMgAl3Pd
_chemical_formula_sum   'Er1 Mg1 Al3 Pd1'
_cell_volume   129.35228538
_cell_formula_units_Z   1
loop_
 _symmetry_equiv_pos_site_id
 _symmetry_equiv_pos_as_xyz
  1  'x, y, z'
loop_
 _atom_site_type_symbol
 _atom_site_label
 _atom_site_symmetry_multiplicity
 _atom_site_fract_x
 _atom_site_fract_y
 _atom_site_fract_z
 _atom_site_occupancy
  Mg  Mg0  1  0.49999999  0.49999999  0.72046096  1
  Er  Er1  1  0.00000000  0.00000000  0.27946998  1
  Al  Al2  1  0.49999999  0.00000000  0.00099500  1
  Al  Al3  1  -0.00000000  0.49999999  0.00099500  1
  Al  Al4  1  0.49999999  0.49999999  0.35909598  1
  Pd  Pd5  1  0.00000000  0.00000000  0.63898196  1
