# generated using pymatgen
data_Pr(SiNi)2
_symmetry_space_group_name_H-M   'P 1'
_cell_length_a   4.06680202
_cell_length_b   4.06680202
_cell_length_c   5.69245720
_cell_angle_alpha   110.92893219
_cell_angle_beta   110.92893219
_cell_angle_gamma   90.00000000
_symmetry_Int_Tables_number   1
_chemical_formula_structural   Pr(SiNi)2
_chemical_formula_sum   'Pr1 Si2 Ni2'
_cell_volume   81.25056525
_cell_formula_units_Z   1
loop_
 _symmetry_equiv_pos_site_id
 _symmetry_equiv_pos_as_xyz
  1  'x, y, z'
loop_
 _atom_site_type_symbol
 _atom_site_label
 _atom_site_symmetry_multiplicity
 _atom_site_fract_x
 _atom_site_fract_y
 _atom_site_fract_z
 _atom_site_occupancy
  Pr  Pr0  1  0.00000000  0.00000000  0.00000000  1
  Ni  Ni1  1  0.24999999  0.74999999  0.50000000  1
  Ni  Ni2  1  0.74999999  0.25000000  0.50000000  1
  Si  Si3  1  0.62860598  0.62860599  0.25721199  1
  Si  Si4  1  0.37139399  0.37139399  0.74278801  1
