# generated using pymatgen
data_FeCo2
_symmetry_space_group_name_H-M   'P 1'
_cell_length_a   6.20777607
_cell_length_b   6.20777607
_cell_length_c   6.20777607
_cell_angle_alpha   90.00000000
_cell_angle_beta   90.00000000
_cell_angle_gamma   90.00000000
_symmetry_Int_Tables_number   1
_chemical_formula_structural   FeCo2
_chemical_formula_sum   'Fe4 Co8'
_cell_volume   239.22586151
_cell_formula_units_Z   4
loop_
 _symmetry_equiv_pos_site_id
 _symmetry_equiv_pos_as_xyz
  1  'x, y, z'
loop_
 _atom_site_type_symbol
 _atom_site_label
 _atom_site_symmetry_multiplicity
 _atom_site_fract_x
 _atom_site_fract_y
 _atom_site_fract_z
 _atom_site_occupancy
  Co  Co0  1  0.11776600  0.61776599  0.88223399  1
  Fe  Fe1  1  0.61776599  0.88223399  0.11776600  1
  Fe  Fe2  1  0.88223399  0.11776600  0.61776599  1
  Fe  Fe3  1  0.38223400  0.38223400  0.38223400  1
  Fe  Fe4  1  0.48887699  0.98887699  0.51112299  1
  Co  Co5  1  0.98887699  0.51112299  0.48887699  1
  Co  Co6  1  0.51112299  0.48887699  0.98887699  1
  Co  Co7  1  0.01112300  0.01112300  0.01112300  1
  Co  Co8  1  0.87976599  0.37976600  0.12023400  1
  Co  Co9  1  0.37976600  0.12023400  0.87976599  1
  Co  Co10  1  0.12023400  0.87976599  0.37976600  1
  Co  Co11  1  0.62023399  0.62023399  0.62023399  1
