# generated using pymatgen
data_La2Ni7
_symmetry_space_group_name_H-M   'P 1'
_cell_length_a   4.92900801
_cell_length_b   4.92900801
_cell_length_c   12.36152554
_cell_angle_alpha   78.49993896
_cell_angle_beta   78.49993896
_cell_angle_gamma   60.00000000
_symmetry_Int_Tables_number   1
_chemical_formula_structural   La2Ni7
_chemical_formula_sum   'La4 Ni14'
_cell_volume   253.10303537
_cell_formula_units_Z   2
loop_
 _symmetry_equiv_pos_site_id
 _symmetry_equiv_pos_as_xyz
  1  'x, y, z'
loop_
 _atom_site_type_symbol
 _atom_site_label
 _atom_site_symmetry_multiplicity
 _atom_site_fract_x
 _atom_site_fract_y
 _atom_site_fract_z
 _atom_site_occupancy
  La  La0  1  0.05182800  0.05182800  0.84451700  1
  La  La1  1  0.94817204  0.94817197  0.15548295  1
  La  La2  1  0.14866501  0.14866500  0.55400600  1
  La  La3  1  0.85133504  0.85133498  0.44599396  1
  Ni  Ni4  1  0.50000002  0.49999999  0.49999998  1
  Ni  Ni5  1  0.27842101  0.27842099  0.16473699  1
  Ni  Ni6  1  0.72157903  0.72157898  0.83526297  1
  Ni  Ni7  1  0.38907302  0.38907299  0.83278099  1
  Ni  Ni8  1  0.61092703  0.61092698  0.16721897  1
  Ni  Ni9  1  0.50000001  0.00000000  -0.00000001  1
  Ni  Ni10  1  0.00000002  0.49999999  -0.00000001  1
  Ni  Ni11  1  0.50000002  0.49999999  -0.00000003  1
  Ni  Ni12  1  0.61002703  0.61002698  0.67094297  1
  Ni  Ni13  1  0.61002701  0.10900300  0.67094299  1
  Ni  Ni14  1  0.10900302  0.61002698  0.67094299  1
  Ni  Ni15  1  0.38997302  0.38997299  0.32905698  1
  Ni  Ni16  1  0.38997303  0.89099697  0.32905697  1
  Ni  Ni17  1  0.89099702  0.38997299  0.32905697  1
