# generated using pymatgen
data_Y2AlSi3
_symmetry_space_group_name_H-M   'P 1'
_cell_length_a   5.31673861
_cell_length_b   5.31672239
_cell_length_c   8.38055706
_cell_angle_alpha   90.00000000
_cell_angle_beta   90.00000000
_cell_angle_gamma   119.09329224
_symmetry_Int_Tables_number   1
_chemical_formula_structural   Y2AlSi3
_chemical_formula_sum   'Y4 Al2 Si6'
_cell_volume   207.00875387
_cell_formula_units_Z   2
loop_
 _symmetry_equiv_pos_site_id
 _symmetry_equiv_pos_as_xyz
  1  'x, y, z'
loop_
 _atom_site_type_symbol
 _atom_site_label
 _atom_site_symmetry_multiplicity
 _atom_site_fract_x
 _atom_site_fract_y
 _atom_site_fract_z
 _atom_site_occupancy
  Y  Y0  1  0.33345200  0.66654702  0.54694900  1
  Y  Y1  1  0.67067199  0.32933501  0.42432000  1
  Y  Y2  1  0.67067199  0.32933501  0.07568000  1
  Y  Y3  1  0.33345200  0.66654702  0.95305099  1
  Al  Al4  1  0.99547497  0.00454400  0.47974600  1
  Al  Al5  1  0.99547497  0.00454400  0.02025400  1
  Si  Si6  1  0.33976499  0.16613801  0.74999999  1
  Si  Si7  1  0.83385599  0.66024102  0.74999999  1
  Si  Si8  1  0.83237798  0.16762201  0.74999999  1
  Si  Si9  1  0.65054300  0.82829203  0.25000000  1
  Si  Si10  1  0.17169000  0.34942801  0.25000000  1
  Si  Si11  1  0.17257201  0.82742603  0.25000000  1
