# generated using pymatgen
data_K2BrO2
_symmetry_space_group_name_H-M   'P 1'
_cell_length_a   3.92804193
_cell_length_b   3.92804193
_cell_length_c   6.79345989
_cell_angle_alpha   106.80435944
_cell_angle_beta   106.80435944
_cell_angle_gamma   90.00000000
_symmetry_Int_Tables_number   1
_chemical_formula_structural   K2BrO2
_chemical_formula_sum   'K2 Br1 O2'
_cell_volume   95.65843196
_cell_formula_units_Z   1
loop_
 _symmetry_equiv_pos_site_id
 _symmetry_equiv_pos_as_xyz
  1  'x, y, z'
loop_
 _atom_site_type_symbol
 _atom_site_label
 _atom_site_symmetry_multiplicity
 _atom_site_fract_x
 _atom_site_fract_y
 _atom_site_fract_z
 _atom_site_occupancy
  K  K0  1  0.35282699  0.35282700  0.70565400  1
  K  K1  1  0.64717299  0.64717300  0.29434598  1
  Br  Br2  1  0.00000000  0.00000000  0.00000000  1
  O  O3  1  0.24999998  0.75000000  0.49999999  1
  O  O4  1  0.75000000  0.25000000  0.49999999  1
