# generated using pymatgen
data_Li4Si3O8
_symmetry_space_group_name_H-M   'P 1'
_cell_length_a   5.32835436
_cell_length_b   5.32835436
_cell_length_c   6.30728388
_cell_angle_alpha   90.94073486
_cell_angle_beta   90.94073486
_cell_angle_gamma   90.42026520
_symmetry_Int_Tables_number   1
_chemical_formula_structural   Li4Si3O8
_chemical_formula_sum   'Li4 Si3 O8'
_cell_volume   179.01891892
_cell_formula_units_Z   1
loop_
 _symmetry_equiv_pos_site_id
 _symmetry_equiv_pos_as_xyz
  1  'x, y, z'
loop_
 _atom_site_type_symbol
 _atom_site_label
 _atom_site_symmetry_multiplicity
 _atom_site_fract_x
 _atom_site_fract_y
 _atom_site_fract_z
 _atom_site_occupancy
  Li  Li0  1  0.18237000  0.17206499  0.26418100  1
  Li  Li1  1  0.69192698  0.30807299  -0.00000002  1
  Li  Li2  1  0.82793500  0.81762996  0.73581897  1
  Li  Li3  1  0.66736199  0.33263799  0.49999998  1
  Si  Si4  1  0.32549202  0.67450797  -0.00000002  1
  Si  Si5  1  0.17600600  0.17664399  0.75512800  1
  Si  Si6  1  0.82335600  0.82399396  0.24487196  1
  O  O7  1  0.78649797  0.13088999  0.25103898  1
  O  O8  1  0.86910997  0.21350199  0.74896098  1
  O  O9  1  0.30957100  0.26820699  0.54073599  1
  O  O10  1  0.30103200  0.31658099  0.97381400  1
  O  O11  1  0.73179300  0.69042897  0.45926397  1
  O  O12  1  0.68341900  0.69896797  0.02618597  1
  O  O13  1  0.13219503  0.79323797  0.21703698  1
  O  O14  1  0.20676203  0.86780496  0.78296299  1
