# generated using pymatgen
data_Ce6InPd5
_symmetry_space_group_name_H-M   'P 1'
_cell_length_a   6.05051708
_cell_length_b   8.10038567
_cell_length_c   8.10038567
_cell_angle_alpha   120.00000000
_cell_angle_beta   90.00000000
_cell_angle_gamma   90.00000000
_symmetry_Int_Tables_number   1
_chemical_formula_structural   Ce6InPd5
_chemical_formula_sum   'Ce6 In1 Pd5'
_cell_volume   343.82267593
_cell_formula_units_Z   1
loop_
 _symmetry_equiv_pos_site_id
 _symmetry_equiv_pos_as_xyz
  1  'x, y, z'
loop_
 _atom_site_type_symbol
 _atom_site_label
 _atom_site_symmetry_multiplicity
 _atom_site_fract_x
 _atom_site_fract_y
 _atom_site_fract_z
 _atom_site_occupancy
  Ce  Ce0  1  0.49999999  1.00000004  0.64087402  1
  Ce  Ce1  1  0.49999999  0.64087403  1.00000003  1
  Ce  Ce2  1  0.49999999  0.35912601  0.35912601  1
  Ce  Ce3  1  -0.00000000  1.00000004  0.30574901  1
  Ce  Ce4  1  -0.00000000  0.30574901  1.00000003  1
  Ce  Ce5  1  0.99999999  0.69425103  0.69425102  1
  Pd  Pd6  1  0.80813699  0.33333335  0.66666669  1
  In  In7  1  0.19186300  0.33333335  0.66666669  1
  Pd  Pd8  1  0.19186300  0.66666669  0.33333334  1
  Pd  Pd9  1  0.80813699  0.66666669  0.33333334  1
  Pd  Pd10  1  0.31312600  0.00000000  -0.00000000  1
  Pd  Pd11  1  0.68687399  0.00000000  -0.00000000  1
