# generated using pymatgen
data_Sr5YHf3N9
_symmetry_space_group_name_H-M   'P 1'
_cell_length_a   5.84913778
_cell_length_b   5.84913778
_cell_length_c   8.36025143
_cell_angle_alpha   90.00000000
_cell_angle_beta   90.00000000
_cell_angle_gamma   90.00000000
_symmetry_Int_Tables_number   1
_chemical_formula_structural   Sr5YHf3N9
_chemical_formula_sum   'Sr5 Y1 Hf3 N9'
_cell_volume   286.02437296
_cell_formula_units_Z   1
loop_
 _symmetry_equiv_pos_site_id
 _symmetry_equiv_pos_as_xyz
  1  'x, y, z'
loop_
 _atom_site_type_symbol
 _atom_site_label
 _atom_site_symmetry_multiplicity
 _atom_site_fract_x
 _atom_site_fract_y
 _atom_site_fract_z
 _atom_site_occupancy
  Sr  Sr0  1  0.50000002  0.50000002  0.00000000  1
  Sr  Sr1  1  0.00000000  0.00000000  0.00000000  1
  Sr  Sr2  1  0.50000002  0.00000000  0.24106699  1
  Sr  Sr3  1  0.00000000  0.50000002  0.75893296  1
  Sr  Sr4  1  0.50000002  0.50000002  0.49999997  1
  Y  Y5  1  0.00000000  0.00000000  0.49999997  1
  Hf  Hf6  1  0.00000000  0.50000002  0.25399699  1
  Hf  Hf7  1  0.50000002  0.00000000  0.74600296  1
  N  N8  1  0.00000000  0.50000002  0.03192800  1
  Hf  Hf9  1  0.77157203  0.27157201  0.32469398  1
  N  N10  1  0.22842801  0.27157201  0.32469398  1
  N  N11  1  0.77157203  0.72842803  0.32469398  1
  N  N12  1  0.22842801  0.72842803  0.32469398  1
  N  N13  1  0.27157201  0.77157203  0.67530597  1
  N  N14  1  0.72842803  0.77157203  0.67530597  1
  N  N15  1  0.27157201  0.22842801  0.67530597  1
  N  N16  1  0.72842803  0.22842801  0.67530597  1
  N  N17  1  0.50000002  0.00000000  0.96807195  1
