# generated using pymatgen
data_Nb3WS3
_symmetry_space_group_name_H-M   'P 1'
_cell_length_a   3.56891990
_cell_length_b   6.31812096
_cell_length_c   6.99979448
_cell_angle_alpha   115.65647888
_cell_angle_beta   104.76945496
_cell_angle_gamma   90.00000000
_symmetry_Int_Tables_number   1
_chemical_formula_structural   Nb3WS3
_chemical_formula_sum   'Nb3 W1 S3'
_cell_volume   136.46720401
_cell_formula_units_Z   1
loop_
 _symmetry_equiv_pos_site_id
 _symmetry_equiv_pos_as_xyz
  1  'x, y, z'
loop_
 _atom_site_type_symbol
 _atom_site_label
 _atom_site_symmetry_multiplicity
 _atom_site_fract_x
 _atom_site_fract_y
 _atom_site_fract_z
 _atom_site_occupancy
  Nb  Nb0  1  0.25316499  0.28480000  0.50632998  1
  Nb  Nb1  1  0.74683498  0.71519999  0.49366997  1
  Nb  Nb2  1  0.00000000  0.00000000  0.00000000  1
  W  W3  1  0.11373798  0.45059099  0.22747599  1
  S  S4  1  0.88626199  0.54940899  0.77252395  1
  S  S5  1  0.37058300  0.03410700  0.74116597  1
  S  S6  1  0.62941697  0.96589299  0.25883398  1
