# generated using pymatgen
data_LaSi2
_symmetry_space_group_name_H-M   'P 1'
_cell_length_a   3.99436402
_cell_length_b   3.99436402
_cell_length_c   7.78539181
_cell_angle_alpha   104.86422729
_cell_angle_beta   104.86422729
_cell_angle_gamma   90.00000000
_symmetry_Int_Tables_number   1
_chemical_formula_structural   LaSi2
_chemical_formula_sum   'La2 Si4'
_cell_volume   115.75293203
_cell_formula_units_Z   2
loop_
 _symmetry_equiv_pos_site_id
 _symmetry_equiv_pos_as_xyz
  1  'x, y, z'
loop_
 _atom_site_type_symbol
 _atom_site_label
 _atom_site_symmetry_multiplicity
 _atom_site_fract_x
 _atom_site_fract_y
 _atom_site_fract_z
 _atom_site_occupancy
  La  La0  1  0.74999998  0.25000000  0.49999997  1
  La  La1  1  0.00000000  0.00000000  0.00000000  1
  Si  Si2  1  0.16725298  0.66725299  0.33450597  1
  Si  Si3  1  0.58274698  0.58274699  0.16549397  1
  Si  Si4  1  0.33274698  0.83274699  0.66549396  1
  Si  Si5  1  0.41725299  0.41725299  0.83450596  1
