# generated using pymatgen
data_LiAsS3
_symmetry_space_group_name_H-M   'P 1'
_cell_length_a   5.41190004
_cell_length_b   5.41782713
_cell_length_c   5.41782713
_cell_angle_alpha   89.94589233
_cell_angle_beta   90.03563690
_cell_angle_gamma   89.96436310
_symmetry_Int_Tables_number   1
_chemical_formula_structural   LiAsS3
_chemical_formula_sum   'Li1 As1 S3'
_cell_volume   158.85456219
_cell_formula_units_Z   1
loop_
 _symmetry_equiv_pos_site_id
 _symmetry_equiv_pos_as_xyz
  1  'x, y, z'
loop_
 _atom_site_type_symbol
 _atom_site_label
 _atom_site_symmetry_multiplicity
 _atom_site_fract_x
 _atom_site_fract_y
 _atom_site_fract_z
 _atom_site_occupancy
  As  As0  1  0.01002000  0.00585700  0.99414303  1
  Li  Li1  1  0.48685803  0.49758902  0.50241102  1
  S  S2  1  0.47816705  0.99917203  0.50336304  1
  S  S3  1  0.98432503  0.49119802  0.50880199  1
  S  S4  1  0.47816703  0.49663702  0.00082800  1
