# generated using pymatgen
data_Li6Co3CuO8
_symmetry_space_group_name_H-M   'P 1'
_cell_length_a   5.04538918
_cell_length_b   5.05195522
_cell_length_c   7.57033253
_cell_angle_alpha   82.76165009
_cell_angle_beta   70.99813080
_cell_angle_gamma   68.34252167
_symmetry_Int_Tables_number   1
_chemical_formula_structural   Li6Co3CuO8
_chemical_formula_sum   'Li6 Co3 Cu1 O8'
_cell_volume   169.56278801
_cell_formula_units_Z   1
loop_
 _symmetry_equiv_pos_site_id
 _symmetry_equiv_pos_as_xyz
  1  'x, y, z'
loop_
 _atom_site_type_symbol
 _atom_site_label
 _atom_site_symmetry_multiplicity
 _atom_site_fract_x
 _atom_site_fract_y
 _atom_site_fract_z
 _atom_site_occupancy
  Li  Li0  1  0.76228297  0.73586298  0.00619104  1
  Li  Li1  1  0.23771699  0.26413699  0.99380903  1
  Li  Li2  1  0.51005098  0.76349398  0.44371904  1
  Li  Li3  1  0.48994898  0.23650599  0.55628103  1
  Li  Li4  1  0.07729500  0.24914899  0.40854202  1
  Li  Li5  1  0.92270496  0.75085098  0.59145806  1
  Co  Co6  1  0.61129697  0.21357399  0.19249302  1
  Co  Co7  1  0.38870298  0.78642598  0.80750705  1
  Cu  Cu8  1  0.84145096  0.21846099  0.76302604  1
  Co  Co9  1  0.15854899  0.78153898  0.23697403  1
  O  O10  1  0.63681497  0.01356100  0.80614903  1
  O  O11  1  0.36318498  0.98643897  0.19385104  1
  O  O12  1  0.30009399  0.51849899  0.37400603  1
  O  O13  1  0.69990597  0.48150099  0.62599404  1
  O  O14  1  0.81942096  0.97009597  0.36870005  1
  O  O15  1  0.18057899  0.02990400  0.63130002  1
  O  O16  1  0.14980899  0.66421098  0.04823402  1
  O  O17  1  0.85019096  0.33578899  0.95176605  1
