# generated using pymatgen
data_La3UO12
_symmetry_space_group_name_H-M   'P 1'
_cell_length_a   4.89772987
_cell_length_b   5.53472805
_cell_length_c   7.70890093
_cell_angle_alpha   90.00000000
_cell_angle_beta   90.00000000
_cell_angle_gamma   90.00000000
_symmetry_Int_Tables_number   1
_chemical_formula_structural   La3UO12
_chemical_formula_sum   'La3 U1 O12'
_cell_volume   208.96982527
_cell_formula_units_Z   1
loop_
 _symmetry_equiv_pos_site_id
 _symmetry_equiv_pos_as_xyz
  1  'x, y, z'
loop_
 _atom_site_type_symbol
 _atom_site_label
 _atom_site_symmetry_multiplicity
 _atom_site_fract_x
 _atom_site_fract_y
 _atom_site_fract_z
 _atom_site_occupancy
  La  La0  1  0.56553201  0.11232000  0.75000001  1
  U  U1  1  0.06553200  0.38768000  0.25000000  1
  La  La2  1  0.93446802  0.61231999  0.75000001  1
  La  La3  1  0.43446801  0.88767999  0.25000000  1
  O  O4  1  0.67393002  0.82087799  0.92782901  1
  O  O5  1  0.17393000  0.67912199  0.07217100  1
  O  O6  1  0.82607002  0.32087800  0.57217101  1
  O  O7  1  0.32607001  0.17912200  0.42782900  1
  O  O8  1  0.84209502  0.03920300  0.25000000  1
  O  O9  1  0.34209501  0.46079700  0.75000001  1
  O  O10  1  0.65790502  0.53920300  0.25000000  1
  O  O11  1  0.15790500  0.96079699  0.75000001  1
  O  O12  1  0.67393002  0.82087799  0.57217101  1
  O  O13  1  0.17393000  0.67912199  0.42782900  1
  O  O14  1  0.82607002  0.32087800  0.92782901  1
  O  O15  1  0.32607001  0.17912200  0.07217100  1
