# generated using pymatgen
data_Y2Ga3
_symmetry_space_group_name_H-M   'P 1'
_cell_length_a   3.58166599
_cell_length_b   7.64221191
_cell_length_c   7.64221191
_cell_angle_alpha   90.00000000
_cell_angle_beta   90.00000000
_cell_angle_gamma   90.00000000
_symmetry_Int_Tables_number   1
_chemical_formula_structural   Y2Ga3
_chemical_formula_sum   'Y4 Ga6'
_cell_volume   209.18148217
_cell_formula_units_Z   2
loop_
 _symmetry_equiv_pos_site_id
 _symmetry_equiv_pos_as_xyz
  1  'x, y, z'
loop_
 _atom_site_type_symbol
 _atom_site_label
 _atom_site_symmetry_multiplicity
 _atom_site_fract_x
 _atom_site_fract_y
 _atom_site_fract_z
 _atom_site_occupancy
  Y  Y0  1  0.50000000  0.17460700  0.67460701  1
  Y  Y1  1  0.50000000  0.82539301  0.32539300  1
  Y  Y2  1  0.50000000  0.32539300  0.17460700  1
  Y  Y3  1  0.50000000  0.67460701  0.82539301  1
  Ga  Ga4  1  0.00000000  0.00000000  0.00000000  1
  Ga  Ga5  1  0.00000000  0.50000001  0.50000001  1
  Ga  Ga6  1  0.00000000  0.61915301  0.11915300  1
  Ga  Ga7  1  0.00000000  0.38084700  0.88084701  1
  Ga  Ga8  1  0.00000000  0.88084701  0.61915301  1
  Ga  Ga9  1  0.00000000  0.11915300  0.38084700  1
