# generated using pymatgen
data_K2ClF
_symmetry_space_group_name_H-M   'P 1'
_cell_length_a   6.33830214
_cell_length_b   7.01268721
_cell_length_c   9.49634743
_cell_angle_alpha   90.00000000
_cell_angle_beta   90.00000000
_cell_angle_gamma   89.99419403
_symmetry_Int_Tables_number   1
_chemical_formula_structural   K2ClF
_chemical_formula_sum   'K8 Cl4 F4'
_cell_volume   422.09868415
_cell_formula_units_Z   4
loop_
 _symmetry_equiv_pos_site_id
 _symmetry_equiv_pos_as_xyz
  1  'x, y, z'
loop_
 _atom_site_type_symbol
 _atom_site_label
 _atom_site_symmetry_multiplicity
 _atom_site_fract_x
 _atom_site_fract_y
 _atom_site_fract_z
 _atom_site_occupancy
  K  K0  1  0.36680799  0.04289200  0.48934398  1
  K  K1  1  0.14158803  0.54619399  0.48786798  1
  K  K2  1  0.63319204  0.95710798  0.98934396  1
  K  K3  1  0.85841201  0.45380599  0.98786796  1
  K  K4  1  0.82358099  0.17504500  0.30391199  1
  K  K5  1  0.68549303  0.67715298  0.66856897  1
  K  K6  1  0.17641905  0.82495498  0.80391196  1
  K  K7  1  0.31450701  0.32284699  0.16856899  1
  Cl  Cl8  1  0.67320803  0.67102898  0.30535899  1
  Cl  Cl9  1  0.83278699  0.17409200  0.66854897  1
  Cl  Cl10  1  0.32679201  0.32897099  0.80535896  1
  Cl  Cl11  1  0.16721305  0.82590798  0.16854899  1
  F  F12  1  0.54351001  0.38839899  0.50001298  1
  F  F13  1  0.95791203  0.88986198  0.48754298  1
  F  F14  1  0.45649003  0.61160099  0.00001300  1
  F  F15  1  0.04208801  0.11013800  0.98754296  1
