# generated using pymatgen
data_Na2CuO3
_symmetry_space_group_name_H-M   'P 1'
_cell_length_a   3.85929608
_cell_length_b   3.96125007
_cell_length_c   11.50295734
_cell_angle_alpha   99.91482544
_cell_angle_beta   99.65715790
_cell_angle_gamma   90.00000000
_symmetry_Int_Tables_number   1
_chemical_formula_structural   Na2CuO3
_chemical_formula_sum   'Na4 Cu2 O6'
_cell_volume   170.69631545
_cell_formula_units_Z   2
loop_
 _symmetry_equiv_pos_site_id
 _symmetry_equiv_pos_as_xyz
  1  'x, y, z'
loop_
 _atom_site_type_symbol
 _atom_site_label
 _atom_site_symmetry_multiplicity
 _atom_site_fract_x
 _atom_site_fract_y
 _atom_site_fract_z
 _atom_site_occupancy
  Na  Na0  1  -0.00000000  0.49999999  0.00000000  1
  Na  Na1  1  0.33489899  0.33489899  0.66979798  1
  Na  Na2  1  0.66510097  0.66510099  0.33020198  1
  Na  Na3  1  0.08514700  0.08514700  0.17029400  1
  Cu  Cu4  1  0.91485296  0.91485299  0.82970597  1
  Cu  Cu5  1  0.20471899  0.20471900  0.40943799  1
  O  O6  1  0.79528097  0.79528099  0.59056198  1
  O  O7  1  0.60250498  0.10250500  0.20500998  1
  O  O8  1  0.39749498  0.89749499  0.79498998  1
  O  O9  1  0.09333199  0.59333199  0.18666400  1
  O  O10  1  0.90666797  0.40666799  0.81333597  1
  O  O11  1  0.00000000  0.00000000  0.00000000  1
