# generated using pymatgen
data_Ba2Mn2Cu2SiO7
_symmetry_space_group_name_H-M   'P 1'
_cell_length_a   6.33738327
_cell_length_b   6.33738327
_cell_length_c   6.95026684
_cell_angle_alpha   75.95139313
_cell_angle_beta   75.95139313
_cell_angle_gamma   70.87797546
_symmetry_Int_Tables_number   1
_chemical_formula_structural   Ba2Mn2Cu2SiO7
_chemical_formula_sum   'Ba2 Mn2 Cu2 Si1 O7'
_cell_volume   251.75943784
_cell_formula_units_Z   1
loop_
 _symmetry_equiv_pos_site_id
 _symmetry_equiv_pos_as_xyz
  1  'x, y, z'
loop_
 _atom_site_type_symbol
 _atom_site_label
 _atom_site_symmetry_multiplicity
 _atom_site_fract_x
 _atom_site_fract_y
 _atom_site_fract_z
 _atom_site_occupancy
  Ba  Ba0  1  0.77841204  0.77841200  0.11383891  1
  Ba  Ba1  1  0.22158801  0.22158800  0.88616096  1
  Mn  Mn2  1  0.36205102  0.36205100  0.26852196  1
  Mn  Mn3  1  0.63794904  0.63794900  0.73147792  1
  Cu  Cu4  1  0.98907005  0.98906999  0.76808188  1
  Cu  Cu5  1  0.01093000  0.01093000  0.23191800  1
  Si  Si6  1  0.50888105  0.88995299  0.84648291  1
  O  O7  1  0.49111901  0.11004700  0.15351697  1
  O  O8  1  0.45750403  0.45750400  0.79800294  1
  O  O9  1  0.29347402  0.29347400  0.53419396  1
  O  O10  1  0.54249603  0.54249600  0.20199694  1
  O  O11  1  0.70652604  0.70652600  0.46580592  1
  O  O12  1  0.11004702  0.49111900  0.15351696  1
  O  O13  1  0.88995303  0.50888100  0.84648291  1
