# generated using pymatgen
data_Ce2Sn5
_symmetry_space_group_name_H-M   'P 1'
_cell_length_a   4.61572790
_cell_length_b   7.76557589
_cell_length_c   9.73318481
_cell_angle_alpha   107.68218994
_cell_angle_beta   90.00000000
_cell_angle_gamma   90.00000000
_symmetry_Int_Tables_number   1
_chemical_formula_structural   Ce2Sn5
_chemical_formula_sum   'Ce4 Sn10'
_cell_volume   332.39195438
_cell_formula_units_Z   2
loop_
 _symmetry_equiv_pos_site_id
 _symmetry_equiv_pos_as_xyz
  1  'x, y, z'
loop_
 _atom_site_type_symbol
 _atom_site_label
 _atom_site_symmetry_multiplicity
 _atom_site_fract_x
 _atom_site_fract_y
 _atom_site_fract_z
 _atom_site_occupancy
  Ce  Ce0  1  0.25000001  0.16724201  0.78837002  1
  Ce  Ce1  1  0.75000002  0.83275803  0.21163005  1
  Ce  Ce2  1  0.75000002  0.90352003  0.87716906  1
  Ce  Ce3  1  0.25000001  0.09648000  0.12283101  1
  Sn  Sn4  1  0.75000002  0.89525503  0.57179406  1
  Sn  Sn5  1  0.25000001  0.10474500  0.42820601  1
  Sn  Sn6  1  0.75000002  0.46240002  0.36775203  1
  Sn  Sn7  1  0.25000001  0.53760002  0.63224804  1
  Sn  Sn8  1  0.75000002  0.49532002  0.87091204  1
  Sn  Sn9  1  0.25000001  0.50468002  0.12908803  1
  Sn  Sn10  1  0.75000002  0.27312401  0.05812002  1
  Sn  Sn11  1  0.25000001  0.72687603  0.94188005  1
  Sn  Sn12  1  0.75000002  0.27555801  0.58031602  1
  Sn  Sn13  1  0.25000001  0.72444203  0.41968405  1
