# generated using pymatgen
data_KNbF6
_symmetry_space_group_name_H-M   'P 1'
_cell_length_a   4.88672638
_cell_length_b   4.88672638
_cell_length_c   4.88672638
_cell_angle_alpha   97.77556610
_cell_angle_beta   97.77556610
_cell_angle_gamma   97.77556610
_symmetry_Int_Tables_number   1
_chemical_formula_structural   KNbF6
_chemical_formula_sum   'K1 Nb1 F6'
_cell_volume   113.14856835
_cell_formula_units_Z   1
loop_
 _symmetry_equiv_pos_site_id
 _symmetry_equiv_pos_as_xyz
  1  'x, y, z'
loop_
 _atom_site_type_symbol
 _atom_site_label
 _atom_site_symmetry_multiplicity
 _atom_site_fract_x
 _atom_site_fract_y
 _atom_site_fract_z
 _atom_site_occupancy
  K  K0  1  0.50000000  0.50000000  0.50000005  1
  Nb  Nb1  1  0.00000000  0.00000000  0.00000000  1
  F  F2  1  0.21336501  0.92433899  0.25800506  1
  F  F3  1  0.92433899  0.25800500  0.21336506  1
  F  F4  1  0.74199500  0.78663499  0.07566108  1
  F  F5  1  0.07566101  0.74199499  0.78663504  1
  F  F6  1  0.78663499  0.07566100  0.74199504  1
  F  F7  1  0.25800500  0.21336500  0.92433902  1
