# generated using pymatgen
data_ScCoCu3Ge2
_symmetry_space_group_name_H-M   'P 1'
_cell_length_a   3.99595404
_cell_length_b   3.99595404
_cell_length_c   7.16021919
_cell_angle_alpha   90.00000000
_cell_angle_beta   90.00000000
_cell_angle_gamma   90.00000000
_symmetry_Int_Tables_number   1
_chemical_formula_structural   ScCoCu3Ge2
_chemical_formula_sum   'Sc1 Co1 Cu3 Ge2'
_cell_volume   114.33186442
_cell_formula_units_Z   1
loop_
 _symmetry_equiv_pos_site_id
 _symmetry_equiv_pos_as_xyz
  1  'x, y, z'
loop_
 _atom_site_type_symbol
 _atom_site_label
 _atom_site_symmetry_multiplicity
 _atom_site_fract_x
 _atom_site_fract_y
 _atom_site_fract_z
 _atom_site_occupancy
  Sc  Sc0  1  0.00000000  0.00000000  0.00000000  1
  Co  Co1  1  0.50000000  0.50000000  0.49999999  1
  Cu  Cu2  1  0.50000000  0.50000000  0.00000000  1
  Cu  Cu3  1  0.50000000  0.00000000  0.70033198  1
  Cu  Cu4  1  -0.00000000  0.50000000  0.70033198  1
  Ge  Ge5  1  0.50000000  0.00000000  0.29966799  1
  Ge  Ge6  1  -0.00000000  0.50000000  0.29966799  1
