# generated using pymatgen
data_RbNbO4
_symmetry_space_group_name_H-M   'P 1'
_cell_length_a   5.86870623
_cell_length_b   6.98310995
_cell_length_c   7.71493053
_cell_angle_alpha   116.90876770
_cell_angle_beta   112.35519409
_cell_angle_gamma   90.00000000
_symmetry_Int_Tables_number   1
_chemical_formula_structural   RbNbO4
_chemical_formula_sum   'Rb2 Nb2 O8'
_cell_volume   255.00695670
_cell_formula_units_Z   2
loop_
 _symmetry_equiv_pos_site_id
 _symmetry_equiv_pos_as_xyz
  1  'x, y, z'
loop_
 _atom_site_type_symbol
 _atom_site_label
 _atom_site_symmetry_multiplicity
 _atom_site_fract_x
 _atom_site_fract_y
 _atom_site_fract_z
 _atom_site_occupancy
  Rb  Rb0  1  0.28201498  0.28201501  0.56403001  1
  Rb  Rb1  1  0.71798496  0.71798502  0.43597001  1
  Nb  Nb2  1  -0.00000000  0.50000001  0.00000002  1
  Nb  Nb3  1  0.49999997  0.00000000  -0.00000002  1
  O  O4  1  0.49999997  0.72330902  1.00000003  1
  O  O5  1  0.49999997  0.27669101  -0.00000001  1
  O  O6  1  0.88823295  0.19533400  0.77646599  1
  O  O7  1  0.11176699  0.80466602  0.22353403  1
  O  O8  1  0.11176799  0.41886901  0.22353501  1
  O  O9  1  0.88823195  0.58113101  0.77646501  1
  O  O10  1  0.65623796  0.15623800  0.31247599  1
  O  O11  1  0.34376197  0.84376202  0.68752403  1
