# generated using pymatgen
data_Y(Al2Fe)4
_symmetry_space_group_name_H-M   'P 1'
_cell_length_a   5.02367020
_cell_length_b   6.84941483
_cell_length_c   6.84941483
_cell_angle_alpha   82.27113342
_cell_angle_beta   68.48636627
_cell_angle_gamma   68.48636627
_symmetry_Int_Tables_number   1
_chemical_formula_structural   Y(Al2Fe)4
_chemical_formula_sum   'Y1 Al8 Fe4'
_cell_volume   203.98696671
_cell_formula_units_Z   1
loop_
 _symmetry_equiv_pos_site_id
 _symmetry_equiv_pos_as_xyz
  1  'x, y, z'
loop_
 _atom_site_type_symbol
 _atom_site_label
 _atom_site_symmetry_multiplicity
 _atom_site_fract_x
 _atom_site_fract_y
 _atom_site_fract_z
 _atom_site_occupancy
  Y  Y0  1  0.00000000  0.00000000  0.00000000  1
  Al  Al1  1  0.34264294  0.65735703  0.65735701  1
  Al  Al2  1  0.65735696  0.34264301  0.34264298  1
  Al  Al3  1  -0.00000006  0.65735703  0.34264302  1
  Al  Al4  1  -0.00000003  0.34264301  0.65735702  1
  Al  Al5  1  0.27611098  0.22388901  0.22388900  1
  Al  Al6  1  0.72388892  0.77611103  0.77611100  1
  Al  Al7  1  0.49999997  0.22388901  0.77611100  1
  Al  Al8  1  0.49999992  0.77611103  0.22388899  1
  Fe  Fe9  1  0.49999999  0.00000000  0.49999999  1
  Fe  Fe10  1  0.00000000  0.00000000  0.50000001  1
  Fe  Fe11  1  0.49999995  0.50000002  -0.00000001  1
  Fe  Fe12  1  -0.00000004  0.50000002  0.00000001  1
