# generated using pymatgen
data_Rb2TiF6
_symmetry_space_group_name_H-M   'P 1'
_cell_length_a   4.92576885
_cell_length_b   6.22337198
_cell_length_c   6.22337198
_cell_angle_alpha   120.00000000
_cell_angle_beta   90.00000000
_cell_angle_gamma   90.00000000
_symmetry_Int_Tables_number   1
_chemical_formula_structural   Rb2TiF6
_chemical_formula_sum   'Rb2 Ti1 F6'
_cell_volume   165.21755108
_cell_formula_units_Z   1
loop_
 _symmetry_equiv_pos_site_id
 _symmetry_equiv_pos_as_xyz
  1  'x, y, z'
loop_
 _atom_site_type_symbol
 _atom_site_label
 _atom_site_symmetry_multiplicity
 _atom_site_fract_x
 _atom_site_fract_y
 _atom_site_fract_z
 _atom_site_occupancy
  Rb  Rb0  1  0.31231901  0.66666666  0.33333331  1
  Rb  Rb1  1  0.68768102  0.33333333  0.66666664  1
  Ti  Ti2  1  0.00000000  0.00000000  0.00000000  1
  F  F3  1  0.22555901  0.15572900  0.31145799  1
  F  F4  1  0.22555901  0.15572900  0.84427097  1
  F  F5  1  0.22555901  0.68854199  0.84427096  1
  F  F6  1  0.77444102  0.84427099  0.68854196  1
  F  F7  1  0.77444102  0.84427099  0.15572898  1
  F  F8  1  0.77444102  0.31145800  0.15572899  1
