# generated using pymatgen
data_CeHfO4
_symmetry_space_group_name_H-M   'P 1'
_cell_length_a   4.01417685
_cell_length_b   4.01417685
_cell_length_c   5.80658007
_cell_angle_alpha   90.00000000
_cell_angle_beta   90.00000000
_cell_angle_gamma   90.00000000
_symmetry_Int_Tables_number   1
_chemical_formula_structural   CeHfO4
_chemical_formula_sum   'Ce1 Hf1 O4'
_cell_volume   93.56500000
_cell_formula_units_Z   1
loop_
 _symmetry_equiv_pos_site_id
 _symmetry_equiv_pos_as_xyz
  1  'x, y, z'
loop_
 _atom_site_type_symbol
 _atom_site_label
 _atom_site_symmetry_multiplicity
 _atom_site_fract_x
 _atom_site_fract_y
 _atom_site_fract_z
 _atom_site_occupancy
  Hf  Hf0  1  0.00000000  0.50000002  0.71596699  1
  Ce  Ce1  1  0.50000002  0.00000000  0.28403300  1
  O  O2  1  0.00000000  0.00000000  0.49999999  1
  O  O3  1  0.50000002  0.50000002  0.49999999  1
  O  O4  1  0.00000000  0.00000000  0.00000000  1
  O  O5  1  0.50000002  0.50000002  0.00000000  1
