# generated using pymatgen
data_Na6AsO7
_symmetry_space_group_name_H-M   'P 1'
_cell_length_a   3.29232502
_cell_length_b   8.54594040
_cell_length_c   9.04992199
_cell_angle_alpha   104.09384155
_cell_angle_beta   100.48033142
_cell_angle_gamma   90.00000000
_symmetry_Int_Tables_number   1
_chemical_formula_structural   Na6AsO7
_chemical_formula_sum   'Na6 As1 O7'
_cell_volume   242.58189331
_cell_formula_units_Z   1
loop_
 _symmetry_equiv_pos_site_id
 _symmetry_equiv_pos_as_xyz
  1  'x, y, z'
loop_
 _atom_site_type_symbol
 _atom_site_label
 _atom_site_symmetry_multiplicity
 _atom_site_fract_x
 _atom_site_fract_y
 _atom_site_fract_z
 _atom_site_occupancy
  Na  Na0  1  0.50000000  0.00000000  0.00000001  1
  Na  Na1  1  1.00000001  0.50000000  1.00000000  1
  Na  Na2  1  0.71091901  0.85579201  0.42183896  1
  Na  Na3  1  0.28908100  0.14420800  0.57816100  1
  Na  Na4  1  0.64900301  0.49786500  0.29800499  1
  Na  Na5  1  0.35099701  0.50213500  0.70199498  1
  As  As6  1  0.83750001  0.99958501  0.67499996  1
  O  O7  1  0.16250000  0.00041500  0.32500001  1
  O  O8  1  0.76076901  0.34008300  0.52153800  1
  O  O9  1  0.23923101  0.65991700  0.47846197  1
  O  O10  1  0.91326201  0.67761400  0.82652398  1
  O  O11  1  0.08673800  0.32238600  0.17347598  1
  O  O12  1  0.57397201  0.67694400  0.14794297  1
  O  O13  1  0.42602801  0.32305600  0.85205700  1
