# generated using pymatgen
data_Mg7In
_symmetry_space_group_name_H-M   'P 1'
_cell_length_a   5.71618414
_cell_length_b   8.46581554
_cell_length_c   8.46581554
_cell_angle_alpha   120.00000000
_cell_angle_beta   90.00000000
_cell_angle_gamma   90.00000000
_symmetry_Int_Tables_number   1
_chemical_formula_structural   Mg7In
_chemical_formula_sum   'Mg14 In2'
_cell_volume   354.79251225
_cell_formula_units_Z   2
loop_
 _symmetry_equiv_pos_site_id
 _symmetry_equiv_pos_as_xyz
  1  'x, y, z'
loop_
 _atom_site_type_symbol
 _atom_site_label
 _atom_site_symmetry_multiplicity
 _atom_site_fract_x
 _atom_site_fract_y
 _atom_site_fract_z
 _atom_site_occupancy
  Mg  Mg0  1  0.24999999  0.24212401  -0.00000001  1
  Mg  Mg1  1  0.24999999  0.75787602  0.75787595  1
  Mg  Mg2  1  0.24999999  0.00000000  0.24212400  1
  Mg  Mg3  1  0.74999998  0.75787602  -0.00000004  1
  Mg  Mg4  1  0.74999998  0.24212401  0.24212398  1
  Mg  Mg5  1  0.74999998  0.00000000  0.75787599  1
  Mg  Mg6  1  -0.00000000  0.33333334  0.66666664  1
  Mg  Mg7  1  -0.00000000  0.66666669  0.33333329  1
  Mg  Mg8  1  0.49999999  0.66666669  0.33333329  1
  Mg  Mg9  1  0.49999999  0.33333334  0.66666664  1
  Mg  Mg10  1  0.24999999  0.60662702  -0.00000003  1
  Mg  Mg11  1  0.24999999  0.39337301  0.39337297  1
  Mg  Mg12  1  0.24999999  0.00000000  0.60662699  1
  Mg  Mg13  1  0.74999998  0.39337301  -0.00000002  1
  In  In14  1  0.74999998  0.60662702  0.60662696  1
  In  In15  1  0.74999998  0.00000000  0.39337299  1
