# generated using pymatgen
data_YbSi2
_symmetry_space_group_name_H-M   'P 1'
_cell_length_a   4.18253422
_cell_length_b   7.09408903
_cell_length_c   7.92693710
_cell_angle_alpha   90.00000000
_cell_angle_beta   90.00000000
_cell_angle_gamma   90.00000000
_symmetry_Int_Tables_number   1
_chemical_formula_structural   YbSi2
_chemical_formula_sum   'Yb4 Si8'
_cell_volume   235.20229200
_cell_formula_units_Z   4
loop_
 _symmetry_equiv_pos_site_id
 _symmetry_equiv_pos_as_xyz
  1  'x, y, z'
loop_
 _atom_site_type_symbol
 _atom_site_label
 _atom_site_symmetry_multiplicity
 _atom_site_fract_x
 _atom_site_fract_y
 _atom_site_fract_z
 _atom_site_occupancy
  Yb  Yb0  1  0.74999996  0.47623000  0.81352699  1
  Yb  Yb1  1  0.24999999  0.02377000  0.31352700  1
  Yb  Yb2  1  0.74999996  0.97623000  0.68647299  1
  Yb  Yb3  1  0.24999999  0.52377000  0.18647300  1
  Si  Si4  1  0.24999999  0.65002400  0.57252099  1
  Si  Si5  1  0.24999999  0.15002400  0.92747899  1
  Si  Si6  1  0.74999996  0.34997600  0.42747899  1
  Si  Si7  1  0.74999996  0.84997600  0.07252100  1
  Si  Si8  1  0.24999999  0.77399400  0.88466599  1
  Si  Si9  1  0.24999999  0.27399400  0.61533399  1
  Si  Si10  1  0.74999996  0.72600600  0.38466599  1
  Si  Si11  1  0.74999996  0.22600600  0.11533400  1
