# generated using pymatgen
data_LiS
_symmetry_space_group_name_H-M   'P 1'
_cell_length_a   6.46665001
_cell_length_b   6.62267208
_cell_length_c   7.98347092
_cell_angle_alpha   90.00000000
_cell_angle_beta   89.65025330
_cell_angle_gamma   90.00000000
_symmetry_Int_Tables_number   1
_chemical_formula_structural   LiS
_chemical_formula_sum   'Li8 S8'
_cell_volume   341.89776703
_cell_formula_units_Z   8
loop_
 _symmetry_equiv_pos_site_id
 _symmetry_equiv_pos_as_xyz
  1  'x, y, z'
loop_
 _atom_site_type_symbol
 _atom_site_label
 _atom_site_symmetry_multiplicity
 _atom_site_fract_x
 _atom_site_fract_y
 _atom_site_fract_z
 _atom_site_occupancy
  Li  Li0  1  0.27774700  0.68614399  0.32078100  1
  Li  Li1  1  0.77774700  0.31385600  0.82078101  1
  Li  Li2  1  0.78086900  0.81560599  0.57434102  1
  Li  Li3  1  0.28086900  0.18439400  0.07434101  1
  Li  Li4  1  0.26553700  0.68121699  0.82753099  1
  Li  Li5  1  0.76553700  0.31878300  0.32753102  1
  Li  Li6  1  0.77994500  0.84745399  0.07886203  1
  Li  Li7  1  0.27994500  0.15254600  0.57886200  1
  S  S8  1  0.38379600  0.87480299  0.08581701  1
  S  S9  1  0.88379600  0.12519700  0.58581702  1
  S  S10  1  0.91214400  0.68353899  0.35206502  1
  S  S11  1  0.41214400  0.31646100  0.85206500  1
  S  S12  1  0.44908400  0.80060399  0.56128000  1
  S  S13  1  0.94908400  0.19939600  0.06128003  1
  S  S14  1  0.87617000  0.66024199  0.79737201  1
  S  S15  1  0.37617000  0.33975800  0.29737201  1
