# generated using pymatgen
data_GdYO2
_symmetry_space_group_name_H-M   'P 1'
_cell_length_a   3.36322832
_cell_length_b   3.36322832
_cell_length_c   6.47963762
_cell_angle_alpha   74.95825195
_cell_angle_beta   74.95825195
_cell_angle_gamma   59.99999619
_symmetry_Int_Tables_number   1
_chemical_formula_structural   GdYO2
_chemical_formula_sum   'Gd1 Y1 O2'
_cell_volume   60.55664299
_cell_formula_units_Z   1
loop_
 _symmetry_equiv_pos_site_id
 _symmetry_equiv_pos_as_xyz
  1  'x, y, z'
loop_
 _atom_site_type_symbol
 _atom_site_label
 _atom_site_symmetry_multiplicity
 _atom_site_fract_x
 _atom_site_fract_y
 _atom_site_fract_z
 _atom_site_occupancy
  Y  Y0  1  0.49999998  0.49999998  0.50000003  1
  Gd  Gd1  1  0.00000000  0.00000000  0.00000000  1
  O  O2  1  0.27131399  0.27131399  0.18605801  1
  O  O3  1  0.72868598  0.72868597  0.81394204  1
