# generated using pymatgen
data_YNi
_symmetry_space_group_name_H-M   'P 1'
_cell_length_a   5.36708593
_cell_length_b   5.36708546
_cell_length_c   8.79399490
_cell_angle_alpha   90.00000000
_cell_angle_beta   90.00000000
_cell_angle_gamma   120.00000763
_symmetry_Int_Tables_number   1
_chemical_formula_structural   YNi
_chemical_formula_sum   'Y6 Ni6'
_cell_volume   219.37840125
_cell_formula_units_Z   6
loop_
 _symmetry_equiv_pos_site_id
 _symmetry_equiv_pos_as_xyz
  1  'x, y, z'
loop_
 _atom_site_type_symbol
 _atom_site_label
 _atom_site_symmetry_multiplicity
 _atom_site_fract_x
 _atom_site_fract_y
 _atom_site_fract_z
 _atom_site_occupancy
  Y  Y0  1  0.66666670  0.33333333  0.56438001  1
  Y  Y1  1  0.33333338  0.66666667  0.43562000  1
  Y  Y2  1  0.00000000  0.00000000  0.50000001  1
  Y  Y3  1  0.33333338  0.66666667  0.06438000  1
  Y  Y4  1  0.66666670  0.33333333  0.93562001  1
  Y  Y5  1  0.00000000  0.00000000  0.00000000  1
  Ni  Ni6  1  0.17289802  0.34579600  0.75000001  1
  Ni  Ni7  1  0.82710205  0.65420400  0.25000000  1
  Ni  Ni8  1  0.34579602  0.17289800  0.25000000  1
  Ni  Ni9  1  0.82710202  0.17289800  0.25000000  1
  Ni  Ni10  1  0.65420406  0.82710200  0.75000001  1
  Ni  Ni11  1  0.17289806  0.82710200  0.75000001  1
