# generated using pymatgen
data_Ca4Ce2(HfC3)3
_symmetry_space_group_name_H-M   'P 1'
_cell_length_a   5.74662590
_cell_length_b   5.74662590
_cell_length_c   8.36281586
_cell_angle_alpha   90.00000000
_cell_angle_beta   90.00000000
_cell_angle_gamma   90.00000000
_symmetry_Int_Tables_number   1
_chemical_formula_structural   Ca4Ce2(HfC3)3
_chemical_formula_sum   'Ca4 Ce2 Hf3 C9'
_cell_volume   276.17119927
_cell_formula_units_Z   1
loop_
 _symmetry_equiv_pos_site_id
 _symmetry_equiv_pos_as_xyz
  1  'x, y, z'
loop_
 _atom_site_type_symbol
 _atom_site_label
 _atom_site_symmetry_multiplicity
 _atom_site_fract_x
 _atom_site_fract_y
 _atom_site_fract_z
 _atom_site_occupancy
  Ca  Ca0  1  0.50000001  0.50000001  0.00000000  1
  Ca  Ca1  1  0.00000000  0.00000000  0.00000000  1
  Ca  Ca2  1  0.00000000  0.50000001  0.24128000  1
  Ca  Ca3  1  0.50000001  0.00000000  0.75872001  1
  Ce  Ce4  1  0.00000000  0.00000000  0.50000001  1
  Ce  Ce5  1  0.50000001  0.50000001  0.50000001  1
  Hf  Hf6  1  0.50000001  0.00000000  0.25942900  1
  Hf  Hf7  1  0.00000000  0.50000001  0.74057101  1
  C  C8  1  0.00000000  0.50000001  0.96456102  1
  Hf  Hf9  1  0.76807401  0.73192601  0.66741201  1
  C  C10  1  0.26807400  0.23192600  0.33258801  1
  C  C11  1  0.76807401  0.26807400  0.66741201  1
  C  C12  1  0.23192600  0.26807400  0.66741201  1
  C  C13  1  0.23192600  0.73192601  0.66741201  1
  C  C14  1  0.26807400  0.76807401  0.33258801  1
  C  C15  1  0.73192601  0.23192600  0.33258801  1
  C  C16  1  0.50000001  0.00000000  0.03543900  1
  C  C17  1  0.73192601  0.76807401  0.33258801  1
