# generated using pymatgen
data_YMgGa
_symmetry_space_group_name_H-M   'P 1'
_cell_length_a   4.06430578
_cell_length_b   7.67672777
_cell_length_c   7.67672777
_cell_angle_alpha   120.00000000
_cell_angle_beta   90.00000000
_cell_angle_gamma   90.00000000
_symmetry_Int_Tables_number   1
_chemical_formula_structural   YMgGa
_chemical_formula_sum   'Y3 Mg3 Ga3'
_cell_volume   207.42891090
_cell_formula_units_Z   3
loop_
 _symmetry_equiv_pos_site_id
 _symmetry_equiv_pos_as_xyz
  1  'x, y, z'
loop_
 _atom_site_type_symbol
 _atom_site_label
 _atom_site_symmetry_multiplicity
 _atom_site_fract_x
 _atom_site_fract_y
 _atom_site_fract_z
 _atom_site_occupancy
  Y  Y0  1  -0.00000000  0.58390801  0.99999996  1
  Y  Y1  1  -0.00000000  0.41609201  0.41609198  1
  Y  Y2  1  1.00000005  0.00000000  0.58390799  1
  Mg  Mg3  1  0.50000003  0.24941700  0.99999997  1
  Mg  Mg4  1  0.50000003  0.75058301  0.75058296  1
  Mg  Mg5  1  0.50000003  0.00000000  0.24941699  1
  Ga  Ga6  1  0.00000000  0.00000000  0.00000000  1
  Ga  Ga7  1  0.50000003  0.33333334  0.66666664  1
  Ga  Ga8  1  0.50000003  0.66666668  0.33333330  1
