# generated using pymatgen
data_PrGaSi
_symmetry_space_group_name_H-M   'P 1'
_cell_length_a   4.18022680
_cell_length_b   4.31445789
_cell_length_c   7.40423489
_cell_angle_alpha   90.00000000
_cell_angle_beta   90.00000000
_cell_angle_gamma   90.00000000
_symmetry_Int_Tables_number   1
_chemical_formula_structural   PrGaSi
_chemical_formula_sum   'Pr2 Ga2 Si2'
_cell_volume   133.53843061
_cell_formula_units_Z   2
loop_
 _symmetry_equiv_pos_site_id
 _symmetry_equiv_pos_as_xyz
  1  'x, y, z'
loop_
 _atom_site_type_symbol
 _atom_site_label
 _atom_site_symmetry_multiplicity
 _atom_site_fract_x
 _atom_site_fract_y
 _atom_site_fract_z
 _atom_site_occupancy
  Pr  Pr0  1  0.50000002  0.50000001  0.00690400  1
  Pr  Pr1  1  0.50000002  0.00000000  0.49499201  1
  Ga  Ga2  1  0.00000000  0.00000000  0.83696601  1
  Ga  Ga3  1  0.00000000  0.00000000  0.17498300  1
  Si  Si4  1  0.00000000  0.50000001  0.65768701  1
  Si  Si5  1  0.00000000  0.50000001  0.32846801  1
