# generated using pymatgen
data_Li4NiO5
_symmetry_space_group_name_H-M   'P 1'
_cell_length_a   4.46162987
_cell_length_b   5.29196262
_cell_length_c   5.29196262
_cell_angle_alpha   79.76403046
_cell_angle_beta   65.06765747
_cell_angle_gamma   65.06765747
_symmetry_Int_Tables_number   1
_chemical_formula_structural   Li4NiO5
_chemical_formula_sum   'Li4 Ni1 O5'
_cell_volume   102.74389806
_cell_formula_units_Z   1
loop_
 _symmetry_equiv_pos_site_id
 _symmetry_equiv_pos_as_xyz
  1  'x, y, z'
loop_
 _atom_site_type_symbol
 _atom_site_label
 _atom_site_symmetry_multiplicity
 _atom_site_fract_x
 _atom_site_fract_y
 _atom_site_fract_z
 _atom_site_occupancy
  Li  Li0  1  0.58371803  0.22982499  0.60273898  1
  Li  Li1  1  0.41628205  0.77017498  0.39726095  1
  Li  Li2  1  0.81354305  0.60273899  0.77017496  1
  Li  Li3  1  0.18645702  0.39726099  0.22982497  1
  Ni  Ni4  1  0.00000000  0.00000000  0.00000000  1
  O  O5  1  0.28655204  0.62652599  0.80037095  1
  O  O6  1  0.91307806  0.80037098  0.37347295  1
  O  O7  1  0.50000001  0.00000000  0.00000001  1
  O  O8  1  0.71344804  0.37347399  0.19962898  1
  O  O9  1  0.08692201  0.19962900  0.62652698  1
