# generated using pymatgen
data_Pr9Cd2GaSn8
_symmetry_space_group_name_H-M   'P 1'
_cell_length_a   5.03129292
_cell_length_b   10.94689178
_cell_length_c   10.94689178
_cell_angle_alpha   90.00000000
_cell_angle_beta   90.00000000
_cell_angle_gamma   90.00000000
_symmetry_Int_Tables_number   1
_chemical_formula_structural   Pr9Cd2GaSn8
_chemical_formula_sum   'Pr9 Cd2 Ga1 Sn8'
_cell_volume   602.92216770
_cell_formula_units_Z   1
loop_
 _symmetry_equiv_pos_site_id
 _symmetry_equiv_pos_as_xyz
  1  'x, y, z'
loop_
 _atom_site_type_symbol
 _atom_site_label
 _atom_site_symmetry_multiplicity
 _atom_site_fract_x
 _atom_site_fract_y
 _atom_site_fract_z
 _atom_site_occupancy
  Pr  Pr0  1  0.00000000  0.35350701  0.35350701  1
  Pr  Pr1  1  0.00000000  0.64649301  0.64649301  1
  Pr  Pr2  1  0.50000001  0.85350702  0.14649300  1
  Pr  Pr3  1  0.50000001  0.14649300  0.85350702  1
  Pr  Pr4  1  0.00000000  0.64331401  0.02808400  1
  Pr  Pr5  1  0.00000000  0.35668601  0.97191602  1
  Pr  Pr6  1  0.50000001  0.52808401  0.85668602  1
  Ga  Ga7  1  0.50000001  0.14331400  0.47191601  1
  Pr  Pr8  1  0.50000001  0.47191601  0.14331400  1
  Pr  Pr9  1  0.50000001  0.85668602  0.52808401  1
  Cd  Cd10  1  0.00000000  0.02808400  0.64331401  1
  Cd  Cd11  1  0.00000000  0.97191602  0.35668601  1
  Sn  Sn12  1  0.00000000  0.68895001  0.31105001  1
  Sn  Sn13  1  -0.00000000  0.31105001  0.68895001  1
  Sn  Sn14  1  0.50000001  0.81105002  0.81105002  1
  Sn  Sn15  1  0.50000001  0.18895000  0.18895000  1
  Sn  Sn16  1  0.00000000  0.09431300  0.09431300  1
  Sn  Sn17  1  1.00000002  0.90568702  0.90568702  1
  Sn  Sn18  1  0.50000001  0.59431301  0.40568701  1
  Sn  Sn19  1  0.50000001  0.40568701  0.59431301  1
