# generated using pymatgen
data_Li3MnO4
_symmetry_space_group_name_H-M   'P 1'
_cell_length_a   4.05297804
_cell_length_b   4.05297804
_cell_length_c   5.17647028
_cell_angle_alpha   113.04667664
_cell_angle_beta   113.04667664
_cell_angle_gamma   90.00000000
_symmetry_Int_Tables_number   1
_chemical_formula_structural   Li3MnO4
_chemical_formula_sum   'Li3 Mn1 O4'
_cell_volume   70.81102665
_cell_formula_units_Z   1
loop_
 _symmetry_equiv_pos_site_id
 _symmetry_equiv_pos_as_xyz
  1  'x, y, z'
loop_
 _atom_site_type_symbol
 _atom_site_label
 _atom_site_symmetry_multiplicity
 _atom_site_fract_x
 _atom_site_fract_y
 _atom_site_fract_z
 _atom_site_occupancy
  Li  Li0  1  0.25000005  0.75000002  0.50000009  1
  Li  Li1  1  0.50000004  0.50000001  0.00000007  1
  Li  Li2  1  0.75000003  0.25000001  0.50000008  1
  Mn  Mn3  1  0.00000000  0.00000000  0.00000000  1
  O  O4  1  0.52619601  0.02619600  0.05239203  1
  O  O5  1  0.23945502  0.23945501  0.47891005  1
  O  O6  1  0.97380405  0.47380401  0.94760812  1
  O  O7  1  0.76054506  0.76054502  0.52109012  1
