# generated using pymatgen
data_NaCa3(CuO4)2
_symmetry_space_group_name_H-M   'P 1'
_cell_length_a   3.85801506
_cell_length_b   3.85801506
_cell_length_c   11.88157177
_cell_angle_alpha   90.00000000
_cell_angle_beta   90.00000000
_cell_angle_gamma   90.00000000
_symmetry_Int_Tables_number   1
_chemical_formula_structural   NaCa3(CuO4)2
_chemical_formula_sum   'Na1 Ca3 Cu2 O8'
_cell_volume   176.84864351
_cell_formula_units_Z   1
loop_
 _symmetry_equiv_pos_site_id
 _symmetry_equiv_pos_as_xyz
  1  'x, y, z'
loop_
 _atom_site_type_symbol
 _atom_site_label
 _atom_site_symmetry_multiplicity
 _atom_site_fract_x
 _atom_site_fract_y
 _atom_site_fract_z
 _atom_site_occupancy
  Na  Na0  1  0.49999999  0.49999999  0.85889102  1
  Ca  Ca1  1  0.49999999  0.49999999  0.13490200  1
  Ca  Ca2  1  0.00000000  0.00000000  0.65011001  1
  Ca  Ca3  1  0.00000000  0.00000000  0.35732501  1
  Cu  Cu4  1  0.00000000  0.00000000  0.99788002  1
  Cu  Cu5  1  0.49999999  0.49999999  0.50555301  1
  O  O6  1  -0.00000000  0.49999999  0.00126200  1
  O  O7  1  0.49999999  0.00000000  0.49547601  1
  O  O8  1  0.49999999  0.00000000  0.00126200  1
  O  O9  1  -0.00000000  0.49999999  0.49547601  1
  O  O10  1  0.49999999  0.49999999  0.33247701  1
  O  O11  1  0.00000000  0.00000000  0.83463602  1
  O  O12  1  0.00000000  0.00000000  0.16830400  1
  O  O13  1  0.49999999  0.49999999  0.66644601  1
