# generated using pymatgen
data_NaLi3CuHO9
_symmetry_space_group_name_H-M   'P 1'
_cell_length_a   5.81420755
_cell_length_b   5.81420755
_cell_length_c   8.33993530
_cell_angle_alpha   98.85092163
_cell_angle_beta   104.38230896
_cell_angle_gamma   115.02433014
_symmetry_Int_Tables_number   1
_chemical_formula_structural   NaLi3CuHO9
_chemical_formula_sum   'Na1 Li3 Cu1 H1 O9'
_cell_volume   236.44687305
_cell_formula_units_Z   1
loop_
 _symmetry_equiv_pos_site_id
 _symmetry_equiv_pos_as_xyz
  1  'x, y, z'
loop_
 _atom_site_type_symbol
 _atom_site_label
 _atom_site_symmetry_multiplicity
 _atom_site_fract_x
 _atom_site_fract_y
 _atom_site_fract_z
 _atom_site_occupancy
  Na  Na0  1  -0.00000003  0.49999997  0.49999999  1
  Li  Li1  1  0.49999998  0.00000000  0.00000000  1
  Li  Li2  1  -0.00000003  0.49999997  -0.00000000  1
  Li  Li3  1  0.20255999  0.06275000  0.26530900  1
  Cu  Cu4  1  0.79743992  0.93724995  0.73469099  1
  H  H5  1  0.99939396  0.17187699  0.17127000  1
  O  O6  1  0.00060595  0.82812295  0.82872999  1
  O  O7  1  0.31204998  0.16552599  0.47757700  1
  O  O8  1  0.68794993  0.83447395  0.52242299  1
  O  O9  1  0.03293196  0.72035096  0.20624899  1
  O  O10  1  0.48589797  0.17331699  0.20624900  1
  O  O11  1  0.96706795  0.27964898  0.79375099  1
  O  O12  1  0.51410194  0.82668295  0.79375099  1
  O  O13  1  0.35894695  0.68512796  0.04407500  1
  O  O14  1  0.64105296  0.31487198  0.95592499  1
