# generated using pymatgen
data_SrHO3
_symmetry_space_group_name_H-M   'P 1'
_cell_length_a   3.83002901
_cell_length_b   5.12298203
_cell_length_c   6.64126587
_cell_angle_alpha   95.21131134
_cell_angle_beta   105.68559265
_cell_angle_gamma   90.60130310
_symmetry_Int_Tables_number   1
_chemical_formula_structural   SrHO3
_chemical_formula_sum   'Sr2 H2 O6'
_cell_volume   124.85455850
_cell_formula_units_Z   2
loop_
 _symmetry_equiv_pos_site_id
 _symmetry_equiv_pos_as_xyz
  1  'x, y, z'
loop_
 _atom_site_type_symbol
 _atom_site_label
 _atom_site_symmetry_multiplicity
 _atom_site_fract_x
 _atom_site_fract_y
 _atom_site_fract_z
 _atom_site_occupancy
  Sr  Sr0  1  0.60863602  0.31460601  0.25769299  1
  Sr  Sr1  1  0.39136405  0.68539401  0.74230700  1
  H  H2  1  0.98461400  0.20670600  0.75426898  1
  H  H3  1  0.01538606  0.79329402  0.24573102  1
  O  O4  1  0.80721502  0.38244401  0.63892199  1
  O  O5  1  0.19278504  0.61755601  0.36107801  1
  O  O6  1  0.88055906  0.96238402  0.71821900  1
  O  O7  1  0.11944100  0.03761600  0.28178100  1
  O  O8  1  0.27644502  0.28522401  0.89797100  1
  O  O9  1  0.72355504  0.71477601  0.10202900  1
