# generated using pymatgen
data_Na2NbO4
_symmetry_space_group_name_H-M   'P 1'
_cell_length_a   3.93715811
_cell_length_b   3.93715811
_cell_length_c   6.88960934
_cell_angle_alpha   106.60258484
_cell_angle_beta   106.60258484
_cell_angle_gamma   90.00000000
_symmetry_Int_Tables_number   1
_chemical_formula_structural   Na2NbO4
_chemical_formula_sum   'Na2 Nb1 O4'
_cell_volume   97.68976396
_cell_formula_units_Z   1
loop_
 _symmetry_equiv_pos_site_id
 _symmetry_equiv_pos_as_xyz
  1  'x, y, z'
loop_
 _atom_site_type_symbol
 _atom_site_label
 _atom_site_symmetry_multiplicity
 _atom_site_fract_x
 _atom_site_fract_y
 _atom_site_fract_z
 _atom_site_occupancy
  Na  Na0  1  0.64200899  0.64200899  0.28401802  1
  Na  Na1  1  0.35831700  0.35831699  0.71663402  1
  Nb  Nb2  1  0.00417700  0.00417700  0.00835400  1
  O  O3  1  0.83346199  0.83346198  0.66692403  1
  O  O4  1  0.17262700  0.17262700  0.34525401  1
  O  O5  1  0.99470399  0.49470399  0.98940803  1
  O  O6  1  0.49470400  0.99470398  0.98940803  1
