# generated using pymatgen
data_SrLiS2
_symmetry_space_group_name_H-M   'P 1'
_cell_length_a   3.67413640
_cell_length_b   3.67413640
_cell_length_c   7.38768244
_cell_angle_alpha   75.60138702
_cell_angle_beta   75.60138702
_cell_angle_gamma   59.99999619
_symmetry_Int_Tables_number   1
_chemical_formula_structural   SrLiS2
_chemical_formula_sum   'Sr1 Li1 S2'
_cell_volume   82.73038478
_cell_formula_units_Z   1
loop_
 _symmetry_equiv_pos_site_id
 _symmetry_equiv_pos_as_xyz
  1  'x, y, z'
loop_
 _atom_site_type_symbol
 _atom_site_label
 _atom_site_symmetry_multiplicity
 _atom_site_fract_x
 _atom_site_fract_y
 _atom_site_fract_z
 _atom_site_occupancy
  Sr  Sr0  1  0.49999999  0.49999998  0.50000003  1
  Li  Li1  1  0.00000000  0.00000000  0.00000000  1
  S  S2  1  0.72515698  0.72515697  0.82452905  1
  S  S3  1  0.27484299  0.27484299  0.17547102  1
