# generated using pymatgen
data_KLiS2
_symmetry_space_group_name_H-M   'P 1'
_cell_length_a   7.35667610
_cell_length_b   7.85620117
_cell_length_c   9.86451530
_cell_angle_alpha   86.82078552
_cell_angle_beta   83.19734955
_cell_angle_gamma   62.08194733
_symmetry_Int_Tables_number   1
_chemical_formula_structural   KLiS2
_chemical_formula_sum   'K4 Li4 S8'
_cell_volume   500.22613443
_cell_formula_units_Z   4
loop_
 _symmetry_equiv_pos_site_id
 _symmetry_equiv_pos_as_xyz
  1  'x, y, z'
loop_
 _atom_site_type_symbol
 _atom_site_label
 _atom_site_symmetry_multiplicity
 _atom_site_fract_x
 _atom_site_fract_y
 _atom_site_fract_z
 _atom_site_occupancy
  K  K0  1  0.63213599  0.18877400  0.56557898  1
  K  K1  1  0.17908999  0.18877400  0.93442096  1
  K  K2  1  0.36786398  0.81122601  0.43442095  1
  K  K3  1  0.82090997  0.81122601  0.06557897  1
  Li  Li4  1  0.45564298  0.60480000  0.86538894  1
  Li  Li5  1  0.93955697  0.60480000  0.63461096  1
  Li  Li6  1  0.54435698  0.39520000  0.13461098  1
  Li  Li7  1  0.06044299  0.39520000  0.36538897  1
  S  S8  1  0.39277999  0.21444000  0.24999998  1
  S  S9  1  0.60721998  0.78556001  0.74999994  1
  S  S10  1  0.66157398  0.26904400  0.91078896  1
  S  S11  1  0.06938199  0.26904400  0.58921096  1
  S  S12  1  0.33842598  0.73095600  0.08921096  1
  S  S13  1  0.93061797  0.73095600  0.41078896  1
  S  S14  1  0.18549299  0.62901400  0.74999994  1
  S  S15  1  0.81450698  0.37098600  0.24999998  1
