# generated using pymatgen
data_KCuS2
_symmetry_space_group_name_H-M   'P 1'
_cell_length_a   5.64723778
_cell_length_b   7.34485197
_cell_length_c   12.26959991
_cell_angle_alpha   84.92437744
_cell_angle_beta   76.69519806
_cell_angle_gamma   67.39132690
_symmetry_Int_Tables_number   1
_chemical_formula_structural   KCuS2
_chemical_formula_sum   'K4 Cu4 S8'
_cell_volume   457.20063022
_cell_formula_units_Z   4
loop_
 _symmetry_equiv_pos_site_id
 _symmetry_equiv_pos_as_xyz
  1  'x, y, z'
loop_
 _atom_site_type_symbol
 _atom_site_label
 _atom_site_symmetry_multiplicity
 _atom_site_fract_x
 _atom_site_fract_y
 _atom_site_fract_z
 _atom_site_occupancy
  K  K0  1  0.68003403  0.00000000  0.63993201  1
  K  K1  1  0.31996606  0.99999999  0.36006803  1
  K  K2  1  0.06996603  0.50000000  0.86006803  1
  K  K3  1  0.43003404  0.50000000  0.13993201  1
  Cu  Cu4  1  0.50000002  0.00000000  0.00000000  1
  Cu  Cu5  1  0.25000004  0.50000000  0.50000002  1
  Cu  Cu6  1  0.00000000  0.00000000  0.00000000  1
  Cu  Cu7  1  0.75000005  0.50000000  0.50000002  1
  S  S8  1  0.32734305  0.69938600  0.61250103  1
  S  S9  1  0.63923004  0.30061400  0.38749901  1
  S  S10  1  0.97327107  0.69938600  0.38749902  1
  S  S11  1  0.06015602  0.30061400  0.61250102  1
  S  S12  1  0.42265706  0.80061400  0.88749903  1
  S  S13  1  0.11077001  0.19938600  0.11250101  1
  S  S14  1  0.77672907  0.80061400  0.11250102  1
  S  S15  1  0.68984404  0.19938600  0.88749902  1
