# generated using pymatgen
data_SrHN2
_symmetry_space_group_name_H-M   'P 1'
_cell_length_a   4.19042110
_cell_length_b   4.27756262
_cell_length_c   4.27756262
_cell_angle_alpha   85.54657745
_cell_angle_beta   76.67814636
_cell_angle_gamma   76.67814636
_symmetry_Int_Tables_number   1
_chemical_formula_structural   SrHN2
_chemical_formula_sum   'Sr1 H1 N2'
_cell_volume   72.57905552
_cell_formula_units_Z   1
loop_
 _symmetry_equiv_pos_site_id
 _symmetry_equiv_pos_as_xyz
  1  'x, y, z'
loop_
 _atom_site_type_symbol
 _atom_site_label
 _atom_site_symmetry_multiplicity
 _atom_site_fract_x
 _atom_site_fract_y
 _atom_site_fract_z
 _atom_site_occupancy
  Sr  Sr0  1  0.05477493  0.99733597  0.99733603  1
  H  H1  1  0.44163999  0.49567699  0.49567699  1
  N  N2  1  0.59869102  0.23371699  0.60497296  1
  N  N3  1  0.59869099  0.60497298  0.23371700  1
