# generated using pymatgen
data_Ba3(WO4)2
_symmetry_space_group_name_H-M   'P 1'
_cell_length_a   5.84797525
_cell_length_b   5.84797525
_cell_length_c   7.81954479
_cell_angle_alpha   68.04160309
_cell_angle_beta   68.04160309
_cell_angle_gamma   60.00000763
_symmetry_Int_Tables_number   1
_chemical_formula_structural   Ba3(WO4)2
_chemical_formula_sum   'Ba3 W2 O8'
_cell_volume   208.89082937
_cell_formula_units_Z   1
loop_
 _symmetry_equiv_pos_site_id
 _symmetry_equiv_pos_as_xyz
  1  'x, y, z'
loop_
 _atom_site_type_symbol
 _atom_site_label
 _atom_site_symmetry_multiplicity
 _atom_site_fract_x
 _atom_site_fract_y
 _atom_site_fract_z
 _atom_site_occupancy
  Ba  Ba0  1  0.20391599  0.20391600  0.38825201  1
  Ba  Ba1  1  0.00023100  0.00023100  0.99930698  1
  Ba  Ba2  1  0.79501996  0.79502000  0.61494007  1
  W  W3  1  0.59274597  0.59274600  0.22176206  1
  W  W4  1  0.40806998  0.40807000  0.77579003  1
  O  O5  1  0.67530696  0.67530700  0.97407905  1
  O  O6  1  0.32661698  0.32661700  0.02014904  1
  O  O7  1  0.72621098  0.23975900  0.30781904  1
  O  O8  1  0.72621096  0.72621100  0.30781907  1
  O  O9  1  0.23975897  0.72621100  0.30781905  1
  O  O10  1  0.27238397  0.76114400  0.69408804  1
  O  O11  1  0.27238399  0.27238400  0.69408801  1
  O  O12  1  0.76114398  0.27238400  0.69408804  1
