# generated using pymatgen
data_Pr(FeSb3)4
_symmetry_space_group_name_H-M   'P 1'
_cell_length_a   7.95461464
_cell_length_b   7.95461464
_cell_length_c   7.95461464
_cell_angle_alpha   109.47122192
_cell_angle_beta   109.47122192
_cell_angle_gamma   109.47122192
_symmetry_Int_Tables_number   1
_chemical_formula_structural   Pr(FeSb3)4
_chemical_formula_sum   'Pr1 Fe4 Sb12'
_cell_volume   387.46771705
_cell_formula_units_Z   1
loop_
 _symmetry_equiv_pos_site_id
 _symmetry_equiv_pos_as_xyz
  1  'x, y, z'
loop_
 _atom_site_type_symbol
 _atom_site_label
 _atom_site_symmetry_multiplicity
 _atom_site_fract_x
 _atom_site_fract_y
 _atom_site_fract_z
 _atom_site_occupancy
  Pr  Pr0  1  0.00000000  0.00000000  0.00000000  1
  Fe  Fe1  1  0.50000008  1.00000006  1.00000009  1
  Fe  Fe2  1  0.00000000  0.00000000  0.50000001  1
  Fe  Fe3  1  1.00000006  0.50000003  1.00000007  1
  Fe  Fe4  1  0.50000005  0.50000003  0.50000005  1
  Sb  Sb5  1  0.49583802  0.16201901  0.33381903  1
  Sb  Sb6  1  0.50416207  0.83798105  0.66618107  1
  Sb  Sb7  1  0.17180106  0.83798205  0.33382006  1
  Sb  Sb8  1  0.82819903  0.16201801  0.66618004  1
  Sb  Sb9  1  0.16201905  0.66618104  0.82820006  1
  Sb  Sb10  1  0.83798105  0.33381902  0.17180004  1
  Sb  Sb11  1  0.83798107  0.66618004  0.50416207  1
  Sb  Sb12  1  0.16201903  0.33382002  0.49583803  1
  Sb  Sb13  1  0.33381902  0.17180001  0.83798104  1
  Sb  Sb14  1  0.66618107  0.82820005  0.16201907  1
  Sb  Sb15  1  0.66618105  0.50416203  0.83798206  1
  Sb  Sb16  1  0.33381904  0.49583803  0.16201804  1
