# generated using pymatgen
data_Mg5Ga6(FeCu)3
_symmetry_space_group_name_H-M   'P 1'
_cell_length_a   4.24839211
_cell_length_b   7.42247629
_cell_length_c   9.85311985
_cell_angle_alpha   74.21750641
_cell_angle_beta   77.55008698
_cell_angle_gamma   73.37034607
_symmetry_Int_Tables_number   1
_chemical_formula_structural   Mg5Ga6(FeCu)3
_chemical_formula_sum   'Mg5 Ga6 Fe3 Cu3'
_cell_volume   283.27066311
_cell_formula_units_Z   1
loop_
 _symmetry_equiv_pos_site_id
 _symmetry_equiv_pos_as_xyz
  1  'x, y, z'
loop_
 _atom_site_type_symbol
 _atom_site_label
 _atom_site_symmetry_multiplicity
 _atom_site_fract_x
 _atom_site_fract_y
 _atom_site_fract_z
 _atom_site_occupancy
  Mg  Mg0  1  0.80164394  0.31962299  0.07708903  1
  Mg  Mg1  1  0.39822198  0.05147900  0.15207702  1
  Fe  Fe2  1  0.39229993  0.56392699  0.65147305  1
  Mg  Mg3  1  0.39615896  0.30488299  0.90279906  1
  Mg  Mg4  1  0.01034498  0.23540299  0.74390704  1
  Mg  Mg5  1  0.98008289  0.77998198  0.25985205  1
  Ga  Ga6  1  0.58326893  0.47413699  0.35932504  1
  Ga  Ga7  1  0.61673489  0.93559098  0.83093907  1
  Ga  Ga8  1  0.60633591  0.70614698  0.08118103  1
  Ga  Ga9  1  0.20367893  0.67049198  0.92215006  1
  Fe  Fe10  1  0.80506189  0.82485398  0.56502206  1
  Ga  Ga11  1  0.20333098  0.15184100  0.44149703  1
  Cu  Cu12  1  0.00488391  0.99323198  0.99700007  1
  Fe  Fe13  1  0.61176896  0.19574800  0.58071404  1
  Ga  Ga14  1  0.19140696  0.40203099  0.21515502  1
  Cu  Cu15  1  0.80918592  0.56496499  0.81666307  1
  Cu  Cu16  1  0.38558791  0.82566798  0.40315605  1
