# generated using pymatgen
data_SrGdO2
_symmetry_space_group_name_H-M   'P 1'
_cell_length_a   3.38307977
_cell_length_b   3.38307977
_cell_length_c   6.81024742
_cell_angle_alpha   75.61824799
_cell_angle_beta   75.61824799
_cell_angle_gamma   60.00000763
_symmetry_Int_Tables_number   1
_chemical_formula_structural   SrGdO2
_chemical_formula_sum   'Sr1 Gd1 O2'
_cell_volume   64.66635638
_cell_formula_units_Z   1
loop_
 _symmetry_equiv_pos_site_id
 _symmetry_equiv_pos_as_xyz
  1  'x, y, z'
loop_
 _atom_site_type_symbol
 _atom_site_label
 _atom_site_symmetry_multiplicity
 _atom_site_fract_x
 _atom_site_fract_y
 _atom_site_fract_z
 _atom_site_occupancy
  Sr  Sr0  1  0.00000000  0.00000000  0.00000000  1
  Gd  Gd1  1  0.49999999  0.49999998  0.50000002  1
  O  O2  1  0.22393999  0.22393999  0.32818001  1
  O  O3  1  0.77605998  0.77605997  0.67182004  1
