# generated using pymatgen
data_B
_symmetry_space_group_name_H-M   'P 1'
_cell_length_a   4.14617538
_cell_length_b   4.14617538
_cell_length_c   4.18706226
_cell_angle_alpha   104.54907227
_cell_angle_beta   104.54907227
_cell_angle_gamma   119.51341248
_symmetry_Int_Tables_number   1
_chemical_formula_structural   B
_chemical_formula_sum   B6
_cell_volume   54.29183163
_cell_formula_units_Z   6
loop_
 _symmetry_equiv_pos_site_id
 _symmetry_equiv_pos_as_xyz
  1  'x, y, z'
loop_
 _atom_site_type_symbol
 _atom_site_label
 _atom_site_symmetry_multiplicity
 _atom_site_fract_x
 _atom_site_fract_y
 _atom_site_fract_z
 _atom_site_occupancy
  B  B0  1  0.15927198  0.84072799  -0.00000000  1
  B  B1  1  0.83523200  0.16476800  0.00000000  1
  B  B2  1  0.66722699  0.66458099  0.33180798  1
  B  B3  1  0.33541899  0.33277300  0.66819197  1
  B  B4  1  0.75142500  0.24857500  0.49999998  1
  B  B5  1  0.25142498  0.74857499  0.49999997  1
