# generated using pymatgen
data_BaNb2O6
_symmetry_space_group_name_H-M   'P 1'
_cell_length_a   7.20783186
_cell_length_b   7.47336483
_cell_length_c   7.47336483
_cell_angle_alpha   62.72616577
_cell_angle_beta   61.16854095
_cell_angle_gamma   61.16854095
_symmetry_Int_Tables_number   1
_chemical_formula_structural   BaNb2O6
_chemical_formula_sum   'Ba2 Nb4 O12'
_cell_volume   295.28738402
_cell_formula_units_Z   2
loop_
 _symmetry_equiv_pos_site_id
 _symmetry_equiv_pos_as_xyz
  1  'x, y, z'
loop_
 _atom_site_type_symbol
 _atom_site_label
 _atom_site_symmetry_multiplicity
 _atom_site_fract_x
 _atom_site_fract_y
 _atom_site_fract_z
 _atom_site_occupancy
  Ba  Ba0  1  0.62349100  0.62650898  0.12650901  1
  Ba  Ba1  1  0.37650900  0.37349099  0.87349099  1
  Nb  Nb2  1  1.00000002  0.49999999  0.49999999  1
  Nb  Nb3  1  0.00000000  0.00000000  0.00000000  1
  Nb  Nb4  1  0.50000002  0.00000000  0.49999998  1
  Nb  Nb5  1  1.00000003  0.00000000  0.49999997  1
  O  O6  1  0.07319198  0.67680798  0.17680802  1
  O  O7  1  0.68414902  0.06585100  0.56585097  1
  O  O8  1  0.07009300  0.06612800  0.17282000  1
  O  O9  1  0.69095900  0.67281998  0.56612800  1
  O  O10  1  0.69095902  0.06612800  0.17281998  1
  O  O11  1  0.07009298  0.67281998  0.56612801  1
  O  O12  1  0.92680802  0.32319199  0.82319197  1
  O  O13  1  0.31585098  0.93414898  0.43414902  1
  O  O14  1  0.92990700  0.93387198  0.82718000  1
  O  O15  1  0.30904100  0.32717999  0.43387200  1
  O  O16  1  0.30904098  0.93387198  0.82718001  1
  O  O17  1  0.92990702  0.32717999  0.43387198  1
