# generated using pymatgen
data_KS
_symmetry_space_group_name_H-M   'P 1'
_cell_length_a   7.53670979
_cell_length_b   7.82170010
_cell_length_c   10.86420918
_cell_angle_alpha   90.00000000
_cell_angle_beta   90.00000000
_cell_angle_gamma   90.00000000
_symmetry_Int_Tables_number   1
_chemical_formula_structural   KS
_chemical_formula_sum   'K10 S10'
_cell_volume   640.44386686
_cell_formula_units_Z   10
loop_
 _symmetry_equiv_pos_site_id
 _symmetry_equiv_pos_as_xyz
  1  'x, y, z'
loop_
 _atom_site_type_symbol
 _atom_site_label
 _atom_site_symmetry_multiplicity
 _atom_site_fract_x
 _atom_site_fract_y
 _atom_site_fract_z
 _atom_site_occupancy
  K  K0  1  0.07964800  0.47974799  0.25000000  1
  K  K1  1  0.20376901  0.20118400  0.54201599  1
  K  K2  1  0.20376901  0.20118400  0.95798398  1
  K  K3  1  0.29623101  0.70118399  0.54201599  1
  K  K4  1  0.29623101  0.70118399  0.95798398  1
  K  K5  1  0.42035201  0.97974799  0.25000000  1
  K  K6  1  0.57964802  0.02025200  0.74999999  1
  K  K7  1  0.70376902  0.29881600  0.04201600  1
  K  K8  1  0.70376902  0.29881600  0.45798399  1
  K  K9  1  0.79623102  0.79881599  0.04201600  1
  S  S10  1  0.79623102  0.79881599  0.45798399  1
  S  S11  1  0.92035203  0.52025199  0.74999999  1
  S  S12  1  0.01730900  0.94704799  0.74999999  1
  S  S13  1  0.48269101  0.44704799  0.74999999  1
  S  S14  1  0.51730901  0.55295199  0.25000000  1
  S  S15  1  0.98269103  0.05295200  0.25000000  1
  S  S16  1  0.00000000  0.49999999  -0.00000000  1
  S  S17  1  0.00000000  0.49999999  0.49999999  1
  S  S18  1  0.50000001  0.00000000  -0.00000000  1
  S  S19  1  0.50000001  0.00000000  0.49999999  1
