# generated using pymatgen
data_HfGaSi4
_symmetry_space_group_name_H-M   'P 1'
_cell_length_a   3.89134407
_cell_length_b   3.89134407
_cell_length_c   5.94041491
_cell_angle_alpha   90.00000000
_cell_angle_beta   90.00000000
_cell_angle_gamma   90.00000000
_symmetry_Int_Tables_number   1
_chemical_formula_structural   HfGaSi4
_chemical_formula_sum   'Hf1 Ga1 Si4'
_cell_volume   89.95308126
_cell_formula_units_Z   1
loop_
 _symmetry_equiv_pos_site_id
 _symmetry_equiv_pos_as_xyz
  1  'x, y, z'
loop_
 _atom_site_type_symbol
 _atom_site_label
 _atom_site_symmetry_multiplicity
 _atom_site_fract_x
 _atom_site_fract_y
 _atom_site_fract_z
 _atom_site_occupancy
  Hf  Hf0  1  0.49999999  0.49999999  0.00000000  1
  Ga  Ga1  1  0.00000000  0.00000000  0.00000000  1
  Si  Si2  1  0.00000000  0.49999999  0.70571501  1
  Si  Si3  1  0.49999999  0.00000000  0.29428500  1
  Si  Si4  1  0.49999999  0.00000000  0.71940601  1
  Si  Si5  1  0.00000000  0.49999999  0.28059400  1
