# generated using pymatgen
data_YSi2
_symmetry_space_group_name_H-M   'P 1'
_cell_length_a   4.05096197
_cell_length_b   6.95890188
_cell_length_c   7.88104486
_cell_angle_alpha   90.00000000
_cell_angle_beta   90.00000000
_cell_angle_gamma   90.00000000
_symmetry_Int_Tables_number   1
_chemical_formula_structural   YSi2
_chemical_formula_sum   'Y4 Si8'
_cell_volume   222.16860046
_cell_formula_units_Z   4
loop_
 _symmetry_equiv_pos_site_id
 _symmetry_equiv_pos_as_xyz
  1  'x, y, z'
loop_
 _atom_site_type_symbol
 _atom_site_label
 _atom_site_symmetry_multiplicity
 _atom_site_fract_x
 _atom_site_fract_y
 _atom_site_fract_z
 _atom_site_occupancy
  Y  Y0  1  0.25000000  0.52608401  0.18084600  1
  Y  Y1  1  0.75000001  0.47391601  0.81915401  1
  Y  Y2  1  0.25000000  0.02608400  0.31915401  1
  Y  Y3  1  0.75000001  0.97391602  0.68084601  1
  Si  Si4  1  0.75000001  0.36742201  0.44565801  1
  Si  Si5  1  0.25000000  0.13257800  0.94565802  1
  Si  Si6  1  0.75000001  0.86742201  0.05434200  1
  Si  Si7  1  0.25000000  0.63257801  0.55434201  1
  Si  Si8  1  0.25000000  0.27300400  0.62127001  1
  Si  Si9  1  0.75000001  0.22699600  0.12127000  1
  Si  Si10  1  0.25000000  0.77300401  0.87873002  1
  Si  Si11  1  0.75000001  0.72699601  0.37873001  1
