# generated using pymatgen
data_Li4CoSiO10
_symmetry_space_group_name_H-M   'P 1'
_cell_length_a   5.57308388
_cell_length_b   5.57308388
_cell_length_c   7.32119226
_cell_angle_alpha   112.37166595
_cell_angle_beta   112.37166595
_cell_angle_gamma   90.00000000
_symmetry_Int_Tables_number   1
_chemical_formula_structural   Li4CoSiO10
_chemical_formula_sum   'Li4 Co1 Si1 O10'
_cell_volume   191.63899412
_cell_formula_units_Z   1
loop_
 _symmetry_equiv_pos_site_id
 _symmetry_equiv_pos_as_xyz
  1  'x, y, z'
loop_
 _atom_site_type_symbol
 _atom_site_label
 _atom_site_symmetry_multiplicity
 _atom_site_fract_x
 _atom_site_fract_y
 _atom_site_fract_z
 _atom_site_occupancy
  Li  Li0  1  0.37500000  0.12500000  0.74999996  1
  Li  Li1  1  0.37499998  0.62500000  0.24999996  1
  Li  Li2  1  0.87499998  0.62500000  0.24999994  1
  Li  Li3  1  0.37499998  0.62500000  0.74999994  1
  Co  Co4  1  0.00000000  0.00000000  0.00000000  1
  Si  Si5  1  0.75000000  0.25000000  0.49999995  1
  O  O6  1  0.68156697  0.94785100  0.36313293  1
  O  O7  1  0.16528197  0.93156600  0.86313293  1
  O  O8  1  0.24999998  0.75000000  0.49999995  1
  O  O9  1  0.69785097  0.93156700  0.86313392  1
  O  O10  1  0.06843297  0.83471700  0.13686596  1
  O  O11  1  0.68156699  0.41528300  0.36313395  1
  O  O12  1  0.58471799  0.31843400  0.63686695  1
  O  O13  1  0.05214899  0.31843300  0.63686597  1
  O  O14  1  0.49999999  0.50000000  -0.00000004  1
  O  O15  1  0.06843299  0.30214900  0.13686698  1
