# generated using pymatgen
data_Ce3(GaSi)2
_symmetry_space_group_name_H-M   'P 1'
_cell_length_a   4.27231789
_cell_length_b   5.54082489
_cell_length_c   13.62949276
_cell_angle_alpha   90.00000000
_cell_angle_beta   90.00000000
_cell_angle_gamma   112.67670441
_symmetry_Int_Tables_number   1
_chemical_formula_structural   Ce3(GaSi)2
_chemical_formula_sum   'Ce6 Ga4 Si4'
_cell_volume   297.69792378
_cell_formula_units_Z   2
loop_
 _symmetry_equiv_pos_site_id
 _symmetry_equiv_pos_as_xyz
  1  'x, y, z'
loop_
 _atom_site_type_symbol
 _atom_site_label
 _atom_site_symmetry_multiplicity
 _atom_site_fract_x
 _atom_site_fract_y
 _atom_site_fract_z
 _atom_site_occupancy
  Ce  Ce0  1  0.71099905  0.42199800  0.60398001  1
  Ce  Ce1  1  0.28900105  0.57800200  0.39602001  1
  Ce  Ce2  1  0.00730700  0.01461400  0.25000000  1
  Ce  Ce3  1  0.99269310  0.98538601  0.75000001  1
  Ce  Ce4  1  0.28900105  0.57800200  0.10398000  1
  Ce  Ce5  1  0.71099905  0.42199800  0.89602002  1
  Ga  Ga6  1  0.00000000  0.00000000  0.50000001  1
  Ga  Ga7  1  0.00000000  0.00000000  0.00000000  1
  Si  Si8  1  0.29236005  0.58472000  0.75000001  1
  Ga  Ga9  1  0.70764005  0.41528000  0.25000000  1
  Si  Si10  1  0.57403403  0.14806800  0.08592800  1
  Ga  Ga11  1  0.42596608  0.85193201  0.91407202  1
  Si  Si12  1  0.42596608  0.85193201  0.58592801  1
  Si  Si13  1  0.57403403  0.14806800  0.41407201  1
