# generated using pymatgen
data_Y4Si4Sn
_symmetry_space_group_name_H-M   'P 1'
_cell_length_a   7.18884420
_cell_length_b   8.41511536
_cell_length_c   8.41511536
_cell_angle_alpha   62.95511246
_cell_angle_beta   64.71388245
_cell_angle_gamma   64.71388245
_symmetry_Int_Tables_number   1
_chemical_formula_structural   Y4Si4Sn
_chemical_formula_sum   'Y8 Si8 Sn2'
_cell_volume   392.44034804
_cell_formula_units_Z   2
loop_
 _symmetry_equiv_pos_site_id
 _symmetry_equiv_pos_as_xyz
  1  'x, y, z'
loop_
 _atom_site_type_symbol
 _atom_site_label
 _atom_site_symmetry_multiplicity
 _atom_site_fract_x
 _atom_site_fract_y
 _atom_site_fract_z
 _atom_site_occupancy
  Y  Y0  1  0.75695297  0.45891603  0.95891602  1
  Y  Y1  1  0.17478497  0.54108304  0.04108400  1
  Y  Y2  1  0.21865500  0.02051100  0.52051102  1
  Y  Y3  1  0.75967695  0.97949007  0.47948900  1
  Y  Y4  1  0.31810796  0.75148605  0.25148701  1
  Y  Y5  1  0.32108199  0.24851302  0.74851303  1
  Y  Y6  1  0.00082095  1.00000007  1.00000007  1
  Y  Y7  1  0.00082097  0.50000003  0.50000003  1
  Si  Si8  1  0.75469298  0.40173303  0.35552098  1
  Sn  Sn9  1  0.51194597  0.59826704  0.64447901  1
  Sn  Sn10  1  0.51194699  0.14447801  0.09826698  1
  Si  Si11  1  0.75469195  0.85552206  0.90173302  1
  Si  Si12  1  0.77785099  0.22814702  0.72814700  1
  Si  Si13  1  0.73414496  0.77185305  0.27185298  1
  Si  Si14  1  0.08997299  0.17008201  0.16384401  1
  Si  Si15  1  0.42389895  0.82991806  0.83615603  1
  Si  Si16  1  0.42389898  0.33615602  0.32991800  1
  Si  Si17  1  0.08997296  0.66384405  0.67008204  1
