# generated using pymatgen
data_TiBe11Mo
_symmetry_space_group_name_H-M   'P 1'
_cell_length_a   4.15045977
_cell_length_b   5.50427389
_cell_length_c   5.50427389
_cell_angle_alpha   81.82799530
_cell_angle_beta   67.85068512
_cell_angle_gamma   67.85068512
_symmetry_Int_Tables_number   1
_chemical_formula_structural   TiBe11Mo
_chemical_formula_sum   'Ti1 Be11 Mo1'
_cell_volume   107.87232139
_cell_formula_units_Z   1
loop_
 _symmetry_equiv_pos_site_id
 _symmetry_equiv_pos_as_xyz
  1  'x, y, z'
loop_
 _atom_site_type_symbol
 _atom_site_label
 _atom_site_symmetry_multiplicity
 _atom_site_fract_x
 _atom_site_fract_y
 _atom_site_fract_z
 _atom_site_occupancy
  Be  Be0  1  0.28799902  0.21200099  0.21200099  1
  Be  Be1  1  0.00000000  0.34904999  0.65094997  1
  Be  Be2  1  0.34905002  0.65094998  0.65094996  1
  Be  Be3  1  0.65095004  0.34904999  0.34904997  1
  Be  Be4  1  0.50000003  0.21200099  0.78799896  1
  Be  Be5  1  0.50000003  0.99999997  0.49999995  1
  Ti  Ti6  1  0.71200104  0.78799898  0.78799895  1
  Be  Be7  1  0.00000000  0.65094998  0.34904997  1
  Be  Be8  1  0.50000003  0.78799898  0.21200097  1
  Be  Be9  1  0.00000000  0.49999998  -0.00000001  1
  Be  Be10  1  0.50000003  0.49999998  -0.00000002  1
  Be  Be11  1  1.00000006  0.00000000  0.49999998  1
  Mo  Mo12  1  0.00000000  0.00000000  0.00000000  1
