# generated using pymatgen
data_Ba4NaSrO10
_symmetry_space_group_name_H-M   'P 1'
_cell_length_a   5.72749996
_cell_length_b   6.72979641
_cell_length_c   8.30862713
_cell_angle_alpha   108.78020477
_cell_angle_beta   90.00000000
_cell_angle_gamma   115.18440247
_symmetry_Int_Tables_number   1
_chemical_formula_structural   Ba4NaSrO10
_chemical_formula_sum   'Ba4 Na1 Sr1 O10'
_cell_volume   270.85290039
_cell_formula_units_Z   1
loop_
 _symmetry_equiv_pos_site_id
 _symmetry_equiv_pos_as_xyz
  1  'x, y, z'
loop_
 _atom_site_type_symbol
 _atom_site_label
 _atom_site_symmetry_multiplicity
 _atom_site_fract_x
 _atom_site_fract_y
 _atom_site_fract_z
 _atom_site_occupancy
  Ba  Ba0  1  0.31910003  0.63059002  0.15826697  1
  Ba  Ba1  1  0.31149003  0.63059002  0.65826696  1
  Ba  Ba2  1  0.00000000  0.00000000  0.00000000  1
  Ba  Ba3  1  0.00000000  0.00000000  0.49999999  1
  Sr  Sr4  1  0.68090002  0.36941001  0.84173297  1
  Na  Na5  1  0.68851002  0.36941001  0.34173298  1
  O  O6  1  0.08878403  0.67494802  0.88863896  1
  O  O7  1  0.07936403  0.68497302  0.45137896  1
  O  O8  1  0.60560903  0.68497302  0.95137895  1
  O  O9  1  0.58616403  0.67494802  0.38863896  1
  O  O10  1  0.39439102  0.31502701  0.04862098  1
  O  O11  1  0.10894700  0.00000000  0.25000000  1
  O  O12  1  0.41383602  0.32505201  0.61136098  1
  O  O13  1  0.89105301  0.00000000  0.74999999  1
  O  O14  1  0.92063602  0.31502701  0.54862098  1
  O  O15  1  0.91121602  0.32505201  0.11136098  1
