# generated using pymatgen
data_NpBe2H7
_symmetry_space_group_name_H-M   'P 1'
_cell_length_a   3.13735294
_cell_length_b   5.79346418
_cell_length_c   5.79346418
_cell_angle_alpha   90.00000000
_cell_angle_beta   90.00000000
_cell_angle_gamma   90.00000000
_symmetry_Int_Tables_number   1
_chemical_formula_structural   NpBe2H7
_chemical_formula_sum   'Np1 Be2 H7'
_cell_volume   105.30282715
_cell_formula_units_Z   1
loop_
 _symmetry_equiv_pos_site_id
 _symmetry_equiv_pos_as_xyz
  1  'x, y, z'
loop_
 _atom_site_type_symbol
 _atom_site_label
 _atom_site_symmetry_multiplicity
 _atom_site_fract_x
 _atom_site_fract_y
 _atom_site_fract_z
 _atom_site_occupancy
  Be  Be0  1  1.00000002  0.49999998  0.49999998  1
  Np  Np1  1  0.00000000  0.00000000  0.00000000  1
  Be  Be2  1  -0.00000000  0.11401800  0.61401798  1
  H  H3  1  -0.00000000  0.88598197  0.38598199  1
  H  H4  1  0.00000000  0.61401798  0.88598197  1
  H  H5  1  -0.00000000  0.38598199  0.11401800  1
  H  H6  1  0.50000001  0.67732198  0.17732199  1
  H  H7  1  0.50000001  0.32267799  0.82267797  1
  H  H8  1  0.50000001  0.17732199  0.32267799  1
  H  H9  1  0.50000001  0.82267797  0.67732198  1
