# generated using pymatgen
data_Li6NbO11
_symmetry_space_group_name_H-M   'P 1'
_cell_length_a   5.80901384
_cell_length_b   5.80901384
_cell_length_c   7.14321136
_cell_angle_alpha   74.43463898
_cell_angle_beta   74.43463898
_cell_angle_gamma   76.71310425
_symmetry_Int_Tables_number   1
_chemical_formula_structural   Li6NbO11
_chemical_formula_sum   'Li6 Nb1 O11'
_cell_volume   220.43003703
_cell_formula_units_Z   1
loop_
 _symmetry_equiv_pos_site_id
 _symmetry_equiv_pos_as_xyz
  1  'x, y, z'
loop_
 _atom_site_type_symbol
 _atom_site_label
 _atom_site_symmetry_multiplicity
 _atom_site_fract_x
 _atom_site_fract_y
 _atom_site_fract_z
 _atom_site_occupancy
  Li  Li0  1  0.33281199  0.33281201  0.16391301  1
  Li  Li1  1  0.65058797  0.65058802  0.32950903  1
  Li  Li2  1  0.34941198  0.34941201  0.67049102  1
  Li  Li3  1  0.66718797  0.66718802  0.83608704  1
  Li  Li4  1  0.00000000  0.00000000  0.50000001  1
  Li  Li5  1  0.00000000  0.00000000  0.00000000  1
  O  O6  1  0.42934098  0.42934101  0.37274102  1
  Nb  Nb7  1  0.75894197  0.75894202  0.03926903  1
  O  O8  1  0.24105799  0.24105801  0.96073102  1
  O  O9  1  0.57065897  0.57065901  0.62725903  1
  O  O10  1  0.97823799  0.36017601  0.32692903  1
  O  O11  1  0.63982401  0.02176200  0.67307102  1
  O  O12  1  0.12115699  0.12115700  0.69475701  1
  O  O13  1  0.87884296  0.87884302  0.30524304  1
  O  O14  1  0.02176196  0.63982402  0.67307103  1
  O  O15  1  0.36017595  0.97823802  0.32692903  1
  O  O16  1  0.69257299  0.30742701  0.00000002  1
  O  O17  1  0.30742696  0.69257302  1.00000004  1
