# generated using pymatgen
data_Pr3Sn5
_symmetry_space_group_name_H-M   'P 1'
_cell_length_a   8.46126366
_cell_length_b   9.10955811
_cell_length_c   8.46126366
_cell_angle_alpha   117.67248535
_cell_angle_beta   90.00000000
_cell_angle_gamma   117.67248535
_symmetry_Int_Tables_number   1
_chemical_formula_structural   Pr3Sn5
_chemical_formula_sum   'Pr6 Sn10'
_cell_volume   491.79510357
_cell_formula_units_Z   2
loop_
 _symmetry_equiv_pos_site_id
 _symmetry_equiv_pos_as_xyz
  1  'x, y, z'
loop_
 _atom_site_type_symbol
 _atom_site_label
 _atom_site_symmetry_multiplicity
 _atom_site_fract_x
 _atom_site_fract_y
 _atom_site_fract_z
 _atom_site_occupancy
  Pr  Pr0  1  0.01442300  0.33104500  0.81662203  1
  Pr  Pr1  1  0.31662201  0.33104500  0.51442302  1
  Pr  Pr2  1  0.51442302  0.33104500  0.01442300  1
  Pr  Pr3  1  0.81662203  0.33104500  0.31662201  1
  Sn  Sn4  1  0.98557703  0.66895501  0.18337800  1
  Pr  Pr5  1  0.68337802  0.66895501  0.48557701  1
  Pr  Pr6  1  0.48557701  0.66895501  0.98557703  1
  Sn  Sn7  1  0.18337800  0.66895501  0.68337802  1
  Sn  Sn8  1  0.25000001  0.50000000  0.25000001  1
  Sn  Sn9  1  0.75000003  0.50000000  0.75000003  1
  Sn  Sn10  1  0.63783703  0.00000000  0.86216304  1
  Sn  Sn11  1  0.36216301  1.00000001  0.13783700  1
  Sn  Sn12  1  0.13783701  0.00000000  0.63783703  1
  Sn  Sn13  1  0.86216304  0.00000000  0.36216301  1
  Sn  Sn14  1  0.00000000  0.00000000  0.00000000  1
  Sn  Sn15  1  0.50000002  0.00000000  0.50000002  1
