# generated using pymatgen
data_Rb3TlS4
_symmetry_space_group_name_H-M   'P 1'
_cell_length_a   7.42507744
_cell_length_b   7.42507744
_cell_length_c   7.42507744
_cell_angle_alpha   109.12422180
_cell_angle_beta   109.12422180
_cell_angle_gamma   110.16747284
_symmetry_Int_Tables_number   1
_chemical_formula_structural   Rb3TlS4
_chemical_formula_sum   'Rb3 Tl1 S4'
_cell_volume   315.08874217
_cell_formula_units_Z   1
loop_
 _symmetry_equiv_pos_site_id
 _symmetry_equiv_pos_as_xyz
  1  'x, y, z'
loop_
 _atom_site_type_symbol
 _atom_site_label
 _atom_site_symmetry_multiplicity
 _atom_site_fract_x
 _atom_site_fract_y
 _atom_site_fract_z
 _atom_site_occupancy
  Rb  Rb0  1  0.50000000  0.00000000  0.50000000  1
  Rb  Rb1  1  0.00000004  0.50000002  0.50000002  1
  Rb  Rb2  1  0.50000004  0.50000002  0.00000002  1
  Tl  Tl3  1  0.00000000  0.00000000  0.00000000  1
  S  S4  1  0.62009808  0.99893504  0.00000003  1
  S  S5  1  0.99893505  0.62009802  0.00000002  1
  S  S6  1  0.37990203  0.37990202  0.37883701  1
  S  S7  1  0.00106500  0.00106500  0.62116300  1
