# generated using pymatgen
data_Li6SiO8
_symmetry_space_group_name_H-M   'P 1'
_cell_length_a   4.86597109
_cell_length_b   5.51206970
_cell_length_c   6.07527971
_cell_angle_alpha   96.60469055
_cell_angle_beta   96.11129761
_cell_angle_gamma   98.05884552
_symmetry_Int_Tables_number   1
_chemical_formula_structural   Li6SiO8
_chemical_formula_sum   'Li6 Si1 O8'
_cell_volume   159.01896135
_cell_formula_units_Z   1
loop_
 _symmetry_equiv_pos_site_id
 _symmetry_equiv_pos_as_xyz
  1  'x, y, z'
loop_
 _atom_site_type_symbol
 _atom_site_label
 _atom_site_symmetry_multiplicity
 _atom_site_fract_x
 _atom_site_fract_y
 _atom_site_fract_z
 _atom_site_occupancy
  Li  Li0  1  0.15528801  0.29724100  0.56715200  1
  Li  Li1  1  0.32878501  0.55978901  0.17096900  1
  Li  Li2  1  0.67186200  0.44030300  0.82919498  1
  Li  Li3  1  0.84462201  0.70261001  0.43280899  1
  Li  Li4  1  0.00054600  0.00010600  0.00017800  1
  Li  Li5  1  0.37774802  0.79170801  0.70892801  1
  Si  Si6  1  0.62204199  0.20827600  0.29100298  1
  O  O7  1  0.26542501  0.60201301  0.86217000  1
  O  O8  1  0.25862302  0.68430301  0.46650801  1
  O  O9  1  0.29507800  0.18407900  0.26210699  1
  O  O10  1  0.28099800  0.04661800  0.77266599  1
  O  O11  1  0.71892602  0.95347501  0.22728000  1
  O  O12  1  0.70461401  0.81583001  0.73758100  1
  O  O13  1  0.74115600  0.31541500  0.53347598  1
  O  O14  1  0.73428700  0.39823300  0.13797999  1
