# generated using pymatgen
data_Li6CoNiWO7
_symmetry_space_group_name_H-M   'P 1'
_cell_length_a   6.03086901
_cell_length_b   6.03086901
_cell_length_c   6.05081367
_cell_angle_alpha   90.77722168
_cell_angle_beta   119.24423218
_cell_angle_gamma   119.75164032
_symmetry_Int_Tables_number   1
_chemical_formula_structural   Li6CoNiWO7
_chemical_formula_sum   'Li6 Co1 Ni1 W1 O7'
_cell_volume   156.90673749
_cell_formula_units_Z   1
loop_
 _symmetry_equiv_pos_site_id
 _symmetry_equiv_pos_as_xyz
  1  'x, y, z'
loop_
 _atom_site_type_symbol
 _atom_site_label
 _atom_site_symmetry_multiplicity
 _atom_site_fract_x
 _atom_site_fract_y
 _atom_site_fract_z
 _atom_site_occupancy
  Li  Li0  1  0.49999999  0.00000000  -0.00000001  1
  Li  Li1  1  -0.00000006  0.49999996  -0.00000004  1
  Li  Li2  1  0.49999999  0.00000000  0.49999998  1
  Li  Li3  1  0.49999992  0.49999996  -0.00000005  1
  Li  Li4  1  -0.00000006  0.49999996  0.49999995  1
  Li  Li5  1  0.00000000  0.00000000  0.00000000  1
  Co  Co6  1  0.49999992  0.49999996  0.49999994  1
  Ni  Ni7  1  0.00000000  0.00000000  0.49999999  1
  O  O8  1  0.47217895  0.24900698  0.72118596  1
  W  W9  1  0.00695990  0.75615594  0.26876393  1
  O  O10  1  0.51260795  0.26180398  0.26876397  1
  O  O11  1  0.52782089  0.75099294  0.27881393  1
  O  O12  1  0.99620588  0.74151694  0.73772291  1
  O  O13  1  0.99303994  0.24384398  0.73123595  1
  O  O14  1  0.48739189  0.73819594  0.73123592  1
  O  O15  1  0.00379397  0.25848298  0.26227697  1
