# generated using pymatgen
data_CeFeCo11
_symmetry_space_group_name_H-M   'P 1'
_cell_length_a   4.67283583
_cell_length_b   6.34413290
_cell_length_c   6.34413290
_cell_angle_alpha   81.90375519
_cell_angle_beta   68.39041138
_cell_angle_gamma   68.39041138
_symmetry_Int_Tables_number   1
_chemical_formula_structural   CeFeCo11
_chemical_formula_sum   'Ce1 Fe1 Co11'
_cell_volume   162.56114171
_cell_formula_units_Z   1
loop_
 _symmetry_equiv_pos_site_id
 _symmetry_equiv_pos_as_xyz
  1  'x, y, z'
loop_
 _atom_site_type_symbol
 _atom_site_label
 _atom_site_symmetry_multiplicity
 _atom_site_fract_x
 _atom_site_fract_y
 _atom_site_fract_z
 _atom_site_occupancy
  Ce  Ce0  1  -0.00000005  0.99293504  0.00706498  1
  Fe  Fe1  1  -0.00000002  0.36799602  0.63200401  1
  Co  Co2  1  0.49999999  0.77256703  0.22743297  1
  Co  Co3  1  0.50000002  0.22120201  0.77879800  1
  Co  Co4  1  0.72166700  0.77995203  0.77671397  1
  Co  Co5  1  0.27833300  0.22328601  0.22004799  1
  Co  Co6  1  0.00059695  0.99482504  0.49836799  1
  Co  Co7  1  0.50620997  0.99482504  0.49836797  1
  Co  Co8  1  0.49379000  0.50163202  0.00517497  1
  Co  Co9  1  0.99940303  0.50163202  0.00517495  1
  Co  Co10  1  -0.00000003  0.64559503  0.35440499  1
  Co  Co11  1  0.64129702  0.36047902  0.35692598  1
  Co  Co12  1  0.35870199  0.64307403  0.63952099  1
