# generated using pymatgen
data_Li2CuO3
_symmetry_space_group_name_H-M   'P 1'
_cell_length_a   4.98547983
_cell_length_b   5.00439978
_cell_length_c   7.02151918
_cell_angle_alpha   106.51951599
_cell_angle_beta   106.42276764
_cell_angle_gamma   101.68895721
_symmetry_Int_Tables_number   1
_chemical_formula_structural   Li2CuO3
_chemical_formula_sum   'Li4 Cu2 O6'
_cell_volume   153.28171196
_cell_formula_units_Z   2
loop_
 _symmetry_equiv_pos_site_id
 _symmetry_equiv_pos_as_xyz
  1  'x, y, z'
loop_
 _atom_site_type_symbol
 _atom_site_label
 _atom_site_symmetry_multiplicity
 _atom_site_fract_x
 _atom_site_fract_y
 _atom_site_fract_z
 _atom_site_occupancy
  Li  Li0  1  0.82592902  0.57593198  0.15193902  1
  Li  Li1  1  0.67407402  0.92407198  0.84806902  1
  Li  Li2  1  0.32590101  0.07590000  0.15187600  1
  Li  Li3  1  0.17410101  0.42410199  0.84813100  1
  Cu  Cu4  1  0.46625201  0.21624099  0.93243899  1
  Cu  Cu5  1  0.96624003  0.71624398  0.93243901  1
  O  O6  1  0.03374800  0.28375899  0.06755701  1
  O  O7  1  0.53376002  0.78375598  0.06755703  1
  O  O8  1  0.17626301  0.92628398  0.35276603  1
  O  O9  1  0.67625202  0.42625199  0.35276701  1
  O  O10  1  0.32373401  0.57371299  0.64723101  1
  O  O11  1  0.82374402  0.07374500  0.64722999  1
