# generated using pymatgen
data_YbPd2
_symmetry_space_group_name_H-M   'P 1'
_cell_length_a   4.09723997
_cell_length_b   5.65356684
_cell_length_c   5.80150604
_cell_angle_alpha   90.00000000
_cell_angle_beta   90.00000000
_cell_angle_gamma   111.24513245
_symmetry_Int_Tables_number   1
_chemical_formula_structural   YbPd2
_chemical_formula_sum   'Yb2 Pd4'
_cell_volume   125.25313534
_cell_formula_units_Z   2
loop_
 _symmetry_equiv_pos_site_id
 _symmetry_equiv_pos_as_xyz
  1  'x, y, z'
loop_
 _atom_site_type_symbol
 _atom_site_label
 _atom_site_symmetry_multiplicity
 _atom_site_fract_x
 _atom_site_fract_y
 _atom_site_fract_z
 _atom_site_occupancy
  Yb  Yb0  1  0.31203902  0.62407802  0.74999999  1
  Yb  Yb1  1  0.68796101  0.37592201  0.25000000  1
  Pd  Pd2  1  0.00000000  0.00000000  0.50000000  1
  Pd  Pd3  1  0.00000000  0.00000000  0.00000000  1
  Pd  Pd4  1  0.60521801  0.21043601  0.74999999  1
  Pd  Pd5  1  0.39478202  0.78956402  0.25000000  1
