# generated using pymatgen
data_LaGaGe
_symmetry_space_group_name_H-M   'P 1'
_cell_length_a   4.32415819
_cell_length_b   4.32415819
_cell_length_c   19.13454056
_cell_angle_alpha   90.00000000
_cell_angle_beta   90.00000000
_cell_angle_gamma   120.00000000
_symmetry_Int_Tables_number   1
_chemical_formula_structural   LaGaGe
_chemical_formula_sum   'La4 Ga4 Ge4'
_cell_volume   309.85022611
_cell_formula_units_Z   4
loop_
 _symmetry_equiv_pos_site_id
 _symmetry_equiv_pos_as_xyz
  1  'x, y, z'
loop_
 _atom_site_type_symbol
 _atom_site_label
 _atom_site_symmetry_multiplicity
 _atom_site_fract_x
 _atom_site_fract_y
 _atom_site_fract_z
 _atom_site_occupancy
  La  La0  1  0.00000000  0.00000000  0.50000001  1
  La  La1  1  0.00000000  0.00000000  0.00000000  1
  La  La2  1  0.00000000  0.00000000  0.75000002  1
  La  La3  1  0.00000000  0.00000000  0.25000001  1
  Ga  Ga4  1  0.66666665  0.33333335  0.64575801  1
  Ga  Ga5  1  0.33333335  0.66666669  0.35424201  1
  Ga  Ga6  1  0.33333335  0.66666669  0.14575800  1
  Ga  Ga7  1  0.66666665  0.33333335  0.85424202  1
  Ge  Ge8  1  0.66666665  0.33333335  0.11248000  1
  Ge  Ge9  1  0.33333335  0.66666669  0.88752002  1
  Ge  Ge10  1  0.33333335  0.66666669  0.61248001  1
  Ge  Ge11  1  0.66666665  0.33333335  0.38752001  1
