# generated using pymatgen
data_Na3Sr(CuS2)4
_symmetry_space_group_name_H-M   'P 1'
_cell_length_a   6.29483700
_cell_length_b   6.29483700
_cell_length_c   10.28345680
_cell_angle_alpha   90.00000000
_cell_angle_beta   90.00000000
_cell_angle_gamma   113.29791260
_symmetry_Int_Tables_number   1
_chemical_formula_structural   Na3Sr(CuS2)4
_chemical_formula_sum   'Na3 Sr1 Cu4 S8'
_cell_volume   374.25596131
_cell_formula_units_Z   1
loop_
 _symmetry_equiv_pos_site_id
 _symmetry_equiv_pos_as_xyz
  1  'x, y, z'
loop_
 _atom_site_type_symbol
 _atom_site_label
 _atom_site_symmetry_multiplicity
 _atom_site_fract_x
 _atom_site_fract_y
 _atom_site_fract_z
 _atom_site_occupancy
  Sr  Sr0  1  0.35659402  0.58989800  0.09972800  1
  Na  Na1  1  0.35659402  0.58989800  0.40027201  1
  Na  Na2  1  0.58989801  0.35659400  0.59972801  1
  Na  Na3  1  0.58989801  0.35659400  0.90027102  1
  Cu  Cu4  1  0.72577501  0.32459400  0.25000000  1
  Cu  Cu5  1  0.32459403  0.72577500  0.75000001  1
  Cu  Cu6  1  0.98610603  0.98610601  -0.00000000  1
  Cu  Cu7  1  0.98610603  0.98610601  0.50000001  1
  S  S8  1  0.90717401  0.51111300  0.06874800  1
  S  S9  1  0.73850703  0.97410401  0.25000000  1
  S  S10  1  0.35151201  0.27392700  0.25000000  1
  S  S11  1  0.90717401  0.51111300  0.43125201  1
  S  S12  1  0.51111303  0.90717400  0.56874801  1
  S  S13  1  0.97410402  0.73850700  0.75000001  1
  S  S14  1  0.27392701  0.35151200  0.75000001  1
  S  S15  1  0.51111303  0.90717400  0.93125202  1
