# generated using pymatgen
data_NaSiO4
_symmetry_space_group_name_H-M   'P 1'
_cell_length_a   5.18687391
_cell_length_b   5.18687391
_cell_length_c   6.86046410
_cell_angle_alpha   112.21149445
_cell_angle_beta   112.21149445
_cell_angle_gamma   90.00000000
_symmetry_Int_Tables_number   1
_chemical_formula_structural   NaSiO4
_chemical_formula_sum   'Na2 Si2 O8'
_cell_volume   155.98122841
_cell_formula_units_Z   2
loop_
 _symmetry_equiv_pos_site_id
 _symmetry_equiv_pos_as_xyz
  1  'x, y, z'
loop_
 _atom_site_type_symbol
 _atom_site_label
 _atom_site_symmetry_multiplicity
 _atom_site_fract_x
 _atom_site_fract_y
 _atom_site_fract_z
 _atom_site_occupancy
  Na  Na0  1  0.75000005  0.25000001  0.50000006  1
  Na  Na1  1  0.00000000  0.00000000  0.00000000  1
  Si  Si2  1  0.25000006  0.75000004  0.50000007  1
  Si  Si3  1  0.50000005  0.50000003  0.00000006  1
  O  O4  1  0.17281004  0.56459103  0.83979505  1
  O  O5  1  0.66698505  0.27520401  0.83979606  1
  O  O6  1  0.31459207  0.91698605  0.33979608  1
  O  O7  1  0.02520403  0.42281002  0.33979503  1
  O  O8  1  0.57719007  0.68540904  0.66020508  1
  O  O9  1  0.08301506  0.97479605  0.66020408  1
  O  O10  1  0.43540804  0.33301402  0.16020405  1
  O  O11  1  0.72479608  0.82719004  0.16020510  1
