# generated using pymatgen
data_CeGaPd
_symmetry_space_group_name_H-M   'P 1'
_cell_length_a   4.21464777
_cell_length_b   6.92495394
_cell_length_c   8.53950405
_cell_angle_alpha   90.00000000
_cell_angle_beta   90.00000000
_cell_angle_gamma   90.00000000
_symmetry_Int_Tables_number   1
_chemical_formula_structural   CeGaPd
_chemical_formula_sum   'Ce4 Ga4 Pd4'
_cell_volume   249.23602898
_cell_formula_units_Z   4
loop_
 _symmetry_equiv_pos_site_id
 _symmetry_equiv_pos_as_xyz
  1  'x, y, z'
loop_
 _atom_site_type_symbol
 _atom_site_label
 _atom_site_symmetry_multiplicity
 _atom_site_fract_x
 _atom_site_fract_y
 _atom_site_fract_z
 _atom_site_occupancy
  Ce  Ce0  1  0.25000001  0.03779000  0.17558400  1
  Ce  Ce1  1  0.75000004  0.96221001  0.82441600  1
  Ce  Ce2  1  0.25000001  0.53779000  0.32441600  1
  Ce  Ce3  1  0.75000004  0.46221000  0.67558400  1
  Ga  Ga4  1  0.75000004  0.35608300  0.05922100  1
  Ga  Ga5  1  0.25000001  0.64391701  0.94077899  1
  Ga  Ga6  1  0.75000004  0.85608301  0.44077900  1
  Ga  Ga7  1  0.25000001  0.14391700  0.55922100  1
  Pd  Pd8  1  0.25000001  0.74185301  0.63194100  1
  Pd  Pd9  1  0.75000004  0.25814700  0.36805900  1
  Pd  Pd10  1  0.25000001  0.24185300  0.86805899  1
  Pd  Pd11  1  0.75000004  0.75814701  0.13194100  1
