# generated using pymatgen
data_LiMgPdPt
_symmetry_space_group_name_H-M   'P 1'
_cell_length_a   4.39297295
_cell_length_b   4.39297295
_cell_length_c   4.39297295
_cell_angle_alpha   60.00000000
_cell_angle_beta   60.00000000
_cell_angle_gamma   60.00000000
_symmetry_Int_Tables_number   1
_chemical_formula_structural   LiMgPdPt
_chemical_formula_sum   'Li1 Mg1 Pd1 Pt1'
_cell_volume   59.94605230
_cell_formula_units_Z   1
loop_
 _symmetry_equiv_pos_site_id
 _symmetry_equiv_pos_as_xyz
  1  'x, y, z'
loop_
 _atom_site_type_symbol
 _atom_site_label
 _atom_site_symmetry_multiplicity
 _atom_site_fract_x
 _atom_site_fract_y
 _atom_site_fract_z
 _atom_site_occupancy
  Li  Li0  1  0.50000001  0.50000001  0.50000001  1
  Mg  Mg1  1  0.75000001  0.75000001  0.75000001  1
  Pd  Pd2  1  0.25000000  0.25000000  0.25000000  1
  Pt  Pt3  1  0.00000000  0.00000000  0.00000000  1
