# generated using pymatgen
data_K3Sb4
_symmetry_space_group_name_H-M   'P 1'
_cell_length_a   4.25448084
_cell_length_b   8.89334393
_cell_length_c   12.34491539
_cell_angle_alpha   93.78514862
_cell_angle_beta   90.00000000
_cell_angle_gamma   90.00000000
_symmetry_Int_Tables_number   1
_chemical_formula_structural   K3Sb4
_chemical_formula_sum   'K6 Sb8'
_cell_volume   466.07024615
_cell_formula_units_Z   2
loop_
 _symmetry_equiv_pos_site_id
 _symmetry_equiv_pos_as_xyz
  1  'x, y, z'
loop_
 _atom_site_type_symbol
 _atom_site_label
 _atom_site_symmetry_multiplicity
 _atom_site_fract_x
 _atom_site_fract_y
 _atom_site_fract_z
 _atom_site_occupancy
  K  K0  1  0.25000001  0.86769301  0.12663099  1
  K  K1  1  0.75000003  0.13230700  0.87336897  1
  K  K2  1  0.25000001  0.90045301  0.68433297  1
  K  K3  1  0.75000003  0.09954700  0.31566699  1
  K  K4  1  0.75000003  0.74105301  0.89632697  1
  K  K5  1  0.25000001  0.25894700  0.10367299  1
  Sb  Sb6  1  0.25000001  0.94673901  0.90739896  1
  Sb  Sb7  1  0.75000003  0.05326100  0.09260100  1
  Sb  Sb8  1  0.75000003  0.64729600  0.63626598  1
  Sb  Sb9  1  0.25000001  0.35270400  0.36373399  1
  Sb  Sb10  1  0.25000001  0.85900801  0.39262698  1
  Sb  Sb11  1  0.75000003  0.14099200  0.60737298  1
  Sb  Sb12  1  0.75000003  0.57455700  0.13246799  1
  Sb  Sb13  1  0.25000001  0.42544300  0.86753197  1
