# generated using pymatgen
data_Ca2Cd
_symmetry_space_group_name_H-M   'P 1'
_cell_length_a   3.87249804
_cell_length_b   5.99750805
_cell_length_c   9.52424049
_cell_angle_alpha   90.00000000
_cell_angle_beta   101.72982025
_cell_angle_gamma   90.00000000
_symmetry_Int_Tables_number   1
_chemical_formula_structural   Ca2Cd
_chemical_formula_sum   'Ca4 Cd2'
_cell_volume   216.58433884
_cell_formula_units_Z   2
loop_
 _symmetry_equiv_pos_site_id
 _symmetry_equiv_pos_as_xyz
  1  'x, y, z'
loop_
 _atom_site_type_symbol
 _atom_site_label
 _atom_site_symmetry_multiplicity
 _atom_site_fract_x
 _atom_site_fract_y
 _atom_site_fract_z
 _atom_site_occupancy
  Ca  Ca0  1  0.09169700  0.25000000  0.18339400  1
  Ca  Ca1  1  0.78172999  0.25000000  0.56345999  1
  Ca  Ca2  1  0.90830299  0.74999999  0.81660599  1
  Ca  Ca3  1  0.21827000  0.74999999  0.43654000  1
  Cd  Cd4  1  0.43846199  0.25000000  0.87692399  1
  Cd  Cd5  1  0.56153799  0.74999999  0.12307599  1
