# generated using pymatgen
data_Be7Tc
_symmetry_space_group_name_H-M   'P 1'
_cell_length_a   4.08870697
_cell_length_b   5.11215210
_cell_length_c   5.11215258
_cell_angle_alpha   60.00000381
_cell_angle_beta   90.00000000
_cell_angle_gamma   90.00000000
_symmetry_Int_Tables_number   1
_chemical_formula_structural   Be7Tc
_chemical_formula_sum   'Be7 Tc1'
_cell_volume   92.53887361
_cell_formula_units_Z   1
loop_
 _symmetry_equiv_pos_site_id
 _symmetry_equiv_pos_as_xyz
  1  'x, y, z'
loop_
 _atom_site_type_symbol
 _atom_site_label
 _atom_site_symmetry_multiplicity
 _atom_site_fract_x
 _atom_site_fract_y
 _atom_site_fract_z
 _atom_site_occupancy
  Be  Be0  1  0.75000001  0.32374999  0.83812498  1
  Be  Be1  1  0.25000000  0.16187500  0.67624998  1
  Be  Be2  1  0.25000000  0.16187500  0.16187500  1
  Be  Be3  1  0.75000001  0.83812497  0.83812499  1
  Be  Be4  1  0.75000001  0.83812497  0.32375001  1
  Be  Be5  1  0.25000000  0.67624998  0.16187501  1
  Be  Be6  1  0.75000001  0.33333332  0.33333333  1
  Tc  Tc7  1  0.25000000  0.66666665  0.66666666  1
