# generated using pymatgen
data_NaSr4Li(CuO6)2
_symmetry_space_group_name_H-M   'P 1'
_cell_length_a   5.65444994
_cell_length_b   5.91143608
_cell_length_c   8.14967728
_cell_angle_alpha   90.00000000
_cell_angle_beta   90.21030426
_cell_angle_gamma   90.00000000
_symmetry_Int_Tables_number   1
_chemical_formula_structural   NaSr4Li(CuO6)2
_chemical_formula_sum   'Na1 Sr4 Li1 Cu2 O12'
_cell_volume   272.40862068
_cell_formula_units_Z   1
loop_
 _symmetry_equiv_pos_site_id
 _symmetry_equiv_pos_as_xyz
  1  'x, y, z'
loop_
 _atom_site_type_symbol
 _atom_site_label
 _atom_site_symmetry_multiplicity
 _atom_site_fract_x
 _atom_site_fract_y
 _atom_site_fract_z
 _atom_site_occupancy
  Sr  Sr0  1  0.98474399  0.05799500  0.24745900  1
  Sr  Sr1  1  0.48474399  0.44200499  0.74745900  1
  Sr  Sr2  1  0.50027099  0.00460100  0.49925700  1
  Sr  Sr3  1  0.00027100  0.49539899  0.99925700  1
  Na  Na4  1  0.01482400  0.94401999  0.75279500  1
  Li  Li5  1  0.51482399  0.55597999  0.25279500  1
  Cu  Cu6  1  0.00055800  0.49943899  0.50063600  1
  Cu  Cu7  1  0.50055799  0.00056100  0.00063600  1
  O  O8  1  0.28665500  0.67954599  0.55331600  1
  O  O9  1  0.78665499  0.82045399  0.05331600  1
  O  O10  1  0.71533899  0.32004600  0.44711500  1
  O  O11  1  0.21533900  0.17995400  0.94711500  1
  O  O12  1  0.11024000  0.45010399  0.27076700  1
  O  O13  1  0.61023999  0.04989600  0.77076700  1
  O  O14  1  0.88608499  0.54567799  0.72880100  1
  O  O15  1  0.38608499  0.95432199  0.22880100  1
  O  O16  1  0.17370100  0.21874200  0.56487500  1
  O  O17  1  0.67370099  0.28125800  0.06487500  1
  O  O18  1  0.82758299  0.78148599  0.43497900  1
  O  O19  1  0.32758300  0.71851399  0.93497900  1
