# generated using pymatgen
data_Pr3In4Au3
_symmetry_space_group_name_H-M   'P 1'
_cell_length_a   8.71346569
_cell_length_b   8.71346569
_cell_length_c   8.71346569
_cell_angle_alpha   109.47122192
_cell_angle_beta   109.47122192
_cell_angle_gamma   109.47122192
_symmetry_Int_Tables_number   1
_chemical_formula_structural   Pr3In4Au3
_chemical_formula_sum   'Pr6 In8 Au6'
_cell_volume   509.27324989
_cell_formula_units_Z   2
loop_
 _symmetry_equiv_pos_site_id
 _symmetry_equiv_pos_as_xyz
  1  'x, y, z'
loop_
 _atom_site_type_symbol
 _atom_site_label
 _atom_site_symmetry_multiplicity
 _atom_site_fract_x
 _atom_site_fract_y
 _atom_site_fract_z
 _atom_site_occupancy
  Pr  Pr0  1  0.75000005  0.12500001  0.37500004  1
  Pr  Pr1  1  0.25000004  0.37500003  0.12500003  1
  Pr  Pr2  1  0.37500006  0.62500005  0.75000008  1
  Pr  Pr3  1  0.12500006  0.87500008  0.25000006  1
  Pr  Pr4  1  0.62500005  0.25000002  0.87500007  1
  Pr  Pr5  1  0.87500010  0.75000007  0.62500009  1
  In  In6  1  0.82144611  1.00000009  1.00000012  1
  In  In7  1  0.00000003  0.50000004  0.32144604  1
  In  In8  1  0.50000008  0.82144607  0.50000008  1
  In  In9  1  0.32144608  1.00000009  1.00000011  1
  In  In10  1  0.67855408  0.67855406  0.17855406  1
  In  In11  1  0.00000003  0.50000004  0.82144607  1
  In  In12  1  0.17855402  0.17855402  0.67855405  1
  In  In13  1  0.50000005  0.32144603  0.50000005  1
  Au  Au14  1  0.75000008  0.62500005  0.87500009  1
  Au  Au15  1  0.25000007  0.87500008  0.62500008  1
  Au  Au16  1  0.87500006  0.12500001  0.75000006  1
  Au  Au17  1  0.62500006  0.37500003  0.25000005  1
  Au  Au18  1  0.12500002  0.25000002  0.37500003  1
  Au  Au19  1  0.37500007  0.75000007  0.12500006  1
