# generated using pymatgen
data_Sr2BiPb2
_symmetry_space_group_name_H-M   'P 1'
_cell_length_a   4.64844179
_cell_length_b   7.94777489
_cell_length_c   11.92035294
_cell_angle_alpha   90.00000000
_cell_angle_beta   90.00000000
_cell_angle_gamma   107.00389099
_symmetry_Int_Tables_number   1
_chemical_formula_structural   Sr2BiPb2
_chemical_formula_sum   'Sr4 Bi2 Pb4'
_cell_volume   421.14278654
_cell_formula_units_Z   2
loop_
 _symmetry_equiv_pos_site_id
 _symmetry_equiv_pos_as_xyz
  1  'x, y, z'
loop_
 _atom_site_type_symbol
 _atom_site_label
 _atom_site_symmetry_multiplicity
 _atom_site_fract_x
 _atom_site_fract_y
 _atom_site_fract_z
 _atom_site_occupancy
  Sr  Sr0  1  0.75400099  0.50800199  0.75000000  1
  Sr  Sr1  1  0.24599897  0.49199799  0.25000000  1
  Sr  Sr2  1  0.00000000  0.00000000  0.00000000  1
  Sr  Sr3  1  0.00000000  0.00000000  0.50000000  1
  Pb  Pb4  1  0.36041596  0.72083199  0.94397101  1
  Pb  Pb5  1  0.63958400  0.27916800  0.05602900  1
  Pb  Pb6  1  0.63958400  0.27916800  0.44397100  1
  Bi  Bi7  1  0.36041596  0.72083199  0.55602900  1
  Bi  Bi8  1  0.07891699  0.15783400  0.75000000  1
  Pb  Pb9  1  0.92108297  0.84216599  0.25000000  1
