# generated using pymatgen
data_Mn2Al5GaSi10
_symmetry_space_group_name_H-M   'P 1'
_cell_length_a   4.59633684
_cell_length_b   4.61425400
_cell_length_c   12.82295322
_cell_angle_alpha   90.00000000
_cell_angle_beta   90.00000000
_cell_angle_gamma   119.57044220
_symmetry_Int_Tables_number   1
_chemical_formula_structural   Mn2Al5GaSi10
_chemical_formula_sum   'Mn2 Al5 Ga1 Si10'
_cell_volume   236.53513262
_cell_formula_units_Z   1
loop_
 _symmetry_equiv_pos_site_id
 _symmetry_equiv_pos_as_xyz
  1  'x, y, z'
loop_
 _atom_site_type_symbol
 _atom_site_label
 _atom_site_symmetry_multiplicity
 _atom_site_fract_x
 _atom_site_fract_y
 _atom_site_fract_z
 _atom_site_occupancy
  Mn  Mn0  1  0.00000004  0.50000004  0.75089199  1
  Mn  Mn1  1  0.50000006  0.50000004  0.41477099  1
  Al  Al2  1  0.50000006  0.50000004  0.91761998  1
  Al  Al3  1  0.50000009  1.00000007  0.08493400  1
  Al  Al4  1  0.50000009  1.00000007  0.58097699  1
  Al  Al5  1  0.00000004  0.50000004  0.25041100  1
  Al  Al6  1  0.15884803  0.33047402  0.08625700  1
  Ga  Ga7  1  0.16495103  0.32941202  0.58234899  1
  Si  Si8  1  0.67165609  0.84215006  0.24794600  1
  Si  Si9  1  0.67883409  0.84269906  0.74723399  1
  Si  Si10  1  0.15919707  0.83778706  0.41609099  1
  Si  Si11  1  0.16490207  0.84341906  0.92032098  1
  Si  Si12  1  0.84115208  0.66952605  0.08625700  1
  Si  Si13  1  0.83504908  0.67058805  0.58234899  1
  Si  Si14  1  0.32834402  0.15785001  0.24794600  1
  Si  Si15  1  0.32116602  0.15730101  0.74723399  1
  Si  Si16  1  0.84080304  0.16221301  0.41609099  1
  Si  Si17  1  0.83509804  0.15658101  0.92032098  1
