# generated using pymatgen
data_LiMnO3
_symmetry_space_group_name_H-M   'P 1'
_cell_length_a   6.40553904
_cell_length_b   6.42175007
_cell_length_c   6.42172766
_cell_angle_alpha   90.54412842
_cell_angle_beta   90.64109802
_cell_angle_gamma   90.76736450
_symmetry_Int_Tables_number   1
_chemical_formula_structural   LiMnO3
_chemical_formula_sum   'Li4 Mn4 O12'
_cell_volume   264.10377671
_cell_formula_units_Z   4
loop_
 _symmetry_equiv_pos_site_id
 _symmetry_equiv_pos_as_xyz
  1  'x, y, z'
loop_
 _atom_site_type_symbol
 _atom_site_label
 _atom_site_symmetry_multiplicity
 _atom_site_fract_x
 _atom_site_fract_y
 _atom_site_fract_z
 _atom_site_occupancy
  Li  Li0  1  0.43892600  0.25220799  0.94754503  1
  Li  Li1  1  0.05212501  0.56361699  0.75045502  1
  Li  Li2  1  0.74806100  0.05115500  0.56508501  1
  Li  Li3  1  0.56223602  0.74903598  0.05000600  1
  Mn  Mn4  1  0.94628001  0.43889499  0.24925900  1
  Mn  Mn5  1  0.25234602  0.94763398  0.43715201  1
  Mn  Mn6  1  0.50505701  0.50147799  0.50529901  1
  Mn  Mn7  1  0.99712799  0.00098100  0.99592402  1
  O  O8  1  0.21094201  0.56672999  0.45137701  1
  O  O9  1  0.44856300  0.20929900  0.57501702  1
  O  O10  1  0.55675701  0.44126499  0.20885100  1
  O  O11  1  0.79528301  0.43338699  0.57246501  1
  O  O12  1  0.57585602  0.79071698  0.43374401  1
  O  O13  1  0.43689201  0.56254399  0.79855702  1
  O  O14  1  0.94582600  0.07493000  0.28747900  1
  O  O15  1  0.29271402  0.95569798  0.06911100  1
  O  O16  1  0.08691001  0.28970499  0.94492803  1
  O  O17  1  0.03108102  0.91476398  0.70537602  1
  O  O18  1  0.70392800  0.04687000  0.91860002  1
  O  O19  1  0.91309001  0.70908798  0.03377000  1
