# generated using pymatgen
data_Ce4NiO7
_symmetry_space_group_name_H-M   'P 1'
_cell_length_a   3.52656507
_cell_length_b   6.51519394
_cell_length_c   8.82210064
_cell_angle_alpha   90.00000000
_cell_angle_beta   90.00000000
_cell_angle_gamma   90.00000000
_symmetry_Int_Tables_number   1
_chemical_formula_structural   Ce4NiO7
_chemical_formula_sum   'Ce4 Ni1 O7'
_cell_volume   202.69883747
_cell_formula_units_Z   1
loop_
 _symmetry_equiv_pos_site_id
 _symmetry_equiv_pos_as_xyz
  1  'x, y, z'
loop_
 _atom_site_type_symbol
 _atom_site_label
 _atom_site_symmetry_multiplicity
 _atom_site_fract_x
 _atom_site_fract_y
 _atom_site_fract_z
 _atom_site_occupancy
  Ce  Ce0  1  0.24999999  0.27963300  0.83690403  1
  Ce  Ce1  1  0.74999998  0.72036701  0.16309601  1
  Ce  Ce2  1  0.24999999  0.77963301  0.66309603  1
  Ce  Ce3  1  0.74999998  0.22036700  0.33690401  1
  Ni  Ni4  1  0.24999999  0.90348001  0.35645901  1
  O  O5  1  0.74999998  0.09652000  0.64354103  1
  O  O6  1  0.24999999  0.40348000  0.14354101  1
  O  O7  1  0.74999998  0.59652001  0.85645904  1
  O  O8  1  0.74999998  0.61026801  0.46084002  1
  O  O9  1  0.24999999  0.38973200  0.53916002  1
  O  O10  1  0.74999998  0.11026800  0.03916000  1
  O  O11  1  0.24999999  0.88973201  0.96084004  1
