# generated using pymatgen
data_Ca(CeSn2)3
_symmetry_space_group_name_H-M   'P 1'
_cell_length_a   4.87505722
_cell_length_b   4.99508190
_cell_length_c   11.30465317
_cell_angle_alpha   91.24250793
_cell_angle_beta   90.00000000
_cell_angle_gamma   90.00000000
_symmetry_Int_Tables_number   1
_chemical_formula_structural   Ca(CeSn2)3
_chemical_formula_sum   'Ca1 Ce3 Sn6'
_cell_volume   275.21838773
_cell_formula_units_Z   1
loop_
 _symmetry_equiv_pos_site_id
 _symmetry_equiv_pos_as_xyz
  1  'x, y, z'
loop_
 _atom_site_type_symbol
 _atom_site_label
 _atom_site_symmetry_multiplicity
 _atom_site_fract_x
 _atom_site_fract_y
 _atom_site_fract_z
 _atom_site_occupancy
  Ca  Ca0  1  0.74999997  0.26227901  0.75592499  1
  Ce  Ce1  1  0.24999999  0.73772101  0.24407499  1
  Ce  Ce2  1  0.24999999  0.24731000  0.50108499  1
  Ce  Ce3  1  0.74999997  0.75269001  0.49891499  1
  Sn  Sn4  1  0.74999997  0.19512000  0.12365100  1
  Sn  Sn5  1  0.24999999  0.80488002  0.87634899  1
  Sn  Sn6  1  0.24999999  0.31027301  0.00071500  1
  Sn  Sn7  1  0.24999999  0.74819001  0.63378099  1
  Sn  Sn8  1  0.74999997  0.25181000  0.36621899  1
  Sn  Sn9  1  0.74999997  0.68972701  0.99928499  1
