# generated using pymatgen
data_Al5FeSi
_symmetry_space_group_name_H-M   'P 1'
_cell_length_a   3.92879295
_cell_length_b   3.92879295
_cell_length_c   6.99563885
_cell_angle_alpha   90.00000000
_cell_angle_beta   90.00000000
_cell_angle_gamma   90.00000000
_symmetry_Int_Tables_number   1
_chemical_formula_structural   Al5FeSi
_chemical_formula_sum   'Al5 Fe1 Si1'
_cell_volume   107.98058230
_cell_formula_units_Z   1
loop_
 _symmetry_equiv_pos_site_id
 _symmetry_equiv_pos_as_xyz
  1  'x, y, z'
loop_
 _atom_site_type_symbol
 _atom_site_label
 _atom_site_symmetry_multiplicity
 _atom_site_fract_x
 _atom_site_fract_y
 _atom_site_fract_z
 _atom_site_occupancy
  Al  Al0  1  0.50000001  0.50000001  0.00000000  1
  Al  Al1  1  0.00000000  0.00000000  0.50000001  1
  Al  Al2  1  0.00000000  0.50000001  0.29180601  1
  Al  Al3  1  0.00000000  0.50000001  0.70819402  1
  Al  Al4  1  0.50000001  0.00000000  0.29180601  1
  Fe  Fe5  1  0.50000001  0.00000000  0.70819402  1
  Si  Si6  1  0.00000000  0.00000000  0.00000000  1
