# generated using pymatgen
data_K3CeYSn
_symmetry_space_group_name_H-M   'P 1'
_cell_length_a   3.66967010
_cell_length_b   3.66967010
_cell_length_c   17.79521370
_cell_angle_alpha   84.08180237
_cell_angle_beta   84.08180237
_cell_angle_gamma   59.99999619
_symmetry_Int_Tables_number   1
_chemical_formula_structural   K3CeYSn
_chemical_formula_sum   'K3 Ce1 Y1 Sn1'
_cell_volume   206.05718088
_cell_formula_units_Z   1
loop_
 _symmetry_equiv_pos_site_id
 _symmetry_equiv_pos_as_xyz
  1  'x, y, z'
loop_
 _atom_site_type_symbol
 _atom_site_label
 _atom_site_symmetry_multiplicity
 _atom_site_fract_x
 _atom_site_fract_y
 _atom_site_fract_z
 _atom_site_occupancy
  K  K0  1  0.00135800  0.00135800  0.99592600  1
  K  K1  1  0.49965001  0.49965001  0.50105001  1
  K  K2  1  0.61041901  0.61041902  0.16874301  1
  Ce  Ce3  1  0.11058100  0.11058100  0.66825700  1
  Y  Y4  1  0.88831602  0.88831602  0.33505202  1
  Sn  Sn5  1  0.38967601  0.38967601  0.83097201  1
