# generated using pymatgen
data_USi2
_symmetry_space_group_name_H-M   'P 1'
_cell_length_a   3.85230899
_cell_length_b   6.38985920
_cell_length_c   7.46001577
_cell_angle_alpha   90.00000000
_cell_angle_beta   90.00000000
_cell_angle_gamma   90.00000000
_symmetry_Int_Tables_number   1
_chemical_formula_structural   USi2
_chemical_formula_sum   'U4 Si8'
_cell_volume   183.63360003
_cell_formula_units_Z   4
loop_
 _symmetry_equiv_pos_site_id
 _symmetry_equiv_pos_as_xyz
  1  'x, y, z'
loop_
 _atom_site_type_symbol
 _atom_site_label
 _atom_site_symmetry_multiplicity
 _atom_site_fract_x
 _atom_site_fract_y
 _atom_site_fract_z
 _atom_site_occupancy
  U  U0  1  0.75000000  0.03092200  0.68150902  1
  U  U1  1  0.25000000  0.96907797  0.31849101  1
  U  U2  1  0.25000000  0.46907799  0.18150901  1
  U  U3  1  0.75000000  0.53092198  0.81849102  1
  Si  Si4  1  0.25000000  0.25065799  0.87803403  1
  Si  Si5  1  0.75000000  0.74934198  0.12196600  1
  Si  Si6  1  0.25000000  0.75065798  0.62196602  1
  Si  Si7  1  0.75000000  0.24934199  0.37803401  1
  Si  Si8  1  0.75000000  0.14401800  0.06375400  1
  Si  Si9  1  0.25000000  0.85598197  0.93624603  1
  Si  Si10  1  0.25000000  0.35598199  0.56375402  1
  Si  Si11  1  0.75000000  0.64401798  0.43624601  1
