# generated using pymatgen
data_Sr2YNi3O7
_symmetry_space_group_name_H-M   'P 1'
_cell_length_a   3.82193804
_cell_length_b   3.92593408
_cell_length_c   11.73832989
_cell_angle_alpha   90.00000000
_cell_angle_beta   90.00000000
_cell_angle_gamma   90.00000000
_symmetry_Int_Tables_number   1
_chemical_formula_structural   Sr2YNi3O7
_chemical_formula_sum   'Sr2 Y1 Ni3 O7'
_cell_volume   176.12984590
_cell_formula_units_Z   1
loop_
 _symmetry_equiv_pos_site_id
 _symmetry_equiv_pos_as_xyz
  1  'x, y, z'
loop_
 _atom_site_type_symbol
 _atom_site_label
 _atom_site_symmetry_multiplicity
 _atom_site_fract_x
 _atom_site_fract_y
 _atom_site_fract_z
 _atom_site_occupancy
  Sr  Sr0  1  0.50000000  0.00000000  0.18187200  1
  Sr  Sr1  1  0.50000000  0.00000000  0.81812801  1
  Y  Y2  1  0.50000000  0.00000000  0.50000000  1
  Ni  Ni3  1  -0.00000000  0.49999999  0.64420501  1
  Ni  Ni4  1  -0.00000000  0.49999999  0.35579500  1
  Ni  Ni5  1  -0.00000000  0.49999999  0.00000000  1
  O  O6  1  0.50000000  0.49999999  0.38248500  1
  O  O7  1  -0.00000000  0.49999999  0.83827801  1
  O  O8  1  0.50000000  0.49999999  0.61751501  1
  O  O9  1  0.00000000  0.00000000  0.38065900  1
  O  O10  1  0.00000000  0.00000000  0.61934101  1
  O  O11  1  -0.00000000  0.49999999  0.16172200  1
  O  O12  1  0.00000000  0.00000000  0.00000000  1
