# generated using pymatgen
data_CeCo12
_symmetry_space_group_name_H-M   'P 1'
_cell_length_a   4.68365097
_cell_length_b   6.39451027
_cell_length_c   6.39450979
_cell_angle_alpha   81.88177490
_cell_angle_beta   68.51705170
_cell_angle_gamma   68.51704407
_symmetry_Int_Tables_number   1
_chemical_formula_structural   CeCo12
_chemical_formula_sum   'Ce1 Co12'
_cell_volume   165.82196167
_cell_formula_units_Z   1
loop_
 _symmetry_equiv_pos_site_id
 _symmetry_equiv_pos_as_xyz
  1  'x, y, z'
loop_
 _atom_site_type_symbol
 _atom_site_label
 _atom_site_symmetry_multiplicity
 _atom_site_fract_x
 _atom_site_fract_y
 _atom_site_fract_z
 _atom_site_occupancy
  Ce  Ce0  1  0.00000000  0.00000000  0.00000000  1
  Co  Co1  1  0.64214502  0.35785500  0.35785498  1
  Co  Co2  1  0.35785504  0.64214500  0.64214496  1
  Co  Co3  1  0.00000000  0.00000000  0.50000001  1
  Co  Co4  1  0.50000000  0.00000000  0.50000001  1
  Co  Co5  1  0.50000003  0.50000000  -0.00000004  1
  Co  Co6  1  0.00000003  0.50000000  -0.00000004  1
  Co  Co7  1  0.50000005  0.77845300  0.22154694  1
  Co  Co8  1  0.50000002  0.22154700  0.77845300  1
  Co  Co9  1  0.72398705  0.77601300  0.77601296  1
  Co  Co10  1  0.27601301  0.22398700  0.22398699  1
  Co  Co11  1  0.00000002  0.35808600  0.64191399  1
  Co  Co12  1  0.00000004  0.64191400  0.35808596  1
