# generated using pymatgen
data_YGe
_symmetry_space_group_name_H-M   'P 1'
_cell_length_a   6.25362492
_cell_length_b   7.96827221
_cell_length_c   7.96827221
_cell_angle_alpha   60.00000000
_cell_angle_beta   90.00000000
_cell_angle_gamma   90.00000000
_symmetry_Int_Tables_number   1
_chemical_formula_structural   YGe
_chemical_formula_sum   'Y6 Ge6'
_cell_volume   343.86722566
_cell_formula_units_Z   6
loop_
 _symmetry_equiv_pos_site_id
 _symmetry_equiv_pos_as_xyz
  1  'x, y, z'
loop_
 _atom_site_type_symbol
 _atom_site_label
 _atom_site_symmetry_multiplicity
 _atom_site_fract_x
 _atom_site_fract_y
 _atom_site_fract_z
 _atom_site_occupancy
  Y  Y0  1  0.00000000  0.00000000  0.31461799  1
  Y  Y1  1  1.00000001  0.31461799  0.68538198  1
  Y  Y2  1  -0.00000000  0.68538198  0.99999998  1
  Y  Y3  1  0.50000001  0.00000000  0.64682998  1
  Y  Y4  1  0.50000001  0.64682998  0.35316999  1
  Y  Y5  1  0.50000001  0.35316999  -0.00000000  1
  Ge  Ge6  1  0.28994100  0.00000000  -0.00000000  1
  Ge  Ge7  1  0.71005901  0.00000000  0.00000000  1
  Ge  Ge8  1  0.22215700  0.33333332  0.33333332  1
  Ge  Ge9  1  0.77784301  0.33333332  0.33333332  1
  Ge  Ge10  1  0.22215700  0.66666665  0.66666665  1
  Ge  Ge11  1  0.77784301  0.66666665  0.66666665  1
