# generated using pymatgen
data_La(AlPd)2
_symmetry_space_group_name_H-M   'P 1'
_cell_length_a   4.12660789
_cell_length_b   4.12660789
_cell_length_c   6.62701654
_cell_angle_alpha   108.14044952
_cell_angle_beta   108.14044952
_cell_angle_gamma   90.00000000
_symmetry_Int_Tables_number   1
_chemical_formula_structural   La(AlPd)2
_chemical_formula_sum   'La1 Al2 Pd2'
_cell_volume   101.32248223
_cell_formula_units_Z   1
loop_
 _symmetry_equiv_pos_site_id
 _symmetry_equiv_pos_as_xyz
  1  'x, y, z'
loop_
 _atom_site_type_symbol
 _atom_site_label
 _atom_site_symmetry_multiplicity
 _atom_site_fract_x
 _atom_site_fract_y
 _atom_site_fract_z
 _atom_site_occupancy
  La  La0  1  0.00346400  0.00346400  0.00692800  1
  Al  Al1  1  0.74879905  0.24879901  0.49759806  1
  Al  Al2  1  0.24879905  0.74879904  0.49759807  1
  Pd  Pd3  1  0.39213404  0.39213402  0.78426807  1
  Pd  Pd4  1  0.60680406  0.60680403  0.21360807  1
