# generated using pymatgen
data_SrLiCuHO8
_symmetry_space_group_name_H-M   'P 1'
_cell_length_a   4.87127829
_cell_length_b   4.87127829
_cell_length_c   7.43785143
_cell_angle_alpha   88.77202606
_cell_angle_beta   88.77202606
_cell_angle_gamma   65.21733093
_symmetry_Int_Tables_number   1
_chemical_formula_structural   SrLiCuHO8
_chemical_formula_sum   'Sr1 Li1 Cu1 H1 O8'
_cell_volume   160.18906621
_cell_formula_units_Z   1
loop_
 _symmetry_equiv_pos_site_id
 _symmetry_equiv_pos_as_xyz
  1  'x, y, z'
loop_
 _atom_site_type_symbol
 _atom_site_label
 _atom_site_symmetry_multiplicity
 _atom_site_fract_x
 _atom_site_fract_y
 _atom_site_fract_z
 _atom_site_occupancy
  Li  Li0  1  0.00000000  0.00000000  0.00000000  1
  Sr  Sr1  1  0.00000000  0.00000000  0.49999999  1
  Cu  Cu2  1  0.63770806  0.63770800  0.21512697  1
  H  H3  1  0.36229203  0.36229200  0.78487297  1
  O  O4  1  0.70751306  0.70751300  0.39223996  1
  O  O5  1  0.29248703  0.29248700  0.60775997  1
  O  O6  1  0.76104604  0.29727400  0.19581297  1
  O  O7  1  0.23895405  0.70272600  0.80418696  1
  O  O8  1  0.70272603  0.23895400  0.80418696  1
  O  O9  1  0.29727406  0.76104600  0.19581297  1
  O  O10  1  0.75765007  0.75765000  0.06274997  1
  O  O11  1  0.24235002  0.24235000  0.93724997  1
