# generated using pymatgen
data_LiMnO3
_symmetry_space_group_name_H-M   'P 1'
_cell_length_a   2.96264601
_cell_length_b   5.00309944
_cell_length_c   7.27377176
_cell_angle_alpha   92.45180511
_cell_angle_beta   101.75064087
_cell_angle_gamma   90.00000000
_symmetry_Int_Tables_number   1
_chemical_formula_structural   LiMnO3
_chemical_formula_sum   'Li2 Mn2 O6'
_cell_volume   105.45457858
_cell_formula_units_Z   2
loop_
 _symmetry_equiv_pos_site_id
 _symmetry_equiv_pos_as_xyz
  1  'x, y, z'
loop_
 _atom_site_type_symbol
 _atom_site_label
 _atom_site_symmetry_multiplicity
 _atom_site_fract_x
 _atom_site_fract_y
 _atom_site_fract_z
 _atom_site_occupancy
  Li  Li0  1  0.78619501  0.93510398  0.57239003  1
  Li  Li1  1  0.34797300  0.46972899  0.69594603  1
  Mn  Mn2  1  0.00363500  0.99987497  0.00727000  1
  Mn  Mn3  1  0.65324101  0.52069299  0.30648202  1
  O  O4  1  0.09563800  0.31370099  0.19127601  1
  O  O5  1  0.23134700  0.70996598  0.46269402  1
  O  O6  1  0.43037900  0.17551600  0.86075803  1
  O  O7  1  0.56787501  0.81621098  0.13575001  1
  O  O8  1  0.77141401  0.30297499  0.54282803  1
  O  O9  1  0.90010501  0.69593098  0.80021004  1
