# generated using pymatgen
data_LiCu2Bi
_symmetry_space_group_name_H-M   'P 1'
_cell_length_a   4.23521614
_cell_length_b   4.23521614
_cell_length_c   8.30677223
_cell_angle_alpha   90.00000000
_cell_angle_beta   90.00000000
_cell_angle_gamma   120.00000000
_symmetry_Int_Tables_number   1
_chemical_formula_structural   LiCu2Bi
_chemical_formula_sum   'Li2 Cu4 Bi2'
_cell_volume   129.03695092
_cell_formula_units_Z   2
loop_
 _symmetry_equiv_pos_site_id
 _symmetry_equiv_pos_as_xyz
  1  'x, y, z'
loop_
 _atom_site_type_symbol
 _atom_site_label
 _atom_site_symmetry_multiplicity
 _atom_site_fract_x
 _atom_site_fract_y
 _atom_site_fract_z
 _atom_site_occupancy
  Li  Li0  1  0.33333335  0.66666671  0.24999999  1
  Li  Li1  1  0.66666666  0.33333335  0.74999998  1
  Cu  Cu2  1  0.33333335  0.66666671  0.59581598  1
  Cu  Cu3  1  0.66666666  0.33333335  0.09581600  1
  Cu  Cu4  1  0.33333335  0.66666671  0.90418397  1
  Cu  Cu5  1  0.66666666  0.33333335  0.40418399  1
  Bi  Bi6  1  0.00000000  0.00000000  0.00000000  1
  Bi  Bi7  1  0.00000000  0.00000000  0.49999999  1
