# generated using pymatgen
data_SrInO3
_symmetry_space_group_name_H-M   'P 1'
_cell_length_a   3.89770889
_cell_length_b   3.89770889
_cell_length_c   19.40209961
_cell_angle_alpha   90.00000000
_cell_angle_beta   90.00000000
_cell_angle_gamma   90.00000000
_symmetry_Int_Tables_number   1
_chemical_formula_structural   SrInO3
_chemical_formula_sum   'Sr4 In4 O12'
_cell_volume   294.75930904
_cell_formula_units_Z   4
loop_
 _symmetry_equiv_pos_site_id
 _symmetry_equiv_pos_as_xyz
  1  'x, y, z'
loop_
 _atom_site_type_symbol
 _atom_site_label
 _atom_site_symmetry_multiplicity
 _atom_site_fract_x
 _atom_site_fract_y
 _atom_site_fract_z
 _atom_site_occupancy
  Sr  Sr0  1  0.50000001  0.50000001  0.84938102  1
  Sr  Sr1  1  0.50000001  0.50000001  0.15061900  1
  Sr  Sr2  1  0.50000001  0.50000001  0.66806301  1
  Sr  Sr3  1  0.50000001  0.50000001  0.33193701  1
  In  In4  1  0.50000001  0.50000001  0.50000001  1
  In  In5  1  0.00000000  0.00000000  0.74765202  1
  In  In6  1  0.00000000  0.00000000  0.25234801  1
  In  In7  1  0.00000000  0.00000000  0.58492401  1
  O  O8  1  0.00000000  0.00000000  0.41507601  1
  O  O9  1  0.00000000  0.00000000  0.00000000  1
  O  O10  1  0.00000000  0.00000000  0.89661102  1
  O  O11  1  0.00000000  0.00000000  0.10338900  1
  O  O12  1  -0.00000000  0.50000001  0.58411001  1
  O  O13  1  0.50000001  0.00000000  0.58411001  1
  O  O14  1  -0.00000000  0.50000001  0.41589001  1
  O  O15  1  0.50000001  0.00000000  0.41589001  1
  O  O16  1  -0.00000000  0.50000001  0.74999902  1
  O  O17  1  0.50000001  0.00000000  0.74999902  1
  O  O18  1  -0.00000000  0.50000001  0.25000101  1
  O  O19  1  0.50000001  0.00000000  0.25000101  1
