# generated using pymatgen
data_PrSi2
_symmetry_space_group_name_H-M   'P 1'
_cell_length_a   4.16399288
_cell_length_b   4.22180891
_cell_length_c   7.14678431
_cell_angle_alpha   89.99702454
_cell_angle_beta   90.00000000
_cell_angle_gamma   90.00000000
_symmetry_Int_Tables_number   1
_chemical_formula_structural   PrSi2
_chemical_formula_sum   'Pr2 Si4'
_cell_volume   125.63748236
_cell_formula_units_Z   2
loop_
 _symmetry_equiv_pos_site_id
 _symmetry_equiv_pos_as_xyz
  1  'x, y, z'
loop_
 _atom_site_type_symbol
 _atom_site_label
 _atom_site_symmetry_multiplicity
 _atom_site_fract_x
 _atom_site_fract_y
 _atom_site_fract_z
 _atom_site_occupancy
  Pr  Pr0  1  0.00000000  0.99991405  0.00341599  1
  Pr  Pr1  1  0.00000000  0.49990502  0.49879500  1
  Si  Si2  1  0.50000001  0.00003000  0.32352800  1
  Si  Si3  1  0.50000001  0.49999202  0.83872100  1
  Si  Si4  1  0.50000001  0.50001002  0.18983300  1
  Si  Si5  1  0.50000001  0.99994905  0.64570800  1
