# generated using pymatgen
data_ScGa3Pd4
_symmetry_space_group_name_H-M   'P 1'
_cell_length_a   6.76878119
_cell_length_b   6.76878119
_cell_length_c   6.76878119
_cell_angle_alpha   90.00000000
_cell_angle_beta   90.00000000
_cell_angle_gamma   90.00000000
_symmetry_Int_Tables_number   1
_chemical_formula_structural   ScGa3Pd4
_chemical_formula_sum   'Sc2 Ga6 Pd8'
_cell_volume   310.12117771
_cell_formula_units_Z   2
loop_
 _symmetry_equiv_pos_site_id
 _symmetry_equiv_pos_as_xyz
  1  'x, y, z'
loop_
 _atom_site_type_symbol
 _atom_site_label
 _atom_site_symmetry_multiplicity
 _atom_site_fract_x
 _atom_site_fract_y
 _atom_site_fract_z
 _atom_site_occupancy
  Sc  Sc0  1  0.49999999  0.49999999  0.49999999  1
  Sc  Sc1  1  0.00000000  0.00000000  0.00000000  1
  Ga  Ga2  1  0.74999998  0.00000000  0.49999999  1
  Ga  Ga3  1  0.49999999  0.74999998  -0.00000000  1
  Ga  Ga4  1  -0.00000000  0.49999999  0.74999998  1
  Ga  Ga5  1  -0.00000000  0.49999999  0.24999999  1
  Ga  Ga6  1  0.24999999  0.00000000  0.49999999  1
  Ga  Ga7  1  0.49999999  0.24999999  -0.00000000  1
  Pd  Pd8  1  0.74999998  0.24999999  0.24999999  1
  Pd  Pd9  1  0.24999999  0.24999999  0.74999998  1
  Pd  Pd10  1  0.24999999  0.74999998  0.24999999  1
  Pd  Pd11  1  0.74999998  0.74999998  0.74999998  1
  Pd  Pd12  1  0.24999999  0.74999998  0.74999998  1
  Pd  Pd13  1  0.74999998  0.74999998  0.24999999  1
  Pd  Pd14  1  0.24999999  0.24999999  0.24999999  1
  Pd  Pd15  1  0.74999998  0.24999999  0.74999998  1
