# generated using pymatgen
data_Ce3UFe9
_symmetry_space_group_name_H-M   'P 1'
_cell_length_a   5.34374809
_cell_length_b   7.16312456
_cell_length_c   7.16312456
_cell_angle_alpha   81.28646088
_cell_angle_beta   68.09899902
_cell_angle_gamma   68.09899902
_symmetry_Int_Tables_number   1
_chemical_formula_structural   Ce3UFe9
_chemical_formula_sum   'Ce3 U1 Fe9'
_cell_volume   236.01672199
_cell_formula_units_Z   1
loop_
 _symmetry_equiv_pos_site_id
 _symmetry_equiv_pos_as_xyz
  1  'x, y, z'
loop_
 _atom_site_type_symbol
 _atom_site_label
 _atom_site_symmetry_multiplicity
 _atom_site_fract_x
 _atom_site_fract_y
 _atom_site_fract_z
 _atom_site_occupancy
  Ce  Ce0  1  0.00000000  0.00000000  0.00000000  1
  Ce  Ce1  1  0.00000001  0.66401198  0.33598797  1
  Ce  Ce2  1  0.99999999  0.33598799  0.66401197  1
  U  U3  1  0.65836699  0.34163299  0.34163298  1
  Fe  Fe4  1  0.34163301  0.65836698  0.65836696  1
  Fe  Fe5  1  0.67920200  0.82079798  0.82079795  1
  Fe  Fe6  1  0.32079800  0.17920199  0.17920199  1
  Fe  Fe7  1  0.50000000  0.49999998  -0.00000001  1
  Fe  Fe8  1  0.00000001  0.49999998  -0.00000002  1
  Fe  Fe9  1  0.00000000  0.00000000  0.49999999  1
  Fe  Fe10  1  0.49999999  0.00000000  0.49999999  1
  Fe  Fe11  1  0.49999999  0.23671199  0.76328797  1
  Fe  Fe12  1  0.50000000  0.76328798  0.23671197  1
