# generated using pymatgen
data_YbGe2
_symmetry_space_group_name_H-M   'P 1'
_cell_length_a   4.65769482
_cell_length_b   7.24536991
_cell_length_c   7.98939514
_cell_angle_alpha   90.00000000
_cell_angle_beta   90.00000000
_cell_angle_gamma   90.00000000
_symmetry_Int_Tables_number   1
_chemical_formula_structural   YbGe2
_chemical_formula_sum   'Yb4 Ge8'
_cell_volume   269.61589583
_cell_formula_units_Z   4
loop_
 _symmetry_equiv_pos_site_id
 _symmetry_equiv_pos_as_xyz
  1  'x, y, z'
loop_
 _atom_site_type_symbol
 _atom_site_label
 _atom_site_symmetry_multiplicity
 _atom_site_fract_x
 _atom_site_fract_y
 _atom_site_fract_z
 _atom_site_occupancy
  Yb  Yb0  1  0.25000001  0.99232201  0.29373599  1
  Yb  Yb1  1  0.25000001  0.49232201  0.20626400  1
  Yb  Yb2  1  0.75000003  0.00767800  0.70626399  1
  Yb  Yb3  1  0.75000003  0.50767801  0.79373599  1
  Ge  Ge4  1  0.25000001  0.30495400  0.58788799  1
  Ge  Ge5  1  0.25000001  0.80495401  0.91211198  1
  Ge  Ge6  1  0.75000003  0.69504601  0.41211199  1
  Ge  Ge7  1  0.75000003  0.19504600  0.08788800  1
  Ge  Ge8  1  0.25000001  0.20382500  0.91645498  1
  Ge  Ge9  1  0.25000001  0.70382501  0.58354499  1
  Ge  Ge10  1  0.75000003  0.79617501  0.08354500  1
  Ge  Ge11  1  0.75000003  0.29617500  0.41645499  1
