# generated using pymatgen
data_Fe2O3
_symmetry_space_group_name_H-M   'P 1'
_cell_length_a   5.05548906
_cell_length_b   5.44646788
_cell_length_c   5.51845312
_cell_angle_alpha   117.09190369
_cell_angle_beta   90.00000000
_cell_angle_gamma   90.00000000
_symmetry_Int_Tables_number   1
_chemical_formula_structural   Fe2O3
_chemical_formula_sum   'Fe4 O6'
_cell_volume   135.27598805
_cell_formula_units_Z   2
loop_
 _symmetry_equiv_pos_site_id
 _symmetry_equiv_pos_as_xyz
  1  'x, y, z'
loop_
 _atom_site_type_symbol
 _atom_site_label
 _atom_site_symmetry_multiplicity
 _atom_site_fract_x
 _atom_site_fract_y
 _atom_site_fract_z
 _atom_site_occupancy
  Fe  Fe0  1  0.49999999  0.00000000  -0.00000000  1
  Fe  Fe1  1  0.00000000  0.00000000  0.50000001  1
  Fe  Fe2  1  0.16810300  0.88042203  0.12722602  1
  Fe  Fe3  1  0.14641900  0.34765101  0.61344202  1
  O  O4  1  0.64641899  0.65234902  0.88655804  1
  O  O5  1  0.66810299  0.11957800  0.37277401  1
  O  O6  1  0.33189700  0.88042203  0.62722603  1
  O  O7  1  0.35358100  0.34765101  0.11344201  1
  O  O8  1  0.85358099  0.65234902  0.38655802  1
  O  O9  1  0.83189699  0.11957800  0.87277403  1
