# generated using pymatgen
data_Rb3TlBr6
_symmetry_space_group_name_H-M   'P 1'
_cell_length_a   4.83229017
_cell_length_b   10.76502609
_cell_length_c   18.14727783
_cell_angle_alpha   90.00000000
_cell_angle_beta   90.00000000
_cell_angle_gamma   90.00000000
_symmetry_Int_Tables_number   1
_chemical_formula_structural   Rb3TlBr6
_chemical_formula_sum   'Rb6 Tl2 Br12'
_cell_volume   944.01648933
_cell_formula_units_Z   2
loop_
 _symmetry_equiv_pos_site_id
 _symmetry_equiv_pos_as_xyz
  1  'x, y, z'
loop_
 _atom_site_type_symbol
 _atom_site_label
 _atom_site_symmetry_multiplicity
 _atom_site_fract_x
 _atom_site_fract_y
 _atom_site_fract_z
 _atom_site_occupancy
  Rb  Rb0  1  0.24999999  0.58347699  0.17018199  1
  Rb  Rb1  1  0.74999997  0.41652300  0.82981796  1
  Rb  Rb2  1  0.24999999  0.08347700  0.32981798  1
  Rb  Rb3  1  0.74999997  0.91652299  0.67018197  1
  Rb  Rb4  1  0.24999999  0.84185999  0.93897796  1
  Rb  Rb5  1  0.74999997  0.15814000  0.06102200  1
  Tl  Tl6  1  0.24999999  0.34186000  0.56102197  1
  Tl  Tl7  1  0.74999997  0.65813999  0.43897798  1
  Br  Br8  1  0.74999997  0.52610000  0.61190697  1
  Br  Br9  1  0.24999999  0.47390000  0.38809298  1
  Br  Br10  1  0.74999997  0.02610000  0.88809296  1
  Br  Br11  1  0.24999999  0.97389999  0.11190699  1
  Br  Br12  1  0.74999997  0.79317399  0.29187399  1
  Br  Br13  1  0.24999999  0.20682600  0.70812597  1
  Br  Br14  1  0.74999997  0.29317400  0.20812599  1
  Br  Br15  1  0.24999999  0.70682599  0.79187396  1
  Br  Br16  1  0.74999997  0.66849599  0.99887395  1
  Br  Br17  1  0.24999999  0.33150400  0.00112600  1
  Br  Br18  1  0.74999997  0.16849600  0.50112598  1
  Br  Br19  1  0.24999999  0.83150399  0.49887398  1
