# generated using pymatgen
data_Sr2SiC6
_symmetry_space_group_name_H-M   'P 1'
_cell_length_a   6.55381393
_cell_length_b   6.55381393
_cell_length_c   7.43011904
_cell_angle_alpha   90.00000000
_cell_angle_beta   90.00000000
_cell_angle_gamma   90.00000000
_symmetry_Int_Tables_number   1
_chemical_formula_structural   Sr2SiC6
_chemical_formula_sum   'Sr4 Si2 C12'
_cell_volume   319.14201771
_cell_formula_units_Z   2
loop_
 _symmetry_equiv_pos_site_id
 _symmetry_equiv_pos_as_xyz
  1  'x, y, z'
loop_
 _atom_site_type_symbol
 _atom_site_label
 _atom_site_symmetry_multiplicity
 _atom_site_fract_x
 _atom_site_fract_y
 _atom_site_fract_z
 _atom_site_occupancy
  Sr  Sr0  1  0.00000000  0.00000000  0.50000000  1
  Sr  Sr1  1  0.50000001  0.50000001  0.50000000  1
  Sr  Sr2  1  0.50000001  0.00000000  0.09527300  1
  Sr  Sr3  1  0.00000000  0.50000001  0.90472700  1
  Si  Si4  1  0.50000001  0.50000001  0.00000000  1
  Si  Si5  1  0.00000000  0.00000000  0.00000000  1
  C  C6  1  0.00000000  0.50000001  0.55495500  1
  C  C7  1  0.50000001  0.00000000  0.44504500  1
  C  C8  1  0.50000001  0.31372700  0.12844300  1
  C  C9  1  0.00000000  0.81372701  0.87155700  1
  C  C10  1  0.68627301  0.50000001  0.87155700  1
  C  C11  1  0.00000000  0.50000001  0.13377000  1
  C  C12  1  0.81372701  0.00000000  0.12844300  1
  C  C13  1  0.18627300  0.00000000  0.12844300  1
  C  C14  1  0.00000000  0.18627300  0.87155700  1
  C  C15  1  0.31372700  0.50000001  0.87155700  1
  C  C16  1  0.50000001  0.00000000  0.86623000  1
  C  C17  1  0.50000001  0.68627301  0.12844300  1
