# generated using pymatgen
data_Ce4AlGa7Si4
_symmetry_space_group_name_H-M   'P 1'
_cell_length_a   5.69005394
_cell_length_b   7.18623114
_cell_length_c   7.53474188
_cell_angle_alpha   90.00000000
_cell_angle_beta   90.00000000
_cell_angle_gamma   90.00000000
_symmetry_Int_Tables_number   1
_chemical_formula_structural   Ce4AlGa7Si4
_chemical_formula_sum   'Ce4 Al1 Ga7 Si4'
_cell_volume   308.09591782
_cell_formula_units_Z   1
loop_
 _symmetry_equiv_pos_site_id
 _symmetry_equiv_pos_as_xyz
  1  'x, y, z'
loop_
 _atom_site_type_symbol
 _atom_site_label
 _atom_site_symmetry_multiplicity
 _atom_site_fract_x
 _atom_site_fract_y
 _atom_site_fract_z
 _atom_site_occupancy
  Ce  Ce0  1  0.35047000  0.74999999  0.03291700  1
  Ce  Ce1  1  0.14953000  0.74999999  0.53291701  1
  Ce  Ce2  1  0.64953001  0.25000000  0.96708302  1
  Ce  Ce3  1  0.85047001  0.25000000  0.46708301  1
  Ga  Ga4  1  0.64978901  0.74999999  0.38196301  1
  Al  Al5  1  0.85021101  0.74999999  0.88196301  1
  Ga  Ga6  1  0.35021100  0.25000000  0.61803701  1
  Ga  Ga7  1  0.14978900  0.25000000  0.11803700  1
  Ga  Ga8  1  0.91218901  0.55185499  0.17867600  1
  Ga  Ga9  1  0.58781101  0.94814498  0.67867601  1
  Ga  Ga10  1  0.08781100  0.05185500  0.82132401  1
  Ga  Ga11  1  0.41218900  0.44814499  0.32132401  1
  Si  Si12  1  0.08781100  0.44814499  0.82132401  1
  Si  Si13  1  0.41218900  0.05185500  0.32132401  1
  Si  Si14  1  0.91218901  0.94814498  0.17867600  1
  Si  Si15  1  0.58781101  0.55185499  0.67867601  1
