# generated using pymatgen
data_Sr2Pr2O5
_symmetry_space_group_name_H-M   'P 1'
_cell_length_a   6.29630423
_cell_length_b   7.59682608
_cell_length_c   7.60207081
_cell_angle_alpha   90.00000000
_cell_angle_beta   100.40003967
_cell_angle_gamma   90.00000000
_symmetry_Int_Tables_number   1
_chemical_formula_structural   Sr2Pr2O5
_chemical_formula_sum   'Sr4 Pr4 O10'
_cell_volume   357.64788930
_cell_formula_units_Z   2
loop_
 _symmetry_equiv_pos_site_id
 _symmetry_equiv_pos_as_xyz
  1  'x, y, z'
loop_
 _atom_site_type_symbol
 _atom_site_label
 _atom_site_symmetry_multiplicity
 _atom_site_fract_x
 _atom_site_fract_y
 _atom_site_fract_z
 _atom_site_occupancy
  Sr  Sr0  1  0.22041099  0.92712999  0.86333800  1
  Sr  Sr1  1  0.27958899  0.42713000  0.13666199  1
  Sr  Sr2  1  0.77958896  0.07287000  0.13666196  1
  Sr  Sr3  1  0.72041097  0.57286999  0.86333797  1
  Pr  Pr4  1  0.26960999  0.88220199  0.36798999  1
  Pr  Pr5  1  0.23038999  0.38220200  0.63200999  1
  Pr  Pr6  1  0.73038997  0.11779800  0.63200997  1
  Pr  Pr7  1  0.76960996  0.61779799  0.36798996  1
  O  O8  1  0.53915797  0.77607399  0.19728597  1
  O  O9  1  0.96084195  0.27607400  0.80271396  1
  O  O10  1  0.46084198  0.22392600  0.80271398  1
  O  O11  1  0.03915800  0.72392599  0.19728600  1
  O  O12  1  0.26856199  0.58824299  0.82002699  1
  O  O13  1  0.23143799  0.08824300  0.17997299  1
  O  O14  1  0.73143797  0.41175700  0.17997296  1
  O  O15  1  0.76856196  0.91175699  0.82002697  1
  O  O16  1  0.00000000  0.00000000  0.50000000  1
  O  O17  1  0.49999998  0.49999999  0.49999998  1
