# generated using pymatgen
data_Li2MgAgBr4
_symmetry_space_group_name_H-M   'P 1'
_cell_length_a   6.41358995
_cell_length_b   6.41358995
_cell_length_c   7.65941095
_cell_angle_alpha   114.75089264
_cell_angle_beta   114.75089264
_cell_angle_gamma   90.00000000
_symmetry_Int_Tables_number   1
_chemical_formula_structural   Li2MgAgBr4
_chemical_formula_sum   'Li2 Mg1 Ag1 Br4'
_cell_volume   253.89961243
_cell_formula_units_Z   1
loop_
 _symmetry_equiv_pos_site_id
 _symmetry_equiv_pos_as_xyz
  1  'x, y, z'
loop_
 _atom_site_type_symbol
 _atom_site_label
 _atom_site_symmetry_multiplicity
 _atom_site_fract_x
 _atom_site_fract_y
 _atom_site_fract_z
 _atom_site_occupancy
  Li  Li0  1  0.50000005  0.50000002  0.00000007  1
  Li  Li1  1  0.25000006  0.75000003  0.50000008  1
  Mg  Mg2  1  0.00000000  0.00000000  0.00000000  1
  Ag  Ag3  1  0.75000004  0.25000001  0.50000006  1
  Br  Br4  1  0.14180605  0.62500003  0.75000007  1
  Br  Br5  1  0.87500008  0.85819404  0.25000012  1
  Br  Br6  1  0.37500004  0.39180602  0.25000005  1
  Br  Br7  1  0.60819403  0.12500001  0.75000005  1
