# generated using pymatgen
data_Ce3Mg
_symmetry_space_group_name_H-M   'P 1'
_cell_length_a   5.75547123
_cell_length_b   7.23655415
_cell_length_c   7.23655367
_cell_angle_alpha   120.00000000
_cell_angle_beta   90.00000000
_cell_angle_gamma   90.00000000
_symmetry_Int_Tables_number   1
_chemical_formula_structural   Ce3Mg
_chemical_formula_sum   'Ce6 Mg2'
_cell_volume   261.02080355
_cell_formula_units_Z   2
loop_
 _symmetry_equiv_pos_site_id
 _symmetry_equiv_pos_as_xyz
  1  'x, y, z'
loop_
 _atom_site_type_symbol
 _atom_site_label
 _atom_site_symmetry_multiplicity
 _atom_site_fract_x
 _atom_site_fract_y
 _atom_site_fract_z
 _atom_site_occupancy
  Ce  Ce0  1  0.74999997  0.83261296  0.16738596  1
  Ce  Ce1  1  0.74999997  0.33477299  0.16738598  1
  Ce  Ce2  1  0.74999997  0.83261296  0.66522594  1
  Ce  Ce3  1  0.24999999  0.16738699  0.83261397  1
  Ce  Ce4  1  0.24999999  0.66522697  0.83261395  1
  Ce  Ce5  1  0.24999999  0.16738699  0.33477398  1
  Mg  Mg6  1  0.24999999  0.66666664  0.33333329  1
  Mg  Mg7  1  0.74999997  0.33333332  0.66666663  1
