# generated using pymatgen
data_LiMnO2
_symmetry_space_group_name_H-M   'P 1'
_cell_length_a   5.13342619
_cell_length_b   5.54866695
_cell_length_c   9.41238785
_cell_angle_alpha   90.00000000
_cell_angle_beta   90.00000000
_cell_angle_gamma   116.69268036
_symmetry_Int_Tables_number   1
_chemical_formula_structural   LiMnO2
_chemical_formula_sum   'Li5 Mn5 O10'
_cell_volume   239.52769425
_cell_formula_units_Z   5
loop_
 _symmetry_equiv_pos_site_id
 _symmetry_equiv_pos_as_xyz
  1  'x, y, z'
loop_
 _atom_site_type_symbol
 _atom_site_label
 _atom_site_symmetry_multiplicity
 _atom_site_fract_x
 _atom_site_fract_y
 _atom_site_fract_z
 _atom_site_occupancy
  Li  Li0  1  0.42977399  0.11753401  0.47754201  1
  Li  Li1  1  0.60122101  0.46443502  0.24872300  1
  Li  Li2  1  0.80778301  0.65152003  0.50407101  1
  Li  Li3  1  0.74114100  0.42989502  0.95777802  1
  Li  Li4  1  0.25885902  0.57010503  0.45777801  1
  Mn  Mn5  1  0.19221701  0.34848002  0.00407100  1
  Mn  Mn6  1  0.39877902  0.53556503  0.74872301  1
  Mn  Mn7  1  0.57022603  0.88246604  0.97754202  1
  Mn  Mn8  1  0.12426205  0.88503004  0.78202301  1
  Mn  Mn9  1  0.87573797  0.11497001  0.28202300  1
  O  O10  1  0.36624800  0.19771701  0.85424801  1
  O  O11  1  0.22590400  0.15309501  0.29926800  1
  O  O12  1  0.84870399  0.36388802  0.38710901  1
  O  O13  1  0.81405298  0.18161201  0.10502500  1
  O  O14  1  0.18594704  0.81838804  0.60502501  1
  O  O15  1  0.15129603  0.63611203  0.88710901  1
  O  O16  1  0.77409602  0.84690504  0.79926801  1
  O  O17  1  0.63375203  0.80228304  0.35424801  1
  O  O18  1  0.43748701  0.41820602  0.57247501  1
  O  O19  1  0.56251301  0.58179403  0.07247500  1
