# generated using pymatgen
data_SrGa2
_symmetry_space_group_name_H-M   'P 1'
_cell_length_a   6.01796246
_cell_length_b   6.01796246
_cell_length_c   6.01796246
_cell_angle_alpha   60.00000000
_cell_angle_beta   60.00000000
_cell_angle_gamma   60.00000000
_symmetry_Int_Tables_number   1
_chemical_formula_structural   SrGa2
_chemical_formula_sum   'Sr2 Ga4'
_cell_volume   154.11092392
_cell_formula_units_Z   2
loop_
 _symmetry_equiv_pos_site_id
 _symmetry_equiv_pos_as_xyz
  1  'x, y, z'
loop_
 _atom_site_type_symbol
 _atom_site_label
 _atom_site_symmetry_multiplicity
 _atom_site_fract_x
 _atom_site_fract_y
 _atom_site_fract_z
 _atom_site_occupancy
  Sr  Sr0  1  0.25000000  0.25000000  0.25000000  1
  Sr  Sr1  1  0.49999999  0.49999999  0.49999999  1
  Ga  Ga2  1  0.87499999  0.87499999  0.87499999  1
  Ga  Ga3  1  0.37499999  0.87499999  0.87499999  1
  Ga  Ga4  1  0.87499999  0.87499999  0.37499999  1
  Ga  Ga5  1  0.87499999  0.37499999  0.87499999  1
