# generated using pymatgen
data_YInPt
_symmetry_space_group_name_H-M   'P 1'
_cell_length_a   3.78138804
_cell_length_b   7.88231611
_cell_length_c   7.88231707
_cell_angle_alpha   119.99999237
_cell_angle_beta   90.00000000
_cell_angle_gamma   90.00000000
_symmetry_Int_Tables_number   1
_chemical_formula_structural   YInPt
_chemical_formula_sum   'Y3 In3 Pt3'
_cell_volume   203.46497531
_cell_formula_units_Z   3
loop_
 _symmetry_equiv_pos_site_id
 _symmetry_equiv_pos_as_xyz
  1  'x, y, z'
loop_
 _atom_site_type_symbol
 _atom_site_label
 _atom_site_symmetry_multiplicity
 _atom_site_fract_x
 _atom_site_fract_y
 _atom_site_fract_z
 _atom_site_occupancy
  Y  Y0  1  0.49999999  0.40078298  0.40078297  1
  Y  Y1  1  0.49999999  0.59921697  -0.00000004  1
  Y  Y2  1  0.49999999  0.00000000  0.59921699  1
  In  In3  1  -0.00000000  0.73154496  0.73154494  1
  In  In4  1  -0.00000000  0.26845499  -0.00000002  1
  In  In5  1  -0.00000000  0.00000000  0.26845500  1
  Pt  Pt6  1  -0.00000000  0.66666663  0.33333328  1
  Pt  Pt7  1  -0.00000000  0.33333332  0.66666663  1
  Pt  Pt8  1  0.49999999  0.00000000  -0.00000000  1
