# generated using pymatgen
data_SrLaInCu2Bi3O11
_symmetry_space_group_name_H-M   'P 1'
_cell_length_a   3.85163975
_cell_length_b   3.85163975
_cell_length_c   16.90068436
_cell_angle_alpha   96.55198669
_cell_angle_beta   96.55198669
_cell_angle_gamma   89.92186737
_symmetry_Int_Tables_number   1
_chemical_formula_structural   SrLaInCu2Bi3O11
_chemical_formula_sum   'Sr1 La1 In1 Cu2 Bi3 O11'
_cell_volume   247.44217718
_cell_formula_units_Z   1
loop_
 _symmetry_equiv_pos_site_id
 _symmetry_equiv_pos_as_xyz
  1  'x, y, z'
loop_
 _atom_site_type_symbol
 _atom_site_label
 _atom_site_symmetry_multiplicity
 _atom_site_fract_x
 _atom_site_fract_y
 _atom_site_fract_z
 _atom_site_occupancy
  La  La0  1  0.43766202  0.42989401  0.86755601  1
  Sr  Sr1  1  0.57010602  0.56233801  0.13244402  1
  In  In2  1  0.99484902  0.00515100  0.00000001  1
  Bi  Bi3  1  0.12916401  0.12833500  0.25749900  1
  Cu  Cu4  1  0.87166504  0.87083602  0.74250103  1
  Bi  Bi5  1  0.28844801  0.28829501  0.57674301  1
  Bi  Bi6  1  0.71170503  0.71155202  0.42325702  1
  Cu  Cu7  1  0.11549801  0.61617902  0.23219201  1
  O  O8  1  0.61601302  0.11669400  0.23219201  1
  O  O9  1  0.88330603  0.38398701  0.76780802  1
  O  O10  1  0.38382103  0.88450202  0.76780802  1
  O  O11  1  0.05653500  0.06106500  0.11760000  1
  O  O12  1  0.93893504  0.94346502  0.88240003  1
  O  O13  1  0.25006102  0.74993902  0.50000001  1
  O  O14  1  0.75006102  0.24993901  0.50000001  1
  O  O15  1  0.18262801  0.18238600  0.36501401  1
  O  O16  1  0.81761404  0.81737202  0.63498602  1
  O  O17  1  0.95564603  0.51671901  0.00000002  1
  O  O18  1  0.48328101  0.04435400  1.00000001  1
