# generated using pymatgen
data_Ce4GaPd14
_symmetry_space_group_name_H-M   'P 1'
_cell_length_a   3.72707891
_cell_length_b   9.40699196
_cell_length_c   9.40699100
_cell_angle_alpha   120.00000000
_cell_angle_beta   90.00000000
_cell_angle_gamma   90.00000000
_symmetry_Int_Tables_number   1
_chemical_formula_structural   Ce4GaPd14
_chemical_formula_sum   'Ce4 Ga1 Pd14'
_cell_volume   285.62796226
_cell_formula_units_Z   1
loop_
 _symmetry_equiv_pos_site_id
 _symmetry_equiv_pos_as_xyz
  1  'x, y, z'
loop_
 _atom_site_type_symbol
 _atom_site_label
 _atom_site_symmetry_multiplicity
 _atom_site_fract_x
 _atom_site_fract_y
 _atom_site_fract_z
 _atom_site_occupancy
  Ce  Ce0  1  0.58766401  0.00000000  -0.00000000  1
  Ce  Ce1  1  0.74987502  0.84160298  0.55509095  1
  Ce  Ce2  1  0.74987502  0.44490899  0.28651197  1
  Ce  Ce3  1  0.74987502  0.71348798  0.15839696  1
  Ga  Ga4  1  0.25323801  0.16131200  0.44610399  1
  Pd  Pd5  1  0.25323801  0.55389598  0.71520797  1
  Pd  Pd6  1  0.25323801  0.28479199  0.83868799  1
  Pd  Pd7  1  0.75549102  0.74853798  0.75835096  1
  Pd  Pd8  1  0.75549102  0.24164999  0.99018799  1
  Pd  Pd9  1  0.75549102  0.00981300  0.25146300  1
  Pd  Pd10  1  0.25452601  0.23557499  0.22800399  1
  Pd  Pd11  1  0.25452601  0.77199598  0.00757095  1
  Pd  Pd12  1  0.25452601  0.99242897  0.76442494  1
  Pd  Pd13  1  0.75429702  0.13403900  0.61854200  1
  Pd  Pd14  1  0.75429702  0.38145799  0.51549698  1
  Pd  Pd15  1  0.75429702  0.48450299  0.86596098  1
  Pd  Pd16  1  0.24768601  0.86251498  0.37932995  1
  Pd  Pd17  1  0.24768601  0.62067098  0.48318596  1
  Pd  Pd18  1  0.24768601  0.51681499  0.13748597  1
