# generated using pymatgen
data_CeGe2
_symmetry_space_group_name_H-M   'P 1'
_cell_length_a   4.42381191
_cell_length_b   5.57043457
_cell_length_c   5.57043457
_cell_angle_alpha   77.15811157
_cell_angle_beta   66.60426331
_cell_angle_gamma   66.60426331
_symmetry_Int_Tables_number   1
_chemical_formula_structural   CeGe2
_chemical_formula_sum   'Ce2 Ge4'
_cell_volume   115.28569024
_cell_formula_units_Z   2
loop_
 _symmetry_equiv_pos_site_id
 _symmetry_equiv_pos_as_xyz
  1  'x, y, z'
loop_
 _atom_site_type_symbol
 _atom_site_label
 _atom_site_symmetry_multiplicity
 _atom_site_fract_x
 _atom_site_fract_y
 _atom_site_fract_z
 _atom_site_occupancy
  Ce  Ce0  1  0.53614203  0.71385801  0.21385797  1
  Ce  Ce1  1  0.46385802  0.28614200  0.78614200  1
  Ge  Ge2  1  0.16568103  0.88068201  0.78795497  1
  Ge  Ge3  1  0.83431902  0.11931800  0.21204500  1
  Ge  Ge4  1  0.16568201  0.28795400  0.38068199  1
  Ge  Ge5  1  0.83431804  0.71204601  0.61931798  1
