# generated using pymatgen
data_Ca3In
_symmetry_space_group_name_H-M   'P 1'
_cell_length_a   5.30398178
_cell_length_b   5.30398178
_cell_length_c   10.33023262
_cell_angle_alpha   90.00000000
_cell_angle_beta   90.00000000
_cell_angle_gamma   120.00000000
_symmetry_Int_Tables_number   1
_chemical_formula_structural   Ca3In
_chemical_formula_sum   'Ca6 In2'
_cell_volume   251.67772535
_cell_formula_units_Z   2
loop_
 _symmetry_equiv_pos_site_id
 _symmetry_equiv_pos_as_xyz
  1  'x, y, z'
loop_
 _atom_site_type_symbol
 _atom_site_label
 _atom_site_symmetry_multiplicity
 _atom_site_fract_x
 _atom_site_fract_y
 _atom_site_fract_z
 _atom_site_occupancy
  Ca  Ca0  1  0.66666669  0.33333334  0.57818902  1
  Ca  Ca1  1  0.33333334  0.66666667  0.42181102  1
  Ca  Ca2  1  0.33333334  0.66666667  0.07818900  1
  Ca  Ca3  1  0.66666669  0.33333334  0.92181103  1
  Ca  Ca4  1  0.00000000  0.00000000  0.75000003  1
  Ca  Ca5  1  0.00000000  0.00000000  0.25000001  1
  In  In6  1  0.66666669  0.33333334  0.25000001  1
  In  In7  1  0.33333334  0.66666667  0.75000003  1
