# generated using pymatgen
data_Na2LiAg
_symmetry_space_group_name_H-M   'P 1'
_cell_length_a   3.82653999
_cell_length_b   3.82653928
_cell_length_c   10.12157345
_cell_angle_alpha   90.00000000
_cell_angle_beta   90.00000000
_cell_angle_gamma   120.00000763
_symmetry_Int_Tables_number   1
_chemical_formula_structural   Na2LiAg
_chemical_formula_sum   'Na2 Li1 Ag1'
_cell_volume   128.34857805
_cell_formula_units_Z   1
loop_
 _symmetry_equiv_pos_site_id
 _symmetry_equiv_pos_as_xyz
  1  'x, y, z'
loop_
 _atom_site_type_symbol
 _atom_site_label
 _atom_site_symmetry_multiplicity
 _atom_site_fract_x
 _atom_site_fract_y
 _atom_site_fract_z
 _atom_site_occupancy
  Li  Li0  1  0.33333335  0.66666667  0.14175699  1
  Na  Na1  1  0.66666668  0.33333334  0.85824296  1
  Na  Na2  1  0.33333335  0.66666667  0.66407397  1
  Ag  Ag3  1  0.66666668  0.33333334  0.33592599  1
