# generated using pymatgen
data_SrCaTl2
_symmetry_space_group_name_H-M   'P 1'
_cell_length_a   6.70777798
_cell_length_b   6.84001493
_cell_length_c   6.70777798
_cell_angle_alpha   119.36251068
_cell_angle_beta   90.00000000
_cell_angle_gamma   119.36251068
_symmetry_Int_Tables_number   1
_chemical_formula_structural   SrCaTl2
_chemical_formula_sum   'Sr1 Ca1 Tl2'
_cell_volume   221.74770279
_cell_formula_units_Z   1
loop_
 _symmetry_equiv_pos_site_id
 _symmetry_equiv_pos_as_xyz
  1  'x, y, z'
loop_
 _atom_site_type_symbol
 _atom_site_label
 _atom_site_symmetry_multiplicity
 _atom_site_fract_x
 _atom_site_fract_y
 _atom_site_fract_z
 _atom_site_occupancy
  Sr  Sr0  1  0.25000003  0.50000004  0.75000004  1
  Ca  Ca1  1  0.75000004  0.50000004  0.25000003  1
  Tl  Tl2  1  0.50000000  0.00000000  0.50000000  1
  Tl  Tl3  1  0.00000000  0.00000000  0.00000000  1
