# generated using pymatgen
data_Zr3Fe2Si3
_symmetry_space_group_name_H-M   'P 1'
_cell_length_a   5.29573393
_cell_length_b   5.29573393
_cell_length_c   5.29573393
_cell_angle_alpha   90.07850647
_cell_angle_beta   89.92149353
_cell_angle_gamma   89.92149353
_symmetry_Int_Tables_number   1
_chemical_formula_structural   Zr3Fe2Si3
_chemical_formula_sum   'Zr3 Fe2 Si3'
_cell_volume   148.51736883
_cell_formula_units_Z   1
loop_
 _symmetry_equiv_pos_site_id
 _symmetry_equiv_pos_as_xyz
  1  'x, y, z'
loop_
 _atom_site_type_symbol
 _atom_site_label
 _atom_site_symmetry_multiplicity
 _atom_site_fract_x
 _atom_site_fract_y
 _atom_site_fract_z
 _atom_site_occupancy
  Zr  Zr0  1  0.25583600  0.00000000  0.25583601  1
  Zr  Zr1  1  0.74416402  0.74416400  -0.00000000  1
  Zr  Zr2  1  0.00000001  0.25583600  0.74416400  1
  Fe  Fe3  1  0.25243501  0.50000000  0.25243500  1
  Fe  Fe4  1  0.74756502  0.74756500  0.50000000  1
  Si  Si5  1  0.50000001  0.25243500  0.74756501  1
  Si  Si6  1  0.75200101  0.24799900  0.24799901  1
  Si  Si7  1  0.24799902  0.75200100  0.75200099  1
