# generated using pymatgen
data_FeP
_symmetry_space_group_name_H-M   'P 1'
_cell_length_a   3.46896195
_cell_length_b   5.31571817
_cell_length_c   5.82498598
_cell_angle_alpha   90.00000000
_cell_angle_beta   90.00000000
_cell_angle_gamma   90.00000000
_symmetry_Int_Tables_number   1
_chemical_formula_structural   FeP
_chemical_formula_sum   'Fe4 P4'
_cell_volume   107.41288190
_cell_formula_units_Z   4
loop_
 _symmetry_equiv_pos_site_id
 _symmetry_equiv_pos_as_xyz
  1  'x, y, z'
loop_
 _atom_site_type_symbol
 _atom_site_label
 _atom_site_symmetry_multiplicity
 _atom_site_fract_x
 _atom_site_fract_y
 _atom_site_fract_z
 _atom_site_occupancy
  Fe  Fe0  1  0.75000001  0.49905698  0.30238100  1
  Fe  Fe1  1  0.75000001  0.99905697  0.19761900  1
  Fe  Fe2  1  0.25000000  0.50094298  0.69761900  1
  Fe  Fe3  1  0.25000000  0.00094300  0.80238100  1
  P  P4  1  0.75000001  0.79982297  0.58847300  1
  P  P5  1  0.25000000  0.70017698  0.08847300  1
  P  P6  1  0.25000000  0.20017699  0.41152700  1
  P  P7  1  0.75000001  0.29982299  0.91152700  1
