# generated using pymatgen
data_PrNi5
_symmetry_space_group_name_H-M   'P 1'
_cell_length_a   5.02312183
_cell_length_b   5.02312279
_cell_length_c   10.92091179
_cell_angle_alpha   90.00000000
_cell_angle_beta   90.00000000
_cell_angle_gamma   119.99999237
_symmetry_Int_Tables_number   1
_chemical_formula_structural   PrNi5
_chemical_formula_sum   'Pr3 Ni15'
_cell_volume   238.63660981
_cell_formula_units_Z   3
loop_
 _symmetry_equiv_pos_site_id
 _symmetry_equiv_pos_as_xyz
  1  'x, y, z'
loop_
 _atom_site_type_symbol
 _atom_site_label
 _atom_site_symmetry_multiplicity
 _atom_site_fract_x
 _atom_site_fract_y
 _atom_site_fract_z
 _atom_site_occupancy
  Pr  Pr0  1  0.00000000  0.00000000  0.32810701  1
  Pr  Pr1  1  0.00000000  0.00000000  0.67189301  1
  Pr  Pr2  1  0.00000000  0.00000000  0.00000000  1
  Ni  Ni3  1  -0.00000003  0.49999997  0.13263300  1
  Ni  Ni4  1  0.49999998  0.49999997  0.50000001  1
  Ni  Ni5  1  0.50000002  0.00000000  0.50000001  1
  Ni  Ni6  1  -0.00000003  0.49999997  0.50000001  1
  Ni  Ni7  1  0.66666667  0.33333331  0.68081601  1
  Ni  Ni8  1  0.33333330  0.66666662  0.68081601  1
  Ni  Ni9  1  0.33333330  0.66666662  0.31918401  1
  Ni  Ni10  1  0.66666667  0.33333331  0.31918401  1
  Ni  Ni11  1  0.49999998  0.49999997  0.86736702  1
  Ni  Ni12  1  0.50000002  0.00000000  0.86736702  1
  Ni  Ni13  1  -0.00000003  0.49999997  0.86736702  1
  Ni  Ni14  1  0.49999998  0.49999997  0.13263300  1
  Ni  Ni15  1  0.50000002  0.00000000  0.13263300  1
  Ni  Ni16  1  0.33333330  0.66666662  -0.00000000  1
  Ni  Ni17  1  0.66666667  0.33333331  -0.00000000  1
