# generated using pymatgen
data_UFe5
_symmetry_space_group_name_H-M   'P 1'
_cell_length_a   6.78087425
_cell_length_b   6.87022924
_cell_length_c   6.88846779
_cell_angle_alpha   90.00000000
_cell_angle_beta   90.00000000
_cell_angle_gamma   109.74765015
_symmetry_Int_Tables_number   1
_chemical_formula_structural   UFe5
_chemical_formula_sum   'U3 Fe15'
_cell_volume   302.03466962
_cell_formula_units_Z   3
loop_
 _symmetry_equiv_pos_site_id
 _symmetry_equiv_pos_as_xyz
  1  'x, y, z'
loop_
 _atom_site_type_symbol
 _atom_site_label
 _atom_site_symmetry_multiplicity
 _atom_site_fract_x
 _atom_site_fract_y
 _atom_site_fract_z
 _atom_site_occupancy
  Fe  Fe0  1  0.55564200  0.68242800  0.16063900  1
  U  U1  1  0.94435800  0.31757200  0.66063902  1
  U  U2  1  0.05564199  0.68242800  0.33936101  1
  U  U3  1  0.44435800  0.31757200  0.83936103  1
  Fe  Fe4  1  0.62770700  0.40947800  0.45613201  1
  Fe  Fe5  1  0.12770700  0.40947800  0.04386800  1
  Fe  Fe6  1  0.86702000  0.99944100  0.36678501  1
  Fe  Fe7  1  0.36701999  0.99944100  0.13321500  1
  Fe  Fe8  1  0.87229300  0.59052200  0.95613203  1
  Fe  Fe9  1  0.13298000  0.00055900  0.63321502  1
  Fe  Fe10  1  0.37229300  0.59052200  0.54386802  1
  Fe  Fe11  1  0.63298001  0.00055900  0.86678503  1
  Fe  Fe12  1  0.24753300  0.25102200  0.33577601  1
  Fe  Fe13  1  0.75246700  0.74897800  0.66422402  1
  Fe  Fe14  1  0.74753300  0.25102200  0.16422401  1
  Fe  Fe15  1  0.50000000  0.00000000  0.50000002  1
  Fe  Fe16  1  0.00000000  0.00000000  0.00000000  1
  Fe  Fe17  1  0.25246699  0.74897800  0.83577603  1
