# generated using pymatgen
data_NaCaCl2
_symmetry_space_group_name_H-M   'P 1'
_cell_length_a   3.30310988
_cell_length_b   4.78279591
_cell_length_c   8.90652561
_cell_angle_alpha   90.00000000
_cell_angle_beta   90.00000000
_cell_angle_gamma   110.20082092
_symmetry_Int_Tables_number   1
_chemical_formula_structural   NaCaCl2
_chemical_formula_sum   'Na1 Ca1 Cl2'
_cell_volume   132.05107779
_cell_formula_units_Z   1
loop_
 _symmetry_equiv_pos_site_id
 _symmetry_equiv_pos_as_xyz
  1  'x, y, z'
loop_
 _atom_site_type_symbol
 _atom_site_label
 _atom_site_symmetry_multiplicity
 _atom_site_fract_x
 _atom_site_fract_y
 _atom_site_fract_z
 _atom_site_occupancy
  Ca  Ca0  1  0.50000002  0.00000000  0.00000000  1
  Na  Na1  1  0.00000000  0.00000000  0.50000002  1
  Cl  Cl2  1  0.00000002  0.50000001  0.24652301  1
  Cl  Cl3  1  0.50000004  0.50000001  0.75347703  1
