# generated using pymatgen
data_Li2H7O9
_symmetry_space_group_name_H-M   'P 1'
_cell_length_a   5.13713360
_cell_length_b   5.13713360
_cell_length_c   7.48924541
_cell_angle_alpha   107.27999878
_cell_angle_beta   107.27999878
_cell_angle_gamma   96.29003143
_symmetry_Int_Tables_number   1
_chemical_formula_structural   Li2H7O9
_chemical_formula_sum   'Li2 H7 O9'
_cell_volume   175.91213875
_cell_formula_units_Z   1
loop_
 _symmetry_equiv_pos_site_id
 _symmetry_equiv_pos_as_xyz
  1  'x, y, z'
loop_
 _atom_site_type_symbol
 _atom_site_label
 _atom_site_symmetry_multiplicity
 _atom_site_fract_x
 _atom_site_fract_y
 _atom_site_fract_z
 _atom_site_occupancy
  Li  Li0  1  0.00000005  0.50000002  0.50000002  1
  Li  Li1  1  0.50000001  0.00000000  0.00000001  1
  H  H2  1  0.37062905  0.45552302  0.79714402  1
  H  H3  1  0.54447707  0.62937102  0.70285604  1
  H  H4  1  0.62937106  0.54447702  0.20285604  1
  H  H5  1  0.45552304  0.37062901  0.29714403  1
  H  H6  1  0.90728902  0.09271100  0.75000002  1
  H  H7  1  0.09271110  0.90728903  0.25000005  1
  H  H8  1  0.77713103  0.18342601  0.90280301  1
  O  O9  1  0.81657403  0.22286901  0.59719702  1
  O  O10  1  0.22286909  0.81657403  0.09719705  1
  O  O11  1  0.18342608  0.77713103  0.40280304  1
  O  O12  1  0.82196709  0.78039303  0.65608405  1
  O  O13  1  0.21960702  0.17803301  0.84391600  1
  O  O14  1  0.17803303  0.21960701  0.34391601  1
  O  O15  1  0.78039310  0.82196703  0.15608407  1
  O  O16  1  0.38185907  0.61814102  0.75000003  1
  O  O17  1  0.61814105  0.38185901  0.25000003  1
