# generated using pymatgen
data_Rb5SiTeC8O5
_symmetry_space_group_name_H-M   'P 1'
_cell_length_a   8.17154408
_cell_length_b   8.57027817
_cell_length_c   9.98508358
_cell_angle_alpha   89.61958313
_cell_angle_beta   66.96642303
_cell_angle_gamma   71.44607544
_symmetry_Int_Tables_number   1
_chemical_formula_structural   Rb5SiTeC8O5
_chemical_formula_sum   'Rb5 Si1 Te1 C8 O5'
_cell_volume   604.48942781
_cell_formula_units_Z   1
loop_
 _symmetry_equiv_pos_site_id
 _symmetry_equiv_pos_as_xyz
  1  'x, y, z'
loop_
 _atom_site_type_symbol
 _atom_site_label
 _atom_site_symmetry_multiplicity
 _atom_site_fract_x
 _atom_site_fract_y
 _atom_site_fract_z
 _atom_site_occupancy
  Rb  Rb0  1  0.17362595  0.65290504  0.61199007  1
  Rb  Rb1  1  0.82637396  0.34709502  0.38801005  1
  Rb  Rb2  1  0.50422498  0.24415602  0.78042006  1
  Rb  Rb3  1  0.49577494  0.75584405  0.21958006  1
  Rb  Rb4  1  0.77213498  0.15605301  0.80651606  1
  Si  Si5  1  0.12054295  0.76629905  0.84366408  1
  C  C6  1  0.39113896  0.49101603  0.37303505  1
  Te  Te7  1  0.67174995  0.61838304  0.99602809  1
  C  C8  1  0.56975793  0.98215406  0.18481607  1
  C  C9  1  0.29684694  0.87125606  0.51861308  1
  C  C10  1  0.81558795  0.61055004  0.29936906  1
  C  C11  1  0.43024199  0.01784600  0.81518404  1
  C  C12  1  0.22786494  0.84394706  0.19348406  1
  C  C13  1  0.32824997  0.38161703  0.00397203  1
  C  C14  1  0.70315298  0.12874401  0.48138704  1
  O  O15  1  0.87945697  0.23370102  0.15633603  1
  O  O16  1  0.60886096  0.50898403  0.62696507  1
  O  O17  1  0.18441197  0.38945003  0.70063106  1
  O  O18  1  0.95985794  0.71745405  0.60451208  1
  O  O19  1  0.04014198  0.28254602  0.39548803  1
