# generated using pymatgen
data_Hf3FePd2
_symmetry_space_group_name_H-M   'P 1'
_cell_length_a   3.79039407
_cell_length_b   3.79039407
_cell_length_c   7.94176149
_cell_angle_alpha   103.80609894
_cell_angle_beta   103.80609894
_cell_angle_gamma   90.00000000
_symmetry_Int_Tables_number   1
_chemical_formula_structural   Hf3FePd2
_chemical_formula_sum   'Hf3 Fe1 Pd2'
_cell_volume   107.40590113
_cell_formula_units_Z   1
loop_
 _symmetry_equiv_pos_site_id
 _symmetry_equiv_pos_as_xyz
  1  'x, y, z'
loop_
 _atom_site_type_symbol
 _atom_site_label
 _atom_site_symmetry_multiplicity
 _atom_site_fract_x
 _atom_site_fract_y
 _atom_site_fract_z
 _atom_site_occupancy
  Hf  Hf0  1  0.67957898  0.67957898  0.35915799  1
  Hf  Hf1  1  0.32042099  0.32042099  0.64084200  1
  Hf  Hf2  1  0.49999999  0.00000000  -0.00000001  1
  Fe  Fe3  1  -0.00000001  0.49999999  1.00000001  1
  Pd  Pd4  1  0.12878000  0.12878000  0.25756000  1
  Pd  Pd5  1  0.87121997  0.87121998  0.74243999  1
