# generated using pymatgen
data_NaNbO6
_symmetry_space_group_name_H-M   'P 1'
_cell_length_a   5.15695953
_cell_length_b   5.15695953
_cell_length_c   5.15695953
_cell_angle_alpha   96.82164001
_cell_angle_beta   96.82164001
_cell_angle_gamma   96.82164764
_symmetry_Int_Tables_number   1
_chemical_formula_structural   NaNbO6
_chemical_formula_sum   'Na1 Nb1 O6'
_cell_volume   133.97657642
_cell_formula_units_Z   1
loop_
 _symmetry_equiv_pos_site_id
 _symmetry_equiv_pos_as_xyz
  1  'x, y, z'
loop_
 _atom_site_type_symbol
 _atom_site_label
 _atom_site_symmetry_multiplicity
 _atom_site_fract_x
 _atom_site_fract_y
 _atom_site_fract_z
 _atom_site_occupancy
  Na  Na0  1  0.00000000  0.00000000  0.00000000  1
  Nb  Nb1  1  0.49999999  0.49999998  0.49999992  1
  O  O2  1  0.42125500  0.77660497  0.70096090  1
  O  O3  1  0.70096098  0.42125498  0.77660490  1
  O  O4  1  0.29903900  0.57874498  0.22339494  1
  O  O5  1  0.77660499  0.70096097  0.42125489  1
  O  O6  1  0.22339500  0.29903899  0.57874494  1
  O  O7  1  0.57874498  0.22339499  0.29903894  1
