# generated using pymatgen
data_Y2InGe2
_symmetry_space_group_name_H-M   'P 1'
_cell_length_a   3.75796199
_cell_length_b   7.86963701
_cell_length_c   7.86963701
_cell_angle_alpha   90.00000000
_cell_angle_beta   90.00000000
_cell_angle_gamma   90.00000000
_symmetry_Int_Tables_number   1
_chemical_formula_structural   Y2InGe2
_chemical_formula_sum   'Y4 In2 Ge4'
_cell_volume   232.73504555
_cell_formula_units_Z   2
loop_
 _symmetry_equiv_pos_site_id
 _symmetry_equiv_pos_as_xyz
  1  'x, y, z'
loop_
 _atom_site_type_symbol
 _atom_site_label
 _atom_site_symmetry_multiplicity
 _atom_site_fract_x
 _atom_site_fract_y
 _atom_site_fract_z
 _atom_site_occupancy
  Y  Y0  1  0.50000000  0.16961800  0.33038200  1
  Y  Y1  1  0.50000000  0.33038200  0.83038200  1
  Y  Y2  1  0.50000000  0.83038200  0.66961800  1
  Y  Y3  1  0.50000000  0.66961800  0.16961800  1
  In  In4  1  0.00000000  0.50000000  0.50000000  1
  In  In5  1  0.00000000  0.00000000  0.00000000  1
  Ge  Ge6  1  0.00000000  0.63234900  0.86765100  1
  Ge  Ge7  1  0.00000000  0.13234900  0.63234900  1
  Ge  Ge8  1  -0.00000000  0.86765100  0.36765100  1
  Ge  Ge9  1  0.00000000  0.36765100  0.13234900  1
