# generated using pymatgen
data_Ca4In4Pd3
_symmetry_space_group_name_H-M   'P 1'
_cell_length_a   4.70399380
_cell_length_b   7.41171789
_cell_length_c   8.96660423
_cell_angle_alpha   114.41203308
_cell_angle_beta   105.20695496
_cell_angle_gamma   90.00000000
_symmetry_Int_Tables_number   1
_chemical_formula_structural   Ca4In4Pd3
_chemical_formula_sum   'Ca4 In4 Pd3'
_cell_volume   272.60232665
_cell_formula_units_Z   1
loop_
 _symmetry_equiv_pos_site_id
 _symmetry_equiv_pos_as_xyz
  1  'x, y, z'
loop_
 _atom_site_type_symbol
 _atom_site_label
 _atom_site_symmetry_multiplicity
 _atom_site_fract_x
 _atom_site_fract_y
 _atom_site_fract_z
 _atom_site_occupancy
  Ca  Ca0  1  -0.00000001  0.50000000  -0.00000001  1
  Ca  Ca1  1  0.12962000  0.12962000  0.25924000  1
  Ca  Ca2  1  0.87038002  0.87038000  0.74075999  1
  Ca  Ca3  1  0.33002201  0.52538100  0.66004300  1
  In  In4  1  0.33002101  0.13466200  0.66004200  1
  In  In5  1  0.66997902  0.86533800  0.33995798  1
  In  In6  1  0.66997802  0.47461900  0.33995699  1
  In  In7  1  0.21501400  0.71501400  0.43002799  1
  Pd  Pd8  1  0.78498603  0.28498600  0.56997200  1
  Pd  Pd9  1  0.50000002  0.19416300  -0.00000001  1
  Pd  Pd10  1  0.50000001  0.80583700  -0.00000002  1
