# generated using pymatgen
data_KTl2
_symmetry_space_group_name_H-M   'P 1'
_cell_length_a   5.15263414
_cell_length_b   5.15263414
_cell_length_c   9.78169250
_cell_angle_alpha   105.27080536
_cell_angle_beta   105.27080536
_cell_angle_gamma   90.00000000
_symmetry_Int_Tables_number   1
_chemical_formula_structural   KTl2
_chemical_formula_sum   'K2 Tl4'
_cell_volume   241.01265336
_cell_formula_units_Z   2
loop_
 _symmetry_equiv_pos_site_id
 _symmetry_equiv_pos_as_xyz
  1  'x, y, z'
loop_
 _atom_site_type_symbol
 _atom_site_label
 _atom_site_symmetry_multiplicity
 _atom_site_fract_x
 _atom_site_fract_y
 _atom_site_fract_z
 _atom_site_occupancy
  K  K0  1  0.00000000  0.49999999  0.00000001  1
  K  K1  1  0.49999999  0.00000000  0.00000000  1
  Tl  Tl2  1  0.32323200  0.32323199  0.64646400  1
  Tl  Tl3  1  0.67676799  0.67676798  0.35353601  1
  Tl  Tl4  1  0.13554400  0.13554400  0.27108800  1
  Tl  Tl5  1  0.86445599  0.86445598  0.72891201  1
