# generated using pymatgen
data_K5TlAs2
_symmetry_space_group_name_H-M   'P 1'
_cell_length_a   4.51221704
_cell_length_b   8.12705994
_cell_length_c   8.12705994
_cell_angle_alpha   120.00000000
_cell_angle_beta   90.00000000
_cell_angle_gamma   90.00000000
_symmetry_Int_Tables_number   1
_chemical_formula_structural   K5TlAs2
_chemical_formula_sum   'K5 Tl1 As2'
_cell_volume   258.09972318
_cell_formula_units_Z   1
loop_
 _symmetry_equiv_pos_site_id
 _symmetry_equiv_pos_as_xyz
  1  'x, y, z'
loop_
 _atom_site_type_symbol
 _atom_site_label
 _atom_site_symmetry_multiplicity
 _atom_site_fract_x
 _atom_site_fract_y
 _atom_site_fract_z
 _atom_site_occupancy
  K  K0  1  0.25000000  0.33333333  0.66666663  1
  K  K1  1  0.74999999  0.66666666  0.33333330  1
  K  K2  1  0.25000000  0.38912000  0.08694799  1
  K  K3  1  0.74999999  0.08694700  0.69782697  1
  K  K4  1  0.74999999  0.61088000  0.91305195  1
  Tl  Tl5  1  0.25000000  0.91305299  0.30217296  1
  As  As6  1  0.25000000  0.69782800  0.61088096  1
  As  As7  1  0.74999999  0.30217200  0.38911898  1
