# generated using pymatgen
data_La3Ag10
_symmetry_space_group_name_H-M   'P 1'
_cell_length_a   5.85779190
_cell_length_b   7.88801336
_cell_length_c   7.88801336
_cell_angle_alpha   82.07533264
_cell_angle_beta   68.20358276
_cell_angle_gamma   68.20358276
_symmetry_Int_Tables_number   1
_chemical_formula_structural   La3Ag10
_chemical_formula_sum   'La3 Ag10'
_cell_volume   314.22554920
_cell_formula_units_Z   1
loop_
 _symmetry_equiv_pos_site_id
 _symmetry_equiv_pos_as_xyz
  1  'x, y, z'
loop_
 _atom_site_type_symbol
 _atom_site_label
 _atom_site_symmetry_multiplicity
 _atom_site_fract_x
 _atom_site_fract_y
 _atom_site_fract_z
 _atom_site_occupancy
  La  La0  1  0.00000000  0.00000000  0.00000000  1
  La  La1  1  0.00000000  0.00000000  0.49999999  1
  Ag  Ag2  1  0.49999999  0.50000000  -0.00000005  1
  La  La3  1  -0.00000003  0.50000000  -0.00000003  1
  Ag  Ag4  1  0.50000002  0.00000000  0.49999997  1
  Ag  Ag5  1  0.35248298  0.64751701  0.64751694  1
  Ag  Ag6  1  -0.00000002  0.35248300  0.64751697  1
  Ag  Ag7  1  -0.00000004  0.64751701  0.35248296  1
  Ag  Ag8  1  0.64751701  0.35248300  0.35248295  1
  Ag  Ag9  1  0.28732100  0.21267900  0.21267897  1
  Ag  Ag10  1  0.49999997  0.78732101  0.21267893  1
  Ag  Ag11  1  0.50000001  0.21267900  0.78732095  1
  Ag  Ag12  1  0.71267898  0.78732101  0.78732091  1
