# generated using pymatgen
data_Sc4Cu3S8
_symmetry_space_group_name_H-M   'P 1'
_cell_length_a   6.75871658
_cell_length_b   6.75871658
_cell_length_c   6.75871611
_cell_angle_alpha   89.62026978
_cell_angle_beta   89.62026978
_cell_angle_gamma   89.62026978
_symmetry_Int_Tables_number   1
_chemical_formula_structural   Sc4Cu3S8
_chemical_formula_sum   'Sc4 Cu3 S8'
_cell_volume   308.71958815
_cell_formula_units_Z   1
loop_
 _symmetry_equiv_pos_site_id
 _symmetry_equiv_pos_as_xyz
  1  'x, y, z'
loop_
 _atom_site_type_symbol
 _atom_site_label
 _atom_site_symmetry_multiplicity
 _atom_site_fract_x
 _atom_site_fract_y
 _atom_site_fract_z
 _atom_site_occupancy
  Sc  Sc0  1  0.00000000  0.00000000  0.00000000  1
  Sc  Sc1  1  0.42232500  0.23290900  0.55785695  1
  Sc  Sc2  1  0.23290901  0.55785699  0.42232495  1
  Sc  Sc3  1  0.55785700  0.42232499  0.23290894  1
  Cu  Cu4  1  0.57767501  0.76709099  0.44214292  1
  Cu  Cu5  1  0.76709100  0.44214299  0.57767492  1
  Cu  Cu6  1  0.44214301  0.57767499  0.76709093  1
  S  S7  1  0.23397900  0.23397900  0.23397897  1
  S  S8  1  0.76602101  0.76602099  0.76602090  1
  S  S9  1  0.36865702  0.75666299  0.12229294  1
  S  S10  1  0.75666299  0.12229300  0.36865695  1
  S  S11  1  0.12229301  0.36865699  0.75666295  1
  S  S12  1  0.63134300  0.24333700  0.87770693  1
  S  S13  1  0.24333702  0.87770698  0.63134293  1
  S  S14  1  0.87770700  0.63134299  0.24333692  1
