# generated using pymatgen
data_Na4CuBi4O9
_symmetry_space_group_name_H-M   'P 1'
_cell_length_a   5.91656494
_cell_length_b   6.39222383
_cell_length_c   8.59893036
_cell_angle_alpha   101.91560364
_cell_angle_beta   90.00000000
_cell_angle_gamma   90.00000000
_symmetry_Int_Tables_number   1
_chemical_formula_structural   Na4CuBi4O9
_chemical_formula_sum   'Na4 Cu1 Bi4 O9'
_cell_volume   318.20420801
_cell_formula_units_Z   1
loop_
 _symmetry_equiv_pos_site_id
 _symmetry_equiv_pos_as_xyz
  1  'x, y, z'
loop_
 _atom_site_type_symbol
 _atom_site_label
 _atom_site_symmetry_multiplicity
 _atom_site_fract_x
 _atom_site_fract_y
 _atom_site_fract_z
 _atom_site_occupancy
  Na  Na0  1  0.79705401  0.34360001  0.31307298  1
  Na  Na1  1  0.29705400  0.65640001  0.68692695  1
  Na  Na2  1  0.78913001  0.18675100  0.77548696  1
  Na  Na3  1  0.28913000  0.81324902  0.22451297  1
  O  O4  1  0.61852201  0.55544801  0.52791396  1
  Bi  Bi5  1  0.11852200  0.44455201  0.47208597  1
  Cu  Cu6  1  0.08240900  0.07163100  0.23645699  1
  Bi  Bi7  1  0.58240901  0.92836902  0.76354295  1
  O  O8  1  0.55307501  0.02434300  0.23629099  1
  Bi  Bi9  1  0.05307500  0.97565702  0.76370894  1
  Bi  Bi10  1  0.49714000  0.55605401  0.21429398  1
  O  O11  1  0.99714001  0.44394601  0.78570596  1
  O  O12  1  0.79497001  0.24157900  0.01719899  1
  O  O13  1  0.29497000  0.75842101  0.98280094  1
  O  O14  1  0.78677401  0.14261200  0.53314597  1
  O  O15  1  0.28677400  0.85738802  0.46685396  1
  O  O16  1  0.00456500  0.62764101  0.21873498  1
  O  O17  1  0.50456500  0.37235901  0.78126496  1
