# generated using pymatgen
data_Li3CuS3
_symmetry_space_group_name_H-M   'P 1'
_cell_length_a   3.73969197
_cell_length_b   6.48217249
_cell_length_c   6.53223181
_cell_angle_alpha   119.17169952
_cell_angle_beta   106.63352966
_cell_angle_gamma   90.00000000
_symmetry_Int_Tables_number   1
_chemical_formula_structural   Li3CuS3
_chemical_formula_sum   'Li3 Cu1 S3'
_cell_volume   130.62433047
_cell_formula_units_Z   1
loop_
 _symmetry_equiv_pos_site_id
 _symmetry_equiv_pos_as_xyz
  1  'x, y, z'
loop_
 _atom_site_type_symbol
 _atom_site_label
 _atom_site_symmetry_multiplicity
 _atom_site_fract_x
 _atom_site_fract_y
 _atom_site_fract_z
 _atom_site_occupancy
  Li  Li0  1  0.00000000  0.00000000  0.00000000  1
  Li  Li1  1  0.73725695  0.71986999  0.47451395  1
  Li  Li2  1  0.26274298  0.28013000  0.52548598  1
  Cu  Cu3  1  0.63345693  0.97527998  0.26691393  1
  S  S4  1  0.36654300  0.02472000  0.73308599  1
  S  S5  1  0.88119196  0.55420899  0.76238395  1
  S  S6  1  0.11880797  0.44579099  0.23761598  1
