# generated using pymatgen
data_LaIn
_symmetry_space_group_name_H-M   'P 1'
_cell_length_a   3.97074604
_cell_length_b   3.97074604
_cell_length_c   9.75023270
_cell_angle_alpha   90.00000000
_cell_angle_beta   90.00000000
_cell_angle_gamma   120.00000000
_symmetry_Int_Tables_number   1
_chemical_formula_structural   LaIn
_chemical_formula_sum   'La2 In2'
_cell_volume   133.13426201
_cell_formula_units_Z   2
loop_
 _symmetry_equiv_pos_site_id
 _symmetry_equiv_pos_as_xyz
  1  'x, y, z'
loop_
 _atom_site_type_symbol
 _atom_site_label
 _atom_site_symmetry_multiplicity
 _atom_site_fract_x
 _atom_site_fract_y
 _atom_site_fract_z
 _atom_site_occupancy
  La  La0  1  0.00000000  0.00000000  0.50000002  1
  La  La1  1  0.00000000  0.00000000  0.00000000  1
  In  In2  1  0.33333334  0.66666668  0.25000001  1
  In  In3  1  0.66666666  0.33333334  0.75000002  1
