# generated using pymatgen
data_LiYS2
_symmetry_space_group_name_H-M   'P 1'
_cell_length_a   6.09324598
_cell_length_b   6.09324598
_cell_length_c   7.41406965
_cell_angle_alpha   114.26292419
_cell_angle_beta   114.26292419
_cell_angle_gamma   90.00000000
_symmetry_Int_Tables_number   1
_chemical_formula_structural   LiYS2
_chemical_formula_sum   'Li2 Y2 S4'
_cell_volume   224.01422195
_cell_formula_units_Z   2
loop_
 _symmetry_equiv_pos_site_id
 _symmetry_equiv_pos_as_xyz
  1  'x, y, z'
loop_
 _atom_site_type_symbol
 _atom_site_label
 _atom_site_symmetry_multiplicity
 _atom_site_fract_x
 _atom_site_fract_y
 _atom_site_fract_z
 _atom_site_occupancy
  Li  Li0  1  0.00000000  0.00000000  0.00000000  1
  Li  Li1  1  0.75000000  0.25000000  0.50000000  1
  Y  Y2  1  0.24999999  0.75000000  0.50000000  1
  Y  Y3  1  0.50000000  0.50000000  -0.00000001  1
  S  S4  1  0.38448499  0.88197500  0.26645999  1
  S  S5  1  0.61551500  0.61551500  0.73354000  1
  S  S6  1  0.11802500  0.11802500  0.73354001  1
  S  S7  1  0.88197500  0.38448500  0.26645999  1
