# generated using pymatgen
data_Y2ScGa2
_symmetry_space_group_name_H-M   'P 1'
_cell_length_a   3.80604601
_cell_length_b   7.84244823
_cell_length_c   7.84244823
_cell_angle_alpha   90.00000000
_cell_angle_beta   90.00000000
_cell_angle_gamma   90.00000000
_symmetry_Int_Tables_number   1
_chemical_formula_structural   Y2ScGa2
_chemical_formula_sum   'Y4 Sc2 Ga4'
_cell_volume   234.08703209
_cell_formula_units_Z   2
loop_
 _symmetry_equiv_pos_site_id
 _symmetry_equiv_pos_as_xyz
  1  'x, y, z'
loop_
 _atom_site_type_symbol
 _atom_site_label
 _atom_site_symmetry_multiplicity
 _atom_site_fract_x
 _atom_site_fract_y
 _atom_site_fract_z
 _atom_site_occupancy
  Y  Y0  1  0.50000000  0.32848999  0.82848998  1
  Y  Y1  1  0.50000000  0.82848998  0.67150998  1
  Y  Y2  1  0.50000000  0.17150999  0.32848999  1
  Y  Y3  1  0.50000000  0.67150998  0.17150999  1
  Sc  Sc4  1  0.00000000  0.49999999  0.49999999  1
  Sc  Sc5  1  0.00000000  0.00000000  0.00000000  1
  Ga  Ga6  1  0.00000000  0.12079700  0.62079698  1
  Ga  Ga7  1  0.00000000  0.62079698  0.87920297  1
  Ga  Ga8  1  0.00000000  0.87920297  0.37920299  1
  Ga  Ga9  1  0.00000000  0.37920299  0.12079700  1
