# generated using pymatgen
data_Mn3Si5
_symmetry_space_group_name_H-M   'P 1'
_cell_length_a   4.77148294
_cell_length_b   4.77582693
_cell_length_c   9.55596447
_cell_angle_alpha   90.00000000
_cell_angle_beta   90.00000000
_cell_angle_gamma   90.00000000
_symmetry_Int_Tables_number   1
_chemical_formula_structural   Mn3Si5
_chemical_formula_sum   'Mn6 Si10'
_cell_volume   217.75918494
_cell_formula_units_Z   2
loop_
 _symmetry_equiv_pos_site_id
 _symmetry_equiv_pos_as_xyz
  1  'x, y, z'
loop_
 _atom_site_type_symbol
 _atom_site_label
 _atom_site_symmetry_multiplicity
 _atom_site_fract_x
 _atom_site_fract_y
 _atom_site_fract_z
 _atom_site_occupancy
  Mn  Mn0  1  0.50000001  0.50000001  0.49999998  1
  Mn  Mn1  1  0.50000001  0.00000000  0.62480797  1
  Mn  Mn2  1  0.50000001  0.00000000  0.12491699  1
  Mn  Mn3  1  0.75056101  0.50000001  0.24964899  1
  Mn  Mn4  1  0.75056101  0.50000001  0.75035096  1
  Si  Si5  1  0.00000000  0.74943401  0.49999998  1
  Mn  Mn6  1  0.00000000  0.74984301  0.00000000  1
  Si  Si7  1  0.50000001  0.00000000  0.37519198  1
  Si  Si8  1  0.50000001  0.00000000  0.87508296  1
  Si  Si9  1  0.24943900  0.50000001  0.24964899  1
  Si  Si10  1  0.24943900  0.50000001  0.75035096  1
  Si  Si11  1  0.00000000  0.25056600  0.49999998  1
  Si  Si12  1  0.00000000  0.25015700  0.00000000  1
  Si  Si13  1  0.50000001  0.50000001  0.00000000  1
  Si  Si14  1  0.00000000  0.00000000  0.24976599  1
  Si  Si15  1  0.00000000  0.00000000  0.75023396  1
