# generated using pymatgen
data_Ce2Ge5
_symmetry_space_group_name_H-M   'P 1'
_cell_length_a   4.47014284
_cell_length_b   4.47014284
_cell_length_c   10.10238361
_cell_angle_alpha   90.00000000
_cell_angle_beta   90.00000000
_cell_angle_gamma   90.00000000
_symmetry_Int_Tables_number   1
_chemical_formula_structural   Ce2Ge5
_chemical_formula_sum   'Ce2 Ge5'
_cell_volume   201.86761771
_cell_formula_units_Z   1
loop_
 _symmetry_equiv_pos_site_id
 _symmetry_equiv_pos_as_xyz
  1  'x, y, z'
loop_
 _atom_site_type_symbol
 _atom_site_label
 _atom_site_symmetry_multiplicity
 _atom_site_fract_x
 _atom_site_fract_y
 _atom_site_fract_z
 _atom_site_occupancy
  Ce  Ce0  1  0.00000000  0.50000002  0.25940301  1
  Ce  Ce1  1  0.50000002  0.00000000  0.74059703  1
  Ge  Ge2  1  0.50000002  0.50000002  0.50000002  1
  Ge  Ge3  1  0.50000002  0.00000000  0.35857701  1
  Ge  Ge4  1  0.00000000  0.50000002  0.64142302  1
  Ge  Ge5  1  0.50000002  0.50000002  0.00000000  1
  Ge  Ge6  1  0.00000000  0.00000000  0.00000000  1
