# generated using pymatgen
data_Ce2Ge7
_symmetry_space_group_name_H-M   'P 1'
_cell_length_a   4.07451677
_cell_length_b   4.11832809
_cell_length_c   11.09284210
_cell_angle_alpha   90.00000000
_cell_angle_beta   100.58273315
_cell_angle_gamma   90.00000000
_symmetry_Int_Tables_number   1
_chemical_formula_structural   Ce2Ge7
_chemical_formula_sum   'Ce2 Ge7'
_cell_volume   182.97396984
_cell_formula_units_Z   1
loop_
 _symmetry_equiv_pos_site_id
 _symmetry_equiv_pos_as_xyz
  1  'x, y, z'
loop_
 _atom_site_type_symbol
 _atom_site_label
 _atom_site_symmetry_multiplicity
 _atom_site_fract_x
 _atom_site_fract_y
 _atom_site_fract_z
 _atom_site_occupancy
  Ce  Ce0  1  0.77951703  0.49999999  0.55903498  1
  Ce  Ce1  1  0.11145000  0.49999999  0.22289900  1
  Ge  Ge2  1  0.55494802  0.00000000  0.10989599  1
  Ge  Ge3  1  0.49986302  0.49999999  0.99972599  1
  Ge  Ge4  1  0.38472702  0.49999999  0.76945299  1
  Ge  Ge5  1  0.99907204  0.00000000  0.99814298  1
  Ge  Ge6  1  0.88363304  0.00000000  0.76726698  1
  Ge  Ge7  1  0.66187003  0.00000000  0.32373999  1
  Ge  Ge8  1  0.23192101  0.00000000  0.46384100  1
