# generated using pymatgen
data_Na2La3NbO12
_symmetry_space_group_name_H-M   'P 1'
_cell_length_a   5.73084688
_cell_length_b   6.03567076
_cell_length_c   8.25517464
_cell_angle_alpha   102.77803802
_cell_angle_beta   90.00000000
_cell_angle_gamma   90.00000000
_symmetry_Int_Tables_number   1
_chemical_formula_structural   Na2La3NbO12
_chemical_formula_sum   'Na2 La3 Nb1 O12'
_cell_volume   278.47071900
_cell_formula_units_Z   1
loop_
 _symmetry_equiv_pos_site_id
 _symmetry_equiv_pos_as_xyz
  1  'x, y, z'
loop_
 _atom_site_type_symbol
 _atom_site_label
 _atom_site_symmetry_multiplicity
 _atom_site_fract_x
 _atom_site_fract_y
 _atom_site_fract_z
 _atom_site_occupancy
  Na  Na0  1  0.69806701  0.65548097  0.68525598  1
  Na  Na1  1  0.19806700  0.34451898  0.31474399  1
  La  La2  1  0.70830501  0.81095096  0.22401797  1
  La  La3  1  0.20830500  0.18904899  0.77598200  1
  O  O4  1  0.89492102  0.45655798  0.47830599  1
  La  La5  1  0.39492101  0.54344197  0.52169398  1
  O  O6  1  0.43021301  0.92854996  0.77045497  1
  Nb  Nb7  1  0.93021302  0.07145000  0.22954500  1
  O  O8  1  0.95042902  0.95581296  0.75873797  1
  O  O9  1  0.45042901  0.04418700  0.24126200  1
  O  O10  1  0.99257902  0.45425798  0.78868599  1
  O  O11  1  0.49257901  0.54574197  0.21131398  1
  O  O12  1  0.69847301  0.75429296  0.97606098  1
  O  O13  1  0.19847300  0.24570699  0.02393899  1
  O  O14  1  0.70583701  0.86299696  0.47265697  1
  O  O15  1  0.20583700  0.13700299  0.52734300  1
  O  O16  1  0.49753601  0.38246898  0.78275999  1
  O  O17  1  0.99753602  0.61753097  0.21723998  1
