# generated using pymatgen
data_Rb8Ni4SnSb3
_symmetry_space_group_name_H-M   'P 1'
_cell_length_a   5.78705788
_cell_length_b   5.78705788
_cell_length_c   18.95008087
_cell_angle_alpha   90.00000000
_cell_angle_beta   90.00000000
_cell_angle_gamma   120.00000000
_symmetry_Int_Tables_number   1
_chemical_formula_structural   Rb8Ni4SnSb3
_chemical_formula_sum   'Rb8 Ni4 Sn1 Sb3'
_cell_volume   549.61344853
_cell_formula_units_Z   1
loop_
 _symmetry_equiv_pos_site_id
 _symmetry_equiv_pos_as_xyz
  1  'x, y, z'
loop_
 _atom_site_type_symbol
 _atom_site_label
 _atom_site_symmetry_multiplicity
 _atom_site_fract_x
 _atom_site_fract_y
 _atom_site_fract_z
 _atom_site_occupancy
  Rb  Rb0  1  0.66666667  0.33333332  0.45074898  1
  Rb  Rb1  1  0.33333332  0.66666665  0.95074896  1
  Rb  Rb2  1  0.33333332  0.66666665  0.54925097  1
  Rb  Rb3  1  0.66666667  0.33333332  0.04925100  1
  Rb  Rb4  1  0.00000000  0.00000000  0.85475696  1
  Rb  Rb5  1  0.00000000  0.00000000  0.35475698  1
  Rb  Rb6  1  0.00000000  0.00000000  0.14524299  1
  Rb  Rb7  1  0.00000000  0.00000000  0.64524297  1
  Ni  Ni8  1  0.66666667  0.33333332  0.24999999  1
  Ni  Ni9  1  0.33333332  0.66666665  0.74999997  1
  Ni  Ni10  1  0.66666667  0.33333332  0.74999997  1
  Ni  Ni11  1  0.33333332  0.66666665  0.24999999  1
  Sb  Sb12  1  0.66666667  0.33333332  0.62671897  1
  Sn  Sn13  1  0.33333332  0.66666665  0.12671899  1
  Sb  Sb14  1  0.33333332  0.66666665  0.37328098  1
  Sb  Sb15  1  0.66666667  0.33333332  0.87328096  1
