# generated using pymatgen
data_Nb3Ni4
_symmetry_space_group_name_H-M   'P 1'
_cell_length_a   5.47894955
_cell_length_b   5.47894955
_cell_length_c   5.64328527
_cell_angle_alpha   60.95870590
_cell_angle_beta   60.95870590
_cell_angle_gamma   60.00000381
_symmetry_Int_Tables_number   1
_chemical_formula_structural   Nb3Ni4
_chemical_formula_sum   'Nb3 Ni4'
_cell_volume   121.49410687
_cell_formula_units_Z   1
loop_
 _symmetry_equiv_pos_site_id
 _symmetry_equiv_pos_as_xyz
  1  'x, y, z'
loop_
 _atom_site_type_symbol
 _atom_site_label
 _atom_site_symmetry_multiplicity
 _atom_site_fract_x
 _atom_site_fract_y
 _atom_site_fract_z
 _atom_site_occupancy
  Nb  Nb0  1  0.00000000  0.00000000  0.00000000  1
  Nb  Nb1  1  0.00000000  0.00000000  0.49999998  1
  Nb  Nb2  1  0.00000003  0.50000002  0.49999996  1
  Ni  Ni3  1  0.50000003  0.00000000  0.49999996  1
  Ni  Ni4  1  0.50000006  0.50000002  -0.00000004  1
  Ni  Ni5  1  0.50000003  0.00000000  -0.00000002  1
  Ni  Ni6  1  0.00000003  0.50000002  -0.00000002  1
