# generated using pymatgen
data_PrSi4
_symmetry_space_group_name_H-M   'P 1'
_cell_length_a   4.18735218
_cell_length_b   4.18735218
_cell_length_c   9.87944412
_cell_angle_alpha   90.00000000
_cell_angle_beta   90.00000000
_cell_angle_gamma   90.00000000
_symmetry_Int_Tables_number   1
_chemical_formula_structural   PrSi4
_chemical_formula_sum   'Pr2 Si8'
_cell_volume   173.22536593
_cell_formula_units_Z   2
loop_
 _symmetry_equiv_pos_site_id
 _symmetry_equiv_pos_as_xyz
  1  'x, y, z'
loop_
 _atom_site_type_symbol
 _atom_site_label
 _atom_site_symmetry_multiplicity
 _atom_site_fract_x
 _atom_site_fract_y
 _atom_site_fract_z
 _atom_site_occupancy
  Pr  Pr0  1  -0.00000000  0.49999998  0.25421000  1
  Pr  Pr1  1  0.49999998  0.00000000  0.74578999  1
  Si  Si2  1  0.00000000  0.00000000  0.49999999  1
  Si  Si3  1  0.49999998  0.49999998  0.49999999  1
  Si  Si4  1  -0.00000000  0.49999998  0.86528899  1
  Si  Si5  1  0.49999998  0.00000000  0.13471100  1
  Si  Si6  1  0.00000000  0.00000000  0.00000000  1
  Si  Si7  1  0.49999998  0.49999998  -0.00000000  1
  Si  Si8  1  -0.00000000  0.49999998  0.62400999  1
  Si  Si9  1  0.49999998  0.00000000  0.37599000  1
