# generated using pymatgen
data_Mg2Mn6Fe5
_symmetry_space_group_name_H-M   'P 1'
_cell_length_a   5.01790810
_cell_length_b   6.61740398
_cell_length_c   6.61740398
_cell_angle_alpha   81.98814392
_cell_angle_beta   67.71928406
_cell_angle_gamma   67.71928406
_symmetry_Int_Tables_number   1
_chemical_formula_structural   Mg2Mn6Fe5
_chemical_formula_sum   'Mg2 Mn6 Fe5'
_cell_volume   188.14494273
_cell_formula_units_Z   1
loop_
 _symmetry_equiv_pos_site_id
 _symmetry_equiv_pos_as_xyz
  1  'x, y, z'
loop_
 _atom_site_type_symbol
 _atom_site_label
 _atom_site_symmetry_multiplicity
 _atom_site_fract_x
 _atom_site_fract_y
 _atom_site_fract_z
 _atom_site_occupancy
  Mn  Mn0  1  0.00489002  0.99511001  0.99510999  1
  Mg  Mg1  1  0.65947199  0.34052800  0.34052800  1
  Mg  Mg2  1  0.33976401  0.66023601  0.66023600  1
  Mn  Mn3  1  0.99151099  0.35114000  0.66583801  1
  Mn  Mn4  1  0.99151099  0.66583801  0.35113900  1
  Mn  Mn5  1  0.27363400  0.22636600  0.22636600  1
  Mn  Mn6  1  0.50430801  0.78439701  0.20698699  1
  Mn  Mn7  1  0.50430799  0.20698700  0.78439701  1
  Fe  Fe8  1  0.49665299  0.00157000  0.50100001  1
  Fe  Fe9  1  0.00077600  0.00157100  0.50100001  1
  Fe  Fe10  1  0.49665300  0.50100001  0.00156999  1
  Fe  Fe11  1  0.00077601  0.50100101  0.00156999  1
  Fe  Fe12  1  0.73574300  0.76425701  0.76425700  1
