# generated using pymatgen
data_LiAl
_symmetry_space_group_name_H-M   'P 1'
_cell_length_a   3.78472805
_cell_length_b   5.25262880
_cell_length_c   6.91331482
_cell_angle_alpha   90.00000000
_cell_angle_beta   90.00000000
_cell_angle_gamma   90.00000000
_symmetry_Int_Tables_number   1
_chemical_formula_structural   LiAl
_chemical_formula_sum   'Li4 Al4'
_cell_volume   137.43511939
_cell_formula_units_Z   4
loop_
 _symmetry_equiv_pos_site_id
 _symmetry_equiv_pos_as_xyz
  1  'x, y, z'
loop_
 _atom_site_type_symbol
 _atom_site_label
 _atom_site_symmetry_multiplicity
 _atom_site_fract_x
 _atom_site_fract_y
 _atom_site_fract_z
 _atom_site_occupancy
  Li  Li0  1  0.25000000  0.37447801  0.67512702  1
  Li  Li1  1  0.74999999  0.62552202  0.32487301  1
  Li  Li2  1  0.74999999  0.87447803  0.82487302  1
  Li  Li3  1  0.25000000  0.12552200  0.17512700  1
  Al  Al4  1  0.25000000  0.85980403  0.54394501  1
  Al  Al5  1  0.74999999  0.14019601  0.45605501  1
  Al  Al6  1  0.74999999  0.35980401  0.95605502  1
  Al  Al7  1  0.25000000  0.64019602  0.04394500  1
