# generated using pymatgen
data_Pr2Fe4Co13
_symmetry_space_group_name_H-M   'P 1'
_cell_length_a   6.49796820
_cell_length_b   6.49796820
_cell_length_c   6.49796867
_cell_angle_alpha   82.27957916
_cell_angle_beta   82.27957916
_cell_angle_gamma   82.27958679
_symmetry_Int_Tables_number   1
_chemical_formula_structural   Pr2Fe4Co13
_chemical_formula_sum   'Pr2 Fe4 Co13'
_cell_volume   267.52001495
_cell_formula_units_Z   1
loop_
 _symmetry_equiv_pos_site_id
 _symmetry_equiv_pos_as_xyz
  1  'x, y, z'
loop_
 _atom_site_type_symbol
 _atom_site_label
 _atom_site_symmetry_multiplicity
 _atom_site_fract_x
 _atom_site_fract_y
 _atom_site_fract_z
 _atom_site_occupancy
  Pr  Pr0  1  0.34616301  0.34616299  0.34616297  1
  Pr  Pr1  1  0.65537503  0.65537498  0.65537493  1
  Fe  Fe2  1  0.90943204  0.90943197  0.90943191  1
  Fe  Fe3  1  0.00417400  0.00417400  0.48829901  1
  Fe  Fe4  1  0.00417403  0.48829899  0.00417397  1
  Fe  Fe5  1  0.48829899  0.00417400  0.00417397  1
  Co  Co6  1  0.70814400  0.28852599  0.99809396  1
  Co  Co7  1  0.28852606  0.99809397  0.70814393  1
  Co  Co8  1  0.99809402  0.70814398  0.28852591  1
  Co  Co9  1  0.70814405  0.99809397  0.28852590  1
  Co  Co10  1  0.99809400  0.28852599  0.70814394  1
  Co  Co11  1  0.28852604  0.70814398  0.99809396  1
  Co  Co12  1  0.66208503  0.66208498  0.15978693  1
  Co  Co13  1  0.66208500  0.15978700  0.66208496  1
  Co  Co14  1  0.15978704  0.66208498  0.66208496  1
  Co  Co15  1  0.34288301  0.34288299  0.83437197  1
  Co  Co16  1  0.34288305  0.83437198  0.34288294  1
  Co  Co17  1  0.83437200  0.34288299  0.34288294  1
  Co  Co18  1  0.09875900  0.09875900  0.09875899  1
