# generated using pymatgen
data_Yb7Sn6Rh5
_symmetry_space_group_name_H-M   'P 1'
_cell_length_a   5.54385424
_cell_length_b   5.54385471
_cell_length_c   14.34192944
_cell_angle_alpha   90.00000000
_cell_angle_beta   90.00000000
_cell_angle_gamma   120.00000000
_symmetry_Int_Tables_number   1
_chemical_formula_structural   Yb7Sn6Rh5
_chemical_formula_sum   'Yb7 Sn6 Rh5'
_cell_volume   381.73489060
_cell_formula_units_Z   1
loop_
 _symmetry_equiv_pos_site_id
 _symmetry_equiv_pos_as_xyz
  1  'x, y, z'
loop_
 _atom_site_type_symbol
 _atom_site_label
 _atom_site_symmetry_multiplicity
 _atom_site_fract_x
 _atom_site_fract_y
 _atom_site_fract_z
 _atom_site_occupancy
  Yb  Yb0  1  0.50000001  0.50000000  0.60320798  1
  Yb  Yb1  1  0.49999998  0.00000000  0.26987499  1
  Yb  Yb2  1  0.00000003  0.50000000  0.93654197  1
  Yb  Yb3  1  0.50000001  0.50000000  0.39679199  1
  Yb  Yb4  1  0.49999998  0.00000000  0.06345800  1
  Yb  Yb5  1  0.00000003  0.50000000  0.73012498  1
  Yb  Yb6  1  0.83228697  0.16771400  0.49999998  1
  Sn  Sn7  1  0.16771301  0.33542600  0.16666699  1
  Sn  Sn8  1  0.66457302  0.83228600  0.83333297  1
  Sn  Sn9  1  0.33542700  0.16771400  0.83333297  1
  Sn  Sn10  1  0.83228701  0.66457400  0.16666699  1
  Sn  Sn11  1  0.16771304  0.83228600  0.49999998  1
  Rh  Rh12  1  0.00000000  0.00000000  0.00000000  1
  Sn  Sn13  1  0.00000000  0.00000000  0.66666665  1
  Rh  Rh14  1  0.00000000  0.00000000  0.33333332  1
  Rh  Rh15  1  0.50000001  0.50000000  -0.00000000  1
  Rh  Rh16  1  0.49999998  0.00000000  0.66666665  1
  Rh  Rh17  1  0.00000003  0.50000000  0.33333332  1
