# generated using pymatgen
data_CaReC3
_symmetry_space_group_name_H-M   'P 1'
_cell_length_a   5.60353184
_cell_length_b   5.60353184
_cell_length_c   8.01979923
_cell_angle_alpha   90.00000000
_cell_angle_beta   90.00000000
_cell_angle_gamma   90.00000000
_symmetry_Int_Tables_number   1
_chemical_formula_structural   CaReC3
_chemical_formula_sum   'Ca4 Re4 C12'
_cell_volume   251.81823980
_cell_formula_units_Z   4
loop_
 _symmetry_equiv_pos_site_id
 _symmetry_equiv_pos_as_xyz
  1  'x, y, z'
loop_
 _atom_site_type_symbol
 _atom_site_label
 _atom_site_symmetry_multiplicity
 _atom_site_fract_x
 _atom_site_fract_y
 _atom_site_fract_z
 _atom_site_occupancy
  Ca  Ca0  1  0.00000000  0.00000000  0.49999999  1
  Ca  Ca1  1  0.50000001  0.50000001  0.49999999  1
  Ca  Ca2  1  0.00000000  0.00000000  0.00000000  1
  Ca  Ca3  1  0.50000001  0.50000001  0.00000000  1
  Re  Re4  1  0.00000000  0.50000001  0.25520399  1
  Re  Re5  1  0.50000001  0.00000000  0.74479598  1
  Re  Re6  1  0.00000000  0.50000001  0.74305498  1
  Re  Re7  1  0.50000001  0.00000000  0.25694499  1
  C  C8  1  0.24345401  0.25654601  0.77042298  1
  C  C9  1  0.25654601  0.24345401  0.22957699  1
  C  C10  1  0.00000000  0.50000001  0.99645997  1
  C  C11  1  0.24345401  0.74345402  0.77042298  1
  C  C12  1  0.00000000  0.50000001  0.50992599  1
  C  C13  1  0.50000001  0.00000000  0.00354000  1
  C  C14  1  0.25654601  0.75654602  0.22957699  1
  C  C15  1  0.75654602  0.25654601  0.77042298  1
  C  C16  1  0.50000001  0.00000000  0.49007399  1
  C  C17  1  0.75654602  0.74345402  0.77042298  1
  C  C18  1  0.74345402  0.75654602  0.22957699  1
  C  C19  1  0.74345402  0.24345401  0.22957699  1
