# generated using pymatgen
data_Mg2Ga5
_symmetry_space_group_name_H-M   'P 1'
_cell_length_a   4.02202177
_cell_length_b   5.46722794
_cell_length_c   6.61284399
_cell_angle_alpha   100.14321136
_cell_angle_beta   90.00000000
_cell_angle_gamma   111.58185577
_symmetry_Int_Tables_number   1
_chemical_formula_structural   Mg2Ga5
_chemical_formula_sum   'Mg2 Ga5'
_cell_volume   132.77040504
_cell_formula_units_Z   1
loop_
 _symmetry_equiv_pos_site_id
 _symmetry_equiv_pos_as_xyz
  1  'x, y, z'
loop_
 _atom_site_type_symbol
 _atom_site_label
 _atom_site_symmetry_multiplicity
 _atom_site_fract_x
 _atom_site_fract_y
 _atom_site_fract_z
 _atom_site_occupancy
  Mg  Mg0  1  0.38007802  0.76015600  0.67694904  1
  Mg  Mg1  1  0.61992203  0.23984400  0.32305101  1
  Ga  Ga2  1  0.69468504  0.38937000  0.86647403  1
  Ga  Ga3  1  0.00000000  0.00000000  0.00000000  1
  Ga  Ga4  1  0.30531501  0.61063000  0.13352602  1
  Ga  Ga5  1  0.90677005  0.81354000  0.36001303  1
  Ga  Ga6  1  0.09323000  0.18646000  0.63998702  1
