# generated using pymatgen
data_LiCuAs
_symmetry_space_group_name_H-M   'P 1'
_cell_length_a   4.48516512
_cell_length_b   4.48516512
_cell_length_c   7.78930140
_cell_angle_alpha   73.26740265
_cell_angle_beta   73.26740265
_cell_angle_gamma   59.99998093
_symmetry_Int_Tables_number   1
_chemical_formula_structural   LiCuAs
_chemical_formula_sum   'Li2 Cu2 As2'
_cell_volume   127.98355888
_cell_formula_units_Z   2
loop_
 _symmetry_equiv_pos_site_id
 _symmetry_equiv_pos_as_xyz
  1  'x, y, z'
loop_
 _atom_site_type_symbol
 _atom_site_label
 _atom_site_symmetry_multiplicity
 _atom_site_fract_x
 _atom_site_fract_y
 _atom_site_fract_z
 _atom_site_occupancy
  Li  Li0  1  0.74733903  0.74733903  0.75798298  1
  Li  Li1  1  0.25211701  0.25211701  0.24364899  1
  Cu  Cu2  1  0.99701504  0.99701504  0.00895496  1
  Cu  Cu3  1  0.50359002  0.50359002  0.48922999  1
  As  As4  1  0.62576602  0.62576602  0.12270198  1
  As  As5  1  0.12417200  0.12417200  0.62748400  1
