# generated using pymatgen
data_LiCa(H4O5)2
_symmetry_space_group_name_H-M   'P 1'
_cell_length_a   5.65797806
_cell_length_b   6.86772680
_cell_length_c   6.86772680
_cell_angle_alpha   60.58473206
_cell_angle_beta   65.67417908
_cell_angle_gamma   65.67417908
_symmetry_Int_Tables_number   1
_chemical_formula_structural   LiCa(H4O5)2
_chemical_formula_sum   'Li1 Ca1 H8 O10'
_cell_volume   204.30139612
_cell_formula_units_Z   1
loop_
 _symmetry_equiv_pos_site_id
 _symmetry_equiv_pos_as_xyz
  1  'x, y, z'
loop_
 _atom_site_type_symbol
 _atom_site_label
 _atom_site_symmetry_multiplicity
 _atom_site_fract_x
 _atom_site_fract_y
 _atom_site_fract_z
 _atom_site_occupancy
  Ca  Ca0  1  0.00000002  0.50000002  0.50000000  1
  Li  Li1  1  0.00000000  0.00000000  0.00000000  1
  H  H2  1  0.00000000  0.00000000  0.50000002  1
  H  H3  1  0.49999999  0.00000000  0.50000003  1
  H  H4  1  0.27923602  0.67390803  0.76762001  1
  H  H5  1  0.72076401  0.73238003  0.82609202  1
  H  H6  1  0.72076399  0.32609201  0.23238002  1
  H  H7  1  0.27923600  0.26762001  0.17390800  1
  H  H8  1  0.49867502  0.75132503  0.25132499  1
  H  H9  1  0.50132500  0.24867501  0.74867503  1
  O  O10  1  0.62015901  0.62984102  0.12984100  1
  O  O11  1  0.37984100  0.37015901  0.87015902  1
  O  O12  1  0.23419303  0.81483503  0.31483499  1
  O  O13  1  0.76580699  0.18516501  0.68516504  1
  O  O14  1  0.36386300  0.18516501  0.68516503  1
  O  O15  1  0.63613701  0.81483503  0.31483500  1
  O  O16  1  0.22482603  0.84622803  0.70412100  1
  O  O17  1  0.77517501  0.79587803  0.65377201  1
  O  O18  1  0.77517399  0.15377201  0.29587903  1
  O  O19  1  0.22482500  0.20412201  0.34622801  1
