# generated using pymatgen
data_Ca2Ce5Mg
_symmetry_space_group_name_H-M   'P 1'
_cell_length_a   6.03531981
_cell_length_b   7.34975815
_cell_length_c   7.34975767
_cell_angle_alpha   120.00000000
_cell_angle_beta   90.00000000
_cell_angle_gamma   90.00000000
_symmetry_Int_Tables_number   1
_chemical_formula_structural   Ca2Ce5Mg
_chemical_formula_sum   'Ca2 Ce5 Mg1'
_cell_volume   282.34297607
_cell_formula_units_Z   1
loop_
 _symmetry_equiv_pos_site_id
 _symmetry_equiv_pos_as_xyz
  1  'x, y, z'
loop_
 _atom_site_type_symbol
 _atom_site_label
 _atom_site_symmetry_multiplicity
 _atom_site_fract_x
 _atom_site_fract_y
 _atom_site_fract_z
 _atom_site_occupancy
  Ca  Ca0  1  0.75000002  0.83368398  0.16631600  1
  Ca  Ca1  1  0.75000002  0.33263199  0.16631600  1
  Ce  Ce2  1  0.75000002  0.83368398  0.66736801  1
  Ce  Ce3  1  0.25000001  0.16631600  0.83368402  1
  Ce  Ce4  1  0.25000001  0.66736798  0.83368402  1
  Ce  Ce5  1  0.25000001  0.16631600  0.33263201  1
  Ce  Ce6  1  0.25000001  0.66666665  0.33333334  1
  Mg  Mg7  1  0.75000002  0.33333332  0.66666668  1
