# generated using pymatgen
data_H2
_symmetry_space_group_name_H-M   'P 1'
_cell_length_a   4.18273544
_cell_length_b   4.18273544
_cell_length_c   4.18273544
_cell_angle_alpha   86.81039429
_cell_angle_beta   62.56450653
_cell_angle_gamma   118.92144012
_symmetry_Int_Tables_number   1
_chemical_formula_structural   H2
_chemical_formula_sum   H2
_cell_volume   53.06999331
_cell_formula_units_Z   1
loop_
 _symmetry_equiv_pos_site_id
 _symmetry_equiv_pos_as_xyz
  1  'x, y, z'
loop_
 _atom_site_type_symbol
 _atom_site_label
 _atom_site_symmetry_multiplicity
 _atom_site_fract_x
 _atom_site_fract_y
 _atom_site_fract_z
 _atom_site_occupancy
  H  H0  1  0.68652403  0.00000000  0.31347599  1
  H  H1  1  0.98147604  0.00000000  0.01852398  1
