# generated using pymatgen
data_Y4Sn5
_symmetry_space_group_name_H-M   'P 1'
_cell_length_a   6.08218288
_cell_length_b   9.11311817
_cell_length_c   9.11311817
_cell_angle_alpha   120.00000000
_cell_angle_beta   90.00000000
_cell_angle_gamma   90.00000000
_symmetry_Int_Tables_number   1
_chemical_formula_structural   Y4Sn5
_chemical_formula_sum   'Y8 Sn10'
_cell_volume   437.44565806
_cell_formula_units_Z   2
loop_
 _symmetry_equiv_pos_site_id
 _symmetry_equiv_pos_as_xyz
  1  'x, y, z'
loop_
 _atom_site_type_symbol
 _atom_site_label
 _atom_site_symmetry_multiplicity
 _atom_site_fract_x
 _atom_site_fract_y
 _atom_site_fract_z
 _atom_site_occupancy
  Y  Y0  1  0.25000000  0.61127899  0.00000001  1
  Y  Y1  1  0.25000000  0.38872100  0.38872101  1
  Y  Y2  1  0.25000000  0.00000000  0.61127901  1
  Y  Y3  1  0.75000001  0.38872100  0.00000001  1
  Y  Y4  1  0.75000001  0.61127899  0.61127902  1
  Y  Y5  1  0.75000001  0.00000000  0.38872100  1
  Y  Y6  1  0.00000000  0.00000000  0.00000000  1
  Y  Y7  1  0.50000001  0.00000000  -0.00000000  1
  Sn  Sn8  1  0.25000000  0.25646400  0.00000000  1
  Sn  Sn9  1  0.25000000  0.74353599  0.74353602  1
  Sn  Sn10  1  0.25000000  0.00000000  0.25646400  1
  Sn  Sn11  1  0.75000001  0.74353599  1.00000002  1
  Sn  Sn12  1  0.75000001  0.25646400  0.25646401  1
  Sn  Sn13  1  0.75000001  0.99999999  0.74353603  1
  Sn  Sn14  1  -0.00000000  0.33333333  0.66666668  1
  Sn  Sn15  1  -0.00000000  0.66666666  0.33333335  1
  Sn  Sn16  1  0.50000001  0.66666666  0.33333335  1
  Sn  Sn17  1  0.50000001  0.33333333  0.66666668  1
