# generated using pymatgen
data_Pr3Ni3Sb4
_symmetry_space_group_name_H-M   'P 1'
_cell_length_a   8.36534595
_cell_length_b   8.36534595
_cell_length_c   8.36534595
_cell_angle_alpha   109.47122192
_cell_angle_beta   109.47122192
_cell_angle_gamma   109.47122192
_symmetry_Int_Tables_number   1
_chemical_formula_structural   Pr3Ni3Sb4
_chemical_formula_sum   'Pr6 Ni6 Sb8'
_cell_volume   450.64007158
_cell_formula_units_Z   2
loop_
 _symmetry_equiv_pos_site_id
 _symmetry_equiv_pos_as_xyz
  1  'x, y, z'
loop_
 _atom_site_type_symbol
 _atom_site_label
 _atom_site_symmetry_multiplicity
 _atom_site_fract_x
 _atom_site_fract_y
 _atom_site_fract_z
 _atom_site_occupancy
  Pr  Pr0  1  0.87500006  0.12500001  0.75000007  1
  Pr  Pr1  1  0.62500006  0.37500004  0.25000005  1
  Pr  Pr2  1  0.12500002  0.25000002  0.37500004  1
  Pr  Pr3  1  0.37500007  0.75000007  0.12500006  1
  Pr  Pr4  1  0.75000009  0.62500006  0.87500010  1
  Pr  Pr5  1  0.25000007  0.87500008  0.62500009  1
  Ni  Ni6  1  0.37500006  0.62500006  0.75000008  1
  Ni  Ni7  1  0.12500006  0.87500008  0.25000007  1
  Ni  Ni8  1  0.62500005  0.25000002  0.87500008  1
  Ni  Ni9  1  0.87500010  0.75000007  0.62500010  1
  Ni  Ni10  1  0.75000005  0.12500001  0.37500005  1
  Ni  Ni11  1  0.25000004  0.37500004  0.12500003  1
  Sb  Sb12  1  0.00000003  0.50000005  0.65789006  1
  Sb  Sb13  1  0.34211004  0.34211003  0.84211007  1
  Sb  Sb14  1  0.50000004  0.15789001  0.50000005  1
  Sb  Sb15  1  0.15789001  0.00000000  0.00000000  1
  Sb  Sb16  1  0.84211011  0.84211008  0.34211009  1
  Sb  Sb17  1  0.00000003  0.50000005  0.15789004  1
  Sb  Sb18  1  0.50000007  0.65789006  0.50000008  1
  Sb  Sb19  1  0.65789004  0.00000000  1.00000007  1
