# generated using pymatgen
data_MnO
_symmetry_space_group_name_H-M   'P 1'
_cell_length_a   4.45722342
_cell_length_b   5.01680231
_cell_length_c   6.74363041
_cell_angle_alpha   89.99237823
_cell_angle_beta   88.99906921
_cell_angle_gamma   89.95430756
_symmetry_Int_Tables_number   1
_chemical_formula_structural   MnO
_chemical_formula_sum   'Mn8 O8'
_cell_volume   150.77131996
_cell_formula_units_Z   8
loop_
 _symmetry_equiv_pos_site_id
 _symmetry_equiv_pos_as_xyz
  1  'x, y, z'
loop_
 _atom_site_type_symbol
 _atom_site_label
 _atom_site_symmetry_multiplicity
 _atom_site_fract_x
 _atom_site_fract_y
 _atom_site_fract_z
 _atom_site_occupancy
  Mn  Mn0  1  0.66987905  0.67787701  0.93498806  1
  Mn  Mn1  1  0.83663602  0.18166100  0.56300903  1
  Mn  Mn2  1  0.33717302  0.32177401  0.43066403  1
  Mn  Mn3  1  0.16858005  0.82443802  0.07211704  1
  Mn  Mn4  1  0.32444902  0.31935801  0.06555302  1
  Mn  Mn5  1  0.16937205  0.82085802  0.43774105  1
  Mn  Mn6  1  0.67006405  0.67811301  0.56823005  1
  Mn  Mn7  1  0.82732002  0.17602900  0.92861704  1
  O  O8  1  0.16387903  0.53694501  0.74797305  1
  O  O9  1  0.33574601  0.03904000  0.74991702  1
  O  O10  1  0.83456704  0.45963201  0.24847403  1
  O  O11  1  0.66126906  0.96380402  0.25107905  1
  O  O12  1  0.93372206  0.87933502  0.74936806  1
  O  O13  1  0.56803203  0.38099701  0.75053404  1
  O  O14  1  0.06500701  0.12087100  0.25688101  1
  O  O15  1  0.43430604  0.61926901  0.24485504  1
