# generated using pymatgen
data_Ce4Sb3
_symmetry_space_group_name_H-M   'P 1'
_cell_length_a   8.09278870
_cell_length_b   8.09278870
_cell_length_c   8.09278870
_cell_angle_alpha   109.47122192
_cell_angle_beta   109.47122192
_cell_angle_gamma   109.47122192
_symmetry_Int_Tables_number   1
_chemical_formula_structural   Ce4Sb3
_chemical_formula_sum   'Ce8 Sb6'
_cell_volume   408.01177022
_cell_formula_units_Z   2
loop_
 _symmetry_equiv_pos_site_id
 _symmetry_equiv_pos_as_xyz
  1  'x, y, z'
loop_
 _atom_site_type_symbol
 _atom_site_label
 _atom_site_symmetry_multiplicity
 _atom_site_fract_x
 _atom_site_fract_y
 _atom_site_fract_z
 _atom_site_occupancy
  Ce  Ce0  1  0.64723308  0.64723306  0.14723306  1
  Ce  Ce1  1  0.14723302  0.14723301  0.64723305  1
  Ce  Ce2  1  0.35276709  1.00000010  1.00000012  1
  Ce  Ce3  1  0.50000009  0.85276708  0.50000009  1
  Ce  Ce4  1  0.85276712  1.00000010  1.00000013  1
  Ce  Ce5  1  0.00000003  0.50000005  0.85276708  1
  Ce  Ce6  1  0.50000006  0.35276703  0.50000006  1
  Ce  Ce7  1  0.00000003  0.50000005  0.35276705  1
  Sb  Sb8  1  0.12500006  0.87500008  0.25000007  1
  Sb  Sb9  1  0.25000004  0.37500004  0.12500003  1
  Sb  Sb10  1  0.75000006  0.12500001  0.37500005  1
  Sb  Sb11  1  0.37500006  0.62500006  0.75000009  1
  Sb  Sb12  1  0.87500010  0.75000007  0.62500010  1
  Sb  Sb13  1  0.62500006  0.25000002  0.87500008  1
