# generated using pymatgen
data_Li2Cu5HO11
_symmetry_space_group_name_H-M   'P 1'
_cell_length_a   7.03314114
_cell_length_b   7.03314114
_cell_length_c   7.03314066
_cell_angle_alpha   61.94092941
_cell_angle_beta   61.94092941
_cell_angle_gamma   61.94092560
_symmetry_Int_Tables_number   1
_chemical_formula_structural   Li2Cu5HO11
_chemical_formula_sum   'Li2 Cu5 H1 O11'
_cell_volume   256.68310810
_cell_formula_units_Z   1
loop_
 _symmetry_equiv_pos_site_id
 _symmetry_equiv_pos_as_xyz
  1  'x, y, z'
loop_
 _atom_site_type_symbol
 _atom_site_label
 _atom_site_symmetry_multiplicity
 _atom_site_fract_x
 _atom_site_fract_y
 _atom_site_fract_z
 _atom_site_occupancy
  Li  Li0  1  0.00068900  0.00068900  0.00068900  1
  Li  Li1  1  0.99891696  0.50194898  0.99891700  1
  Cu  Cu2  1  0.49984598  0.49984598  0.99971599  1
  Cu  Cu3  1  0.99971596  0.49984598  0.49984601  1
  Cu  Cu4  1  0.99891696  0.99891696  0.50194901  1
  Cu  Cu5  1  0.49984598  0.99971596  0.49984601  1
  Cu  Cu6  1  0.50194898  0.99891696  0.99891700  1
  H  H7  1  0.49995298  0.49995298  0.49995300  1
  O  O8  1  0.85521897  0.41934798  0.85521900  1
  O  O9  1  0.41934798  0.85521897  0.85521900  1
  O  O10  1  0.86272896  0.86272897  0.86272900  1
  O  O11  1  0.85521896  0.85521897  0.41934801  1
  O  O12  1  0.39912198  0.39912199  0.70155600  1
  O  O13  1  0.70155597  0.39912199  0.39912200  1
  O  O14  1  0.39912198  0.70155597  0.39912200  1
  O  O15  1  0.14384899  0.14384899  0.58244799  1
  O  O16  1  0.58244798  0.14384899  0.14384901  1
  O  O17  1  0.13770699  0.13770699  0.13770700  1
  O  O18  1  0.14384899  0.58244798  0.14384901  1
