# generated using pymatgen
data_Co5Ge
_symmetry_space_group_name_H-M   'P 1'
_cell_length_a   6.02035713
_cell_length_b   6.02035713
_cell_length_c   6.02035713
_cell_angle_alpha   90.00000000
_cell_angle_beta   90.00000000
_cell_angle_gamma   90.00000000
_symmetry_Int_Tables_number   1
_chemical_formula_structural   Co5Ge
_chemical_formula_sum   'Co10 Ge2'
_cell_volume   218.20603812
_cell_formula_units_Z   2
loop_
 _symmetry_equiv_pos_site_id
 _symmetry_equiv_pos_as_xyz
  1  'x, y, z'
loop_
 _atom_site_type_symbol
 _atom_site_label
 _atom_site_symmetry_multiplicity
 _atom_site_fract_x
 _atom_site_fract_y
 _atom_site_fract_z
 _atom_site_occupancy
  Co  Co0  1  0.12031400  0.87968598  0.37968599  1
  Co  Co1  1  0.87968598  0.37968599  0.12031400  1
  Co  Co2  1  0.37968599  0.12031400  0.87968598  1
  Co  Co3  1  0.62031399  0.62031399  0.62031399  1
  Co  Co4  1  0.50444699  0.49555299  0.99555298  1
  Co  Co5  1  0.49555299  0.99555298  0.50444699  1
  Co  Co6  1  0.99555298  0.50444699  0.49555299  1
  Ge  Ge7  1  0.00444700  0.00444700  0.00444700  1
  Ge  Ge8  1  0.88250398  0.11749600  0.61749599  1
  Co  Co9  1  0.11749600  0.61749599  0.88250398  1
  Co  Co10  1  0.61749599  0.88250398  0.11749600  1
  Co  Co11  1  0.38250399  0.38250399  0.38250399  1
