# generated using pymatgen
data_LiCo
_symmetry_space_group_name_H-M   'P 1'
_cell_length_a   4.76081800
_cell_length_b   4.76081753
_cell_length_c   7.31691217
_cell_angle_alpha   90.00000000
_cell_angle_beta   90.00000000
_cell_angle_gamma   120.00000000
_symmetry_Int_Tables_number   1
_chemical_formula_structural   LiCo
_chemical_formula_sum   'Li6 Co6'
_cell_volume   143.62220489
_cell_formula_units_Z   6
loop_
 _symmetry_equiv_pos_site_id
 _symmetry_equiv_pos_as_xyz
  1  'x, y, z'
loop_
 _atom_site_type_symbol
 _atom_site_label
 _atom_site_symmetry_multiplicity
 _atom_site_fract_x
 _atom_site_fract_y
 _atom_site_fract_z
 _atom_site_occupancy
  Li  Li0  1  0.16846899  0.33693801  0.74999998  1
  Li  Li1  1  0.16846897  0.83153102  0.74999998  1
  Li  Li2  1  0.66306197  0.83153102  0.74999998  1
  Li  Li3  1  0.83153097  0.66306201  0.24999999  1
  Li  Li4  1  0.83153099  0.16846900  0.24999999  1
  Li  Li5  1  0.33693799  0.16846900  0.24999999  1
  Co  Co6  1  0.00000000  0.00000000  0.49999999  1
  Co  Co7  1  0.00000000  0.00000000  0.00000000  1
  Co  Co8  1  0.66666665  0.33333334  0.56544699  1
  Co  Co9  1  0.33333331  0.66666668  0.43455299  1
  Co  Co10  1  0.33333331  0.66666668  0.06544700  1
  Co  Co11  1  0.66666665  0.33333334  0.93455298  1
