# generated using pymatgen
data_ScCr2FeNi3
_symmetry_space_group_name_H-M   'P 1'
_cell_length_a   5.34132195
_cell_length_b   5.48189974
_cell_length_c   5.48189974
_cell_angle_alpha   76.27025604
_cell_angle_beta   60.84473038
_cell_angle_gamma   60.84473038
_symmetry_Int_Tables_number   1
_chemical_formula_structural   ScCr2FeNi3
_chemical_formula_sum   'Sc1 Cr2 Fe1 Ni3'
_cell_volume   122.41665755
_cell_formula_units_Z   1
loop_
 _symmetry_equiv_pos_site_id
 _symmetry_equiv_pos_as_xyz
  1  'x, y, z'
loop_
 _atom_site_type_symbol
 _atom_site_label
 _atom_site_symmetry_multiplicity
 _atom_site_fract_x
 _atom_site_fract_y
 _atom_site_fract_z
 _atom_site_occupancy
  Sc  Sc0  1  0.00000000  0.00000000  0.00000000  1
  Cr  Cr1  1  0.69556903  0.60886298  0.99999993  1
  Cr  Cr2  1  0.30443200  0.00000000  0.39113599  1
  Fe  Fe3  1  0.69556801  0.00000000  0.60886398  1
  Ni  Ni4  1  0.30443101  0.39113699  -0.00000002  1
  Ni  Ni5  1  0.25000002  0.49999998  0.49999995  1
  Ni  Ni6  1  0.75000002  0.49999998  0.49999995  1
