# generated using pymatgen
data_LiSiO4
_symmetry_space_group_name_H-M   'P 1'
_cell_length_a   4.92622614
_cell_length_b   4.92622614
_cell_length_c   6.39762020
_cell_angle_alpha   112.64402008
_cell_angle_beta   112.64402008
_cell_angle_gamma   90.00000000
_symmetry_Int_Tables_number   1
_chemical_formula_structural   LiSiO4
_chemical_formula_sum   'Li2 Si2 O8'
_cell_volume   130.22443572
_cell_formula_units_Z   2
loop_
 _symmetry_equiv_pos_site_id
 _symmetry_equiv_pos_as_xyz
  1  'x, y, z'
loop_
 _atom_site_type_symbol
 _atom_site_label
 _atom_site_symmetry_multiplicity
 _atom_site_fract_x
 _atom_site_fract_y
 _atom_site_fract_z
 _atom_site_occupancy
  Li  Li0  1  0.24999994  0.74999995  0.49999995  1
  Li  Li1  1  0.49999995  0.49999997  -0.00000006  1
  Si  Si2  1  0.74999995  0.24999998  0.49999996  1
  Si  Si3  1  0.00000000  0.00000000  0.00000000  1
  O  O4  1  0.56496894  0.50442597  0.66321895  1
  O  O5  1  0.25442597  0.34824998  0.16321897  1
  O  O6  1  0.90879291  0.81496895  0.16321891  1
  O  O7  1  0.09824999  0.15879299  0.66321900  1
  O  O8  1  0.65174996  0.09120699  0.83678098  1
  O  O9  1  0.84120693  0.43503097  0.33678094  1
  O  O10  1  0.49557392  0.90174994  0.33678092  1
  O  O11  1  0.18503095  0.74557395  0.83678096  1
