# generated using pymatgen
data_Li2FeN2
_symmetry_space_group_name_H-M   'P 1'
_cell_length_a   5.75732613
_cell_length_b   5.82899666
_cell_length_c   5.75732613
_cell_angle_alpha   119.59409332
_cell_angle_beta   90.00000000
_cell_angle_gamma   119.59409332
_symmetry_Int_Tables_number   1
_chemical_formula_structural   Li2FeN2
_chemical_formula_sum   'Li4 Fe2 N4'
_cell_volume   138.28138334
_cell_formula_units_Z   2
loop_
 _symmetry_equiv_pos_site_id
 _symmetry_equiv_pos_as_xyz
  1  'x, y, z'
loop_
 _atom_site_type_symbol
 _atom_site_label
 _atom_site_symmetry_multiplicity
 _atom_site_fract_x
 _atom_site_fract_y
 _atom_site_fract_z
 _atom_site_occupancy
  Li  Li0  1  0.24999997  0.49999996  0.74999996  1
  Li  Li1  1  0.74999996  0.49999996  0.24999997  1
  Li  Li2  1  0.49999999  0.00000000  0.49999999  1
  Li  Li3  1  0.00000000  0.00000000  0.00000000  1
  Fe  Fe4  1  0.73997496  0.47994997  0.73997496  1
  Fe  Fe5  1  0.26002497  0.52004996  0.26002497  1
  N  N6  1  0.68066798  0.00000000  0.79698898  1
  N  N7  1  0.31933195  0.99999993  0.20301096  1
  N  N8  1  0.20301100  0.00000000  0.68066798  1
  N  N9  1  0.79698894  0.99999993  0.31933195  1
