# generated using pymatgen
data_Pr2P3
_symmetry_space_group_name_H-M   'P 1'
_cell_length_a   4.10239792
_cell_length_b   4.10239744
_cell_length_c   17.59360504
_cell_angle_alpha   90.00000000
_cell_angle_beta   90.00000000
_cell_angle_gamma   120.00000763
_symmetry_Int_Tables_number   1
_chemical_formula_structural   Pr2P3
_chemical_formula_sum   'Pr4 P6'
_cell_volume   256.42534733
_cell_formula_units_Z   2
loop_
 _symmetry_equiv_pos_site_id
 _symmetry_equiv_pos_as_xyz
  1  'x, y, z'
loop_
 _atom_site_type_symbol
 _atom_site_label
 _atom_site_symmetry_multiplicity
 _atom_site_fract_x
 _atom_site_fract_y
 _atom_site_fract_z
 _atom_site_occupancy
  Pr  Pr0  1  0.00000000  0.00000000  0.89515700  1
  Pr  Pr1  1  0.00000000  0.00000000  0.10484300  1
  Pr  Pr2  1  0.00000000  0.00000000  0.39515700  1
  Pr  Pr3  1  0.00000000  0.00000000  0.60484300  1
  P  P4  1  0.66666669  0.33333332  0.49789700  1
  P  P5  1  0.33333336  0.66666664  0.50210300  1
  P  P6  1  0.33333336  0.66666664  0.99789700  1
  P  P7  1  0.66666669  0.33333332  0.00210300  1
  P  P8  1  0.66666669  0.33333332  0.75000000  1
  P  P9  1  0.33333336  0.66666664  0.25000000  1
