# generated using pymatgen
data_Pr5Sn3
_symmetry_space_group_name_H-M   'P 1'
_cell_length_a   6.58342505
_cell_length_b   8.98359394
_cell_length_c   8.98359299
_cell_angle_alpha   120.00000000
_cell_angle_beta   90.00000000
_cell_angle_gamma   90.00000000
_symmetry_Int_Tables_number   1
_chemical_formula_structural   Pr5Sn3
_chemical_formula_sum   'Pr10 Sn6'
_cell_volume   460.13228665
_cell_formula_units_Z   2
loop_
 _symmetry_equiv_pos_site_id
 _symmetry_equiv_pos_as_xyz
  1  'x, y, z'
loop_
 _atom_site_type_symbol
 _atom_site_label
 _atom_site_symmetry_multiplicity
 _atom_site_fract_x
 _atom_site_fract_y
 _atom_site_fract_z
 _atom_site_occupancy
  Pr  Pr0  1  0.74999999  0.24003100  -0.00000001  1
  Pr  Pr1  1  0.74999999  0.99999999  0.24003097  1
  Pr  Pr2  1  0.25000000  0.24003100  0.24003100  1
  Pr  Pr3  1  0.50000000  0.66666666  0.33333332  1
  Pr  Pr4  1  0.74999999  0.75996899  0.75996901  1
  Pr  Pr5  1  0.50000000  0.33333333  0.66666669  1
  Pr  Pr6  1  0.25000000  0.99999999  0.75996900  1
  Pr  Pr7  1  -0.00000000  0.66666666  0.33333332  1
  Pr  Pr8  1  0.25000000  0.75996899  -0.00000003  1
  Pr  Pr9  1  0.99999999  0.33333333  0.66666669  1
  Sn  Sn10  1  0.25000000  0.39400299  1.00000004  1
  Sn  Sn11  1  0.25000000  0.60599699  0.60599701  1
  Sn  Sn12  1  0.74999999  0.39400299  0.39400301  1
  Sn  Sn13  1  0.25000000  0.99999999  0.39400298  1
  Sn  Sn14  1  0.74999999  0.60599699  -0.00000002  1
  Sn  Sn15  1  0.74999999  0.99999999  0.60599699  1
