# generated using pymatgen
data_BeSi(HO)3
_symmetry_space_group_name_H-M   'P 1'
_cell_length_a   3.95810294
_cell_length_b   5.21529818
_cell_length_c   5.21529818
_cell_angle_alpha   103.56085205
_cell_angle_beta   90.00000000
_cell_angle_gamma   90.00000000
_symmetry_Int_Tables_number   1
_chemical_formula_structural   BeSi(HO)3
_chemical_formula_sum   'Be1 Si1 H3 O3'
_cell_volume   104.65642425
_cell_formula_units_Z   1
loop_
 _symmetry_equiv_pos_site_id
 _symmetry_equiv_pos_as_xyz
  1  'x, y, z'
loop_
 _atom_site_type_symbol
 _atom_site_label
 _atom_site_symmetry_multiplicity
 _atom_site_fract_x
 _atom_site_fract_y
 _atom_site_fract_z
 _atom_site_occupancy
  Si  Si0  1  -0.00000000  0.71615898  0.71615895  1
  Be  Be1  1  0.50000001  0.28384099  0.28384098  1
  H  H2  1  0.28057400  0.78669198  0.01390596  1
  H  H3  1  0.21942600  0.98609397  0.21330794  1
  H  H4  1  0.78057401  0.21330799  0.98609398  1
  O  O5  1  0.71942601  0.01390600  0.78669199  1
  O  O6  1  0.75000001  0.60847798  0.39152196  1
  O  O7  1  0.25000000  0.39152199  0.60847797  1
