# generated using pymatgen
data_Sr2BiO3
_symmetry_space_group_name_H-M   'P 1'
_cell_length_a   3.65420055
_cell_length_b   3.65420055
_cell_length_c   9.47242737
_cell_angle_alpha   78.87873077
_cell_angle_beta   78.87873077
_cell_angle_gamma   59.99998856
_symmetry_Int_Tables_number   1
_chemical_formula_structural   Sr2BiO3
_chemical_formula_sum   'Sr2 Bi1 O3'
_cell_volume   106.78943439
_cell_formula_units_Z   1
loop_
 _symmetry_equiv_pos_site_id
 _symmetry_equiv_pos_as_xyz
  1  'x, y, z'
loop_
 _atom_site_type_symbol
 _atom_site_label
 _atom_site_symmetry_multiplicity
 _atom_site_fract_x
 _atom_site_fract_y
 _atom_site_fract_z
 _atom_site_occupancy
  Sr  Sr0  1  0.88049300  0.88049302  0.35852102  1
  Sr  Sr1  1  0.11950700  0.11950700  0.64147902  1
  Bi  Bi2  1  0.80365400  0.80365401  0.58903803  1
  O  O3  1  0.19634600  0.19634600  0.41096201  1
  O  O4  1  0.39231700  0.39231701  0.82304903  1
  O  O5  1  0.60768300  0.60768301  0.17695101  1
