# generated using pymatgen
data_Ce2In
_symmetry_space_group_name_H-M   'P 1'
_cell_length_a   3.66080928
_cell_length_b   3.66080928
_cell_length_c   9.04768181
_cell_angle_alpha   78.32812500
_cell_angle_beta   78.32812500
_cell_angle_gamma   60.00001526
_symmetry_Int_Tables_number   1
_chemical_formula_structural   Ce2In
_chemical_formula_sum   'Ce2 In1'
_cell_volume   102.10259295
_cell_formula_units_Z   1
loop_
 _symmetry_equiv_pos_site_id
 _symmetry_equiv_pos_as_xyz
  1  'x, y, z'
loop_
 _atom_site_type_symbol
 _atom_site_label
 _atom_site_symmetry_multiplicity
 _atom_site_fract_x
 _atom_site_fract_y
 _atom_site_fract_z
 _atom_site_occupancy
  Ce  Ce0  1  0.00000000  0.00000000  0.00000000  1
  Ce  Ce1  1  0.22240101  0.22240100  0.33279699  1
  In  In2  1  0.77759904  0.77759898  0.66720297  1
