# generated using pymatgen
data_PrAl2Co3
_symmetry_space_group_name_H-M   'P 1'
_cell_length_a   4.15054798
_cell_length_b   8.90907192
_cell_length_c   8.90907192
_cell_angle_alpha   120.00000000
_cell_angle_beta   90.00000000
_cell_angle_gamma   90.00000000
_symmetry_Int_Tables_number   1
_chemical_formula_structural   PrAl2Co3
_chemical_formula_sum   'Pr3 Al6 Co9'
_cell_volume   285.29949335
_cell_formula_units_Z   3
loop_
 _symmetry_equiv_pos_site_id
 _symmetry_equiv_pos_as_xyz
  1  'x, y, z'
loop_
 _atom_site_type_symbol
 _atom_site_label
 _atom_site_symmetry_multiplicity
 _atom_site_fract_x
 _atom_site_fract_y
 _atom_site_fract_z
 _atom_site_occupancy
  Pr  Pr0  1  0.50000000  0.66666668  0.33333336  1
  Pr  Pr1  1  0.50000000  0.33333334  0.66666670  1
  Pr  Pr2  1  0.00000000  0.00000000  0.00000000  1
  Al  Al3  1  0.50000000  0.72639201  0.72639204  1
  Al  Al4  1  0.50000000  0.00000000  0.27360801  1
  Al  Al5  1  0.50000000  0.27360801  0.00000001  1
  Al  Al6  1  1.00000000  0.48475101  0.48475103  1
  Al  Al7  1  0.00000000  0.00000000  0.51524902  1
  Al  Al8  1  -0.00000000  0.51524901  0.00000001  1
  Co  Co9  1  -0.00000000  0.82407502  0.19334503  1
  Co  Co10  1  1.00000000  0.36927001  0.17592501  1
  Co  Co11  1  -0.00000000  0.80665502  0.63073004  1
  Co  Co12  1  -0.00000000  0.19334500  0.82407504  1
  Co  Co13  1  1.00000000  0.17592500  0.36927002  1
  Co  Co14  1  -0.00000000  0.63073001  0.80665505  1
  Co  Co15  1  0.50000000  0.29190101  0.29190102  1
  Co  Co16  1  0.50000000  0.00000000  0.70809903  1
  Co  Co17  1  0.50000000  0.70809901  0.00000001  1
