# generated using pymatgen
data_Ho7Ga7Cu3
_symmetry_space_group_name_H-M   'P 1'
_cell_length_a   4.56548977
_cell_length_b   7.95250130
_cell_length_c   10.54113293
_cell_angle_alpha   74.21661377
_cell_angle_beta   77.49317169
_cell_angle_gamma   73.31872559
_symmetry_Int_Tables_number   1
_chemical_formula_structural   Ho7Ga7Cu3
_chemical_formula_sum   'Ho7 Ga7 Cu3'
_cell_volume   348.78546145
_cell_formula_units_Z   1
loop_
 _symmetry_equiv_pos_site_id
 _symmetry_equiv_pos_as_xyz
  1  'x, y, z'
loop_
 _atom_site_type_symbol
 _atom_site_label
 _atom_site_symmetry_multiplicity
 _atom_site_fract_x
 _atom_site_fract_y
 _atom_site_fract_z
 _atom_site_occupancy
  Ho  Ho0  1  0.19777297  0.67448099  0.92997299  1
  Ho  Ho1  1  0.60794301  0.43569100  0.34842299  1
  Ho  Ho2  1  0.60298299  0.69565599  0.09837799  1
  Ho  Ho3  1  0.60379898  0.94467299  0.84772898  1
  Ho  Ho4  1  0.01489499  0.22776400  0.74244599  1
  Ho  Ho5  1  0.98990401  0.76386799  0.25632398  1
  Ga  Ga6  1  0.39652200  0.29313500  0.91382099  1
  Ho  Ho7  1  0.38550002  0.06523100  0.16376900  1
  Ga  Ga8  1  0.41250299  0.53123999  0.64375399  1
  Ga  Ga9  1  0.79743002  0.33662800  0.06851199  1
  Ga  Ga10  1  0.19604900  0.17168900  0.43621299  1
  Ga  Ga11  1  0.79700699  0.84738499  0.55860098  1
  Ga  Ga12  1  0.99596305  0.00512300  0.00295099  1
  Cu  Cu13  1  0.39025297  0.80349899  0.41599499  1
  Cu  Cu14  1  0.80796901  0.59452999  0.78953198  1
  Cu  Cu15  1  0.61199602  0.17790700  0.59810099  1
  Ga  Ga16  1  0.19151098  0.43150100  0.18547699  1
