# generated using pymatgen
data_EuBe5O7
_symmetry_space_group_name_H-M   'P 1'
_cell_length_a   5.10920191
_cell_length_b   5.10920238
_cell_length_c   7.50023890
_cell_angle_alpha   90.00000000
_cell_angle_beta   90.00000000
_cell_angle_gamma   120.00000000
_symmetry_Int_Tables_number   1
_chemical_formula_structural   EuBe5O7
_chemical_formula_sum   'Eu1 Be5 O7'
_cell_volume   169.55550717
_cell_formula_units_Z   1
loop_
 _symmetry_equiv_pos_site_id
 _symmetry_equiv_pos_as_xyz
  1  'x, y, z'
loop_
 _atom_site_type_symbol
 _atom_site_label
 _atom_site_symmetry_multiplicity
 _atom_site_fract_x
 _atom_site_fract_y
 _atom_site_fract_z
 _atom_site_occupancy
  Eu  Eu0  1  0.00000000  0.00000000  0.00000000  1
  Be  Be1  1  0.33333336  0.66666666  0.70248101  1
  Be  Be2  1  0.66666669  0.33333333  0.29751900  1
  Be  Be3  1  0.66666669  0.33333333  0.70797301  1
  Be  Be4  1  0.33333336  0.66666666  0.29202700  1
  Be  Be5  1  0.33333336  0.66666666  0.49237701  1
  O  O6  1  0.66666669  0.33333333  0.50762301  1
  O  O7  1  0.50420302  0.49579799  0.78840001  1
  O  O8  1  0.99159503  0.49579799  0.78840001  1
  O  O9  1  0.50420301  0.00840600  0.78840001  1
  O  O10  1  0.49579702  0.50420199  0.21160000  1
  O  O11  1  0.00840502  0.50420199  0.21160000  1
  O  O12  1  0.49579704  0.99159399  0.21160000  1
