# generated using pymatgen
data_K4Bi5
_symmetry_space_group_name_H-M   'P 1'
_cell_length_a   5.22965813
_cell_length_b   6.47590923
_cell_length_c   10.23097420
_cell_angle_alpha   74.22194672
_cell_angle_beta   75.19206238
_cell_angle_gamma   66.18543243
_symmetry_Int_Tables_number   1
_chemical_formula_structural   K4Bi5
_chemical_formula_sum   'K4 Bi5'
_cell_volume   300.83410479
_cell_formula_units_Z   1
loop_
 _symmetry_equiv_pos_site_id
 _symmetry_equiv_pos_as_xyz
  1  'x, y, z'
loop_
 _atom_site_type_symbol
 _atom_site_label
 _atom_site_symmetry_multiplicity
 _atom_site_fract_x
 _atom_site_fract_y
 _atom_site_fract_z
 _atom_site_occupancy
  K  K0  1  0.39278399  0.31732199  0.89710998  1
  K  K1  1  0.60734598  0.68700498  0.09830300  1
  K  K2  1  0.74895698  0.83447198  0.66761399  1
  K  K3  1  0.25908899  0.15125700  0.33056499  1
  Bi  Bi4  1  0.51740599  0.47620399  0.48898399  1
  Bi  Bi5  1  0.09521799  0.91724197  0.89232199  1
  Bi  Bi6  1  0.90392798  0.08521700  0.10692699  1
  Bi  Bi7  1  0.04232900  0.22601899  0.68932299  1
  Bi  Bi8  1  0.95664397  0.77585998  0.31085199  1
