# generated using pymatgen
data_Ho3Pd
_symmetry_space_group_name_H-M   'P 1'
_cell_length_a   6.45712805
_cell_length_b   7.39387178
_cell_length_c   9.48380184
_cell_angle_alpha   90.00000000
_cell_angle_beta   90.00000000
_cell_angle_gamma   90.00000000
_symmetry_Int_Tables_number   1
_chemical_formula_structural   Ho3Pd
_chemical_formula_sum   'Ho12 Pd4'
_cell_volume   452.78682883
_cell_formula_units_Z   4
loop_
 _symmetry_equiv_pos_site_id
 _symmetry_equiv_pos_as_xyz
  1  'x, y, z'
loop_
 _atom_site_type_symbol
 _atom_site_label
 _atom_site_symmetry_multiplicity
 _atom_site_fract_x
 _atom_site_fract_y
 _atom_site_fract_z
 _atom_site_occupancy
  Ho  Ho0  1  0.32817900  0.67688202  0.06706100  1
  Ho  Ho1  1  0.17182100  0.17688201  0.43293901  1
  Ho  Ho2  1  0.67182100  0.32311801  0.56706101  1
  Ho  Ho3  1  0.82817899  0.82311802  0.93293902  1
  Ho  Ho4  1  0.67182100  0.32311801  0.93293902  1
  Ho  Ho5  1  0.82817899  0.82311802  0.56706101  1
  Ho  Ho6  1  0.32817900  0.67688202  0.43293901  1
  Ho  Ho7  1  0.17182100  0.17688201  0.06706100  1
  Ho  Ho8  1  0.86093099  0.54107702  0.25000000  1
  Ho  Ho9  1  0.63906900  0.04107700  0.25000000  1
  Ho  Ho10  1  0.13906900  0.45892301  0.75000001  1
  Ho  Ho11  1  0.36093100  0.95892303  0.75000001  1
  Pd  Pd12  1  0.04603000  0.88545703  0.25000000  1
  Pd  Pd13  1  0.45397000  0.38545701  0.25000000  1
  Pd  Pd14  1  0.95396999  0.11454300  0.75000001  1
  Pd  Pd15  1  0.54603000  0.61454302  0.75000001  1
