# generated using pymatgen
data_LiVO
_symmetry_space_group_name_H-M   'P 1'
_cell_length_a   3.16411996
_cell_length_b   3.16412067
_cell_length_c   4.72785902
_cell_angle_alpha   90.00000000
_cell_angle_beta   90.00000000
_cell_angle_gamma   119.99999237
_symmetry_Int_Tables_number   1
_chemical_formula_structural   LiVO
_chemical_formula_sum   'Li1 V1 O1'
_cell_volume   40.99219382
_cell_formula_units_Z   1
loop_
 _symmetry_equiv_pos_site_id
 _symmetry_equiv_pos_as_xyz
  1  'x, y, z'
loop_
 _atom_site_type_symbol
 _atom_site_label
 _atom_site_symmetry_multiplicity
 _atom_site_fract_x
 _atom_site_fract_y
 _atom_site_fract_z
 _atom_site_occupancy
  Li  Li0  1  0.00000000  0.00000000  0.00000000  1
  V  V1  1  0.33333332  0.66666664  0.20045600  1
  O  O2  1  0.66666667  0.33333332  0.79954400  1
