# generated using pymatgen
data_Li3CaAlGe5
_symmetry_space_group_name_H-M   'P 1'
_cell_length_a   4.39872980
_cell_length_b   4.40018320
_cell_length_c   10.03538227
_cell_angle_alpha   89.85021210
_cell_angle_beta   90.00000000
_cell_angle_gamma   90.00000000
_symmetry_Int_Tables_number   1
_chemical_formula_structural   Li3CaAlGe5
_chemical_formula_sum   'Li3 Ca1 Al1 Ge5'
_cell_volume   194.23633753
_cell_formula_units_Z   1
loop_
 _symmetry_equiv_pos_site_id
 _symmetry_equiv_pos_as_xyz
  1  'x, y, z'
loop_
 _atom_site_type_symbol
 _atom_site_label
 _atom_site_symmetry_multiplicity
 _atom_site_fract_x
 _atom_site_fract_y
 _atom_site_fract_z
 _atom_site_occupancy
  Ca  Ca0  1  0.50000002  0.74660997  0.74916702  1
  Li  Li1  1  -0.00000000  0.24745699  0.25315101  1
  Li  Li2  1  0.50000002  0.26185399  0.49716401  1
  Li  Li3  1  0.00000000  0.76044097  0.49773802  1
  Ge  Ge4  1  0.00000000  0.23482899  0.86931601  1
  Al  Al5  1  0.50000002  0.73121997  0.13088902  1
  Ge  Ge6  1  0.00000000  0.25946099  0.62145201  1
  Ge  Ge7  1  0.50000002  0.76285997  0.37477602  1
  Ge  Ge8  1  0.50000002  0.23088499  0.00436901  1
  Ge  Ge9  1  -0.00000000  0.73238297  0.00197802  1
