# generated using pymatgen
data_Rb4Na3F7
_symmetry_space_group_name_H-M   'P 1'
_cell_length_a   5.90050793
_cell_length_b   5.90050793
_cell_length_c   12.04864502
_cell_angle_alpha   90.00000000
_cell_angle_beta   90.00000000
_cell_angle_gamma   90.00000000
_symmetry_Int_Tables_number   1
_chemical_formula_structural   Rb4Na3F7
_chemical_formula_sum   'Rb4 Na3 F7'
_cell_volume   419.48555025
_cell_formula_units_Z   1
loop_
 _symmetry_equiv_pos_site_id
 _symmetry_equiv_pos_as_xyz
  1  'x, y, z'
loop_
 _atom_site_type_symbol
 _atom_site_label
 _atom_site_symmetry_multiplicity
 _atom_site_fract_x
 _atom_site_fract_y
 _atom_site_fract_z
 _atom_site_occupancy
  Rb  Rb0  1  0.50000001  0.00000000  0.25443500  1
  Na  Na1  1  0.50000001  0.00000000  0.74556500  1
  Na  Na2  1  0.00000000  0.50000001  0.74556500  1
  Rb  Rb3  1  0.00000000  0.50000001  0.25443500  1
  Rb  Rb4  1  0.50000001  0.50000001  0.00000000  1
  Rb  Rb5  1  0.00000000  0.00000000  0.50000000  1
  F  F6  1  0.77309601  0.77309601  0.11272800  1
  F  F7  1  0.27283300  0.72716701  0.38209800  1
  Na  Na8  1  0.72716701  0.72716701  0.61790200  1
  F  F9  1  0.72716701  0.27283300  0.38209800  1
  F  F10  1  0.77309601  0.22690400  0.88727200  1
  F  F11  1  0.27283300  0.27283300  0.61790200  1
  F  F12  1  0.22690400  0.22690400  0.11272800  1
  F  F13  1  0.22690400  0.77309601  0.88727200  1
