# generated using pymatgen
data_Si2O3
_symmetry_space_group_name_H-M   'P 1'
_cell_length_a   5.72255373
_cell_length_b   5.72255373
_cell_length_c   6.09155655
_cell_angle_alpha   108.94338226
_cell_angle_beta   108.94338226
_cell_angle_gamma   107.99092865
_symmetry_Int_Tables_number   1
_chemical_formula_structural   Si2O3
_chemical_formula_sum   'Si4 O6'
_cell_volume   158.17539045
_cell_formula_units_Z   2
loop_
 _symmetry_equiv_pos_site_id
 _symmetry_equiv_pos_as_xyz
  1  'x, y, z'
loop_
 _atom_site_type_symbol
 _atom_site_label
 _atom_site_symmetry_multiplicity
 _atom_site_fract_x
 _atom_site_fract_y
 _atom_site_fract_z
 _atom_site_occupancy
  Si  Si0  1  0.12499997  0.37499998  0.24999999  1
  Si  Si1  1  0.12499993  0.87499996  0.24999998  1
  Si  Si2  1  0.12499993  0.87499996  0.74999998  1
  Si  Si3  1  0.62499992  0.87499996  0.74999998  1
  O  O4  1  0.24999994  0.74999997  0.49999998  1
  O  O5  1  0.00000000  0.00000000  0.00000000  1
  O  O6  1  0.25667898  0.25667899  0.51335800  1
  O  O7  1  0.50667900  0.00667900  0.01335800  1
  O  O8  1  0.74332093  0.74332097  0.48664199  1
  O  O9  1  0.99332095  0.49332098  0.98664200  1
