# generated using pymatgen
data_Zr3Zn5
_symmetry_space_group_name_H-M   'P 1'
_cell_length_a   4.80536604
_cell_length_b   5.99192190
_cell_length_c   5.99192238
_cell_angle_alpha   60.00000000
_cell_angle_beta   90.00000000
_cell_angle_gamma   90.00000000
_symmetry_Int_Tables_number   1
_chemical_formula_structural   Zr3Zn5
_chemical_formula_sum   'Zr3 Zn5'
_cell_volume   149.41335901
_cell_formula_units_Z   1
loop_
 _symmetry_equiv_pos_site_id
 _symmetry_equiv_pos_as_xyz
  1  'x, y, z'
loop_
 _atom_site_type_symbol
 _atom_site_label
 _atom_site_symmetry_multiplicity
 _atom_site_fract_x
 _atom_site_fract_y
 _atom_site_fract_z
 _atom_site_occupancy
  Zr  Zr0  1  0.74999999  0.67906102  0.16046998  1
  Zr  Zr1  1  0.74999999  0.16046901  0.16046999  1
  Zn  Zn2  1  0.74999999  0.16046901  0.67906198  1
  Zr  Zr3  1  0.25000000  0.32093901  0.83952998  1
  Zn  Zn4  1  0.25000000  0.83953103  0.83952996  1
  Zn  Zn5  1  0.25000000  0.83953103  0.32093797  1
  Zn  Zn6  1  0.25000000  0.33333334  0.33333332  1
  Zn  Zn7  1  0.74999999  0.66666669  0.66666664  1
