# generated using pymatgen
data_PrGaGe3
_symmetry_space_group_name_H-M   'P 1'
_cell_length_a   4.38976622
_cell_length_b   4.38976622
_cell_length_c   5.96608257
_cell_angle_alpha   111.58576202
_cell_angle_beta   111.58576202
_cell_angle_gamma   90.00000000
_symmetry_Int_Tables_number   1
_chemical_formula_structural   PrGaGe3
_chemical_formula_sum   'Pr1 Ga1 Ge3'
_cell_volume   98.18106927
_cell_formula_units_Z   1
loop_
 _symmetry_equiv_pos_site_id
 _symmetry_equiv_pos_as_xyz
  1  'x, y, z'
loop_
 _atom_site_type_symbol
 _atom_site_label
 _atom_site_symmetry_multiplicity
 _atom_site_fract_x
 _atom_site_fract_y
 _atom_site_fract_z
 _atom_site_occupancy
  Pr  Pr0  1  0.00000000  0.00000000  0.00000000  1
  Ga  Ga1  1  0.61480295  0.61480296  0.22960597  1
  Ge  Ge2  1  0.38519697  0.38519698  0.77039397  1
  Ge  Ge3  1  0.74999995  0.24999999  0.49999997  1
  Ge  Ge4  1  0.24999997  0.74999996  0.49999997  1
