# generated using pymatgen
data_Ca4As2S3
_symmetry_space_group_name_H-M   'P 1'
_cell_length_a   4.29406404
_cell_length_b   4.29406452
_cell_length_c   17.10134506
_cell_angle_alpha   90.00000000
_cell_angle_beta   90.00000000
_cell_angle_gamma   120.00000000
_symmetry_Int_Tables_number   1
_chemical_formula_structural   Ca4As2S3
_chemical_formula_sum   'Ca4 As2 S3'
_cell_volume   273.08508752
_cell_formula_units_Z   1
loop_
 _symmetry_equiv_pos_site_id
 _symmetry_equiv_pos_as_xyz
  1  'x, y, z'
loop_
 _atom_site_type_symbol
 _atom_site_label
 _atom_site_symmetry_multiplicity
 _atom_site_fract_x
 _atom_site_fract_y
 _atom_site_fract_z
 _atom_site_occupancy
  Ca  Ca0  1  0.66666668  0.33333334  0.10289501  1
  Ca  Ca1  1  0.33333337  0.66666667  0.89710505  1
  Ca  Ca2  1  0.00000000  0.00000000  0.32006802  1
  Ca  Ca3  1  0.00000000  0.00000000  0.67993204  1
  As  As4  1  0.00000000  0.00000000  0.00000000  1
  S  S5  1  0.33333337  0.66666667  0.20154201  1
  As  As6  1  0.66666668  0.33333334  0.79845804  1
  S  S7  1  0.66666668  0.33333334  0.41989202  1
  S  S8  1  0.33333337  0.66666667  0.58010803  1
