# generated using pymatgen
data_K4RbTlSe2
_symmetry_space_group_name_H-M   'P 1'
_cell_length_a   6.74198818
_cell_length_b   6.74198818
_cell_length_c   6.74198818
_cell_angle_alpha   90.00000000
_cell_angle_beta   90.00000000
_cell_angle_gamma   90.00000000
_symmetry_Int_Tables_number   1
_chemical_formula_structural   K4RbTlSe2
_chemical_formula_sum   'K4 Rb1 Tl1 Se2'
_cell_volume   306.45305895
_cell_formula_units_Z   1
loop_
 _symmetry_equiv_pos_site_id
 _symmetry_equiv_pos_as_xyz
  1  'x, y, z'
loop_
 _atom_site_type_symbol
 _atom_site_label
 _atom_site_symmetry_multiplicity
 _atom_site_fract_x
 _atom_site_fract_y
 _atom_site_fract_z
 _atom_site_occupancy
  K  K0  1  0.00000000  0.00000000  0.00000000  1
  K  K1  1  0.49999999  0.24999999  0.00000000  1
  K  K2  1  0.49999999  0.74999998  0.00000000  1
  K  K3  1  0.00000000  0.49999999  0.24999999  1
  Rb  Rb4  1  0.24999999  0.00000000  0.49999999  1
  Tl  Tl5  1  0.74999998  0.00000000  0.49999999  1
  Se  Se6  1  0.49999999  0.49999999  0.49999999  1
  Se  Se7  1  0.00000000  0.49999999  0.74999998  1
