# generated using pymatgen
data_RbCuP3
_symmetry_space_group_name_H-M   'P 1'
_cell_length_a   4.07050180
_cell_length_b   4.07050180
_cell_length_c   6.75865793
_cell_angle_alpha   107.52563477
_cell_angle_beta   107.52563477
_cell_angle_gamma   90.00000000
_symmetry_Int_Tables_number   1
_chemical_formula_structural   RbCuP3
_chemical_formula_sum   'Rb1 Cu1 P3'
_cell_volume   101.32169439
_cell_formula_units_Z   1
loop_
 _symmetry_equiv_pos_site_id
 _symmetry_equiv_pos_as_xyz
  1  'x, y, z'
loop_
 _atom_site_type_symbol
 _atom_site_label
 _atom_site_symmetry_multiplicity
 _atom_site_fract_x
 _atom_site_fract_y
 _atom_site_fract_z
 _atom_site_occupancy
  Rb  Rb0  1  0.00000000  0.00000000  0.00000000  1
  Cu  Cu1  1  0.34324103  0.34324102  0.68648201  1
  P  P2  1  0.65675907  0.65675904  0.31351804  1
  P  P3  1  0.75000006  0.25000002  0.50000002  1
  P  P4  1  0.25000004  0.75000005  0.50000003  1
