# generated using pymatgen
data_Pr2Ni15
_symmetry_space_group_name_H-M   'P 1'
_cell_length_a   5.58478403
_cell_length_b   5.58478403
_cell_length_c   8.58786201
_cell_angle_alpha   90.00000000
_cell_angle_beta   90.00000000
_cell_angle_gamma   120.00000000
_symmetry_Int_Tables_number   1
_chemical_formula_structural   Pr2Ni15
_chemical_formula_sum   'Pr2 Ni15'
_cell_volume   231.96820179
_cell_formula_units_Z   1
loop_
 _symmetry_equiv_pos_site_id
 _symmetry_equiv_pos_as_xyz
  1  'x, y, z'
loop_
 _atom_site_type_symbol
 _atom_site_label
 _atom_site_symmetry_multiplicity
 _atom_site_fract_x
 _atom_site_fract_y
 _atom_site_fract_z
 _atom_site_occupancy
  Pr  Pr0  1  0.00000000  0.00000000  0.29697200  1
  Pr  Pr1  1  0.00000000  0.00000000  0.70302800  1
  Ni  Ni2  1  0.33333334  0.66666669  1.00000000  1
  Ni  Ni3  1  0.66666667  0.33333334  -0.00000000  1
  Ni  Ni4  1  0.33333334  0.66666669  0.33235800  1
  Ni  Ni5  1  0.66666667  0.33333334  0.33235800  1
  Ni  Ni6  1  0.66666667  0.33333334  0.66764200  1
  Ni  Ni7  1  0.33333334  0.66666669  0.66764200  1
  Ni  Ni8  1  0.50000002  1.00000003  0.16500500  1
  Ni  Ni9  1  0.50000001  0.50000002  0.16500500  1
  Ni  Ni10  1  0.00000001  0.50000002  0.16500500  1
  Ni  Ni11  1  0.50000002  1.00000003  0.83499500  1
  Ni  Ni12  1  0.50000001  0.50000002  0.83499500  1
  Ni  Ni13  1  0.00000001  0.50000002  0.83499500  1
  Ni  Ni14  1  0.50000002  1.00000003  0.50000000  1
  Ni  Ni15  1  0.50000001  0.50000002  0.50000000  1
  Ni  Ni16  1  0.00000001  0.50000002  0.50000000  1
