# generated using pymatgen
data_NaCuS2
_symmetry_space_group_name_H-M   'P 1'
_cell_length_a   3.96319795
_cell_length_b   6.82669973
_cell_length_c   10.26269722
_cell_angle_alpha   90.00000000
_cell_angle_beta   90.00000000
_cell_angle_gamma   106.87423706
_symmetry_Int_Tables_number   1
_chemical_formula_structural   NaCuS2
_chemical_formula_sum   'Na3 Cu3 S6'
_cell_volume   265.70804044
_cell_formula_units_Z   3
loop_
 _symmetry_equiv_pos_site_id
 _symmetry_equiv_pos_as_xyz
  1  'x, y, z'
loop_
 _atom_site_type_symbol
 _atom_site_label
 _atom_site_symmetry_multiplicity
 _atom_site_fract_x
 _atom_site_fract_y
 _atom_site_fract_z
 _atom_site_occupancy
  Na  Na0  1  0.00417300  0.00834600  0.50219799  1
  Na  Na1  1  0.99582712  0.99165404  0.00219800  1
  Na  Na2  1  0.53382901  0.06765800  0.75121698  1
  Cu  Cu3  1  0.46617111  0.93234204  0.25121699  1
  Cu  Cu4  1  0.25187006  0.50374002  0.77662598  1
  Cu  Cu5  1  0.74813006  0.49626002  0.27662599  1
  S  S6  1  0.92531610  0.85063204  0.74993398  1
  S  S7  1  0.07468402  0.14936801  0.24993399  1
  S  S8  1  0.63830104  0.27660201  0.56775399  1
  S  S9  1  0.36369908  0.72739803  0.43377199  1
  S  S10  1  0.63630104  0.27260201  0.93377198  1
  S  S11  1  0.36169908  0.72339803  0.06775400  1
