# generated using pymatgen
data_YbInAu
_symmetry_space_group_name_H-M   'P 1'
_cell_length_a   4.81772995
_cell_length_b   7.46134996
_cell_length_c   8.95410824
_cell_angle_alpha   90.00000000
_cell_angle_beta   90.00000000
_cell_angle_gamma   90.00000000
_symmetry_Int_Tables_number   1
_chemical_formula_structural   YbInAu
_chemical_formula_sum   'Yb4 In4 Au4'
_cell_volume   321.87126214
_cell_formula_units_Z   4
loop_
 _symmetry_equiv_pos_site_id
 _symmetry_equiv_pos_as_xyz
  1  'x, y, z'
loop_
 _atom_site_type_symbol
 _atom_site_label
 _atom_site_symmetry_multiplicity
 _atom_site_fract_x
 _atom_site_fract_y
 _atom_site_fract_z
 _atom_site_occupancy
  Yb  Yb0  1  0.75000001  0.84351600  0.07600300  1
  Yb  Yb1  1  0.25000000  0.15648400  0.92399698  1
  Yb  Yb2  1  0.75000001  0.34351600  0.42399699  1
  Yb  Yb3  1  0.25000000  0.65648400  0.57600298  1
  In  In4  1  0.25000000  0.51937300  0.18093700  1
  In  In5  1  0.75000001  0.48062700  0.81906298  1
  In  In6  1  0.25000000  0.01937300  0.31906299  1
  In  In7  1  0.75000001  0.98062700  0.68093698  1
  Au  Au8  1  0.25000000  0.75138800  0.89669698  1
  Au  Au9  1  0.75000001  0.24861200  0.10330300  1
  Au  Au10  1  0.25000000  0.25138800  0.60330298  1
  Au  Au11  1  0.75000001  0.74861200  0.39669699  1
