# generated using pymatgen
data_Rb7TlRh2
_symmetry_space_group_name_H-M   'P 1'
_cell_length_a   9.72451401
_cell_length_b   9.72451401
_cell_length_c   9.72451401
_cell_angle_alpha   107.01271820
_cell_angle_beta   107.01271820
_cell_angle_gamma   107.01271820
_symmetry_Int_Tables_number   1
_chemical_formula_structural   Rb7TlRh2
_chemical_formula_sum   'Rb14 Tl2 Rh4'
_cell_volume   765.59420771
_cell_formula_units_Z   2
loop_
 _symmetry_equiv_pos_site_id
 _symmetry_equiv_pos_as_xyz
  1  'x, y, z'
loop_
 _atom_site_type_symbol
 _atom_site_label
 _atom_site_symmetry_multiplicity
 _atom_site_fract_x
 _atom_site_fract_y
 _atom_site_fract_z
 _atom_site_occupancy
  Rb  Rb0  1  0.02193602  0.29036300  0.09160201  1
  Rb  Rb1  1  0.09160200  0.02193600  0.29036301  1
  Rb  Rb2  1  0.50000003  0.50000001  0.50000003  1
  Rb  Rb3  1  0.70963705  0.90839801  0.97806406  1
  Rb  Rb4  1  0.97806403  0.70963701  0.90839805  1
  Rb  Rb5  1  0.29036300  0.09160200  0.02193600  1
  Rb  Rb6  1  0.90839805  0.97806401  0.70963705  1
  Rb  Rb7  1  0.00000000  0.00000000  0.00000000  1
  Rb  Rb8  1  0.77231905  0.92729701  0.32180204  1
  Rb  Rb9  1  0.84082403  0.61341901  0.53572504  1
  Tl  Tl10  1  0.15917602  0.38658101  0.46427502  1
  Rb  Rb11  1  0.32180205  0.77231901  0.92729705  1
  Rh  Rh12  1  0.67819801  0.22768100  0.07270301  1
  Rh  Rh13  1  0.92729701  0.32180200  0.77231903  1
  Rh  Rh14  1  0.38658103  0.46427501  0.15917602  1
  Rb  Rb15  1  0.46427500  0.15917600  0.38658102  1
  Rb  Rb16  1  0.22768100  0.07270300  0.67819802  1
  Rh  Rh17  1  0.07270304  0.67819801  0.22768103  1
  Rb  Rb18  1  0.61341903  0.53572501  0.84082404  1
  Tl  Tl19  1  0.53572505  0.84082401  0.61341904  1
