# generated using pymatgen
data_Ce6Ga5Si7
_symmetry_space_group_name_H-M   'P 1'
_cell_length_a   4.40375423
_cell_length_b   7.63449192
_cell_length_c   11.35181904
_cell_angle_alpha   109.64962006
_cell_angle_beta   101.18437958
_cell_angle_gamma   90.00000000
_symmetry_Int_Tables_number   1
_chemical_formula_structural   Ce6Ga5Si7
_chemical_formula_sum   'Ce6 Ga5 Si7'
_cell_volume   351.72199456
_cell_formula_units_Z   1
loop_
 _symmetry_equiv_pos_site_id
 _symmetry_equiv_pos_as_xyz
  1  'x, y, z'
loop_
 _atom_site_type_symbol
 _atom_site_label
 _atom_site_symmetry_multiplicity
 _atom_site_fract_x
 _atom_site_fract_y
 _atom_site_fract_z
 _atom_site_occupancy
  Ce  Ce0  1  0.33298099  0.87586600  0.66596201  1
  Ce  Ce1  1  0.66701897  0.20990400  0.33403801  1
  Ce  Ce2  1  0.16684199  0.63133900  0.33368300  1
  Ce  Ce3  1  0.83315896  0.29765600  0.66631802  1
  Ce  Ce4  1  0.99999995  0.54874100  1.00000003  1
  Ce  Ce5  1  0.49999998  0.96495800  -0.00000002  1
  Ga  Ga6  1  0.09374100  0.93857300  0.18748198  1
  Ga  Ga7  1  0.90625896  0.75109100  0.81251802  1
  Ga  Ga8  1  0.26414999  0.42586800  0.52830001  1
  Ga  Ga9  1  0.73584897  0.89756700  0.47169900  1
  Si  Si10  1  0.43514198  0.28191900  0.87028403  1
  Ga  Ga11  1  0.56485697  0.41163400  0.12971500  1
  Si  Si12  1  0.07229100  0.24993100  0.14458300  1
  Si  Si13  1  0.92770796  0.10534800  0.85541604  1
  Si  Si14  1  0.23241099  0.06476700  0.46482102  1
  Si  Si15  1  0.76758997  0.59994600  0.53518001  1
  Si  Si16  1  0.39548398  0.56892500  0.79096802  1
  Si  Si17  1  0.60451497  0.77795600  0.20903100  1
