# generated using pymatgen
data_YbSi2
_symmetry_space_group_name_H-M   'P 1'
_cell_length_a   4.39910507
_cell_length_b   7.32620811
_cell_length_c   7.56948900
_cell_angle_alpha   90.00000000
_cell_angle_beta   90.00000000
_cell_angle_gamma   90.00000000
_symmetry_Int_Tables_number   1
_chemical_formula_structural   YbSi2
_chemical_formula_sum   'Yb4 Si8'
_cell_volume   243.95523889
_cell_formula_units_Z   4
loop_
 _symmetry_equiv_pos_site_id
 _symmetry_equiv_pos_as_xyz
  1  'x, y, z'
loop_
 _atom_site_type_symbol
 _atom_site_label
 _atom_site_symmetry_multiplicity
 _atom_site_fract_x
 _atom_site_fract_y
 _atom_site_fract_z
 _atom_site_occupancy
  Yb  Yb0  1  0.25000000  0.77118899  0.50872400  1
  Yb  Yb1  1  0.74999999  0.22881100  0.49127600  1
  Yb  Yb2  1  0.74999999  0.27118900  0.99127600  1
  Yb  Yb3  1  0.25000000  0.72881099  0.00872400  1
  Si  Si4  1  0.25000000  0.41011799  0.71763300  1
  Si  Si5  1  0.74999999  0.58988199  0.28236700  1
  Si  Si6  1  0.74999999  0.91011799  0.78236700  1
  Si  Si7  1  0.25000000  0.08988200  0.21763300  1
  Si  Si8  1  0.25000000  0.43077399  0.25080400  1
  Si  Si9  1  0.74999999  0.56922599  0.74919600  1
  Si  Si10  1  0.74999999  0.93077399  0.24919600  1
  Si  Si11  1  0.25000000  0.06922600  0.75080400  1
