# generated using pymatgen
data_Li2O2
_symmetry_space_group_name_H-M   'P 1'
_cell_length_a   4.76123524
_cell_length_b   5.65987921
_cell_length_c   5.65987921
_cell_angle_alpha   119.60688782
_cell_angle_beta   90.00000000
_cell_angle_gamma   90.00000000
_symmetry_Int_Tables_number   1
_chemical_formula_structural   Li2O2
_chemical_formula_sum   'Li6 O6'
_cell_volume   132.60849776
_cell_formula_units_Z   3
loop_
 _symmetry_equiv_pos_site_id
 _symmetry_equiv_pos_as_xyz
  1  'x, y, z'
loop_
 _atom_site_type_symbol
 _atom_site_label
 _atom_site_symmetry_multiplicity
 _atom_site_fract_x
 _atom_site_fract_y
 _atom_site_fract_z
 _atom_site_occupancy
  Li  Li0  1  0.52773197  0.82919797  0.50291397  1
  Li  Li1  1  0.52773197  0.50291398  0.82919797  1
  Li  Li2  1  0.02773200  0.17080199  0.49708599  1
  Li  Li3  1  0.02773200  0.49708598  0.17080199  1
  Li  Li4  1  0.50868497  0.16166299  0.16166299  1
  Li  Li5  1  0.00868500  0.83833697  0.83833697  1
  O  O6  1  0.65542997  0.89048697  0.89048696  1
  O  O7  1  0.15542999  0.10951300  0.10951300  1
  O  O8  1  0.58026097  0.16245099  0.44336599  1
  O  O9  1  0.08026100  0.83754897  0.55663397  1
  O  O10  1  0.58026097  0.44336599  0.16245099  1
  O  O11  1  0.08026100  0.55663398  0.83754897  1
