# generated using pymatgen
data_Ca2Mn2O5
_symmetry_space_group_name_H-M   'P 1'
_cell_length_a   5.29575586
_cell_length_b   5.54015017
_cell_length_c   8.56472301
_cell_angle_alpha   108.87039185
_cell_angle_beta   108.00867462
_cell_angle_gamma   90.00000000
_symmetry_Int_Tables_number   1
_chemical_formula_structural   Ca2Mn2O5
_chemical_formula_sum   'Ca4 Mn4 O10'
_cell_volume   224.72799750
_cell_formula_units_Z   2
loop_
 _symmetry_equiv_pos_site_id
 _symmetry_equiv_pos_as_xyz
  1  'x, y, z'
loop_
 _atom_site_type_symbol
 _atom_site_label
 _atom_site_symmetry_multiplicity
 _atom_site_fract_x
 _atom_site_fract_y
 _atom_site_fract_z
 _atom_site_occupancy
  Ca  Ca0  1  0.84762603  0.41212499  0.77880398  1
  Ca  Ca1  1  0.06882201  0.58787499  0.22119700  1
  Ca  Ca2  1  0.34762502  0.86667798  0.77880299  1
  Ca  Ca3  1  0.56882302  0.13332200  0.22119800  1
  Mn  Mn4  1  0.74043403  0.80864698  0.50000000  1
  Mn  Mn5  1  0.24043401  0.19135300  0.49999999  1
  Mn  Mn6  1  0.94922303  0.00000000  0.99999997  1
  Mn  Mn7  1  0.44922302  0.49999999  0.99999997  1
  O  O8  1  0.28351001  0.42501299  0.71562698  1
  O  O9  1  0.56788302  0.57498699  0.28437300  1
  O  O10  1  0.78351003  0.79061398  0.71562699  1
  O  O11  1  0.06788300  0.20938600  0.28437299  1
  O  O12  1  0.60641202  0.13402000  0.49999999  1
  O  O13  1  0.10641101  0.86597998  0.49999900  1
  O  O14  1  0.68817602  0.23934000  0.97326097  1
  O  O15  1  0.71491503  0.76065999  0.02673902  1
  O  O16  1  0.18817601  0.23392100  0.97326097  1
  O  O17  1  0.21491502  0.76607899  0.02673902  1
