# generated using pymatgen
data_Li2Cu3
_symmetry_space_group_name_H-M   'P 1'
_cell_length_a   4.29057598
_cell_length_b   4.29057550
_cell_length_c   5.33112097
_cell_angle_alpha   90.00000000
_cell_angle_beta   90.00000000
_cell_angle_gamma   120.00000763
_symmetry_Int_Tables_number   1
_chemical_formula_structural   Li2Cu3
_chemical_formula_sum   'Li2 Cu3'
_cell_volume   84.99243693
_cell_formula_units_Z   1
loop_
 _symmetry_equiv_pos_site_id
 _symmetry_equiv_pos_as_xyz
  1  'x, y, z'
loop_
 _atom_site_type_symbol
 _atom_site_label
 _atom_site_symmetry_multiplicity
 _atom_site_fract_x
 _atom_site_fract_y
 _atom_site_fract_z
 _atom_site_occupancy
  Li  Li0  1  0.00000000  0.00000000  0.00000000  1
  Li  Li1  1  0.66666668  0.33333332  0.35643300  1
  Cu  Cu2  1  0.33333336  0.66666665  0.64356700  1
  Cu  Cu3  1  0.66666668  0.33333332  0.83434901  1
  Cu  Cu4  1  0.33333336  0.66666665  0.16565100  1
