# generated using pymatgen
data_Sr2BiO
_symmetry_space_group_name_H-M   'P 1'
_cell_length_a   4.78474092
_cell_length_b   4.78474092
_cell_length_c   9.49406242
_cell_angle_alpha   90.00000000
_cell_angle_beta   90.00000000
_cell_angle_gamma   90.00000000
_symmetry_Int_Tables_number   1
_chemical_formula_structural   Sr2BiO
_chemical_formula_sum   'Sr4 Bi2 O2'
_cell_volume   217.35465096
_cell_formula_units_Z   2
loop_
 _symmetry_equiv_pos_site_id
 _symmetry_equiv_pos_as_xyz
  1  'x, y, z'
loop_
 _atom_site_type_symbol
 _atom_site_label
 _atom_site_symmetry_multiplicity
 _atom_site_fract_x
 _atom_site_fract_y
 _atom_site_fract_z
 _atom_site_occupancy
  Sr  Sr0  1  0.00000000  0.00000000  0.00000000  1
  Sr  Sr1  1  0.50000001  0.50000001  0.00000000  1
  Sr  Sr2  1  0.00000000  0.50000001  0.67457897  1
  Sr  Sr3  1  0.50000001  0.00000000  0.32542099  1
  Bi  Bi4  1  0.00000000  0.50000001  0.30516599  1
  Bi  Bi5  1  0.50000001  0.00000000  0.69483397  1
  O  O6  1  0.00000000  0.50000001  0.91714996  1
  O  O7  1  0.50000001  0.00000000  0.08285000  1
