# generated using pymatgen
data_CeGaSi3
_symmetry_space_group_name_H-M   'P 1'
_cell_length_a   4.13490009
_cell_length_b   4.13490009
_cell_length_c   5.92397594
_cell_angle_alpha   110.42597961
_cell_angle_beta   110.42597961
_cell_angle_gamma   90.00000000
_symmetry_Int_Tables_number   1
_chemical_formula_structural   CeGaSi3
_chemical_formula_sum   'Ce1 Ga1 Si3'
_cell_volume   88.08860139
_cell_formula_units_Z   1
loop_
 _symmetry_equiv_pos_site_id
 _symmetry_equiv_pos_as_xyz
  1  'x, y, z'
loop_
 _atom_site_type_symbol
 _atom_site_label
 _atom_site_symmetry_multiplicity
 _atom_site_fract_x
 _atom_site_fract_y
 _atom_site_fract_z
 _atom_site_occupancy
  Ce  Ce0  1  0.99873396  0.99873397  0.99746800  1
  Ga  Ga1  1  0.37250098  0.37250099  0.74500201  1
  Si  Si2  1  0.61847797  0.61847798  0.23695599  1
  Si  Si3  1  0.75514397  0.25514399  0.51028800  1
  Si  Si4  1  0.25514398  0.75514398  0.51028800  1
