# generated using pymatgen
data_Pr(NiGe)2
_symmetry_space_group_name_H-M   'P 1'
_cell_length_a   4.10334778
_cell_length_b   4.10334778
_cell_length_c   5.75647879
_cell_angle_alpha   110.87995911
_cell_angle_beta   110.87995911
_cell_angle_gamma   90.00000000
_symmetry_Int_Tables_number   1
_chemical_formula_structural   Pr(NiGe)2
_chemical_formula_sum   'Pr1 Ni2 Ge2'
_cell_volume   83.71169217
_cell_formula_units_Z   1
loop_
 _symmetry_equiv_pos_site_id
 _symmetry_equiv_pos_as_xyz
  1  'x, y, z'
loop_
 _atom_site_type_symbol
 _atom_site_label
 _atom_site_symmetry_multiplicity
 _atom_site_fract_x
 _atom_site_fract_y
 _atom_site_fract_z
 _atom_site_occupancy
  Pr  Pr0  1  0.00000000  0.00000000  0.00000000  1
  Ni  Ni1  1  0.38916199  0.38916201  0.77832398  1
  Ni  Ni2  1  0.61083798  0.61083801  0.22167594  1
  Ge  Ge3  1  0.75000001  0.25000001  0.49999996  1
  Ge  Ge4  1  0.24999996  0.75000002  0.49999996  1
