# generated using pymatgen
data_Mg2Ag
_symmetry_space_group_name_H-M   'P 1'
_cell_length_a   3.30932999
_cell_length_b   3.30932999
_cell_length_c   6.32692003
_cell_angle_alpha   105.16072845
_cell_angle_beta   105.16072845
_cell_angle_gamma   90.00000000
_symmetry_Int_Tables_number   1
_chemical_formula_structural   Mg2Ag
_chemical_formula_sum   'Mg2 Ag1'
_cell_volume   64.37686999
_cell_formula_units_Z   1
loop_
 _symmetry_equiv_pos_site_id
 _symmetry_equiv_pos_as_xyz
  1  'x, y, z'
loop_
 _atom_site_type_symbol
 _atom_site_label
 _atom_site_symmetry_multiplicity
 _atom_site_fract_x
 _atom_site_fract_y
 _atom_site_fract_z
 _atom_site_occupancy
  Mg  Mg0  1  0.66057497  0.66057499  0.32114994  1
  Mg  Mg1  1  0.33942498  0.33942500  0.67884995  1
  Ag  Ag2  1  0.00000000  0.00000000  0.00000000  1
