# generated using pymatgen
data_HfGe2
_symmetry_space_group_name_H-M   'P 1'
_cell_length_a   3.96885991
_cell_length_b   3.96885991
_cell_length_c   12.46219158
_cell_angle_alpha   99.16255188
_cell_angle_beta   99.16255188
_cell_angle_gamma   90.00000000
_symmetry_Int_Tables_number   1
_chemical_formula_structural   HfGe2
_chemical_formula_sum   'Hf4 Ge8'
_cell_volume   191.26033662
_cell_formula_units_Z   4
loop_
 _symmetry_equiv_pos_site_id
 _symmetry_equiv_pos_as_xyz
  1  'x, y, z'
loop_
 _atom_site_type_symbol
 _atom_site_label
 _atom_site_symmetry_multiplicity
 _atom_site_fract_x
 _atom_site_fract_y
 _atom_site_fract_z
 _atom_site_occupancy
  Hf  Hf0  1  0.67217900  0.17217900  0.34435799  1
  Hf  Hf1  1  0.92217899  0.92217901  0.84435798  1
  Hf  Hf2  1  0.82782100  0.32782100  0.65564199  1
  Hf  Hf3  1  0.07782100  0.07782100  0.15564200  1
  Ge  Ge4  1  0.41340200  0.41340200  0.82680400  1
  Ge  Ge5  1  0.25023900  0.25023900  0.50047800  1
  Ge  Ge6  1  0.74976099  0.74976101  0.49952198  1
  Ge  Ge7  1  0.33659799  0.83659801  0.67319599  1
  Ge  Ge8  1  0.16340199  0.66340201  0.32680399  1
  Ge  Ge9  1  0.49976098  0.99976101  0.99952199  1
  Ge  Ge10  1  0.00023899  0.50023901  0.00047799  1
  Ge  Ge11  1  0.58659799  0.58659801  0.17319598  1
