# generated using pymatgen
data_Yb2MgIn3
_symmetry_space_group_name_H-M   'P 1'
_cell_length_a   5.50211954
_cell_length_b   5.50211954
_cell_length_c   6.20000029
_cell_angle_alpha   63.65856934
_cell_angle_beta   63.65856934
_cell_angle_gamma   60.00000381
_symmetry_Int_Tables_number   1
_chemical_formula_structural   Yb2MgIn3
_chemical_formula_sum   'Yb2 Mg1 In3'
_cell_volume   139.59143207
_cell_formula_units_Z   1
loop_
 _symmetry_equiv_pos_site_id
 _symmetry_equiv_pos_as_xyz
  1  'x, y, z'
loop_
 _atom_site_type_symbol
 _atom_site_label
 _atom_site_symmetry_multiplicity
 _atom_site_fract_x
 _atom_site_fract_y
 _atom_site_fract_z
 _atom_site_occupancy
  Yb  Yb0  1  -0.00000002  0.33793900  0.00000001  1
  Yb  Yb1  1  0.33793897  0.66206101  0.00000003  1
  Mg  Mg2  1  0.66206100  0.00000000  0.00000002  1
  In  In3  1  0.16476199  0.16476200  0.50571401  1
  In  In4  1  0.83523796  0.83523801  0.49428605  1
  In  In5  1  0.49999998  0.50000001  0.50000003  1
