# generated using pymatgen
data_Y2InCuSnGe3
_symmetry_space_group_name_H-M   'P 1'
_cell_length_a   4.00289202
_cell_length_b   4.00289202
_cell_length_c   9.02814484
_cell_angle_alpha   102.80828857
_cell_angle_beta   102.80828857
_cell_angle_gamma   90.00000000
_symmetry_Int_Tables_number   1
_chemical_formula_structural   Y2InCuSnGe3
_chemical_formula_sum   'Y2 In1 Cu1 Sn1 Ge3'
_cell_volume   137.36595255
_cell_formula_units_Z   1
loop_
 _symmetry_equiv_pos_site_id
 _symmetry_equiv_pos_as_xyz
  1  'x, y, z'
loop_
 _atom_site_type_symbol
 _atom_site_label
 _atom_site_symmetry_multiplicity
 _atom_site_fract_x
 _atom_site_fract_y
 _atom_site_fract_z
 _atom_site_occupancy
  Y  Y0  1  0.12610399  0.12610400  0.25220800  1
  Y  Y1  1  0.87389596  0.87389598  0.74779198  1
  In  In2  1  0.39473498  0.39473499  0.78947000  1
  Cu  Cu3  1  0.60526498  0.60526499  0.21052998  1
  Sn  Sn4  1  0.49999999  0.00000000  -0.00000001  1
  Ge  Ge5  1  -0.00000001  0.49999999  -0.00000001  1
  Ge  Ge6  1  0.74999998  0.25000000  0.49999999  1
  Ge  Ge7  1  0.24999998  0.74999999  0.49999999  1
