# generated using pymatgen
data_HfRh
_symmetry_space_group_name_H-M   'P 1'
_cell_length_a   2.70874596
_cell_length_b   4.40627003
_cell_length_c   4.80971193
_cell_angle_alpha   90.00000000
_cell_angle_beta   90.00000000
_cell_angle_gamma   90.00000000
_symmetry_Int_Tables_number   1
_chemical_formula_structural   HfRh
_chemical_formula_sum   'Hf2 Rh2'
_cell_volume   57.40615382
_cell_formula_units_Z   2
loop_
 _symmetry_equiv_pos_site_id
 _symmetry_equiv_pos_as_xyz
  1  'x, y, z'
loop_
 _atom_site_type_symbol
 _atom_site_label
 _atom_site_symmetry_multiplicity
 _atom_site_fract_x
 _atom_site_fract_y
 _atom_site_fract_z
 _atom_site_occupancy
  Hf  Hf0  1  0.00000000  0.25000000  0.17063300  1
  Hf  Hf1  1  -0.00000000  0.75000000  0.82936701  1
  Rh  Rh2  1  0.50000001  0.25000000  0.68152601  1
  Rh  Rh3  1  0.50000001  0.75000000  0.31847400  1
