# generated using pymatgen
data_KLaPr2O4
_symmetry_space_group_name_H-M   'P 1'
_cell_length_a   4.00998306
_cell_length_b   4.14869976
_cell_length_c   10.82564926
_cell_angle_alpha   78.95298767
_cell_angle_beta   90.00000000
_cell_angle_gamma   90.00000000
_symmetry_Int_Tables_number   1
_chemical_formula_structural   KLaPr2O4
_chemical_formula_sum   'K1 La1 Pr2 O4'
_cell_volume   176.76067637
_cell_formula_units_Z   1
loop_
 _symmetry_equiv_pos_site_id
 _symmetry_equiv_pos_as_xyz
  1  'x, y, z'
loop_
 _atom_site_type_symbol
 _atom_site_label
 _atom_site_symmetry_multiplicity
 _atom_site_fract_x
 _atom_site_fract_y
 _atom_site_fract_z
 _atom_site_occupancy
  Pr  Pr0  1  0.74999999  0.92563805  0.14872400  1
  Pr  Pr1  1  0.25000000  0.07436200  0.85127599  1
  K  K2  1  0.25000000  0.82275805  0.35448400  1
  La  La3  1  0.74999999  0.17724201  0.64551599  1
  O  O4  1  0.74999999  0.42373602  0.15252800  1
  O  O5  1  0.25000000  0.57626403  0.84747199  1
  O  O6  1  0.25000000  0.96547906  0.06904200  1
  O  O7  1  0.74999999  0.03452100  0.93095799  1
