# generated using pymatgen
data_Ce7Ge13
_symmetry_space_group_name_H-M   'P 1'
_cell_length_a   4.27752590
_cell_length_b   10.37373352
_cell_length_c   10.44400787
_cell_angle_alpha   104.70004272
_cell_angle_beta   101.81684113
_cell_angle_gamma   90.00000000
_symmetry_Int_Tables_number   1
_chemical_formula_structural   Ce7Ge13
_chemical_formula_sum   'Ce7 Ge13'
_cell_volume   438.11038930
_cell_formula_units_Z   1
loop_
 _symmetry_equiv_pos_site_id
 _symmetry_equiv_pos_as_xyz
  1  'x, y, z'
loop_
 _atom_site_type_symbol
 _atom_site_label
 _atom_site_symmetry_multiplicity
 _atom_site_fract_x
 _atom_site_fract_y
 _atom_site_fract_z
 _atom_site_occupancy
  Ce  Ce0  1  0.72192903  0.34483300  0.44385803  1
  Ce  Ce1  1  0.27807102  0.65516700  0.55614203  1
  Ce  Ce2  1  0.62891804  0.99301301  0.25783602  1
  Ce  Ce3  1  0.37108201  0.00698700  0.74216404  1
  Ce  Ce4  1  0.62729703  0.63945600  0.25459402  1
  Ce  Ce5  1  0.37270302  0.36054400  0.74540604  1
  Ce  Ce6  1  0.45856003  0.72660900  0.91712005  1
  Ge  Ge7  1  0.54144002  0.27339100  0.08288001  1
  Ge  Ge8  1  0.00000001  0.50000000  0.00000000  1
  Ge  Ge9  1  0.00000000  0.00000000  0.00000000  1
  Ge  Ge10  1  0.93687203  0.21723900  0.87374405  1
  Ge  Ge11  1  0.06312802  0.78276100  0.12625601  1
  Ge  Ge12  1  0.86710404  0.80925200  0.73420805  1
  Ge  Ge13  1  0.13289601  0.19074800  0.26579201  1
  Ge  Ge14  1  0.85519204  0.54813800  0.71038404  1
  Ge  Ge15  1  0.14480801  0.45186200  0.28961602  1
  Ge  Ge16  1  0.19529703  0.84942801  0.39059402  1
  Ge  Ge17  1  0.80470303  0.15057200  0.60940604  1
  Ge  Ge18  1  0.75939704  0.89375901  0.51879404  1
  Ge  Ge19  1  0.24060301  0.10624100  0.48120602  1
