# generated using pymatgen
data_Sc2Ga5Si6
_symmetry_space_group_name_H-M   'P 1'
_cell_length_a   5.33576822
_cell_length_b   5.33576727
_cell_length_c   8.63730335
_cell_angle_alpha   90.00000000
_cell_angle_beta   90.00000000
_cell_angle_gamma   120.00000000
_symmetry_Int_Tables_number   1
_chemical_formula_structural   Sc2Ga5Si6
_chemical_formula_sum   'Sc2 Ga5 Si6'
_cell_volume   212.96225629
_cell_formula_units_Z   1
loop_
 _symmetry_equiv_pos_site_id
 _symmetry_equiv_pos_as_xyz
  1  'x, y, z'
loop_
 _atom_site_type_symbol
 _atom_site_label
 _atom_site_symmetry_multiplicity
 _atom_site_fract_x
 _atom_site_fract_y
 _atom_site_fract_z
 _atom_site_occupancy
  Sc  Sc0  1  0.00000000  0.00000000  0.00000000  1
  Sc  Sc1  1  0.49999998  0.00000000  0.23266099  1
  Ga  Ga2  1  0.49999998  0.00000000  0.76733897  1
  Ga  Ga3  1  -0.00000003  0.50000000  0.23266099  1
  Ga  Ga4  1  -0.00000003  0.50000000  0.76733897  1
  Ga  Ga5  1  0.49999994  0.50000000  0.23266099  1
  Ga  Ga6  1  0.49999994  0.50000000  0.76733897  1
  Si  Si7  1  0.33333327  0.66666667  0.49999998  1
  Si  Si8  1  0.66666662  0.33333333  0.49999998  1
  Si  Si9  1  0.00000000  0.00000000  0.33270799  1
  Si  Si10  1  0.00000000  0.00000000  0.66729197  1
  Si  Si11  1  0.33333327  0.66666667  -0.00000000  1
  Si  Si12  1  0.66666662  0.33333333  0.99999996  1
