# generated using pymatgen
data_SrInO3
_symmetry_space_group_name_H-M   'P 1'
_cell_length_a   5.80540705
_cell_length_b   6.53668785
_cell_length_c   8.33155346
_cell_angle_alpha   90.00000000
_cell_angle_beta   90.00000000
_cell_angle_gamma   90.00000000
_symmetry_Int_Tables_number   1
_chemical_formula_structural   SrInO3
_chemical_formula_sum   'Sr4 In4 O12'
_cell_volume   316.16690473
_cell_formula_units_Z   4
loop_
 _symmetry_equiv_pos_site_id
 _symmetry_equiv_pos_as_xyz
  1  'x, y, z'
loop_
 _atom_site_type_symbol
 _atom_site_label
 _atom_site_symmetry_multiplicity
 _atom_site_fract_x
 _atom_site_fract_y
 _atom_site_fract_z
 _atom_site_occupancy
  Sr  Sr0  1  0.50000000  0.00000000  0.00000000  1
  Sr  Sr1  1  0.00000000  0.50000001  0.00000000  1
  Sr  Sr2  1  0.00000000  0.50000001  0.49999997  1
  Sr  Sr3  1  0.50000000  0.00000000  0.49999997  1
  In  In4  1  0.00982600  0.01589100  0.24999999  1
  In  In5  1  0.50982600  0.48410901  0.74999996  1
  In  In6  1  0.49017400  0.51589101  0.24999999  1
  In  In7  1  0.99017399  0.98410902  0.74999996  1
  O  O8  1  0.13487600  0.16594800  0.41502598  1
  O  O9  1  0.63487599  0.33405201  0.58497397  1
  O  O10  1  0.36512400  0.66594802  0.08497400  1
  O  O11  1  0.86512399  0.83405202  0.91502595  1
  O  O12  1  0.86512399  0.83405202  0.58497397  1
  O  O13  1  0.36512400  0.66594802  0.41502598  1
  O  O14  1  0.63487599  0.33405201  0.91502595  1
  O  O15  1  0.13487600  0.16594800  0.08497400  1
  O  O16  1  0.70812999  0.09642100  0.24999999  1
  O  O17  1  0.20813000  0.40357901  0.74999996  1
  O  O18  1  0.79186999  0.59642101  0.24999999  1
  O  O19  1  0.29187000  0.90357902  0.74999996  1
