# generated using pymatgen
data_Li3CuO4
_symmetry_space_group_name_H-M   'P 1'
_cell_length_a   5.80559158
_cell_length_b   5.80559158
_cell_length_c   5.92218876
_cell_angle_alpha   60.64917374
_cell_angle_beta   60.64917374
_cell_angle_gamma   60.00000381
_symmetry_Int_Tables_number   1
_chemical_formula_structural   Li3CuO4
_chemical_formula_sum   'Li6 Cu2 O8'
_cell_volume   142.51240135
_cell_formula_units_Z   2
loop_
 _symmetry_equiv_pos_site_id
 _symmetry_equiv_pos_as_xyz
  1  'x, y, z'
loop_
 _atom_site_type_symbol
 _atom_site_label
 _atom_site_symmetry_multiplicity
 _atom_site_fract_x
 _atom_site_fract_y
 _atom_site_fract_z
 _atom_site_occupancy
  Li  Li0  1  0.50000001  0.50000001  0.49999998  1
  Li  Li1  1  0.50000001  0.00000000  0.49999999  1
  Li  Li2  1  0.00000000  0.00000000  0.50000000  1
  Li  Li3  1  0.00000000  0.50000001  0.49999999  1
  Li  Li4  1  0.00000000  0.50000001  -0.00000001  1
  Li  Li5  1  0.50000001  0.50000001  -0.00000002  1
  Cu  Cu6  1  0.50000001  0.00000000  -0.00000001  1
  Cu  Cu7  1  0.00000000  0.00000000  0.00000000  1
  O  O8  1  0.74542601  0.74542601  0.76372197  1
  O  O9  1  0.73243901  0.24899100  0.76957898  1
  O  O10  1  0.24899100  0.24899100  0.76957899  1
  O  O11  1  0.25457400  0.25457400  0.23627799  1
  O  O12  1  0.24899101  0.73243901  0.76957898  1
  O  O13  1  0.26756101  0.75100901  0.23042098  1
  O  O14  1  0.75100901  0.75100901  0.23042097  1
  O  O15  1  0.75100901  0.26756100  0.23042098  1
