# generated using pymatgen
data_Li3CoO4
_symmetry_space_group_name_H-M   'P 1'
_cell_length_a   5.96026850
_cell_length_b   5.96026850
_cell_length_c   5.96026850
_cell_angle_alpha   87.95771790
_cell_angle_beta   60.87131882
_cell_angle_gamma   118.52813721
_symmetry_Int_Tables_number   1
_chemical_formula_structural   Li3CoO4
_chemical_formula_sum   'Li6 Co2 O8'
_cell_volume   152.26259761
_cell_formula_units_Z   2
loop_
 _symmetry_equiv_pos_site_id
 _symmetry_equiv_pos_as_xyz
  1  'x, y, z'
loop_
 _atom_site_type_symbol
 _atom_site_label
 _atom_site_symmetry_multiplicity
 _atom_site_fract_x
 _atom_site_fract_y
 _atom_site_fract_z
 _atom_site_occupancy
  Li  Li0  1  -0.00000003  0.49999997  0.49999999  1
  Li  Li1  1  0.00000000  0.00000000  0.49999998  1
  Li  Li2  1  0.49999999  0.00000000  0.49999996  1
  Li  Li3  1  0.49999999  0.00000000  0.99999995  1
  Li  Li4  1  0.49999996  0.49999997  0.99999996  1
  Li  Li5  1  0.00000000  0.00000000  0.00000000  1
  Co  Co6  1  -0.00000003  0.49999997  0.00000001  1
  Co  Co7  1  0.49999996  0.49999997  0.49999998  1
  O  O8  1  0.50477195  0.74225395  0.25297399  1
  O  O9  1  0.98561994  0.74990295  0.23571697  1
  O  O10  1  0.99522794  0.74225395  0.76251795  1
  O  O11  1  0.51437997  0.27866298  0.23571798  1
  O  O12  1  0.48561995  0.72133695  0.76428197  1
  O  O13  1  0.00477198  0.25774598  0.23748200  1
  O  O14  1  0.01437999  0.25009698  0.76428298  1
  O  O15  1  0.49522798  0.25774598  0.74702596  1
