# generated using pymatgen
data_Hf5Ge3
_symmetry_space_group_name_H-M   'P 1'
_cell_length_a   5.32605219
_cell_length_b   7.86020613
_cell_length_c   7.86020613
_cell_angle_alpha   120.00000000
_cell_angle_beta   90.00000000
_cell_angle_gamma   90.00000000
_symmetry_Int_Tables_number   1
_chemical_formula_structural   Hf5Ge3
_chemical_formula_sum   'Hf10 Ge6'
_cell_volume   284.97313477
_cell_formula_units_Z   2
loop_
 _symmetry_equiv_pos_site_id
 _symmetry_equiv_pos_as_xyz
  1  'x, y, z'
loop_
 _atom_site_type_symbol
 _atom_site_label
 _atom_site_symmetry_multiplicity
 _atom_site_fract_x
 _atom_site_fract_y
 _atom_site_fract_z
 _atom_site_occupancy
  Hf  Hf0  1  0.25946699  0.33333333  0.66666665  1
  Hf  Hf1  1  0.25946699  0.66666665  0.33333332  1
  Hf  Hf2  1  0.74053297  0.66666665  0.33333332  1
  Hf  Hf3  1  0.74053297  0.33333333  0.66666665  1
  Hf  Hf4  1  0.49999998  0.24834300  0.99999997  1
  Hf  Hf5  1  0.49999998  0.75165699  0.75165698  1
  Hf  Hf6  1  0.49999998  0.00000000  0.24834299  1
  Hf  Hf7  1  0.99999996  0.75676299  -0.00000000  1
  Hf  Hf8  1  -0.00000000  0.24323700  0.24323699  1
  Hf  Hf9  1  0.99999996  0.00000000  0.75676298  1
  Ge  Ge10  1  0.49999998  0.61322099  -0.00000000  1
  Ge  Ge11  1  0.49999998  0.38677899  0.38677899  1
  Ge  Ge12  1  0.49999998  0.00000000  0.61322099  1
  Ge  Ge13  1  -0.00000000  0.39454899  0.99999997  1
  Ge  Ge14  1  -0.00000000  0.60545099  0.60545098  1
  Ge  Ge15  1  0.99999996  0.00000000  0.39454899  1
