# generated using pymatgen
data_Pr3Mg
_symmetry_space_group_name_H-M   'P 1'
_cell_length_a   5.01155806
_cell_length_b   5.01155806
_cell_length_c   6.20635080
_cell_angle_alpha   113.81246948
_cell_angle_beta   113.81246948
_cell_angle_gamma   90.00000000
_symmetry_Int_Tables_number   1
_chemical_formula_structural   Pr3Mg
_chemical_formula_sum   'Pr3 Mg1'
_cell_volume   127.96925609
_cell_formula_units_Z   1
loop_
 _symmetry_equiv_pos_site_id
 _symmetry_equiv_pos_as_xyz
  1  'x, y, z'
loop_
 _atom_site_type_symbol
 _atom_site_label
 _atom_site_symmetry_multiplicity
 _atom_site_fract_x
 _atom_site_fract_y
 _atom_site_fract_z
 _atom_site_occupancy
  Pr  Pr0  1  0.50000004  0.50000002  1.00000003  1
  Pr  Pr1  1  0.75000003  0.25000001  0.50000004  1
  Pr  Pr2  1  0.25000006  0.75000002  0.50000006  1
  Mg  Mg3  1  0.00000000  0.00000000  0.00000000  1
