# generated using pymatgen
data_Ce3Ga5
_symmetry_space_group_name_H-M   'P 1'
_cell_length_a   4.31049395
_cell_length_b   5.65273333
_cell_length_c   14.29018402
_cell_angle_alpha   90.00000000
_cell_angle_beta   90.00000000
_cell_angle_gamma   112.41268921
_symmetry_Int_Tables_number   1
_chemical_formula_structural   Ce3Ga5
_chemical_formula_sum   'Ce6 Ga10'
_cell_volume   321.89352609
_cell_formula_units_Z   2
loop_
 _symmetry_equiv_pos_site_id
 _symmetry_equiv_pos_as_xyz
  1  'x, y, z'
loop_
 _atom_site_type_symbol
 _atom_site_label
 _atom_site_symmetry_multiplicity
 _atom_site_fract_x
 _atom_site_fract_y
 _atom_site_fract_z
 _atom_site_occupancy
  Ce  Ce0  1  0.08436699  0.16873400  0.88975300  1
  Ce  Ce1  1  0.91563294  0.83126600  0.11024700  1
  Ce  Ce2  1  0.91563294  0.83126600  0.38975300  1
  Ce  Ce3  1  0.08436699  0.16873400  0.61024700  1
  Ce  Ce4  1  0.35785794  0.71571600  0.75000000  1
  Ce  Ce5  1  0.64214198  0.28428400  0.25000000  1
  Ga  Ga6  1  0.65556998  0.31114000  0.75000000  1
  Ga  Ga7  1  0.34442994  0.68886000  0.25000000  1
  Ga  Ga8  1  0.62309899  0.24619800  0.46490200  1
  Ga  Ga9  1  0.37690094  0.75380200  0.53509800  1
  Ga  Ga10  1  0.37690094  0.75380200  0.96490200  1
  Ga  Ga11  1  0.62309899  0.24619800  0.03509800  1
  Ga  Ga12  1  0.20045097  0.40090200  0.39733200  1
  Ga  Ga13  1  0.79954896  0.59909800  0.60266800  1
  Ga  Ga14  1  0.79954896  0.59909800  0.89733200  1
  Ga  Ga15  1  0.20045097  0.40090200  0.10266800  1
