# generated using pymatgen
data_CeGd2Sn5Ge
_symmetry_space_group_name_H-M   'P 1'
_cell_length_a   3.68561697
_cell_length_b   7.81439590
_cell_length_c   7.81439543
_cell_angle_alpha   120.00000000
_cell_angle_beta   90.00000000
_cell_angle_gamma   90.00000000
_symmetry_Int_Tables_number   1
_chemical_formula_structural   CeGd2Sn5Ge
_chemical_formula_sum   'Ce1 Gd2 Sn5 Ge1'
_cell_volume   194.90887948
_cell_formula_units_Z   1
loop_
 _symmetry_equiv_pos_site_id
 _symmetry_equiv_pos_as_xyz
  1  'x, y, z'
loop_
 _atom_site_type_symbol
 _atom_site_label
 _atom_site_symmetry_multiplicity
 _atom_site_fract_x
 _atom_site_fract_y
 _atom_site_fract_z
 _atom_site_occupancy
  Gd  Gd0  1  0.50000000  0.75845000  0.75844999  1
  Gd  Gd1  1  0.50000000  0.00000000  0.24155001  1
  Ce  Ce2  1  0.50000000  0.24155000  -0.00000001  1
  Sn  Sn3  1  1.00000001  0.40322600  0.40322600  1
  Sn  Sn4  1  0.00000000  0.00000000  0.59677401  1
  Sn  Sn5  1  -0.00000000  0.59677400  -0.00000002  1
  Ge  Ge6  1  0.00000000  0.00000000  0.00000000  1
  Sn  Sn7  1  0.50000000  0.66666666  0.33333332  1
  Sn  Sn8  1  0.50000000  0.33333333  0.66666667  1
