# generated using pymatgen
data_CeSi2
_symmetry_space_group_name_H-M   'P 1'
_cell_length_a   4.36749983
_cell_length_b   6.67557192
_cell_length_c   7.71541119
_cell_angle_alpha   90.00000000
_cell_angle_beta   90.00000000
_cell_angle_gamma   90.00000000
_symmetry_Int_Tables_number   1
_chemical_formula_structural   CeSi2
_chemical_formula_sum   'Ce4 Si8'
_cell_volume   224.94712765
_cell_formula_units_Z   4
loop_
 _symmetry_equiv_pos_site_id
 _symmetry_equiv_pos_as_xyz
  1  'x, y, z'
loop_
 _atom_site_type_symbol
 _atom_site_label
 _atom_site_symmetry_multiplicity
 _atom_site_fract_x
 _atom_site_fract_y
 _atom_site_fract_z
 _atom_site_occupancy
  Ce  Ce0  1  0.25000001  0.49181901  0.20320900  1
  Ce  Ce1  1  0.75000003  0.50818101  0.79679098  1
  Ce  Ce2  1  0.25000001  0.99181901  0.29679099  1
  Ce  Ce3  1  0.75000003  0.00818100  0.70320898  1
  Si  Si4  1  0.25000001  0.81936101  0.91558798  1
  Si  Si5  1  0.75000003  0.18063900  0.08441200  1
  Si  Si6  1  0.25000001  0.31936100  0.58441199  1
  Si  Si7  1  0.75000003  0.68063901  0.41558799  1
  Si  Si8  1  0.75000003  0.77128701  0.08592700  1
  Si  Si9  1  0.25000001  0.22871300  0.91407298  1
  Si  Si10  1  0.75000003  0.27128700  0.41407299  1
  Si  Si11  1  0.25000001  0.72871301  0.58592699  1
