# generated using pymatgen
data_Li2Co8Ge
_symmetry_space_group_name_H-M   'P 1'
_cell_length_a   3.67635012
_cell_length_b   7.00900793
_cell_length_c   7.00900793
_cell_angle_alpha   120.00000000
_cell_angle_beta   90.00000000
_cell_angle_gamma   90.00000000
_symmetry_Int_Tables_number   1
_chemical_formula_structural   Li2Co8Ge
_chemical_formula_sum   'Li2 Co8 Ge1'
_cell_volume   156.40858935
_cell_formula_units_Z   1
loop_
 _symmetry_equiv_pos_site_id
 _symmetry_equiv_pos_as_xyz
  1  'x, y, z'
loop_
 _atom_site_type_symbol
 _atom_site_label
 _atom_site_symmetry_multiplicity
 _atom_site_fract_x
 _atom_site_fract_y
 _atom_site_fract_z
 _atom_site_occupancy
  Li  Li0  1  0.00000000  0.00000000  0.00000000  1
  Li  Li1  1  0.99999997  0.33333334  0.66666667  1
  Co  Co2  1  0.49999998  0.80862601  0.18223700  1
  Co  Co3  1  0.49999998  0.81776401  0.62639001  1
  Co  Co4  1  0.49999998  0.37361100  0.19137500  1
  Co  Co5  1  0.99999997  0.51808001  0.45258201  1
  Co  Co6  1  0.99999997  0.54741801  0.06549800  1
  Co  Co7  1  0.99999997  0.93450201  0.48192001  1
  Co  Co8  1  0.49999998  0.20149100  0.81547001  1
  Co  Co9  1  0.49999998  0.18453000  0.38602100  1
  Ge  Ge10  1  0.49999998  0.61397901  0.79850901  1
