# generated using pymatgen
data_Ce4In3Ge
_symmetry_space_group_name_H-M   'P 1'
_cell_length_a   4.55804205
_cell_length_b   4.55804205
_cell_length_c   11.08196640
_cell_angle_alpha   90.00000000
_cell_angle_beta   90.00000000
_cell_angle_gamma   90.00000000
_symmetry_Int_Tables_number   1
_chemical_formula_structural   Ce4In3Ge
_chemical_formula_sum   'Ce4 In3 Ge1'
_cell_volume   230.23613378
_cell_formula_units_Z   1
loop_
 _symmetry_equiv_pos_site_id
 _symmetry_equiv_pos_as_xyz
  1  'x, y, z'
loop_
 _atom_site_type_symbol
 _atom_site_label
 _atom_site_symmetry_multiplicity
 _atom_site_fract_x
 _atom_site_fract_y
 _atom_site_fract_z
 _atom_site_occupancy
  Ce  Ce0  1  0.00000000  0.00000000  0.00000000  1
  Ce  Ce1  1  0.49999999  0.49999999  -0.00000000  1
  Ce  Ce2  1  -0.00000000  0.49999999  0.25915599  1
  Ce  Ce3  1  0.49999999  0.00000000  0.74084397  1
  In  In4  1  -0.00000000  0.49999999  0.83780497  1
  Ge  Ge5  1  0.49999999  0.00000000  0.16219499  1
  In  In6  1  0.00000000  0.00000000  0.49999998  1
  In  In7  1  0.49999999  0.49999999  0.49999998  1
