# generated using pymatgen
data_Ba3Al5
_symmetry_space_group_name_H-M   'P 1'
_cell_length_a   6.19527721
_cell_length_b   6.71184587
_cell_length_c   12.17578220
_cell_angle_alpha   90.00000000
_cell_angle_beta   90.00000000
_cell_angle_gamma   90.00000000
_symmetry_Int_Tables_number   1
_chemical_formula_structural   Ba3Al5
_chemical_formula_sum   'Ba6 Al10'
_cell_volume   506.29028066
_cell_formula_units_Z   2
loop_
 _symmetry_equiv_pos_site_id
 _symmetry_equiv_pos_as_xyz
  1  'x, y, z'
loop_
 _atom_site_type_symbol
 _atom_site_label
 _atom_site_symmetry_multiplicity
 _atom_site_fract_x
 _atom_site_fract_y
 _atom_site_fract_z
 _atom_site_occupancy
  Ba  Ba0  1  0.42165199  0.50000001  0.49999999  1
  Ba  Ba1  1  0.57834798  0.00000000  0.00000000  1
  Ba  Ba2  1  0.16880599  0.00000000  0.23720700  1
  Ba  Ba3  1  0.16880599  0.00000000  0.76279299  1
  Ba  Ba4  1  0.83119397  0.50000001  0.26279300  1
  Ba  Ba5  1  0.83119397  0.50000001  0.73720699  1
  Al  Al6  1  0.94227697  0.20736300  0.49999999  1
  Al  Al7  1  0.67274098  0.00000000  0.61445199  1
  Al  Al8  1  0.32725899  0.50000001  0.11445200  1
  Al  Al9  1  0.32725899  0.50000001  0.88554799  1
  Al  Al10  1  0.05772300  0.70736301  -0.00000000  1
  Al  Al11  1  0.05772300  0.29263701  -0.00000000  1
  Al  Al12  1  0.67274098  0.00000000  0.38554799  1
  Al  Al13  1  0.94227697  0.79263701  0.49999999  1
  Al  Al14  1  0.69081998  0.50000001  -0.00000000  1
  Al  Al15  1  0.30917999  0.00000000  0.49999999  1
