# generated using pymatgen
data_LiMnO3
_symmetry_space_group_name_H-M   'P 1'
_cell_length_a   5.23015690
_cell_length_b   5.61847496
_cell_length_c   7.67872524
_cell_angle_alpha   84.34760284
_cell_angle_beta   89.97480774
_cell_angle_gamma   89.95438385
_symmetry_Int_Tables_number   1
_chemical_formula_structural   LiMnO3
_chemical_formula_sum   'Li4 Mn4 O12'
_cell_volume   224.54600233
_cell_formula_units_Z   4
loop_
 _symmetry_equiv_pos_site_id
 _symmetry_equiv_pos_as_xyz
  1  'x, y, z'
loop_
 _atom_site_type_symbol
 _atom_site_label
 _atom_site_symmetry_multiplicity
 _atom_site_fract_x
 _atom_site_fract_y
 _atom_site_fract_z
 _atom_site_occupancy
  Li  Li0  1  0.50095098  0.93866697  0.72032498  1
  Li  Li1  1  0.99882901  0.43967499  0.21864497  1
  Li  Li2  1  0.50147898  0.94264097  0.22088197  1
  Li  Li3  1  0.00062100  0.01280800  0.50319301  1
  Mn  Mn4  1  0.49825800  0.51148099  0.00905398  1
  Mn  Mn5  1  0.00228300  0.00857000  0.00519500  1
  Mn  Mn6  1  0.49687800  0.50880599  0.50323999  1
  Mn  Mn7  1  0.99986801  0.46053399  0.73149998  1
  O  O8  1  0.31897298  0.85914698  0.46497698  1
  O  O9  1  0.81968601  0.36274499  0.96894000  1
  O  O10  1  0.87598002  0.05479100  0.27010899  1
  O  O11  1  0.37748199  0.55892798  0.77164400  1
  O  O12  1  0.80384100  0.73868598  0.59007598  1
  O  O13  1  0.30490700  0.23629199  0.09012599  1
  O  O14  1  0.12878400  0.04914400  0.77057201  1
  O  O15  1  0.62700200  0.55744998  0.27196298  1
  O  O16  1  0.18036099  0.36018799  0.45792600  1
  O  O17  1  0.68120299  0.86320697  0.96651799  1
  O  O18  1  0.68717901  0.23220199  0.58834599  1
  O  O19  1  0.19543598  0.73603698  0.09276598  1
