# generated using pymatgen
data_Li5YS8
_symmetry_space_group_name_H-M   'P 1'
_cell_length_a   6.17040300
_cell_length_b   6.55323315
_cell_length_c   7.13157892
_cell_angle_alpha   90.00000000
_cell_angle_beta   90.00000000
_cell_angle_gamma   91.45126343
_symmetry_Int_Tables_number   1
_chemical_formula_structural   Li5YS8
_chemical_formula_sum   'Li5 Y1 S8'
_cell_volume   288.28066200
_cell_formula_units_Z   1
loop_
 _symmetry_equiv_pos_site_id
 _symmetry_equiv_pos_as_xyz
  1  'x, y, z'
loop_
 _atom_site_type_symbol
 _atom_site_label
 _atom_site_symmetry_multiplicity
 _atom_site_fract_x
 _atom_site_fract_y
 _atom_site_fract_z
 _atom_site_occupancy
  Li  Li0  1  0.00000002  0.50000000  0.76066601  1
  Li  Li1  1  0.50000002  0.50000000  0.48786901  1
  Li  Li2  1  0.00000002  0.50000000  0.24944600  1
  Li  Li3  1  0.50000002  0.50000000  0.99977501  1
  Li  Li4  1  0.50000000  0.00000000  0.00404900  1
  Y  Y5  1  0.50000000  0.00000000  0.49637701  1
  S  S6  1  0.17976103  0.70917599  0.01287300  1
  S  S7  1  0.16383803  0.71900299  0.49288901  1
  S  S8  1  0.66569203  0.72216499  0.75750001  1
  S  S9  1  0.68159103  0.71351599  0.23763800  1
  S  S10  1  0.33430801  0.27783500  0.75750001  1
  S  S11  1  0.31840901  0.28648400  0.23763800  1
  S  S12  1  0.83616201  0.28099700  0.49288901  1
  S  S13  1  0.82023901  0.29082400  0.01287300  1
