# generated using pymatgen
data_SmGa2
_symmetry_space_group_name_H-M   'P 1'
_cell_length_a   4.30981398
_cell_length_b   4.33170414
_cell_length_c   19.18435287
_cell_angle_alpha   83.51766968
_cell_angle_beta   90.00000000
_cell_angle_gamma   90.00000000
_symmetry_Int_Tables_number   1
_chemical_formula_structural   SmGa2
_chemical_formula_sum   'Sm5 Ga10'
_cell_volume   355.85984517
_cell_formula_units_Z   5
loop_
 _symmetry_equiv_pos_site_id
 _symmetry_equiv_pos_as_xyz
  1  'x, y, z'
loop_
 _atom_site_type_symbol
 _atom_site_label
 _atom_site_symmetry_multiplicity
 _atom_site_fract_x
 _atom_site_fract_y
 _atom_site_fract_z
 _atom_site_occupancy
  Sm  Sm0  1  0.00000000  0.99380697  0.01238600  1
  Sm  Sm1  1  0.00000000  0.60502698  0.78994600  1
  Sm  Sm2  1  1.00000001  0.20390399  0.59219200  1
  Sm  Sm3  1  0.00000000  0.80081097  0.39837800  1
  Sm  Sm4  1  1.00000001  0.39795499  0.20409000  1
  Ga  Ga5  1  0.50000000  0.26809299  0.46381400  1
  Ga  Ga6  1  0.50000000  0.86570697  0.26858600  1
  Ga  Ga7  1  0.50000000  0.46455198  0.07089600  1
  Ga  Ga8  1  0.50000000  0.53218798  0.93562400  1
  Ga  Ga9  1  0.50000000  0.06567600  0.86864800  1
  Ga  Ga10  1  0.50000000  0.66891998  0.66216000  1
  Ga  Ga11  1  0.50000000  0.13346700  0.73306600  1
  Ga  Ga12  1  0.50000000  0.73578298  0.52843400  1
  Ga  Ga13  1  0.50000000  0.33363799  0.33272400  1
  Ga  Ga14  1  0.50000000  0.93098497  0.13803000  1
