# generated using pymatgen
data_Li3Cu2O5
_symmetry_space_group_name_H-M   'P 1'
_cell_length_a   3.50709105
_cell_length_b   4.93464994
_cell_length_c   13.89916039
_cell_angle_alpha   89.99868011
_cell_angle_beta   89.99999237
_cell_angle_gamma   89.99996948
_symmetry_Int_Tables_number   1
_chemical_formula_structural   Li3Cu2O5
_chemical_formula_sum   'Li6 Cu4 O10'
_cell_volume   240.54257552
_cell_formula_units_Z   2
loop_
 _symmetry_equiv_pos_site_id
 _symmetry_equiv_pos_as_xyz
  1  'x, y, z'
loop_
 _atom_site_type_symbol
 _atom_site_label
 _atom_site_symmetry_multiplicity
 _atom_site_fract_x
 _atom_site_fract_y
 _atom_site_fract_z
 _atom_site_occupancy
  Li  Li0  1  0.74999997  0.37198300  0.82806798  1
  Li  Li1  1  0.24999994  0.87210101  0.67190099  1
  Li  Li2  1  0.74999998  0.12803200  0.32806599  1
  Li  Li3  1  0.24999896  0.62794301  0.17191000  1
  Li  Li4  1  0.24999994  0.90596901  0.91704998  1
  Li  Li5  1  0.75000096  0.40594000  0.58294999  1
  Cu  Cu6  1  0.24999996  0.59399901  0.41705499  1
  Cu  Cu7  1  0.74999898  0.09398000  0.08294500  1
  O  O8  1  0.74999999  0.06936700  0.93850798  1
  O  O9  1  0.24999996  0.57844701  0.88831198  1
  Cu  Cu10  1  0.74999999  0.07846400  0.61170499  1
  Cu  Cu11  1  0.25000196  0.56931401  0.56148999  1
  O  O12  1  0.74999996  0.43063700  0.43850599  1
  O  O13  1  0.24999994  0.92162501  0.38830000  1
  O  O14  1  0.74999896  0.42154300  0.11169900  1
  O  O15  1  0.24999894  0.93067701  0.06150101  1
  O  O16  1  0.25000099  0.08644100  0.79089598  1
  O  O17  1  0.75000195  0.58636301  0.70912299  1
  O  O18  1  0.24999797  0.41354500  0.29088900  1
  O  O19  1  0.74999793  0.91363001  0.20912700  1
