# generated using pymatgen
data_Rb7Bi5
_symmetry_space_group_name_H-M   'P 1'
_cell_length_a   8.14358425
_cell_length_b   8.14358521
_cell_length_c   9.98925304
_cell_angle_alpha   114.05524445
_cell_angle_beta   114.05523682
_cell_angle_gamma   90.00000763
_symmetry_Int_Tables_number   1
_chemical_formula_structural   Rb7Bi5
_chemical_formula_sum   'Rb7 Bi5'
_cell_volume   541.31959898
_cell_formula_units_Z   1
loop_
 _symmetry_equiv_pos_site_id
 _symmetry_equiv_pos_as_xyz
  1  'x, y, z'
loop_
 _atom_site_type_symbol
 _atom_site_label
 _atom_site_symmetry_multiplicity
 _atom_site_fract_x
 _atom_site_fract_y
 _atom_site_fract_z
 _atom_site_occupancy
  Rb  Rb0  1  0.00000000  0.00000000  0.00000000  1
  Rb  Rb1  1  0.49999997  0.49999999  -0.00000001  1
  Rb  Rb2  1  0.24999999  0.74999999  0.50000000  1
  Rb  Rb3  1  0.74999996  0.25000000  0.49999996  1
  Rb  Rb4  1  0.87280595  0.87280599  0.25422498  1
  Rb  Rb5  1  0.38141898  0.87280599  0.25422500  1
  Bi  Bi6  1  0.61858097  0.61858099  0.74577498  1
  Rb  Rb7  1  0.12719399  0.61858099  0.74577500  1
  Bi  Bi8  1  0.87280595  0.38141899  0.25422496  1
  Bi  Bi9  1  0.38141898  0.38141899  0.25422499  1
  Bi  Bi10  1  0.12719399  0.12719400  0.74577499  1
  Bi  Bi11  1  0.61858097  0.12719400  0.74577497  1
