# generated using pymatgen
data_CeMg(AlSi2)2
_symmetry_space_group_name_H-M   'P 1'
_cell_length_a   4.00304079
_cell_length_b   4.98909521
_cell_length_c   7.12130499
_cell_angle_alpha   90.00000000
_cell_angle_beta   90.00000000
_cell_angle_gamma   90.00000000
_symmetry_Int_Tables_number   1
_chemical_formula_structural   CeMg(AlSi2)2
_chemical_formula_sum   'Ce1 Mg1 Al2 Si4'
_cell_volume   142.22351031
_cell_formula_units_Z   1
loop_
 _symmetry_equiv_pos_site_id
 _symmetry_equiv_pos_as_xyz
  1  'x, y, z'
loop_
 _atom_site_type_symbol
 _atom_site_label
 _atom_site_symmetry_multiplicity
 _atom_site_fract_x
 _atom_site_fract_y
 _atom_site_fract_z
 _atom_site_occupancy
  Mg  Mg0  1  0.50000003  0.74999997  0.71919900  1
  Ce  Ce1  1  0.50000003  0.24999999  0.28080100  1
  Al  Al2  1  0.00000000  0.74999997  0.34856900  1
  Al  Al3  1  0.00000000  0.24999999  0.65143100  1
  Si  Si4  1  0.00000000  0.00000000  0.00000000  1
  Si  Si5  1  0.00000000  0.49999998  0.00000000  1
  Si  Si6  1  0.50000003  0.74999997  0.09189200  1
  Si  Si7  1  0.50000003  0.24999999  0.90810800  1
