# generated using pymatgen
data_Tl2Pd3
_symmetry_space_group_name_H-M   'P 1'
_cell_length_a   4.89593983
_cell_length_b   4.89593983
_cell_length_c   6.74863386
_cell_angle_alpha   111.26829529
_cell_angle_beta   111.26829529
_cell_angle_gamma   90.00000000
_symmetry_Int_Tables_number   1
_chemical_formula_structural   Tl2Pd3
_chemical_formula_sum   'Tl2 Pd3'
_cell_volume   138.85972389
_cell_formula_units_Z   1
loop_
 _symmetry_equiv_pos_site_id
 _symmetry_equiv_pos_as_xyz
  1  'x, y, z'
loop_
 _atom_site_type_symbol
 _atom_site_label
 _atom_site_symmetry_multiplicity
 _atom_site_fract_x
 _atom_site_fract_y
 _atom_site_fract_z
 _atom_site_occupancy
  Tl  Tl0  1  0.99735100  0.99735102  0.99470191  1
  Tl  Tl1  1  0.73843901  0.23843900  0.47687796  1
  Pd  Pd2  1  0.23843899  0.73843901  0.47687796  1
  Pd  Pd3  1  0.39758000  0.39758001  0.79515995  1
  Pd  Pd4  1  0.62819100  0.62819101  0.25638196  1
