# generated using pymatgen
data_Fe3Si
_symmetry_space_group_name_H-M   'P 1'
_cell_length_a   4.79170418
_cell_length_b   4.79170418
_cell_length_c   4.79170418
_cell_angle_alpha   90.00000000
_cell_angle_beta   90.00000000
_cell_angle_gamma   90.00000000
_symmetry_Int_Tables_number   1
_chemical_formula_structural   Fe3Si
_chemical_formula_sum   'Fe6 Si2'
_cell_volume   110.01958322
_cell_formula_units_Z   2
loop_
 _symmetry_equiv_pos_site_id
 _symmetry_equiv_pos_as_xyz
  1  'x, y, z'
loop_
 _atom_site_type_symbol
 _atom_site_label
 _atom_site_symmetry_multiplicity
 _atom_site_fract_x
 _atom_site_fract_y
 _atom_site_fract_z
 _atom_site_occupancy
  Fe  Fe0  1  0.49999998  0.49999998  0.49999998  1
  Fe  Fe1  1  0.00000000  0.49999998  0.75017397  1
  Fe  Fe2  1  0.49999998  0.24982599  0.00000000  1
  Fe  Fe3  1  0.75017397  0.00000000  0.49999998  1
  Fe  Fe4  1  0.00000000  0.49999998  0.24982599  1
  Fe  Fe5  1  0.49999998  0.75017397  0.00000000  1
  Si  Si6  1  0.24982599  0.00000000  0.49999998  1
  Si  Si7  1  0.00000000  0.00000000  0.00000000  1
