# generated using pymatgen
data_Y3Cu5Sn2
_symmetry_space_group_name_H-M   'P 1'
_cell_length_a   6.99241877
_cell_length_b   6.99241877
_cell_length_c   7.79230118
_cell_angle_alpha   63.34130859
_cell_angle_beta   63.34130859
_cell_angle_gamma   60.00001144
_symmetry_Int_Tables_number   1
_chemical_formula_structural   Y3Cu5Sn2
_chemical_formula_sum   'Y3 Cu5 Sn2'
_cell_volume   282.21787863
_cell_formula_units_Z   1
loop_
 _symmetry_equiv_pos_site_id
 _symmetry_equiv_pos_as_xyz
  1  'x, y, z'
loop_
 _atom_site_type_symbol
 _atom_site_label
 _atom_site_symmetry_multiplicity
 _atom_site_fract_x
 _atom_site_fract_y
 _atom_site_fract_z
 _atom_site_occupancy
  Sn  Sn0  1  0.00000000  0.00000000  0.00000000  1
  Y  Y1  1  0.33986600  0.33986600  0.98040199  1
  Y  Y2  1  0.66013400  0.66013400  0.01959803  1
  Y  Y3  1  0.50000000  0.50000000  0.50000001  1
  Cu  Cu4  1  0.57590100  0.92771400  0.26377403  1
  Cu  Cu5  1  0.23261100  0.57590100  0.26377401  1
  Cu  Cu6  1  0.92771400  0.23261100  0.26377402  1
  Cu  Cu7  1  0.07228600  0.76738900  0.73622600  1
  Sn  Sn8  1  0.76738900  0.42409900  0.73622601  1
  Cu  Cu9  1  0.42409900  0.07228600  0.73622600  1
