# generated using pymatgen
data_YbCdPd
_symmetry_space_group_name_H-M   'P 1'
_cell_length_a   4.14470816
_cell_length_b   7.57686806
_cell_length_c   7.57686853
_cell_angle_alpha   120.00000000
_cell_angle_beta   90.00000000
_cell_angle_gamma   90.00000000
_symmetry_Int_Tables_number   1
_chemical_formula_structural   YbCdPd
_chemical_formula_sum   'Yb3 Cd3 Pd3'
_cell_volume   206.06491957
_cell_formula_units_Z   3
loop_
 _symmetry_equiv_pos_site_id
 _symmetry_equiv_pos_as_xyz
  1  'x, y, z'
loop_
 _atom_site_type_symbol
 _atom_site_label
 _atom_site_symmetry_multiplicity
 _atom_site_fract_x
 _atom_site_fract_y
 _atom_site_fract_z
 _atom_site_occupancy
  Yb  Yb0  1  -0.00000000  0.58871601  0.00000004  1
  Yb  Yb1  1  -0.00000000  0.41128401  0.41128404  1
  Yb  Yb2  1  0.99999996  0.00000000  0.58871601  1
  Cd  Cd3  1  0.49999998  0.00000000  0.24089901  1
  Cd  Cd4  1  0.49999998  0.24089901  0.00000002  1
  Cd  Cd5  1  0.49999998  0.75910102  0.75910107  1
  Pd  Pd6  1  0.49999998  0.33333334  0.66666670  1
  Pd  Pd7  1  0.00000000  0.00000000  0.00000000  1
  Pd  Pd8  1  0.49999998  0.66666668  0.33333338  1
