# generated using pymatgen
data_Ce(MnFe)6
_symmetry_space_group_name_H-M   'P 1'
_cell_length_a   5.05624819
_cell_length_b   6.61908245
_cell_length_c   6.61908245
_cell_angle_alpha   80.93657684
_cell_angle_beta   67.54579926
_cell_angle_gamma   67.54579926
_symmetry_Int_Tables_number   1
_chemical_formula_structural   Ce(MnFe)6
_chemical_formula_sum   'Ce1 Mn6 Fe6'
_cell_volume   189.19146862
_cell_formula_units_Z   1
loop_
 _symmetry_equiv_pos_site_id
 _symmetry_equiv_pos_as_xyz
  1  'x, y, z'
loop_
 _atom_site_type_symbol
 _atom_site_label
 _atom_site_symmetry_multiplicity
 _atom_site_fract_x
 _atom_site_fract_y
 _atom_site_fract_z
 _atom_site_occupancy
  Ce  Ce0  1  0.00000000  0.00000000  0.00000000  1
  Mn  Mn1  1  0.99999995  0.66511103  0.33488896  1
  Mn  Mn2  1  0.99999996  0.33488901  0.66511098  1
  Mn  Mn3  1  0.65355597  0.34644402  0.34644398  1
  Mn  Mn4  1  0.34644396  0.65355603  0.65355599  1
  Mn  Mn5  1  0.69155495  0.80844504  0.80844498  1
  Mn  Mn6  1  0.30844498  0.19155501  0.19155499  1
  Fe  Fe7  1  0.49999997  0.50000002  -0.00000003  1
  Fe  Fe8  1  -0.00000002  0.50000002  -0.00000001  1
  Fe  Fe9  1  0.99999998  0.00000000  0.49999998  1
  Fe  Fe10  1  0.49999999  0.00000000  0.50000000  1
  Fe  Fe11  1  0.49999998  0.24326501  0.75673500  1
  Fe  Fe12  1  0.49999996  0.75673503  0.24326497  1
