# generated using pymatgen
data_Ce(FeCo2)4
_symmetry_space_group_name_H-M   'P 1'
_cell_length_a   4.68545723
_cell_length_b   6.42414093
_cell_length_c   6.42414093
_cell_angle_alpha   82.24472046
_cell_angle_beta   68.61236572
_cell_angle_gamma   68.61237335
_symmetry_Int_Tables_number   1
_chemical_formula_structural   Ce(FeCo2)4
_chemical_formula_sum   'Ce1 Fe4 Co8'
_cell_volume   167.65090174
_cell_formula_units_Z   1
loop_
 _symmetry_equiv_pos_site_id
 _symmetry_equiv_pos_as_xyz
  1  'x, y, z'
loop_
 _atom_site_type_symbol
 _atom_site_label
 _atom_site_symmetry_multiplicity
 _atom_site_fract_x
 _atom_site_fract_y
 _atom_site_fract_z
 _atom_site_occupancy
  Ce  Ce0  1  0.00124595  0.99875397  0.99875409  1
  Fe  Fe1  1  0.64064795  0.35935199  0.35935203  1
  Co  Co2  1  0.35887595  0.64112398  0.64112406  1
  Fe  Fe3  1  0.99973990  0.99870997  0.50143108  1
  Fe  Fe4  1  0.50011993  0.99870997  0.50143108  1
  Fe  Fe5  1  0.50011895  0.50143099  0.99871006  1
  Co  Co6  1  0.99973893  0.50143099  0.99871006  1
  Co  Co7  1  0.27204398  0.22795599  0.22795602  1
  Co  Co8  1  0.49914894  0.77303698  0.22866606  1
  Co  Co9  1  0.49914796  0.22866599  0.77303703  1
  Co  Co10  1  0.72667293  0.77332698  0.77332707  1
  Co  Co11  1  0.00124898  0.35824699  0.63925504  1
  Co  Co12  1  0.00124897  0.63925498  0.35824705  1
