# generated using pymatgen
data_NdCo2Si
_symmetry_space_group_name_H-M   'P 1'
_cell_length_a   4.00354910
_cell_length_b   4.01231718
_cell_length_c   8.32552242
_cell_angle_alpha   90.00000000
_cell_angle_beta   103.91240692
_cell_angle_gamma   90.00000000
_symmetry_Int_Tables_number   1
_chemical_formula_structural   NdCo2Si
_chemical_formula_sum   'Nd2 Co4 Si2'
_cell_volume   129.81385010
_cell_formula_units_Z   2
loop_
 _symmetry_equiv_pos_site_id
 _symmetry_equiv_pos_as_xyz
  1  'x, y, z'
loop_
 _atom_site_type_symbol
 _atom_site_label
 _atom_site_symmetry_multiplicity
 _atom_site_fract_x
 _atom_site_fract_y
 _atom_site_fract_z
 _atom_site_occupancy
  Nd  Nd0  1  0.60355199  0.74999997  0.20710301  1
  Nd  Nd1  1  0.39644799  0.24999999  0.79289704  1
  Co  Co2  1  0.95987098  0.74999997  0.91974305  1
  Co  Co3  1  0.04012900  0.24999999  0.08025700  1
  Co  Co4  1  0.25052599  0.74999997  0.50105103  1
  Co  Co5  1  0.74947398  0.24999999  0.49894903  1
  Si  Si6  1  0.82021398  0.74999997  0.64042804  1
  Si  Si7  1  0.17978600  0.24999999  0.35957202  1
