# generated using pymatgen
data_SrPrMn2Te5
_symmetry_space_group_name_H-M   'P 1'
_cell_length_a   4.36852217
_cell_length_b   9.86525917
_cell_length_c   13.50990486
_cell_angle_alpha   90.00000000
_cell_angle_beta   90.00000000
_cell_angle_gamma   102.79182434
_symmetry_Int_Tables_number   1
_chemical_formula_structural   SrPrMn2Te5
_chemical_formula_sum   'Sr2 Pr2 Mn4 Te10'
_cell_volume   567.78059525
_cell_formula_units_Z   2
loop_
 _symmetry_equiv_pos_site_id
 _symmetry_equiv_pos_as_xyz
  1  'x, y, z'
loop_
 _atom_site_type_symbol
 _atom_site_label
 _atom_site_symmetry_multiplicity
 _atom_site_fract_x
 _atom_site_fract_y
 _atom_site_fract_z
 _atom_site_occupancy
  Sr  Sr0  1  0.86959091  0.73918201  0.18501200  1
  Sr  Sr1  1  0.13040897  0.26081800  0.68501201  1
  Pr  Pr2  1  0.88400790  0.76801601  0.81881401  1
  Pr  Pr3  1  0.11599198  0.23198400  0.31881400  1
  Mn  Mn4  1  0.78851592  0.57703201  0.48245400  1
  Mn  Mn5  1  0.21148396  0.42296801  0.98245401  1
  Mn  Mn6  1  0.55120497  0.10241000  0.06360100  1
  Mn  Mn7  1  0.44879491  0.89759001  0.56360101  1
  Te  Te8  1  0.64065895  0.28131800  0.49940601  1
  Te  Te9  1  0.35934093  0.71868201  0.99940601  1
  Te  Te10  1  0.70917894  0.41835801  0.83780401  1
  Te  Te11  1  0.29082094  0.58164201  0.33780400  1
  Te  Te12  1  0.68458394  0.36916800  0.13443700  1
  Te  Te13  1  0.31541594  0.63083201  0.63443701  1
  Te  Te14  1  0.49494090  0.98988201  0.23485000  1
  Te  Te15  1  0.50505898  0.01011800  0.73485001  1
  Te  Te16  1  0.95244189  0.90488401  0.45095200  1
  Te  Te17  1  0.04755799  0.09511600  0.95095201  1
