# generated using pymatgen
data_Mn5Ge7
_symmetry_space_group_name_H-M   'P 1'
_cell_length_a   2.88052392
_cell_length_b   4.86443377
_cell_length_c   13.85160732
_cell_angle_alpha   90.00000000
_cell_angle_beta   90.00000000
_cell_angle_gamma   90.00000000
_symmetry_Int_Tables_number   1
_chemical_formula_structural   Mn5Ge7
_chemical_formula_sum   'Mn5 Ge7'
_cell_volume   194.09035379
_cell_formula_units_Z   1
loop_
 _symmetry_equiv_pos_site_id
 _symmetry_equiv_pos_as_xyz
  1  'x, y, z'
loop_
 _atom_site_type_symbol
 _atom_site_label
 _atom_site_symmetry_multiplicity
 _atom_site_fract_x
 _atom_site_fract_y
 _atom_site_fract_z
 _atom_site_occupancy
  Mn  Mn0  1  0.00000000  0.94879505  0.74999998  1
  Mn  Mn1  1  0.00000000  0.32543902  0.91447198  1
  Mn  Mn2  1  0.00000000  0.67456103  0.41447199  1
  Mn  Mn3  1  0.00000000  0.67456103  0.08552800  1
  Mn  Mn4  1  -0.00000000  0.05120500  0.24999999  1
  Ge  Ge5  1  0.00000000  0.32543902  0.58552799  1
  Ge  Ge6  1  0.50000001  0.45862802  0.74999998  1
  Ge  Ge7  1  0.50000001  0.54137203  0.24999999  1
  Ge  Ge8  1  0.50000001  0.82332904  0.91803698  1
  Ge  Ge9  1  0.50000001  0.82332904  0.58196299  1
  Ge  Ge10  1  0.50000001  0.17667101  0.08196300  1
  Ge  Ge11  1  0.50000001  0.17667101  0.41803699  1
