# generated using pymatgen
data_Sr2Nb2SbO13
_symmetry_space_group_name_H-M   'P 1'
_cell_length_a   5.79297400
_cell_length_b   6.19497013
_cell_length_c   8.40406513
_cell_angle_alpha   101.60883331
_cell_angle_beta   90.00000000
_cell_angle_gamma   90.00000000
_symmetry_Int_Tables_number   1
_chemical_formula_structural   Sr2Nb2SbO13
_chemical_formula_sum   'Sr2 Nb2 Sb1 O13'
_cell_volume   295.42977209
_cell_formula_units_Z   1
loop_
 _symmetry_equiv_pos_site_id
 _symmetry_equiv_pos_as_xyz
  1  'x, y, z'
loop_
 _atom_site_type_symbol
 _atom_site_label
 _atom_site_symmetry_multiplicity
 _atom_site_fract_x
 _atom_site_fract_y
 _atom_site_fract_z
 _atom_site_occupancy
  Sr  Sr0  1  0.69916500  0.65695000  0.68637999  1
  Sr  Sr1  1  0.19916500  0.34305000  0.31362000  1
  Nb  Nb2  1  0.70882500  0.81232300  0.22367902  1
  Nb  Nb3  1  0.20882500  0.18767700  0.77632097  1
  O  O4  1  0.88464000  0.44993300  0.47558499  1
  O  O5  1  0.38464000  0.55006700  0.52441499  1
  O  O6  1  0.42084400  0.92843900  0.76721300  1
  Sb  Sb7  1  0.92084400  0.07156100  0.23278699  1
  O  O8  1  0.94827800  0.96954000  0.76138300  1
  O  O9  1  0.44827800  0.03046000  0.23861699  1
  O  O10  1  0.00099700  0.44910100  0.78590498  1
  O  O11  1  0.50099700  0.55089900  0.21409501  1
  O  O12  1  0.70519700  0.75816600  0.98096398  1
  O  O13  1  0.20519700  0.24183400  0.01903601  1
  O  O14  1  0.71272400  0.85671900  0.46750901  1
  O  O15  1  0.21272400  0.14328100  0.53249098  1
  O  O16  1  0.49569100  0.37508900  0.78245398  1
  O  O17  1  0.99569100  0.62491100  0.21754601  1
