# generated using pymatgen
data_BeCl
_symmetry_space_group_name_H-M   'P 1'
_cell_length_a   3.53817534
_cell_length_b   3.53817534
_cell_length_c   6.65189934
_cell_angle_alpha   74.57645416
_cell_angle_beta   74.57645416
_cell_angle_gamma   60.00001144
_symmetry_Int_Tables_number   1
_chemical_formula_structural   BeCl
_chemical_formula_sum   'Be2 Cl2'
_cell_volume   68.63180771
_cell_formula_units_Z   2
loop_
 _symmetry_equiv_pos_site_id
 _symmetry_equiv_pos_as_xyz
  1  'x, y, z'
loop_
 _atom_site_type_symbol
 _atom_site_label
 _atom_site_symmetry_multiplicity
 _atom_site_fract_x
 _atom_site_fract_y
 _atom_site_fract_z
 _atom_site_occupancy
  Be  Be0  1  0.50000002  0.50000001  0.49999998  1
  Be  Be1  1  0.00000000  0.00000000  0.00000000  1
  Cl  Cl2  1  0.89222403  0.89222401  0.32332797  1
  Cl  Cl3  1  0.10777600  0.10777600  0.67667199  1
