# generated using pymatgen
data_LaAl3
_symmetry_space_group_name_H-M   'P 1'
_cell_length_a   5.22650003
_cell_length_b   6.68688202
_cell_length_c   6.68688202
_cell_angle_alpha   117.36911011
_cell_angle_beta   90.00000000
_cell_angle_gamma   90.00000000
_symmetry_Int_Tables_number   1
_chemical_formula_structural   LaAl3
_chemical_formula_sum   'La2 Al6'
_cell_volume   207.54020102
_cell_formula_units_Z   2
loop_
 _symmetry_equiv_pos_site_id
 _symmetry_equiv_pos_as_xyz
  1  'x, y, z'
loop_
 _atom_site_type_symbol
 _atom_site_label
 _atom_site_symmetry_multiplicity
 _atom_site_fract_x
 _atom_site_fract_y
 _atom_site_fract_z
 _atom_site_occupancy
  La  La0  1  -0.00000000  0.09582800  0.90417202  1
  La  La1  1  0.50000000  0.40595000  0.59404999  1
  Al  Al2  1  -0.00000000  0.60322500  0.92567298  1
  Al  Al3  1  -0.00000000  0.07432700  0.39677501  1
  Al  Al4  1  -0.00000000  0.58483300  0.41516697  1
  Al  Al5  1  0.50000000  0.89370800  0.56759195  1
  Al  Al6  1  0.50000000  0.43240800  0.10629197  1
  Al  Al7  1  0.50000000  0.90972100  0.09027894  1
