# generated using pymatgen
data_LiGe2
_symmetry_space_group_name_H-M   'P 1'
_cell_length_a   4.05076408
_cell_length_b   6.53942299
_cell_length_c   7.55768919
_cell_angle_alpha   90.00000000
_cell_angle_beta   90.00000000
_cell_angle_gamma   90.00000000
_symmetry_Int_Tables_number   1
_chemical_formula_structural   LiGe2
_chemical_formula_sum   'Li4 Ge8'
_cell_volume   200.20061531
_cell_formula_units_Z   4
loop_
 _symmetry_equiv_pos_site_id
 _symmetry_equiv_pos_as_xyz
  1  'x, y, z'
loop_
 _atom_site_type_symbol
 _atom_site_label
 _atom_site_symmetry_multiplicity
 _atom_site_fract_x
 _atom_site_fract_y
 _atom_site_fract_z
 _atom_site_occupancy
  Li  Li0  1  0.24999999  0.02032900  0.31462699  1
  Li  Li1  1  0.24999999  0.52032900  0.18537300  1
  Li  Li2  1  0.74999998  0.97967100  0.68537298  1
  Li  Li3  1  0.74999998  0.47967100  0.81462698  1
  Ge  Ge4  1  0.24999999  0.26925000  0.61906598  1
  Ge  Ge5  1  0.24999999  0.76925000  0.88093398  1
  Ge  Ge6  1  0.74999998  0.73075000  0.38093399  1
  Ge  Ge7  1  0.74999998  0.23075000  0.11906600  1
  Ge  Ge8  1  0.24999999  0.15525200  0.93538098  1
  Ge  Ge9  1  0.24999999  0.65525200  0.56461899  1
  Ge  Ge10  1  0.74999998  0.84474800  0.06461900  1
  Ge  Ge11  1  0.74999998  0.34474800  0.43538099  1
