# generated using pymatgen
data_LiAg2
_symmetry_space_group_name_H-M   'P 1'
_cell_length_a   5.23824358
_cell_length_b   5.23824358
_cell_length_c   5.73878574
_cell_angle_alpha   62.84562302
_cell_angle_beta   62.84562302
_cell_angle_gamma   60.00000381
_symmetry_Int_Tables_number   1
_chemical_formula_structural   LiAg2
_chemical_formula_sum   'Li2 Ag4'
_cell_volume   115.89754968
_cell_formula_units_Z   2
loop_
 _symmetry_equiv_pos_site_id
 _symmetry_equiv_pos_as_xyz
  1  'x, y, z'
loop_
 _atom_site_type_symbol
 _atom_site_label
 _atom_site_symmetry_multiplicity
 _atom_site_fract_x
 _atom_site_fract_y
 _atom_site_fract_z
 _atom_site_occupancy
  Li  Li0  1  0.83292998  0.83293001  0.50121007  1
  Li  Li1  1  0.16707000  0.16707000  0.49879003  1
  Ag  Ag2  1  0.66543800  0.00000000  0.00000002  1
  Ag  Ag3  1  0.33456198  0.66543801  0.00000003  1
  Ag  Ag4  1  0.49999999  0.50000001  0.50000005  1
  Ag  Ag5  1  -0.00000001  0.33456200  0.00000001  1
