# generated using pymatgen
data_Pr(CoP)2
_symmetry_space_group_name_H-M   'P 1'
_cell_length_a   4.08596611
_cell_length_b   4.08596611
_cell_length_c   5.73982668
_cell_angle_alpha   110.85052490
_cell_angle_beta   110.85052490
_cell_angle_gamma   90.00000000
_symmetry_Int_Tables_number   1
_chemical_formula_structural   Pr(CoP)2
_chemical_formula_sum   'Pr1 Co2 P2'
_cell_volume   82.80181409
_cell_formula_units_Z   1
loop_
 _symmetry_equiv_pos_site_id
 _symmetry_equiv_pos_as_xyz
  1  'x, y, z'
loop_
 _atom_site_type_symbol
 _atom_site_label
 _atom_site_symmetry_multiplicity
 _atom_site_fract_x
 _atom_site_fract_y
 _atom_site_fract_z
 _atom_site_occupancy
  Pr  Pr0  1  0.00000000  0.00000000  0.00000000  1
  Co  Co1  1  0.75000000  0.25000000  0.50000001  1
  Co  Co2  1  0.25000002  0.74999999  0.50000002  1
  P  P3  1  0.63238001  0.63237999  0.26476003  1
  P  P4  1  0.36762001  0.36762000  0.73524000  1
