# generated using pymatgen
data_Li6CuO7
_symmetry_space_group_name_H-M   'P 1'
_cell_length_a   2.91009998
_cell_length_b   5.03784847
_cell_length_c   10.01379585
_cell_angle_alpha   90.00000000
_cell_angle_beta   90.00000000
_cell_angle_gamma   106.78754425
_symmetry_Int_Tables_number   1
_chemical_formula_structural   Li6CuO7
_chemical_formula_sum   'Li6 Cu1 O7'
_cell_volume   140.55203646
_cell_formula_units_Z   1
loop_
 _symmetry_equiv_pos_site_id
 _symmetry_equiv_pos_as_xyz
  1  'x, y, z'
loop_
 _atom_site_type_symbol
 _atom_site_label
 _atom_site_symmetry_multiplicity
 _atom_site_fract_x
 _atom_site_fract_y
 _atom_site_fract_z
 _atom_site_occupancy
  Li  Li0  1  0.11925599  0.23851200  0.25000000  1
  Li  Li1  1  0.88074398  0.76148800  0.75000001  1
  Li  Li2  1  0.37300098  0.74600200  0.43018201  1
  Li  Li3  1  0.62699900  0.25399800  0.93018201  1
  Li  Li4  1  0.62699900  0.25399800  0.56981801  1
  Li  Li5  1  0.37300098  0.74600200  0.06981800  1
  O  O6  1  0.72506299  0.45012600  0.11683000  1
  Cu  Cu7  1  0.27493698  0.54987400  0.88317001  1
  O  O8  1  0.00000000  0.00000000  0.00000000  1
  O  O9  1  0.72506299  0.45012600  0.38317001  1
  O  O10  1  0.53507500  0.07015000  0.75000001  1
  O  O11  1  0.00000000  0.00000000  0.50000001  1
  O  O12  1  0.46492497  0.92985000  0.25000000  1
  O  O13  1  0.27493698  0.54987400  0.61683001  1
