# generated using pymatgen
data_FeNi18
_symmetry_space_group_name_H-M   'P 1'
_cell_length_a   3.21507907
_cell_length_b   9.01817417
_cell_length_c   9.01817322
_cell_angle_alpha   120.00000000
_cell_angle_beta   90.00000000
_cell_angle_gamma   90.00000000
_symmetry_Int_Tables_number   1
_chemical_formula_structural   FeNi18
_chemical_formula_sum   'Fe1 Ni18'
_cell_volume   226.44330315
_cell_formula_units_Z   1
loop_
 _symmetry_equiv_pos_site_id
 _symmetry_equiv_pos_as_xyz
  1  'x, y, z'
loop_
 _atom_site_type_symbol
 _atom_site_label
 _atom_site_symmetry_multiplicity
 _atom_site_fract_x
 _atom_site_fract_y
 _atom_site_fract_z
 _atom_site_occupancy
  Fe  Fe0  1  0.99999998  0.62409697  0.13198197  1
  Ni  Ni1  1  -0.00000000  0.86801796  0.49211496  1
  Ni  Ni2  1  -0.00000000  0.50788498  0.37590298  1
  Ni  Ni3  1  -0.00000000  0.98425696  0.24871695  1
  Ni  Ni4  1  -0.00000000  0.75128297  0.73553997  1
  Ni  Ni5  1  -0.00000000  0.26445999  0.01574299  1
  Ni  Ni6  1  0.49999999  0.49066998  0.63093498  1
  Ni  Ni7  1  0.49999999  0.36906498  0.85973499  1
  Ni  Ni8  1  0.49999999  0.14026499  0.50933000  1
  Ni  Ni9  1  0.49999999  0.20616199  0.22274299  1
  Ni  Ni10  1  0.49999999  0.77725697  0.98341897  1
  Ni  Ni11  1  0.49999999  0.01658100  0.79383801  1
  Ni  Ni12  1  0.00000000  0.00000000  0.00000000  1
  Ni  Ni13  1  -0.00000000  0.55122298  0.84023898  1
  Ni  Ni14  1  -0.00000000  0.15976099  0.71098400  1
  Ni  Ni15  1  0.99999998  0.28901599  0.44877699  1
  Ni  Ni16  1  0.49999999  0.83090496  0.28840196  1
  Ni  Ni17  1  0.49999999  0.71159897  0.54250397  1
  Ni  Ni18  1  0.49999999  0.45749698  0.16909598  1
