# generated using pymatgen
data_BaLiCu2O9
_symmetry_space_group_name_H-M   'P 1'
_cell_length_a   4.82685947
_cell_length_b   4.92327499
_cell_length_c   8.47645569
_cell_angle_alpha   74.32872009
_cell_angle_beta   75.18263245
_cell_angle_gamma   60.67920685
_symmetry_Int_Tables_number   1
_chemical_formula_structural   BaLiCu2O9
_chemical_formula_sum   'Ba1 Li1 Cu2 O9'
_cell_volume   167.26134654
_cell_formula_units_Z   1
loop_
 _symmetry_equiv_pos_site_id
 _symmetry_equiv_pos_as_xyz
  1  'x, y, z'
loop_
 _atom_site_type_symbol
 _atom_site_label
 _atom_site_symmetry_multiplicity
 _atom_site_fract_x
 _atom_site_fract_y
 _atom_site_fract_z
 _atom_site_occupancy
  Ba  Ba0  1  0.99993304  0.00006200  0.99991797  1
  Li  Li1  1  0.81951003  0.85625902  0.50663201  1
  Cu  Cu2  1  0.18069701  0.14351700  0.49337999  1
  Cu  Cu3  1  0.42132302  0.42774701  0.72331899  1
  O  O4  1  0.57870002  0.57232101  0.27660901  1
  O  O5  1  0.35476701  0.36397101  0.91282899  1
  O  O6  1  0.64487703  0.63656801  0.08722601  1
  O  O7  1  0.43574402  0.75136902  0.66376501  1
  O  O8  1  0.14797600  0.44219501  0.64903200  1
  O  O9  1  0.75040403  0.15286700  0.66428898  1
  O  O10  1  0.56424802  0.24858801  0.33598400  1
  O  O11  1  0.85214703  0.55758001  0.35096300  1
  O  O12  1  0.24967401  0.84695702  0.33605402  1
