# generated using pymatgen
data_BeCuN4
_symmetry_space_group_name_H-M   'P 1'
_cell_length_a   3.73553300
_cell_length_b   3.73553300
_cell_length_c   5.21202087
_cell_angle_alpha   90.00000000
_cell_angle_beta   90.00000000
_cell_angle_gamma   90.00000000
_symmetry_Int_Tables_number   1
_chemical_formula_structural   BeCuN4
_chemical_formula_sum   'Be1 Cu1 N4'
_cell_volume   72.72961705
_cell_formula_units_Z   1
loop_
 _symmetry_equiv_pos_site_id
 _symmetry_equiv_pos_as_xyz
  1  'x, y, z'
loop_
 _atom_site_type_symbol
 _atom_site_label
 _atom_site_symmetry_multiplicity
 _atom_site_fract_x
 _atom_site_fract_y
 _atom_site_fract_z
 _atom_site_occupancy
  Be  Be0  1  0.00000000  0.00000000  0.00000000  1
  Cu  Cu1  1  0.50000000  0.50000000  0.50000001  1
  N  N2  1  0.50000000  0.00000000  0.75168102  1
  N  N3  1  -0.00000000  0.50000000  0.24831901  1
  N  N4  1  0.50000000  0.00000000  0.24831901  1
  N  N5  1  -0.00000000  0.50000000  0.75168102  1
