# generated using pymatgen
data_PrSi3Ge
_symmetry_space_group_name_H-M   'P 1'
_cell_length_a   4.41206312
_cell_length_b   4.41206312
_cell_length_c   10.08302212
_cell_angle_alpha   90.00000000
_cell_angle_beta   90.00000000
_cell_angle_gamma   90.00000000
_symmetry_Int_Tables_number   1
_chemical_formula_structural   PrSi3Ge
_chemical_formula_sum   'Pr2 Si6 Ge2'
_cell_volume   196.27914344
_cell_formula_units_Z   2
loop_
 _symmetry_equiv_pos_site_id
 _symmetry_equiv_pos_as_xyz
  1  'x, y, z'
loop_
 _atom_site_type_symbol
 _atom_site_label
 _atom_site_symmetry_multiplicity
 _atom_site_fract_x
 _atom_site_fract_y
 _atom_site_fract_z
 _atom_site_occupancy
  Pr  Pr0  1  0.49999999  0.49999999  0.49999999  1
  Pr  Pr1  1  0.00000000  0.00000000  0.00000000  1
  Si  Si2  1  0.49999999  0.49999999  0.11555100  1
  Si  Si3  1  0.00000000  0.00000000  0.61511799  1
  Si  Si4  1  0.00000000  0.00000000  0.38488200  1
  Si  Si5  1  0.49999999  0.49999999  0.88444899  1
  Si  Si6  1  0.00000000  0.49999999  0.25252700  1
  Ge  Ge7  1  0.49999999  0.00000000  0.74747299  1
  Si  Si8  1  0.49999999  0.00000000  0.25252700  1
  Ge  Ge9  1  0.00000000  0.49999999  0.74747299  1
