# generated using pymatgen
data_Pr5Pb4
_symmetry_space_group_name_H-M   'P 1'
_cell_length_a   6.87172794
_cell_length_b   9.83154964
_cell_length_c   9.83154964
_cell_angle_alpha   120.00000000
_cell_angle_beta   90.00000000
_cell_angle_gamma   90.00000000
_symmetry_Int_Tables_number   1
_chemical_formula_structural   Pr5Pb4
_chemical_formula_sum   'Pr10 Pb8'
_cell_volume   575.22869422
_cell_formula_units_Z   2
loop_
 _symmetry_equiv_pos_site_id
 _symmetry_equiv_pos_as_xyz
  1  'x, y, z'
loop_
 _atom_site_type_symbol
 _atom_site_label
 _atom_site_symmetry_multiplicity
 _atom_site_fract_x
 _atom_site_fract_y
 _atom_site_fract_z
 _atom_site_occupancy
  Pr  Pr0  1  0.25000000  0.27234201  0.27234201  1
  Pr  Pr1  1  0.75000001  0.00000000  0.27234201  1
  Pr  Pr2  1  0.75000001  0.27234201  -0.00000000  1
  Pr  Pr3  1  0.50000000  0.66666669  0.33333334  1
  Pr  Pr4  1  1.00000001  0.66666669  0.33333334  1
  Pr  Pr5  1  0.50000000  0.33333334  0.66666669  1
  Pr  Pr6  1  -0.00000000  0.33333334  0.66666669  1
  Pr  Pr7  1  0.75000001  0.72765803  0.72765802  1
  Pr  Pr8  1  0.25000000  0.72765803  1.00000003  1
  Pr  Pr9  1  0.25000000  0.00000000  0.72765802  1
  Pb  Pb10  1  0.25000000  0.61651602  0.61651602  1
  Pb  Pb11  1  0.75000001  0.38348401  0.38348401  1
  Pb  Pb12  1  0.75000001  0.00000000  0.61651602  1
  Pb  Pb13  1  0.25000000  0.38348401  1.00000003  1
  Pb  Pb14  1  0.25000000  0.00000000  0.38348401  1
  Pb  Pb15  1  0.75000001  0.61651602  -0.00000000  1
  Pb  Pb16  1  0.50000000  0.00000000  -0.00000000  1
  Pb  Pb17  1  0.00000000  0.00000000  0.00000000  1
