# generated using pymatgen
data_PrPd6
_symmetry_space_group_name_H-M   'P 1'
_cell_length_a   6.05694580
_cell_length_b   6.05694580
_cell_length_c   7.61888313
_cell_angle_alpha   90.00000000
_cell_angle_beta   90.00000000
_cell_angle_gamma   90.00000000
_symmetry_Int_Tables_number   1
_chemical_formula_structural   PrPd6
_chemical_formula_sum   'Pr2 Pd12'
_cell_volume   279.51086030
_cell_formula_units_Z   2
loop_
 _symmetry_equiv_pos_site_id
 _symmetry_equiv_pos_as_xyz
  1  'x, y, z'
loop_
 _atom_site_type_symbol
 _atom_site_label
 _atom_site_symmetry_multiplicity
 _atom_site_fract_x
 _atom_site_fract_y
 _atom_site_fract_z
 _atom_site_occupancy
  Pr  Pr0  1  0.50000002  0.00000000  0.00000000  1
  Pr  Pr1  1  0.00000000  0.50000002  0.00000000  1
  Pd  Pd2  1  0.50000002  0.50000002  0.16185300  1
  Pd  Pd3  1  0.00000000  0.00000000  0.16185300  1
  Pd  Pd4  1  0.00000000  0.00000000  0.83814699  1
  Pd  Pd5  1  0.50000002  0.50000002  0.83814699  1
  Pd  Pd6  1  0.80361303  0.69638702  0.34801799  1
  Pd  Pd7  1  0.30361301  0.80361303  0.34801799  1
  Pd  Pd8  1  0.69638702  0.19638701  0.34801799  1
  Pd  Pd9  1  0.19638701  0.30361301  0.34801799  1
  Pd  Pd10  1  0.69638702  0.80361303  0.65198199  1
  Pd  Pd11  1  0.19638701  0.69638702  0.65198199  1
  Pd  Pd12  1  0.80361303  0.30361301  0.65198199  1
  Pd  Pd13  1  0.30361301  0.19638701  0.65198199  1
