# generated using pymatgen
data_Y3In4Pd3
_symmetry_space_group_name_H-M   'P 1'
_cell_length_a   3.45239902
_cell_length_b   3.45239902
_cell_length_c   17.18409538
_cell_angle_alpha   90.00000000
_cell_angle_beta   90.00000000
_cell_angle_gamma   90.00000000
_symmetry_Int_Tables_number   1
_chemical_formula_structural   Y3In4Pd3
_chemical_formula_sum   'Y3 In4 Pd3'
_cell_volume   204.81824607
_cell_formula_units_Z   1
loop_
 _symmetry_equiv_pos_site_id
 _symmetry_equiv_pos_as_xyz
  1  'x, y, z'
loop_
 _atom_site_type_symbol
 _atom_site_label
 _atom_site_symmetry_multiplicity
 _atom_site_fract_x
 _atom_site_fract_y
 _atom_site_fract_z
 _atom_site_occupancy
  Y  Y0  1  0.00000000  0.00000000  0.00000000  1
  Y  Y1  1  0.00000000  0.00000000  0.20189001  1
  Y  Y2  1  0.00000000  0.00000000  0.40046201  1
  In  In3  1  0.00000000  0.00000000  0.59953802  1
  In  In4  1  0.00000000  0.00000000  0.79811003  1
  Pd  Pd5  1  0.50000000  0.50000000  0.09836900  1
  In  In6  1  0.50000000  0.50000000  0.29975301  1
  In  In7  1  0.50000000  0.50000000  0.50000002  1
  Pd  Pd8  1  0.50000000  0.50000000  0.70024703  1
  Pd  Pd9  1  0.50000000  0.50000000  0.90163103  1
