# generated using pymatgen
data_K2NaTlO6
_symmetry_space_group_name_H-M   'P 1'
_cell_length_a   6.17443419
_cell_length_b   6.17443371
_cell_length_c   6.17443419
_cell_angle_alpha   60.00000000
_cell_angle_beta   59.99999619
_cell_angle_gamma   60.00000000
_symmetry_Int_Tables_number   1
_chemical_formula_structural   K2NaTlO6
_chemical_formula_sum   'K2 Na1 Tl1 O6'
_cell_volume   166.44718448
_cell_formula_units_Z   1
loop_
 _symmetry_equiv_pos_site_id
 _symmetry_equiv_pos_as_xyz
  1  'x, y, z'
loop_
 _atom_site_type_symbol
 _atom_site_label
 _atom_site_symmetry_multiplicity
 _atom_site_fract_x
 _atom_site_fract_y
 _atom_site_fract_z
 _atom_site_occupancy
  K  K0  1  0.75000003  0.74999999  0.75000000  1
  K  K1  1  0.25000001  0.25000000  0.25000000  1
  Na  Na2  1  0.00000000  0.00000000  0.00000000  1
  Tl  Tl3  1  0.50000002  0.49999999  0.50000000  1
  O  O4  1  0.22412102  0.77587899  0.77587901  1
  O  O5  1  0.77587903  0.77587899  0.22412099  1
  O  O6  1  0.77587902  0.22412100  0.22412099  1
  O  O7  1  0.22412102  0.77587899  0.22412100  1
  O  O8  1  0.77587902  0.22412100  0.77587900  1
  O  O9  1  0.22412101  0.22412100  0.77587901  1
