# generated using pymatgen
data_Rb2TlZn3Pd4
_symmetry_space_group_name_H-M   'P 1'
_cell_length_a   5.68661404
_cell_length_b   7.34755421
_cell_length_c   7.45464230
_cell_angle_alpha   90.00000000
_cell_angle_beta   112.42131042
_cell_angle_gamma   90.00000000
_symmetry_Int_Tables_number   1
_chemical_formula_structural   Rb2TlZn3Pd4
_chemical_formula_sum   'Rb2 Tl1 Zn3 Pd4'
_cell_volume   287.92891932
_cell_formula_units_Z   1
loop_
 _symmetry_equiv_pos_site_id
 _symmetry_equiv_pos_as_xyz
  1  'x, y, z'
loop_
 _atom_site_type_symbol
 _atom_site_label
 _atom_site_symmetry_multiplicity
 _atom_site_fract_x
 _atom_site_fract_y
 _atom_site_fract_z
 _atom_site_occupancy
  Rb  Rb0  1  0.49999999  0.00000000  1.00000001  1
  Rb  Rb1  1  0.66046198  0.49999999  0.32092399  1
  Tl  Tl2  1  0.33953799  0.49999999  0.67907601  1
  Zn  Zn3  1  -0.00000000  0.49999999  -0.00000000  1
  Zn  Zn4  1  0.49999999  0.00000000  0.50000000  1
  Zn  Zn5  1  0.00000000  0.00000000  0.50000002  1
  Pd  Pd6  1  0.10720500  0.19508499  0.21441000  1
  Pd  Pd7  1  0.89279498  0.19508499  0.78558999  1
  Pd  Pd8  1  0.89279498  0.80491498  0.78558999  1
  Pd  Pd9  1  0.10720500  0.80491498  0.21441000  1
