# generated using pymatgen
data_Mn2In7Cu11
_symmetry_space_group_name_H-M   'P 1'
_cell_length_a   4.68336201
_cell_length_b   4.68336201
_cell_length_c   19.32466698
_cell_angle_alpha   83.04004669
_cell_angle_beta   83.04004669
_cell_angle_gamma   60.00000000
_symmetry_Int_Tables_number   1
_chemical_formula_structural   Mn2In7Cu11
_chemical_formula_sum   'Mn2 In7 Cu11'
_cell_volume   363.46669759
_cell_formula_units_Z   1
loop_
 _symmetry_equiv_pos_site_id
 _symmetry_equiv_pos_as_xyz
  1  'x, y, z'
loop_
 _atom_site_type_symbol
 _atom_site_label
 _atom_site_symmetry_multiplicity
 _atom_site_fract_x
 _atom_site_fract_y
 _atom_site_fract_z
 _atom_site_occupancy
  Mn  Mn0  1  0.39998998  0.39999000  0.80003003  1
  In  In1  1  0.20003499  0.20003500  0.39989502  1
  In  In2  1  0.80017196  0.80017199  0.59948403  1
  Mn  Mn3  1  0.00001100  0.00001100  0.99996703  1
  In  In4  1  0.59976197  0.59976199  0.20071402  1
  In  In5  1  0.10000799  0.10000800  0.69997602  1
  In  In6  1  0.70006596  0.70006599  0.89980204  1
  In  In7  1  0.29995698  0.29995700  0.10012901  1
  Cu  Cu8  1  0.04995000  0.04995000  0.85015003  1
  In  In9  1  0.85005495  0.85005499  0.44983503  1
  Cu  Cu10  1  0.44994997  0.44995000  0.65015003  1
  Cu  Cu11  1  0.64995496  0.64995499  0.05013501  1
  Cu  Cu12  1  0.25014299  0.25014300  0.24957101  1
  Cu  Cu13  1  0.34990798  0.34990800  0.95027604  1
  Cu  Cu14  1  0.14989599  0.14989600  0.55031202  1
  Cu  Cu15  1  0.75003196  0.75003199  0.74990404  1
  Cu  Cu16  1  0.95010095  0.95010099  0.14969702  1
  Cu  Cu17  1  0.54998397  0.54998399  0.35004802  1
  Cu  Cu18  1  0.90001495  0.90001499  0.29995503  1
  Cu  Cu19  1  0.50000697  0.50000700  0.49997903  1
