# generated using pymatgen
data_LiCO3
_symmetry_space_group_name_H-M   'P 1'
_cell_length_a   4.70283365
_cell_length_b   4.70283365
_cell_length_c   5.68660116
_cell_angle_alpha   65.57503510
_cell_angle_beta   65.57503510
_cell_angle_gamma   60.00000763
_symmetry_Int_Tables_number   1
_chemical_formula_structural   LiCO3
_chemical_formula_sum   'Li2 C2 O6'
_cell_volume   95.70124793
_cell_formula_units_Z   2
loop_
 _symmetry_equiv_pos_site_id
 _symmetry_equiv_pos_as_xyz
  1  'x, y, z'
loop_
 _atom_site_type_symbol
 _atom_site_label
 _atom_site_symmetry_multiplicity
 _atom_site_fract_x
 _atom_site_fract_y
 _atom_site_fract_z
 _atom_site_occupancy
  Li  Li0  1  0.50000002  0.49999999  0.49999997  1
  Li  Li1  1  0.00000000  0.00000000  0.00000000  1
  C  C2  1  0.75000003  0.74999998  0.74999995  1
  C  C3  1  0.25000001  0.24999999  0.24999998  1
  O  O4  1  0.45473200  0.04526800  0.74999999  1
  O  O5  1  0.75000002  0.45473199  0.74999997  1
  O  O6  1  0.95473200  0.24999999  0.24999996  1
  O  O7  1  0.54526804  0.95473197  0.24999995  1
  O  O8  1  0.25000002  0.54526799  0.24999997  1
  O  O9  1  0.04526804  0.74999998  0.74999998  1
