# generated using pymatgen
data_HfSc2Re5Pd8
_symmetry_space_group_name_H-M   'P 1'
_cell_length_a   6.69654608
_cell_length_b   6.69654608
_cell_length_c   6.69654608
_cell_angle_alpha   90.00000000
_cell_angle_beta   90.00000000
_cell_angle_gamma   90.00000000
_symmetry_Int_Tables_number   1
_chemical_formula_structural   HfSc2Re5Pd8
_chemical_formula_sum   'Hf1 Sc2 Re5 Pd8'
_cell_volume   300.29810003
_cell_formula_units_Z   1
loop_
 _symmetry_equiv_pos_site_id
 _symmetry_equiv_pos_as_xyz
  1  'x, y, z'
loop_
 _atom_site_type_symbol
 _atom_site_label
 _atom_site_symmetry_multiplicity
 _atom_site_fract_x
 _atom_site_fract_y
 _atom_site_fract_z
 _atom_site_occupancy
  Sc  Sc0  1  0.49999999  0.49999999  0.49999999  1
  Sc  Sc1  1  0.00000000  0.00000000  0.00000000  1
  Hf  Hf2  1  0.49999999  0.00000000  0.74999999  1
  Re  Re3  1  -0.00000000  0.25000000  0.49999999  1
  Re  Re4  1  0.74999999  0.49999999  0.00000000  1
  Re  Re5  1  0.49999999  0.00000000  0.25000000  1
  Re  Re6  1  -0.00000000  0.74999999  0.49999999  1
  Re  Re7  1  0.25000000  0.49999999  0.00000000  1
  Pd  Pd8  1  0.74999999  0.25000000  0.74999999  1
  Pd  Pd9  1  0.25000000  0.74999999  0.25000000  1
  Pd  Pd10  1  0.74999999  0.74999999  0.25000000  1
  Pd  Pd11  1  0.25000000  0.25000000  0.74999999  1
  Pd  Pd12  1  0.25000000  0.74999999  0.74999999  1
  Pd  Pd13  1  0.74999999  0.25000000  0.25000000  1
  Pd  Pd14  1  0.25000000  0.25000000  0.25000000  1
  Pd  Pd15  1  0.74999999  0.74999999  0.74999999  1
