# generated using pymatgen
data_Sr11Bi9
_symmetry_space_group_name_H-M   'P 1'
_cell_length_a   11.43513107
_cell_length_b   11.43513107
_cell_length_c   11.43513107
_cell_angle_alpha   90.00000000
_cell_angle_beta   90.00000000
_cell_angle_gamma   90.00000000
_symmetry_Int_Tables_number   1
_chemical_formula_structural   Sr11Bi9
_chemical_formula_sum   'Sr11 Bi9'
_cell_volume   1495.28315548
_cell_formula_units_Z   1
loop_
 _symmetry_equiv_pos_site_id
 _symmetry_equiv_pos_as_xyz
  1  'x, y, z'
loop_
 _atom_site_type_symbol
 _atom_site_label
 _atom_site_symmetry_multiplicity
 _atom_site_fract_x
 _atom_site_fract_y
 _atom_site_fract_z
 _atom_site_occupancy
  Sr  Sr0  1  0.87499999  0.70274200  0.04725800  1
  Sr  Sr1  1  0.06213300  0.06213300  0.06213300  1
  Sr  Sr2  1  0.20274200  0.45274200  0.12500000  1
  Sr  Sr3  1  0.81213299  0.31213300  0.18786700  1
  Sr  Sr4  1  0.45274200  0.12500000  0.20274200  1
  Sr  Sr5  1  0.54725800  0.62500000  0.29725800  1
  Sr  Sr6  1  0.18786700  0.81213299  0.31213300  1
  Bi  Bi7  1  0.79725799  0.95274199  0.37500000  1
  Sr  Sr8  1  0.93786699  0.56213300  0.43786700  1
  Sr  Sr9  1  0.12500000  0.20274200  0.45274200  1
  Sr  Sr10  1  0.62500000  0.29725800  0.54725800  1
  Sr  Sr11  1  0.43786700  0.93786699  0.56213300  1
  Bi  Bi12  1  0.29725800  0.54725800  0.62500000  1
  Bi  Bi13  1  0.68786700  0.68786700  0.68786700  1
  Bi  Bi14  1  0.04725800  0.87499999  0.70274200  1
  Bi  Bi15  1  0.95274199  0.37500000  0.79725799  1
  Bi  Bi16  1  0.31213300  0.18786700  0.81213299  1
  Bi  Bi17  1  0.70274200  0.04725800  0.87499999  1
  Bi  Bi18  1  0.56213300  0.43786700  0.93786699  1
  Bi  Bi19  1  0.37500000  0.79725799  0.95274199  1
