# generated using pymatgen
data_BaSi2
_symmetry_space_group_name_H-M   'P 1'
_cell_length_a   6.13399839
_cell_length_b   6.13399839
_cell_length_c   8.54422569
_cell_angle_alpha   110.28029633
_cell_angle_beta   110.28029633
_cell_angle_gamma   91.97049713
_symmetry_Int_Tables_number   1
_chemical_formula_structural   BaSi2
_chemical_formula_sum   'Ba4 Si8'
_cell_volume   278.46465545
_cell_formula_units_Z   4
loop_
 _symmetry_equiv_pos_site_id
 _symmetry_equiv_pos_as_xyz
  1  'x, y, z'
loop_
 _atom_site_type_symbol
 _atom_site_label
 _atom_site_symmetry_multiplicity
 _atom_site_fract_x
 _atom_site_fract_y
 _atom_site_fract_z
 _atom_site_occupancy
  Ba  Ba0  1  0.24463195  0.75536798  -0.00000001  1
  Ba  Ba1  1  0.75536797  0.24463199  0.00000000  1
  Ba  Ba2  1  0.24999995  0.74999998  0.50000001  1
  Ba  Ba3  1  0.74999997  0.24999999  0.50000002  1
  Si  Si4  1  0.33353697  0.33353699  0.66707402  1
  Si  Si5  1  0.66646295  0.66646298  0.33292601  1
  Si  Si6  1  0.16888899  0.16888900  0.33777801  1
  Si  Si7  1  0.83111094  0.83111098  0.66222202  1
  Si  Si8  1  0.83036294  0.83036298  0.16865600  1
  Si  Si9  1  0.66170695  0.66170698  0.83134402  1
  Si  Si10  1  0.33829297  0.33829299  0.16865600  1
  Si  Si11  1  0.16963699  0.16963700  0.83134403  1
