# generated using pymatgen
data_Nb5Fe11
_symmetry_space_group_name_H-M   'P 1'
_cell_length_a   4.86187601
_cell_length_b   7.39944172
_cell_length_c   7.39944172
_cell_angle_alpha   83.80388641
_cell_angle_beta   70.82042694
_cell_angle_gamma   70.82042694
_symmetry_Int_Tables_number   1
_chemical_formula_structural   Nb5Fe11
_chemical_formula_sum   'Nb5 Fe11'
_cell_volume   237.46509739
_cell_formula_units_Z   1
loop_
 _symmetry_equiv_pos_site_id
 _symmetry_equiv_pos_as_xyz
  1  'x, y, z'
loop_
 _atom_site_type_symbol
 _atom_site_label
 _atom_site_symmetry_multiplicity
 _atom_site_fract_x
 _atom_site_fract_y
 _atom_site_fract_z
 _atom_site_occupancy
  Fe  Fe0  1  0.70761499  0.29238501  0.29238499  1
  Nb  Nb1  1  0.29238498  0.70761502  0.70761500  1
  Nb  Nb2  1  -0.00000003  0.70761502  0.29238500  1
  Nb  Nb3  1  -0.00000001  0.29238501  0.70761501  1
  Fe  Fe4  1  0.17407299  0.18828901  1.00000001  1
  Nb  Nb5  1  0.36236097  0.81171102  -0.00000001  1
  Fe  Fe6  1  0.63763797  1.00000003  0.18828998  1
  Nb  Nb7  1  0.82592797  1.00000003  0.81170999  1
  Fe  Fe8  1  0.97225498  0.60126602  -0.00000002  1
  Fe  Fe9  1  0.57352099  0.39873401  -0.00000001  1
  Fe  Fe10  1  0.42647897  1.00000003  0.60126599  1
  Fe  Fe11  1  0.02774500  0.00000000  0.39873401  1
  Fe  Fe12  1  0.14585399  0.35414601  0.35414600  1
  Fe  Fe13  1  0.85414598  0.64585402  0.64585399  1
  Fe  Fe14  1  0.49999998  0.64585402  0.35414599  1
  Fe  Fe15  1  0.49999999  0.35414601  0.64585400  1
