# generated using pymatgen
data_Mg
_symmetry_space_group_name_H-M   'P 1'
_cell_length_a   3.97353911
_cell_length_b   4.59321594
_cell_length_c   6.00538158
_cell_angle_alpha   112.48397064
_cell_angle_beta   90.00000000
_cell_angle_gamma   90.00000000
_symmetry_Int_Tables_number   1
_chemical_formula_structural   Mg
_chemical_formula_sum   Mg4
_cell_volume   101.27461874
_cell_formula_units_Z   4
loop_
 _symmetry_equiv_pos_site_id
 _symmetry_equiv_pos_as_xyz
  1  'x, y, z'
loop_
 _atom_site_type_symbol
 _atom_site_label
 _atom_site_symmetry_multiplicity
 _atom_site_fract_x
 _atom_site_fract_y
 _atom_site_fract_z
 _atom_site_occupancy
  Mg  Mg0  1  0.74999998  0.85962100  0.71924201  1
  Mg  Mg1  1  0.24999999  0.14037900  0.28075801  1
  Mg  Mg2  1  0.74999998  0.56572200  0.13144399  1
  Mg  Mg3  1  0.24999999  0.43427800  0.86855602  1
