# generated using pymatgen
data_Na5Sr3CuO6
_symmetry_space_group_name_H-M   'P 1'
_cell_length_a   5.43773985
_cell_length_b   7.18634701
_cell_length_c   8.61210251
_cell_angle_alpha   111.06282043
_cell_angle_beta   108.40328217
_cell_angle_gamma   90.00000000
_symmetry_Int_Tables_number   1
_chemical_formula_structural   Na5Sr3CuO6
_chemical_formula_sum   'Na5 Sr3 Cu1 O6'
_cell_volume   295.53617595
_cell_formula_units_Z   1
loop_
 _symmetry_equiv_pos_site_id
 _symmetry_equiv_pos_as_xyz
  1  'x, y, z'
loop_
 _atom_site_type_symbol
 _atom_site_label
 _atom_site_symmetry_multiplicity
 _atom_site_fract_x
 _atom_site_fract_y
 _atom_site_fract_z
 _atom_site_occupancy
  Sr  Sr0  1  0.33003901  0.00022600  0.66007802  1
  Sr  Sr1  1  0.66996104  0.99977403  0.33992205  1
  Sr  Sr2  1  0.00000000  0.00000000  0.00000000  1
  Na  Na3  1  0.75096803  0.50000001  0.00000002  1
  Na  Na4  1  0.41601702  0.49945901  0.33248403  1
  Na  Na5  1  0.08353301  0.50054101  0.66751604  1
  Na  Na6  1  0.91646704  0.49945901  0.33248403  1
  Na  Na7  1  0.58398303  0.50054101  0.66751604  1
  Cu  Cu8  1  0.24903202  0.50000001  0.00000002  1
  O  O9  1  0.11791302  0.69737702  0.23582603  1
  O  O10  1  0.78218404  0.69429202  0.56436805  1
  O  O11  1  0.44815703  0.69697802  0.89631405  1
  O  O12  1  0.55184302  0.30302201  0.10368602  1
  O  O13  1  0.21781601  0.30570801  0.43563202  1
  O  O14  1  0.88208703  0.30262301  0.76417404  1
