# generated using pymatgen
data_Sr2CaAg(SeO)2
_symmetry_space_group_name_H-M   'P 1'
_cell_length_a   3.37179208
_cell_length_b   3.37179160
_cell_length_c   14.73925781
_cell_angle_alpha   90.00000000
_cell_angle_beta   90.00000000
_cell_angle_gamma   120.00000763
_symmetry_Int_Tables_number   1
_chemical_formula_structural   Sr2CaAg(SeO)2
_chemical_formula_sum   'Sr2 Ca1 Ag1 Se2 O2'
_cell_volume   145.12015187
_cell_formula_units_Z   1
loop_
 _symmetry_equiv_pos_site_id
 _symmetry_equiv_pos_as_xyz
  1  'x, y, z'
loop_
 _atom_site_type_symbol
 _atom_site_label
 _atom_site_symmetry_multiplicity
 _atom_site_fract_x
 _atom_site_fract_y
 _atom_site_fract_z
 _atom_site_occupancy
  Sr  Sr0  1  0.66666667  0.33333334  0.58210201  1
  Sr  Sr1  1  0.33333337  0.66666668  0.41789801  1
  Ca  Ca2  1  0.33333337  0.66666668  0.08210200  1
  Ag  Ag3  1  0.66666667  0.33333334  0.91789801  1
  Se  Se4  1  0.66666667  0.33333334  0.25000000  1
  Se  Se5  1  0.33333337  0.66666668  0.75000001  1
  O  O6  1  0.00000000  0.00000000  0.50000001  1
  O  O7  1  0.00000000  0.00000000  0.00000000  1
