# generated using pymatgen
data_CuTc
_symmetry_space_group_name_H-M   'P 1'
_cell_length_a   2.75960588
_cell_length_b   2.75960517
_cell_length_c   4.38392591
_cell_angle_alpha   90.00000000
_cell_angle_beta   90.00000000
_cell_angle_gamma   120.00000763
_symmetry_Int_Tables_number   1
_chemical_formula_structural   CuTc
_chemical_formula_sum   'Tc1 Cu1'
_cell_volume   28.91264453
_cell_formula_units_Z   1
loop_
 _symmetry_equiv_pos_site_id
 _symmetry_equiv_pos_as_xyz
  1  'x, y, z'
loop_
 _atom_site_type_symbol
 _atom_site_label
 _atom_site_symmetry_multiplicity
 _atom_site_fract_x
 _atom_site_fract_y
 _atom_site_fract_z
 _atom_site_occupancy
  Tc  Tc0  1  0.33333332  0.66666667  -0.00000000  1
  Cu  Cu1  1  0.00000000  0.00000000  0.50000001  1
