# generated using pymatgen
data_V2ZnO5
_symmetry_space_group_name_H-M   'P 1'
_cell_length_a   5.16563034
_cell_length_b   5.16563034
_cell_length_c   5.45388937
_cell_angle_alpha   61.73351669
_cell_angle_beta   61.73351669
_cell_angle_gamma   59.99999237
_symmetry_Int_Tables_number   1
_chemical_formula_structural   V2ZnO5
_chemical_formula_sum   'V2 Zn1 O5'
_cell_volume   105.51974348
_cell_formula_units_Z   1
loop_
 _symmetry_equiv_pos_site_id
 _symmetry_equiv_pos_as_xyz
  1  'x, y, z'
loop_
 _atom_site_type_symbol
 _atom_site_label
 _atom_site_symmetry_multiplicity
 _atom_site_fract_x
 _atom_site_fract_y
 _atom_site_fract_z
 _atom_site_occupancy
  Zn  Zn0  1  0.50000001  0.50000002  0.49999996  1
  V  V1  1  0.00000000  0.00000000  0.00000000  1
  V  V2  1  0.36739901  0.12311001  0.75243796  1
  O  O3  1  0.12311000  0.75705303  0.75243796  1
  O  O4  1  0.24294700  0.63260103  0.24756197  1
  O  O5  1  0.87689003  0.24294701  0.24756196  1
  O  O6  1  0.63260101  0.87689004  0.24756195  1
  O  O7  1  0.75705303  0.36739902  0.75243795  1
