# generated using pymatgen
data_Hf2CuS3
_symmetry_space_group_name_H-M   'P 1'
_cell_length_a   3.74437404
_cell_length_b   6.58491373
_cell_length_c   11.46878242
_cell_angle_alpha   103.84696198
_cell_angle_beta   90.00000000
_cell_angle_gamma   106.51788330
_symmetry_Int_Tables_number   1
_chemical_formula_structural   Hf2CuS3
_chemical_formula_sum   'Hf4 Cu2 S6'
_cell_volume   262.52563015
_cell_formula_units_Z   2
loop_
 _symmetry_equiv_pos_site_id
 _symmetry_equiv_pos_as_xyz
  1  'x, y, z'
loop_
 _atom_site_type_symbol
 _atom_site_label
 _atom_site_symmetry_multiplicity
 _atom_site_fract_x
 _atom_site_fract_y
 _atom_site_fract_z
 _atom_site_occupancy
  Hf  Hf0  1  0.00000000  0.00000000  0.00000000  1
  Hf  Hf1  1  0.88793400  0.77586798  0.57847103  1
  Hf  Hf2  1  0.11206600  0.22413199  0.42152902  1
  Hf  Hf3  1  0.69985100  0.39970199  0.81317104  1
  Cu  Cu4  1  0.30014901  0.60029798  0.18682901  1
  Cu  Cu5  1  0.49999999  0.00000000  0.50000002  1
  S  S6  1  0.34090401  0.68180798  0.94926004  1
  S  S7  1  0.65909600  0.31819199  0.05074000  1
  S  S8  1  0.04150000  0.08300000  0.78499903  1
  S  S9  1  0.95850001  0.91699998  0.21500102  1
  S  S10  1  0.74090500  0.48180999  0.35290102  1
  S  S11  1  0.25909501  0.51818999  0.64709903  1
