# generated using pymatgen
data_Li3CoO4
_symmetry_space_group_name_H-M   'P 1'
_cell_length_a   5.03932285
_cell_length_b   5.51428413
_cell_length_c   6.39770412
_cell_angle_alpha   90.00000000
_cell_angle_beta   90.00000000
_cell_angle_gamma   90.00000000
_symmetry_Int_Tables_number   1
_chemical_formula_structural   Li3CoO4
_chemical_formula_sum   'Li6 Co2 O8'
_cell_volume   177.78105317
_cell_formula_units_Z   2
loop_
 _symmetry_equiv_pos_site_id
 _symmetry_equiv_pos_as_xyz
  1  'x, y, z'
loop_
 _atom_site_type_symbol
 _atom_site_label
 _atom_site_symmetry_multiplicity
 _atom_site_fract_x
 _atom_site_fract_y
 _atom_site_fract_z
 _atom_site_occupancy
  Li  Li0  1  0.00879200  0.66833798  0.24756800  1
  Li  Li1  1  0.50879201  0.33166199  0.25243200  1
  Li  Li2  1  0.50879201  0.33166199  0.74756799  1
  Li  Li3  1  0.00879200  0.66833798  0.75243199  1
  Li  Li4  1  0.00932100  0.16554200  0.49999999  1
  Li  Li5  1  0.50932101  0.83445798  0.00000000  1
  Co  Co6  1  0.00136300  0.17039900  0.00000000  1
  Co  Co7  1  0.50136301  0.82960098  0.49999999  1
  O  O8  1  0.11125800  0.32031499  0.22506200  1
  O  O9  1  0.65543902  0.17347200  0.00000000  1
  O  O10  1  0.11125800  0.32031499  0.77493798  1
  O  O11  1  0.61125802  0.67968498  0.27493799  1
  O  O12  1  0.61125802  0.67968498  0.72506199  1
  O  O13  1  0.60957602  0.13075800  0.49999999  1
  O  O14  1  0.10957600  0.86924198  0.00000000  1
  O  O15  1  0.15543900  0.82652798  0.49999999  1
