# generated using pymatgen
data_Li2Cu5O12
_symmetry_space_group_name_H-M   'P 1'
_cell_length_a   4.92806482
_cell_length_b   7.11607027
_cell_length_c   7.58520937
_cell_angle_alpha   109.53440857
_cell_angle_beta   97.98032379
_cell_angle_gamma   110.09588623
_symmetry_Int_Tables_number   1
_chemical_formula_structural   Li2Cu5O12
_chemical_formula_sum   'Li2 Cu5 O12'
_cell_volume   225.54738442
_cell_formula_units_Z   1
loop_
 _symmetry_equiv_pos_site_id
 _symmetry_equiv_pos_as_xyz
  1  'x, y, z'
loop_
 _atom_site_type_symbol
 _atom_site_label
 _atom_site_symmetry_multiplicity
 _atom_site_fract_x
 _atom_site_fract_y
 _atom_site_fract_z
 _atom_site_occupancy
  Li  Li0  1  0.74119091  0.75882494  0.55584391  1
  Li  Li1  1  0.25880897  0.24117498  0.44415596  1
  Cu  Cu2  1  0.00000000  0.00000000  0.00000000  1
  Cu  Cu3  1  0.36682889  0.80860294  0.21195093  1
  Cu  Cu4  1  0.84047896  0.40263297  0.21570093  1
  Cu  Cu5  1  0.15952092  0.59736695  0.78429894  1
  Cu  Cu6  1  0.63317099  0.19139699  0.78804894  1
  O  O7  1  0.65116389  0.87734893  0.35929291  1
  O  O8  1  0.39571991  0.68666595  0.99656192  1
  O  O9  1  0.74054702  0.01719800  0.79433595  1
  O  O10  1  0.09415891  0.62220695  0.22994895  1
  O  O11  1  0.02402789  0.76073194  0.79199593  1
  O  O12  1  0.31057993  0.54112296  0.63142494  1
  O  O13  1  0.68941995  0.45887696  0.36857493  1
  O  O14  1  0.97597199  0.23926798  0.20800394  1
  O  O15  1  0.90584097  0.37779297  0.77005092  1
  O  O16  1  0.25945286  0.98280192  0.20566392  1
  O  O17  1  0.60427997  0.31333398  0.00343795  1
  O  O18  1  0.34883599  0.12265099  0.64070696  1
