# generated using pymatgen
data_ScAl2
_symmetry_space_group_name_H-M   'P 1'
_cell_length_a   5.17718410
_cell_length_b   5.17718410
_cell_length_c   5.18230295
_cell_angle_alpha   60.03267288
_cell_angle_beta   60.03267288
_cell_angle_gamma   60.00000000
_symmetry_Int_Tables_number   1
_chemical_formula_structural   ScAl2
_chemical_formula_sum   'Sc2 Al4'
_cell_volume   98.26736670
_cell_formula_units_Z   2
loop_
 _symmetry_equiv_pos_site_id
 _symmetry_equiv_pos_as_xyz
  1  'x, y, z'
loop_
 _atom_site_type_symbol
 _atom_site_label
 _atom_site_symmetry_multiplicity
 _atom_site_fract_x
 _atom_site_fract_y
 _atom_site_fract_z
 _atom_site_occupancy
  Sc  Sc0  1  0.37774398  0.37774399  0.86676801  1
  Sc  Sc1  1  0.62225597  0.62225598  0.13323200  1
  Al  Al2  1  0.00000000  0.00000000  0.00000000  1
  Al  Al3  1  -0.00000001  0.49999999  0.50000000  1
  Al  Al4  1  0.00000000  0.00000000  0.50000000  1
  Al  Al5  1  0.49999997  0.99999997  0.50000001  1
