# generated using pymatgen
data_PrInRh
_symmetry_space_group_name_H-M   'P 1'
_cell_length_a   4.02356195
_cell_length_b   7.49112988
_cell_length_c   7.49112940
_cell_angle_alpha   120.00000000
_cell_angle_beta   90.00000000
_cell_angle_gamma   90.00000000
_symmetry_Int_Tables_number   1
_chemical_formula_structural   PrInRh
_chemical_formula_sum   'Pr3 In3 Rh3'
_cell_volume   195.54015278
_cell_formula_units_Z   3
loop_
 _symmetry_equiv_pos_site_id
 _symmetry_equiv_pos_as_xyz
  1  'x, y, z'
loop_
 _atom_site_type_symbol
 _atom_site_label
 _atom_site_symmetry_multiplicity
 _atom_site_fract_x
 _atom_site_fract_y
 _atom_site_fract_z
 _atom_site_occupancy
  Pr  Pr0  1  0.50000001  0.40809299  0.40809296  1
  Pr  Pr1  1  0.50000001  0.59190699  -0.00000004  1
  Pr  Pr2  1  0.50000001  0.00000000  0.59190699  1
  In  In3  1  1.00000001  0.24210400  0.99999996  1
  In  In4  1  1.00000001  0.00000000  0.24210399  1
  In  In5  1  -0.00000000  0.75789599  0.75789593  1
  Rh  Rh6  1  0.50000001  0.00000000  -0.00000000  1
  Rh  Rh7  1  -0.00000000  0.66666666  0.33333328  1
  Rh  Rh8  1  -0.00000000  0.33333333  0.66666663  1
