# generated using pymatgen
data_Cr2SeO5
_symmetry_space_group_name_H-M   'P 1'
_cell_length_a   5.57073116
_cell_length_b   5.61776495
_cell_length_c   5.92410755
_cell_angle_alpha   63.16066360
_cell_angle_beta   89.40011597
_cell_angle_gamma   62.08536530
_symmetry_Int_Tables_number   1
_chemical_formula_structural   Cr2SeO5
_chemical_formula_sum   'Cr2 Se1 O5'
_cell_volume   141.35139096
_cell_formula_units_Z   1
loop_
 _symmetry_equiv_pos_site_id
 _symmetry_equiv_pos_as_xyz
  1  'x, y, z'
loop_
 _atom_site_type_symbol
 _atom_site_label
 _atom_site_symmetry_multiplicity
 _atom_site_fract_x
 _atom_site_fract_y
 _atom_site_fract_z
 _atom_site_occupancy
  Se  Se0  1  0.00000000  0.00000000  0.00000000  1
  Cr  Cr1  1  0.49999998  0.00000000  0.50000002  1
  O  O2  1  0.13661600  0.11117900  0.25558501  1
  Cr  Cr3  1  0.86338398  0.88882101  0.74441507  1
  O  O4  1  0.24634499  0.13035100  0.74775101  1
  O  O5  1  0.75365498  0.86964901  0.25224907  1
  O  O6  1  0.39465899  0.45918700  0.27372803  1
  O  O7  1  0.60534098  0.54081300  0.72627204  1
