# generated using pymatgen
data_Ba2YbSn5
_symmetry_space_group_name_H-M   'P 1'
_cell_length_a   5.06111002
_cell_length_b   6.60081530
_cell_length_c   16.94866753
_cell_angle_alpha   90.00000000
_cell_angle_beta   90.00000000
_cell_angle_gamma   112.54258728
_symmetry_Int_Tables_number   1
_chemical_formula_structural   Ba2YbSn5
_chemical_formula_sum   'Ba4 Yb2 Sn10'
_cell_volume   522.95029686
_cell_formula_units_Z   2
loop_
 _symmetry_equiv_pos_site_id
 _symmetry_equiv_pos_as_xyz
  1  'x, y, z'
loop_
 _atom_site_type_symbol
 _atom_site_label
 _atom_site_symmetry_multiplicity
 _atom_site_fract_x
 _atom_site_fract_y
 _atom_site_fract_z
 _atom_site_occupancy
  Ba  Ba0  1  0.91165697  0.82331401  0.61106802  1
  Ba  Ba1  1  0.36390298  0.72780601  0.25000001  1
  Ba  Ba2  1  0.63609699  0.27219400  0.75000002  1
  Ba  Ba3  1  0.08834299  0.17668600  0.38893201  1
  Yb  Yb4  1  0.08834299  0.17668600  0.11106800  1
  Yb  Yb5  1  0.91165697  0.82331401  0.88893202  1
  Sn  Sn6  1  0.79302598  0.58605201  0.09710200  1
  Sn  Sn7  1  0.20697399  0.41394801  0.59710202  1
  Sn  Sn8  1  0.61305199  0.22610400  0.53595801  1
  Sn  Sn9  1  0.38694797  0.77389601  0.03595800  1
  Sn  Sn10  1  0.79302598  0.58605201  0.40289801  1
  Sn  Sn11  1  0.38694797  0.77389601  0.46404201  1
  Sn  Sn12  1  0.61305199  0.22610400  0.96404203  1
  Sn  Sn13  1  0.20697399  0.41394801  0.90289803  1
  Sn  Sn14  1  0.65408899  0.30817801  0.25000001  1
  Sn  Sn15  1  0.34591098  0.69182201  0.75000002  1
