# generated using pymatgen
data_BeRu
_symmetry_space_group_name_H-M   'P 1'
_cell_length_a   2.67295790
_cell_length_b   2.67295766
_cell_length_c   4.21938610
_cell_angle_alpha   90.00000000
_cell_angle_beta   90.00000000
_cell_angle_gamma   120.00000763
_symmetry_Int_Tables_number   1
_chemical_formula_structural   BeRu
_chemical_formula_sum   'Be1 Ru1'
_cell_volume   26.10742648
_cell_formula_units_Z   1
loop_
 _symmetry_equiv_pos_site_id
 _symmetry_equiv_pos_as_xyz
  1  'x, y, z'
loop_
 _atom_site_type_symbol
 _atom_site_label
 _atom_site_symmetry_multiplicity
 _atom_site_fract_x
 _atom_site_fract_y
 _atom_site_fract_z
 _atom_site_occupancy
  Be  Be0  1  0.33333337  0.66666665  0.49999999  1
  Ru  Ru1  1  0.66666671  0.33333333  0.99999998  1
