# generated using pymatgen
data_Li3Y(NiO7)2
_symmetry_space_group_name_H-M   'P 1'
_cell_length_a   4.71545172
_cell_length_b   5.60388613
_cell_length_c   7.47226000
_cell_angle_alpha   74.88653564
_cell_angle_beta   87.66741943
_cell_angle_gamma   88.36872864
_symmetry_Int_Tables_number   1
_chemical_formula_structural   Li3Y(NiO7)2
_chemical_formula_sum   'Li3 Y1 Ni2 O14'
_cell_volume   190.43316255
_cell_formula_units_Z   1
loop_
 _symmetry_equiv_pos_site_id
 _symmetry_equiv_pos_as_xyz
  1  'x, y, z'
loop_
 _atom_site_type_symbol
 _atom_site_label
 _atom_site_symmetry_multiplicity
 _atom_site_fract_x
 _atom_site_fract_y
 _atom_site_fract_z
 _atom_site_occupancy
  Li  Li0  1  0.50005400  0.49984402  0.49994399  1
  Li  Li1  1  0.50003500  0.50014102  0.99995199  1
  Y  Y2  1  0.00007000  0.00001600  0.00006200  1
  Li  Li3  1  0.99982999  0.99984804  0.49997998  1
  Ni  Ni4  1  0.98359098  0.49051602  0.23824399  1
  O  O5  1  0.52137701  0.99886904  0.74245198  1
  Ni  Ni6  1  0.01662401  0.50936102  0.76180399  1
  O  O7  1  0.47839498  0.00130600  0.25757800  1
  O  O8  1  0.81395600  0.99471604  0.73573098  1
  O  O9  1  0.27742100  0.50420902  0.22861199  1
  O  O10  1  0.15110201  0.64630303  0.59970699  1
  O  O11  1  0.62405798  0.16105801  0.11164200  1
  O  O12  1  0.63184000  0.83626103  0.39176999  1
  O  O13  1  0.17556400  0.37344502  0.90555100  1
  O  O14  1  0.36797599  0.16366701  0.60807600  1
  O  O15  1  0.82469799  0.62641603  0.09446299  1
  O  O16  1  0.84913998  0.35360201  0.40035100  1
  O  O17  1  0.37569801  0.83919403  0.88843999  1
  O  O18  1  0.18583399  0.00539500  0.26421000  1
  O  O19  1  0.72273499  0.49583302  0.77143099  1
