# generated using pymatgen
data_ErSn3
_symmetry_space_group_name_H-M   'P 1'
_cell_length_a   5.09822607
_cell_length_b   5.09822655
_cell_length_c   9.07618141
_cell_angle_alpha   90.00000000
_cell_angle_beta   90.00000000
_cell_angle_gamma   119.99999237
_symmetry_Int_Tables_number   1
_chemical_formula_structural   ErSn3
_chemical_formula_sum   'Er2 Sn6'
_cell_volume   204.30173389
_cell_formula_units_Z   2
loop_
 _symmetry_equiv_pos_site_id
 _symmetry_equiv_pos_as_xyz
  1  'x, y, z'
loop_
 _atom_site_type_symbol
 _atom_site_label
 _atom_site_symmetry_multiplicity
 _atom_site_fract_x
 _atom_site_fract_y
 _atom_site_fract_z
 _atom_site_occupancy
  Er  Er0  1  0.66666664  0.33333333  0.07992000  1
  Er  Er1  1  0.33333328  0.66666666  0.57991997  1
  Sn  Sn2  1  0.00000000  0.00000000  0.74999997  1
  Sn  Sn3  1  0.00000000  0.00000000  0.24999999  1
  Sn  Sn4  1  0.66666664  0.33333333  0.42007998  1
  Sn  Sn5  1  0.33333328  0.66666666  0.92007996  1
  Sn  Sn6  1  0.33333328  0.66666666  0.24999999  1
  Sn  Sn7  1  0.66666664  0.33333333  0.74999997  1
