# generated using pymatgen
data_Yb3Eu4Sn9
_symmetry_space_group_name_H-M   'P 1'
_cell_length_a   8.94081974
_cell_length_b   9.19877052
_cell_length_c   8.94081974
_cell_angle_alpha   60.92336273
_cell_angle_beta   90.00000000
_cell_angle_gamma   119.07663727
_symmetry_Int_Tables_number   1
_chemical_formula_structural   Yb3Eu4Sn9
_chemical_formula_sum   'Yb3 Eu4 Sn9'
_cell_volume   534.14221967
_cell_formula_units_Z   1
loop_
 _symmetry_equiv_pos_site_id
 _symmetry_equiv_pos_as_xyz
  1  'x, y, z'
loop_
 _atom_site_type_symbol
 _atom_site_label
 _atom_site_symmetry_multiplicity
 _atom_site_fract_x
 _atom_site_fract_y
 _atom_site_fract_z
 _atom_site_occupancy
  Eu  Eu0  1  0.48722001  0.68321503  0.30400501  1
  Eu  Eu1  1  0.51278001  0.31678501  0.69599502  1
  Eu  Eu2  1  0.98722003  0.68321403  0.51278002  1
  Eu  Eu3  1  0.69599402  0.68321403  0.80400603  1
  Sn  Sn4  1  0.01278000  0.31678601  0.48722001  1
  Sn  Sn5  1  0.30400601  0.31678601  0.19599401  1
  Yb  Yb6  1  0.80400602  0.31678701  0.98721903  1
  Sn  Sn7  1  0.19599400  0.68321303  0.01278100  1
  Yb  Yb8  1  0.00000000  0.00000000  0.00000000  1
  Yb  Yb9  1  0.50000001  0.00000000  0.50000001  1
  Sn  Sn10  1  0.83401302  0.00000100  0.33401201  1
  Sn  Sn11  1  0.66598702  0.00000000  0.83401302  1
  Sn  Sn12  1  0.33401301  0.00000000  0.16598700  1
  Sn  Sn13  1  0.75000002  0.50000002  0.25000001  1
  Sn  Sn14  1  0.25000001  0.50000002  0.75000002  1
  Sn  Sn15  1  0.16598700  0.99999904  0.66598802  1
