# generated using pymatgen
data_Cs5Pr(BrO3)2
_symmetry_space_group_name_H-M   'P 1'
_cell_length_a   7.41044903
_cell_length_b   7.41044903
_cell_length_c   7.44791079
_cell_angle_alpha   109.52820587
_cell_angle_beta   109.46633911
_cell_angle_gamma   109.21425629
_symmetry_Int_Tables_number   1
_chemical_formula_structural   Cs5Pr(BrO3)2
_chemical_formula_sum   'Cs5 Pr1 Br2 O6'
_cell_volume   315.64000967
_cell_formula_units_Z   1
loop_
 _symmetry_equiv_pos_site_id
 _symmetry_equiv_pos_as_xyz
  1  'x, y, z'
loop_
 _atom_site_type_symbol
 _atom_site_label
 _atom_site_symmetry_multiplicity
 _atom_site_fract_x
 _atom_site_fract_y
 _atom_site_fract_z
 _atom_site_occupancy
  Pr  Pr0  1  0.62599598  0.99969697  0.12470798  1
  Cs  Cs1  1  0.37319499  0.37319499  0.99999998  1
  Cs  Cs2  1  0.87498899  0.50128799  0.87529200  1
  Cs  Cs3  1  0.12597299  0.62597298  0.49999997  1
  Cs  Cs4  1  0.74939599  0.87319898  0.62497898  1
  Cs  Cs5  1  0.24822000  0.12441700  0.37502100  1
  O  O6  1  0.50531299  0.60436498  0.76091198  1
  O  O7  1  0.99871100  0.25359899  0.09937902  1
  O  O8  1  0.15421998  0.89933198  0.90062095  1
  Br  Br9  1  0.99764100  0.25186499  0.60872601  1
  Br  Br10  1  0.50690900  0.11517000  0.76232600  1
  O  O11  1  0.84345299  0.74440098  0.23908800  1
  O  O12  1  0.64313900  0.38891499  0.39127400  1
  O  O13  1  0.35284399  0.74458298  0.23767398  1
