# generated using pymatgen
data_YInRh
_symmetry_space_group_name_H-M   'P 1'
_cell_length_a   3.97602201
_cell_length_b   7.45246983
_cell_length_c   7.45247078
_cell_angle_alpha   120.00000000
_cell_angle_beta   90.00000000
_cell_angle_gamma   90.00000000
_symmetry_Int_Tables_number   1
_chemical_formula_structural   YInRh
_chemical_formula_sum   'Y3 In3 Rh3'
_cell_volume   191.24052144
_cell_formula_units_Z   3
loop_
 _symmetry_equiv_pos_site_id
 _symmetry_equiv_pos_as_xyz
  1  'x, y, z'
loop_
 _atom_site_type_symbol
 _atom_site_label
 _atom_site_symmetry_multiplicity
 _atom_site_fract_x
 _atom_site_fract_y
 _atom_site_fract_z
 _atom_site_occupancy
  Y  Y0  1  -0.00000000  0.41113802  0.41113801  1
  Y  Y1  1  -0.00000000  0.00000000  0.58886198  1
  Y  Y2  1  -0.00000000  0.58886203  1.00000000  1
  In  In3  1  0.50000000  0.75128704  0.75128702  1
  In  In4  1  0.50000000  0.00000000  0.24871299  1
  In  In5  1  0.50000000  0.24871301  0.99999998  1
  Rh  Rh6  1  0.50000000  0.66666670  0.33333336  1
  Rh  Rh7  1  0.50000000  0.33333335  0.66666666  1
  Rh  Rh8  1  0.00000000  0.00000000  0.00000000  1
