# generated using pymatgen
data_Ca3Cd3Pd4
_symmetry_space_group_name_H-M   'P 1'
_cell_length_a   4.43967390
_cell_length_b   7.53225994
_cell_length_c   7.53225994
_cell_angle_alpha   90.00000000
_cell_angle_beta   90.00000000
_cell_angle_gamma   90.00000000
_symmetry_Int_Tables_number   1
_chemical_formula_structural   Ca3Cd3Pd4
_chemical_formula_sum   'Ca3 Cd3 Pd4'
_cell_volume   251.88463157
_cell_formula_units_Z   1
loop_
 _symmetry_equiv_pos_site_id
 _symmetry_equiv_pos_as_xyz
  1  'x, y, z'
loop_
 _atom_site_type_symbol
 _atom_site_label
 _atom_site_symmetry_multiplicity
 _atom_site_fract_x
 _atom_site_fract_y
 _atom_site_fract_z
 _atom_site_occupancy
  Ca  Ca0  1  0.50000001  0.32120300  0.82120301  1
  Ca  Ca1  1  0.50000001  0.82120301  0.67879701  1
  Ca  Ca2  1  0.50000001  0.17879700  0.32120300  1
  Cd  Cd3  1  0.50000001  0.67879701  0.17879700  1
  Cd  Cd4  1  0.00000000  0.50000000  0.50000000  1
  Cd  Cd5  1  0.00000000  0.00000000  0.00000000  1
  Pd  Pd6  1  0.00000000  0.12053000  0.62053000  1
  Pd  Pd7  1  0.00000000  0.62053000  0.87947001  1
  Pd  Pd8  1  0.00000000  0.87947001  0.37947000  1
  Pd  Pd9  1  1.00000002  0.37947000  0.12053000  1
