# generated using pymatgen
data_UFeSi5
_symmetry_space_group_name_H-M   'P 1'
_cell_length_a   4.13172293
_cell_length_b   4.13172293
_cell_length_c   6.70070982
_cell_angle_alpha   90.00000000
_cell_angle_beta   90.00000000
_cell_angle_gamma   90.00000000
_symmetry_Int_Tables_number   1
_chemical_formula_structural   UFeSi5
_chemical_formula_sum   'U1 Fe1 Si5'
_cell_volume   114.38871755
_cell_formula_units_Z   1
loop_
 _symmetry_equiv_pos_site_id
 _symmetry_equiv_pos_as_xyz
  1  'x, y, z'
loop_
 _atom_site_type_symbol
 _atom_site_label
 _atom_site_symmetry_multiplicity
 _atom_site_fract_x
 _atom_site_fract_y
 _atom_site_fract_z
 _atom_site_occupancy
  U  U0  1  0.00000000  0.00000000  0.00000000  1
  Fe  Fe1  1  0.00000000  0.50000001  0.30582001  1
  Si  Si2  1  0.00000000  0.50000001  0.69418002  1
  Si  Si3  1  0.50000001  0.00000000  0.30582001  1
  Si  Si4  1  0.50000001  0.00000000  0.69418002  1
  Si  Si5  1  0.50000001  0.50000001  0.00000000  1
  Si  Si6  1  0.00000000  0.00000000  0.50000001  1
