# generated using pymatgen
data_Li
_symmetry_space_group_name_H-M   'P 1'
_cell_length_a   4.74624395
_cell_length_b   4.74624395
_cell_length_c   6.49631166
_cell_angle_alpha   111.42623138
_cell_angle_beta   111.42623138
_cell_angle_gamma   90.00000000
_symmetry_Int_Tables_number   1
_chemical_formula_structural   Li
_chemical_formula_sum   Li4
_cell_volume   125.29991489
_cell_formula_units_Z   4
loop_
 _symmetry_equiv_pos_site_id
 _symmetry_equiv_pos_as_xyz
  1  'x, y, z'
loop_
 _atom_site_type_symbol
 _atom_site_label
 _atom_site_symmetry_multiplicity
 _atom_site_fract_x
 _atom_site_fract_y
 _atom_site_fract_z
 _atom_site_occupancy
  Li  Li0  1  0.88274603  0.88274602  0.76549202  1
  Li  Li1  1  0.11725400  0.11725400  0.23450800  1
  Li  Li2  1  0.66319902  0.66319901  0.32639802  1
  Li  Li3  1  0.33680101  0.33680101  0.67360200  1
