# generated using pymatgen
data_YbGe2
_symmetry_space_group_name_H-M   'P 1'
_cell_length_a   4.55129290
_cell_length_b   7.09491205
_cell_length_c   7.80965519
_cell_angle_alpha   90.00000000
_cell_angle_beta   90.00000000
_cell_angle_gamma   90.00000000
_symmetry_Int_Tables_number   1
_chemical_formula_structural   YbGe2
_chemical_formula_sum   'Yb4 Ge8'
_cell_volume   252.18175396
_cell_formula_units_Z   4
loop_
 _symmetry_equiv_pos_site_id
 _symmetry_equiv_pos_as_xyz
  1  'x, y, z'
loop_
 _atom_site_type_symbol
 _atom_site_label
 _atom_site_symmetry_multiplicity
 _atom_site_fract_x
 _atom_site_fract_y
 _atom_site_fract_z
 _atom_site_occupancy
  Yb  Yb0  1  0.25000001  0.50945500  0.19837500  1
  Yb  Yb1  1  0.75000002  0.49054500  0.80162498  1
  Yb  Yb2  1  0.75000002  0.99054499  0.69837498  1
  Yb  Yb3  1  0.25000001  0.00945500  0.30162499  1
  Ge  Ge4  1  0.25000001  0.68941699  0.59183299  1
  Ge  Ge5  1  0.75000002  0.31058300  0.40816699  1
  Ge  Ge6  1  0.75000002  0.81058299  0.09183300  1
  Ge  Ge7  1  0.25000001  0.18941700  0.90816698  1
  Ge  Ge8  1  0.25000001  0.79789099  0.91816198  1
  Ge  Ge9  1  0.75000002  0.20210900  0.08183800  1
  Ge  Ge10  1  0.75000002  0.70210899  0.41816199  1
  Ge  Ge11  1  0.25000001  0.29789100  0.58183799  1
