# generated using pymatgen
data_U4Si7O5
_symmetry_space_group_name_H-M   'P 1'
_cell_length_a   4.08702707
_cell_length_b   7.51915836
_cell_length_c   8.75148106
_cell_angle_alpha   115.37959290
_cell_angle_beta   103.50350952
_cell_angle_gamma   90.00000000
_symmetry_Int_Tables_number   1
_chemical_formula_structural   U4Si7O5
_chemical_formula_sum   'U4 Si7 O5'
_cell_volume   234.73027393
_cell_formula_units_Z   1
loop_
 _symmetry_equiv_pos_site_id
 _symmetry_equiv_pos_as_xyz
  1  'x, y, z'
loop_
 _atom_site_type_symbol
 _atom_site_label
 _atom_site_symmetry_multiplicity
 _atom_site_fract_x
 _atom_site_fract_y
 _atom_site_fract_z
 _atom_site_occupancy
  U  U0  1  0.76190597  0.39879200  0.52381197  1
  U  U1  1  0.24408897  0.58948900  0.48817796  1
  U  U2  1  0.59260196  0.79004299  0.18520395  1
  U  U3  1  0.42078998  0.24375800  0.84157898  1
  Si  Si4  1  0.20939796  0.90296499  0.41879495  1
  Si  Si5  1  0.80836198  0.10518200  0.61672499  1
  Si  Si6  1  0.50101099  0.00311900  0.00202300  1
  Si  Si7  1  0.41347397  0.60254900  0.82694796  1
  Si  Si8  1  0.59726497  0.39859100  0.19452897  1
  Si  Si9  1  0.87405495  0.83682399  0.74810995  1
  Si  Si10  1  0.13175899  0.15650900  0.26351799  1
  O  O11  1  0.01874698  0.51873000  0.03749497  1
  O  O12  1  0.01368997  0.82351299  0.02738096  1
  O  O13  1  0.99255797  0.18392200  0.98511598  1
  O  O14  1  0.71907896  0.72358900  0.43815796  1
  O  O15  1  0.28721398  0.27682300  0.57442798  1
