# generated using pymatgen
data_BaLi2Ca2FeO8
_symmetry_space_group_name_H-M   'P 1'
_cell_length_a   3.94372201
_cell_length_b   3.94372201
_cell_length_c   11.78166103
_cell_angle_alpha   90.00000000
_cell_angle_beta   90.00000000
_cell_angle_gamma   90.00000000
_symmetry_Int_Tables_number   1
_chemical_formula_structural   BaLi2Ca2FeO8
_chemical_formula_sum   'Ba1 Li2 Ca2 Fe1 O8'
_cell_volume   183.23950591
_cell_formula_units_Z   1
loop_
 _symmetry_equiv_pos_site_id
 _symmetry_equiv_pos_as_xyz
  1  'x, y, z'
loop_
 _atom_site_type_symbol
 _atom_site_label
 _atom_site_symmetry_multiplicity
 _atom_site_fract_x
 _atom_site_fract_y
 _atom_site_fract_z
 _atom_site_occupancy
  Ba  Ba0  1  0.50000000  0.50000000  0.20023200  1
  Ca  Ca1  1  0.50000000  0.50000000  0.79976800  1
  Ca  Ca2  1  0.50000000  0.50000000  0.50000000  1
  Li  Li3  1  0.00000000  0.00000000  0.00000000  1
  Li  Li4  1  0.00000000  0.00000000  0.35571100  1
  Fe  Fe5  1  0.00000000  0.00000000  0.64428900  1
  O  O6  1  0.00000000  0.00000000  0.16836900  1
  O  O7  1  0.00000000  0.00000000  0.83163100  1
  O  O8  1  -0.00000000  0.50000000  0.00000000  1
  O  O9  1  0.50000000  0.00000000  0.00000000  1
  O  O10  1  -0.00000000  0.50000000  0.36741100  1
  O  O11  1  -0.00000000  0.50000000  0.63258900  1
  O  O12  1  0.50000000  0.00000000  0.36741100  1
  O  O13  1  0.50000000  0.00000000  0.63258900  1
