# generated using pymatgen
data_Li4Cu3S7
_symmetry_space_group_name_H-M   'P 1'
_cell_length_a   3.44326901
_cell_length_b   5.94757223
_cell_length_c   11.09505653
_cell_angle_alpha   91.23413086
_cell_angle_beta   89.99998474
_cell_angle_gamma   89.99998474
_symmetry_Int_Tables_number   1
_chemical_formula_structural   Li4Cu3S7
_chemical_formula_sum   'Li4 Cu3 S7'
_cell_volume   227.16396707
_cell_formula_units_Z   1
loop_
 _symmetry_equiv_pos_site_id
 _symmetry_equiv_pos_as_xyz
  1  'x, y, z'
loop_
 _atom_site_type_symbol
 _atom_site_label
 _atom_site_symmetry_multiplicity
 _atom_site_fract_x
 _atom_site_fract_y
 _atom_site_fract_z
 _atom_site_occupancy
  Li  Li0  1  -0.00000009  0.99780302  0.99982801  1
  Li  Li1  1  0.49999996  0.50308901  0.49613100  1
  Li  Li2  1  0.49999996  0.46839601  0.76126301  1
  Li  Li3  1  -0.00000009  0.98582902  0.25826600  1
  Cu  Cu4  1  -0.00000000  0.03154900  0.74261602  1
  Cu  Cu5  1  0.49999996  0.51393001  0.24277499  1
  S  S6  1  -0.00000003  0.33186901  0.88168502  1
  Cu  Cu7  1  0.49999993  0.83201901  0.37464099  1
  S  S8  1  0.49999993  0.84316201  0.86246200  1
  S  S9  1  -0.00000003  0.34122801  0.36387701  1
  S  S10  1  -0.00000006  0.65902601  0.63544701  1
  S  S11  1  0.49999999  0.15784800  0.13534299  1
  S  S12  1  0.49999999  0.16600800  0.61992200  1
  S  S13  1  -0.00000006  0.66824301  0.12574500  1
