# generated using pymatgen
data_Sr4TeO3
_symmetry_space_group_name_H-M   'P 1'
_cell_length_a   3.79546809
_cell_length_b   3.79546833
_cell_length_c   13.84994698
_cell_angle_alpha   90.00000000
_cell_angle_beta   90.00000000
_cell_angle_gamma   120.00000000
_symmetry_Int_Tables_number   1
_chemical_formula_structural   Sr4TeO3
_chemical_formula_sum   'Sr4 Te1 O3'
_cell_volume   172.78636137
_cell_formula_units_Z   1
loop_
 _symmetry_equiv_pos_site_id
 _symmetry_equiv_pos_as_xyz
  1  'x, y, z'
loop_
 _atom_site_type_symbol
 _atom_site_label
 _atom_site_symmetry_multiplicity
 _atom_site_fract_x
 _atom_site_fract_y
 _atom_site_fract_z
 _atom_site_occupancy
  Sr  Sr0  1  0.66666666  0.33333333  0.25000000  1
  Sr  Sr1  1  0.33333335  0.66666667  0.75000000  1
  Sr  Sr2  1  0.00000000  0.00000000  0.00000000  1
  Sr  Sr3  1  0.00000000  0.00000000  0.50000000  1
  Te  Te4  1  0.66666666  0.33333333  0.58504100  1
  O  O5  1  0.66666666  0.33333333  0.91495900  1
  O  O6  1  0.33333335  0.66666667  0.41495900  1
  O  O7  1  0.33333335  0.66666667  0.08504100  1
