# generated using pymatgen
data_Li3MnO4
_symmetry_space_group_name_H-M   'P 1'
_cell_length_a   4.17482996
_cell_length_b   4.17482996
_cell_length_c   5.46100569
_cell_angle_alpha   112.47250366
_cell_angle_beta   112.47250366
_cell_angle_gamma   90.00000000
_symmetry_Int_Tables_number   1
_chemical_formula_structural   Li3MnO4
_chemical_formula_sum   'Li3 Mn1 O4'
_cell_volume   80.07573461
_cell_formula_units_Z   1
loop_
 _symmetry_equiv_pos_site_id
 _symmetry_equiv_pos_as_xyz
  1  'x, y, z'
loop_
 _atom_site_type_symbol
 _atom_site_label
 _atom_site_symmetry_multiplicity
 _atom_site_fract_x
 _atom_site_fract_y
 _atom_site_fract_z
 _atom_site_occupancy
  Li  Li0  1  0.24999998  0.74999999  0.49999995  1
  Li  Li1  1  0.49999998  0.50000000  -0.00000003  1
  Li  Li2  1  0.74999999  0.25000000  0.49999995  1
  Mn  Mn3  1  0.00000000  0.00000000  0.00000000  1
  O  O4  1  0.99865998  0.49866000  0.99731992  1
  O  O5  1  0.77417697  0.77417699  0.54835393  1
  O  O6  1  0.50134000  0.00134000  0.00267999  1
  O  O7  1  0.22582299  0.22582300  0.45164597  1
