# generated using pymatgen
data_LiCe3CuO7
_symmetry_space_group_name_H-M   'P 1'
_cell_length_a   3.06914210
_cell_length_b   5.40231323
_cell_length_c   9.16992855
_cell_angle_alpha   105.15007782
_cell_angle_beta   90.00000000
_cell_angle_gamma   106.50255585
_symmetry_Int_Tables_number   1
_chemical_formula_structural   LiCe3CuO7
_chemical_formula_sum   'Li1 Ce3 Cu1 O7'
_cell_volume   140.25861669
_cell_formula_units_Z   1
loop_
 _symmetry_equiv_pos_site_id
 _symmetry_equiv_pos_as_xyz
  1  'x, y, z'
loop_
 _atom_site_type_symbol
 _atom_site_label
 _atom_site_symmetry_multiplicity
 _atom_site_fract_x
 _atom_site_fract_y
 _atom_site_fract_z
 _atom_site_occupancy
  Ce  Ce0  1  0.89067094  0.78134198  0.07996999  1
  Ce  Ce1  1  0.30151197  0.60302399  0.70041999  1
  Li  Li2  1  0.69364696  0.38729399  0.29789399  1
  Ce  Ce3  1  0.11221099  0.22442199  0.91856899  1
  Cu  Cu4  1  0.01055900  0.02111800  0.49374300  1
  O  O5  1  0.49164695  0.98329398  0.98536498  1
  O  O6  1  0.25958397  0.51916799  0.14390999  1
  O  O7  1  0.73395896  0.46791799  0.84798299  1
  O  O8  1  0.66184097  0.32368199  0.55302099  1
  O  O9  1  0.04506099  0.09012200  0.28363500  1
  O  O10  1  0.95435293  0.90870598  0.70537998  1
  O  O11  1  0.34621896  0.69243798  0.44817899  1
