# generated using pymatgen
data_Na4CuO4
_symmetry_space_group_name_H-M   'P 1'
_cell_length_a   5.99232197
_cell_length_b   7.31945658
_cell_length_c   7.31945658
_cell_angle_alpha   84.54074860
_cell_angle_beta   79.66106415
_cell_angle_gamma   79.66106415
_symmetry_Int_Tables_number   1
_chemical_formula_structural   Na4CuO4
_chemical_formula_sum   'Na8 Cu2 O8'
_cell_volume   310.03735911
_cell_formula_units_Z   2
loop_
 _symmetry_equiv_pos_site_id
 _symmetry_equiv_pos_as_xyz
  1  'x, y, z'
loop_
 _atom_site_type_symbol
 _atom_site_label
 _atom_site_symmetry_multiplicity
 _atom_site_fract_x
 _atom_site_fract_y
 _atom_site_fract_z
 _atom_site_occupancy
  Na  Na0  1  0.97393202  0.75631199  0.93428101  1
  Na  Na1  1  0.75000002  0.59479499  0.40520501  1
  Na  Na2  1  0.47393205  0.93428099  0.75631199  1
  Na  Na3  1  0.52606799  0.06571900  0.24368802  1
  Na  Na4  1  0.02606801  0.24368800  0.06571899  1
  Na  Na5  1  0.25000002  0.40520500  0.59479500  1
  Na  Na6  1  0.25000004  0.73182499  0.26817499  1
  Na  Na7  1  0.75000000  0.26817500  0.73182502  1
  Cu  Cu8  1  0.00000000  0.00000000  0.50000000  1
  Cu  Cu9  1  0.50000002  0.49999999  0.00000001  1
  O  O10  1  0.75373601  0.51946399  0.79630801  1
  O  O11  1  0.53013503  0.73491999  0.08681200  1
  O  O12  1  0.25373604  0.79630799  0.51946399  1
  O  O13  1  0.03013500  0.08681200  0.73492000  1
  O  O14  1  0.46986500  0.26508000  0.91318801  1
  O  O15  1  0.96986503  0.91318799  0.26508001  1
  O  O16  1  0.74626399  0.20369200  0.48053602  1
  O  O17  1  0.24626402  0.48053599  0.20369200  1
