# generated using pymatgen
data_Rb2Bi
_symmetry_space_group_name_H-M   'P 1'
_cell_length_a   5.68653488
_cell_length_b   8.84096336
_cell_length_c   10.75002575
_cell_angle_alpha   90.00000000
_cell_angle_beta   90.00000000
_cell_angle_gamma   90.00000000
_symmetry_Int_Tables_number   1
_chemical_formula_structural   Rb2Bi
_chemical_formula_sum   'Rb8 Bi4'
_cell_volume   540.45159499
_cell_formula_units_Z   4
loop_
 _symmetry_equiv_pos_site_id
 _symmetry_equiv_pos_as_xyz
  1  'x, y, z'
loop_
 _atom_site_type_symbol
 _atom_site_label
 _atom_site_symmetry_multiplicity
 _atom_site_fract_x
 _atom_site_fract_y
 _atom_site_fract_z
 _atom_site_occupancy
  Rb  Rb0  1  0.75000002  0.34720699  0.42142501  1
  Rb  Rb1  1  0.25000001  0.65279297  0.57857501  1
  Rb  Rb2  1  0.75000002  0.84720697  0.07857500  1
  Rb  Rb3  1  0.25000001  0.15279299  0.92142502  1
  Rb  Rb4  1  0.75000002  0.47817098  0.82214202  1
  Rb  Rb5  1  0.25000001  0.52182898  0.17785800  1
  Rb  Rb6  1  0.75000002  0.97817096  0.67785802  1
  Rb  Rb7  1  0.25000001  0.02182900  0.32214201  1
  Bi  Bi8  1  0.75000002  0.25242499  0.10445900  1
  Bi  Bi9  1  0.25000001  0.74757497  0.89554102  1
  Bi  Bi10  1  0.75000002  0.75242497  0.39554101  1
  Bi  Bi11  1  0.25000001  0.24757499  0.60445901  1
