# generated using pymatgen
data_Ce4Ge12Rh
_symmetry_space_group_name_H-M   'P 1'
_cell_length_a   7.44574165
_cell_length_b   7.44574165
_cell_length_c   7.44574165
_cell_angle_alpha   109.47122192
_cell_angle_beta   109.47122192
_cell_angle_gamma   109.47122192
_symmetry_Int_Tables_number   1
_chemical_formula_structural   Ce4Ge12Rh
_chemical_formula_sum   'Ce4 Ge12 Rh1'
_cell_volume   317.76201334
_cell_formula_units_Z   1
loop_
 _symmetry_equiv_pos_site_id
 _symmetry_equiv_pos_as_xyz
  1  'x, y, z'
loop_
 _atom_site_type_symbol
 _atom_site_label
 _atom_site_symmetry_multiplicity
 _atom_site_fract_x
 _atom_site_fract_y
 _atom_site_fract_z
 _atom_site_occupancy
  Ce  Ce0  1  0.50000004  0.50000003  0.50000005  1
  Ce  Ce1  1  1.00000005  0.50000003  0.00000005  1
  Ce  Ce2  1  0.00000000  0.00000000  0.50000001  1
  Ce  Ce3  1  0.50000001  0.00000000  0.00000001  1
  Ge  Ge4  1  0.50000006  0.75000004  0.25000006  1
  Ge  Ge5  1  0.75000003  0.25000001  0.50000004  1
  Ge  Ge6  1  0.25000004  0.50000003  0.75000004  1
  Ge  Ge7  1  0.25000005  0.75000004  0.50000005  1
  Ge  Ge8  1  0.50000003  0.25000001  0.75000003  1
  Ge  Ge9  1  0.75000005  0.50000003  0.25000005  1
  Ge  Ge10  1  1.00000007  0.71836504  0.71836507  1
  Ge  Ge11  1  0.71836506  0.71836504  0.00000006  1
  Ge  Ge12  1  0.71836501  0.00000000  0.71836503  1
  Ge  Ge13  1  1.00000004  0.28163501  0.28163504  1
  Ge  Ge14  1  0.28163502  0.28163501  0.00000002  1
  Ge  Ge15  1  0.28163501  0.00000000  0.28163501  1
  Rh  Rh16  1  0.00000000  0.00000000  0.00000000  1
