# generated using pymatgen
data_BeO2
_symmetry_space_group_name_H-M   'P 1'
_cell_length_a   3.07270408
_cell_length_b   5.51042223
_cell_length_c   5.51042223
_cell_angle_alpha   72.75702667
_cell_angle_beta   73.81089783
_cell_angle_gamma   73.81089783
_symmetry_Int_Tables_number   1
_chemical_formula_structural   BeO2
_chemical_formula_sum   'Be3 O6'
_cell_volume   83.59500671
_cell_formula_units_Z   3
loop_
 _symmetry_equiv_pos_site_id
 _symmetry_equiv_pos_as_xyz
  1  'x, y, z'
loop_
 _atom_site_type_symbol
 _atom_site_label
 _atom_site_symmetry_multiplicity
 _atom_site_fract_x
 _atom_site_fract_y
 _atom_site_fract_z
 _atom_site_occupancy
  Be  Be0  1  0.00000000  0.00000000  0.00000000  1
  Be  Be1  1  0.15441597  0.34558400  0.34558401  1
  Be  Be2  1  0.84558393  0.65441500  0.65441601  1
  O  O3  1  0.30363791  0.93369400  0.45903004  1
  O  O4  1  0.69636199  0.06630600  0.54096998  1
  O  O5  1  0.69636094  0.54097000  0.06630701  1
  O  O6  1  0.50000096  0.35759500  0.64240400  1
  O  O7  1  0.49999994  0.64240500  0.35759502  1
  O  O8  1  0.30363895  0.45903000  0.93369301  1
