# generated using pymatgen
data_NaNb5O11
_symmetry_space_group_name_H-M   'P 1'
_cell_length_a   5.58842230
_cell_length_b   5.58842230
_cell_length_c   7.94300604
_cell_angle_alpha   90.00000000
_cell_angle_beta   90.00000000
_cell_angle_gamma   89.94939423
_symmetry_Int_Tables_number   1
_chemical_formula_structural   NaNb5O11
_chemical_formula_sum   'Na1 Nb5 O11'
_cell_volume   248.06366568
_cell_formula_units_Z   1
loop_
 _symmetry_equiv_pos_site_id
 _symmetry_equiv_pos_as_xyz
  1  'x, y, z'
loop_
 _atom_site_type_symbol
 _atom_site_label
 _atom_site_symmetry_multiplicity
 _atom_site_fract_x
 _atom_site_fract_y
 _atom_site_fract_z
 _atom_site_occupancy
  Na  Na0  1  0.71347398  0.71347401  1.00000000  1
  Nb  Nb1  1  0.24209696  0.74760901  0.25725300  1
  Nb  Nb2  1  0.74760900  0.24209700  0.25725300  1
  Nb  Nb3  1  0.24209696  0.74760901  0.74274700  1
  Nb  Nb4  1  0.74760900  0.24209700  0.74274700  1
  Nb  Nb5  1  0.99816697  0.99816702  0.23619300  1
  O  O6  1  0.99816697  0.99816702  0.76380700  1
  O  O7  1  0.98892199  0.51396601  0.22834500  1
  O  O8  1  0.51396596  0.98892202  0.77165500  1
  O  O9  1  0.98892199  0.51396601  0.77165500  1
  O  O10  1  0.51396596  0.98892202  0.22834500  1
  O  O11  1  0.27026697  0.75212602  -0.00000000  1
  O  O12  1  0.75212600  0.27026701  -0.00000000  1
  O  O13  1  0.26054497  0.74049101  0.50000000  1
  O  O14  1  0.74049100  0.26054501  0.50000000  1
  O  O15  1  0.51323698  0.51323701  0.22646700  1
  O  O16  1  0.51323698  0.51323701  0.77353300  1
