# generated using pymatgen
data_MgAl7Fe5
_symmetry_space_group_name_H-M   'P 1'
_cell_length_a   5.06293011
_cell_length_b   6.62483740
_cell_length_c   6.62483740
_cell_angle_alpha   80.86197662
_cell_angle_beta   67.53510284
_cell_angle_gamma   67.53510284
_symmetry_Int_Tables_number   1
_chemical_formula_structural   MgAl7Fe5
_chemical_formula_sum   'Mg1 Al7 Fe5'
_cell_volume   189.73808676
_cell_formula_units_Z   1
loop_
 _symmetry_equiv_pos_site_id
 _symmetry_equiv_pos_as_xyz
  1  'x, y, z'
loop_
 _atom_site_type_symbol
 _atom_site_label
 _atom_site_symmetry_multiplicity
 _atom_site_fract_x
 _atom_site_fract_y
 _atom_site_fract_z
 _atom_site_occupancy
  Mg  Mg0  1  0.00000000  0.00000000  0.00000000  1
  Al  Al1  1  0.35024198  0.64975800  0.64975795  1
  Al  Al2  1  0.64975799  0.35024200  0.35024196  1
  Al  Al3  1  -0.00000001  0.65383000  0.34616997  1
  Al  Al4  1  -0.00000001  0.34617000  0.65382998  1
  Al  Al5  1  0.29387899  0.20612100  0.20612098  1
  Al  Al6  1  0.70612098  0.79387900  0.79387894  1
  Al  Al7  1  0.50000000  0.00000000  0.49999998  1
  Fe  Fe8  1  0.99999999  0.00000000  0.49999997  1
  Fe  Fe9  1  0.49999999  0.50000000  -0.00000003  1
  Fe  Fe10  1  0.99999998  0.50000000  0.99999994  1
  Fe  Fe11  1  0.49999999  0.22610300  0.77389697  1
  Fe  Fe12  1  0.49999998  0.77389700  0.22610295  1
