# generated using pymatgen
data_V2WO5
_symmetry_space_group_name_H-M   'P 1'
_cell_length_a   5.54874182
_cell_length_b   5.54874182
_cell_length_c   5.71605349
_cell_angle_alpha   60.96363068
_cell_angle_beta   60.96363068
_cell_angle_gamma   60.00000381
_symmetry_Int_Tables_number   1
_chemical_formula_structural   V2WO5
_chemical_formula_sum   'V2 W1 O5'
_cell_volume   126.22480899
_cell_formula_units_Z   1
loop_
 _symmetry_equiv_pos_site_id
 _symmetry_equiv_pos_as_xyz
  1  'x, y, z'
loop_
 _atom_site_type_symbol
 _atom_site_label
 _atom_site_symmetry_multiplicity
 _atom_site_fract_x
 _atom_site_fract_y
 _atom_site_fract_z
 _atom_site_occupancy
  V  V0  1  0.49999999  0.49999999  0.50000005  1
  V  V1  1  0.00000000  0.00000000  0.00000000  1
  O  O2  1  0.84177398  0.65841698  0.25133806  1
  W  W3  1  0.24847100  0.84177398  0.25133805  1
  O  O4  1  0.34158299  0.75152898  0.74866206  1
  O  O5  1  0.75152898  0.15822600  0.74866206  1
  O  O6  1  0.15822600  0.34158299  0.74866204  1
  O  O7  1  0.65841699  0.24847099  0.25133804  1
