# generated using pymatgen
data_PrIn
_symmetry_space_group_name_H-M   'P 1'
_cell_length_a   4.68509197
_cell_length_b   4.68509197
_cell_length_c   6.35094166
_cell_angle_alpha   111.64472198
_cell_angle_beta   111.64472198
_cell_angle_gamma   90.00000000
_symmetry_Int_Tables_number   1
_chemical_formula_structural   PrIn
_chemical_formula_sum   'Pr2 In2'
_cell_volume   118.93507637
_cell_formula_units_Z   2
loop_
 _symmetry_equiv_pos_site_id
 _symmetry_equiv_pos_as_xyz
  1  'x, y, z'
loop_
 _atom_site_type_symbol
 _atom_site_label
 _atom_site_symmetry_multiplicity
 _atom_site_fract_x
 _atom_site_fract_y
 _atom_site_fract_z
 _atom_site_occupancy
  Pr  Pr0  1  0.00000000  0.00000000  0.00000000  1
  Pr  Pr1  1  0.75000000  0.25000000  0.49999999  1
  In  In2  1  0.24999999  0.75000000  0.49999999  1
  In  In3  1  0.49999999  0.50000000  -0.00000001  1
