# generated using pymatgen
data_Li3Mn4O7
_symmetry_space_group_name_H-M   'P 1'
_cell_length_a   3.09547758
_cell_length_b   3.09547758
_cell_length_c   17.79981422
_cell_angle_alpha   85.01168060
_cell_angle_beta   85.01168060
_cell_angle_gamma   60.00001144
_symmetry_Int_Tables_number   1
_chemical_formula_structural   Li3Mn4O7
_chemical_formula_sum   'Li3 Mn4 O7'
_cell_volume   146.96073085
_cell_formula_units_Z   1
loop_
 _symmetry_equiv_pos_site_id
 _symmetry_equiv_pos_as_xyz
  1  'x, y, z'
loop_
 _atom_site_type_symbol
 _atom_site_label
 _atom_site_symmetry_multiplicity
 _atom_site_fract_x
 _atom_site_fract_y
 _atom_site_fract_z
 _atom_site_occupancy
  Li  Li0  1  0.80952597  0.80952597  0.57142202  1
  Li  Li1  1  0.71422697  0.71422697  0.85731904  1
  Li  Li2  1  0.57142398  0.57142398  0.28572801  1
  Mn  Mn3  1  0.42854898  0.42854898  0.71435303  1
  Mn  Mn4  1  0.28573399  0.28573399  0.14279801  1
  Mn  Mn5  1  0.19043499  0.19043499  0.42869502  1
  Mn  Mn6  1  0.99998196  0.99998196  0.00005400  1
  O  O7  1  0.84524497  0.84524497  0.46426502  1
  O  O8  1  0.74994397  0.74994397  0.75016803  1
  O  O9  1  0.60724498  0.60724498  0.17826501  1
  O  O10  1  0.46437098  0.46437098  0.60688703  1
  O  O11  1  0.32145199  0.32145199  0.03564400  1
  O  O12  1  0.22615099  0.22615099  0.32154701  1
  O  O13  1  0.03571200  0.03571200  0.89286404  1
