# generated using pymatgen
data_Yb2MgGa2
_symmetry_space_group_name_H-M   'P 1'
_cell_length_a   3.94486094
_cell_length_b   7.81035614
_cell_length_c   7.81035614
_cell_angle_alpha   90.00000000
_cell_angle_beta   90.00000000
_cell_angle_gamma   90.00000000
_symmetry_Int_Tables_number   1
_chemical_formula_structural   Yb2MgGa2
_chemical_formula_sum   'Yb4 Mg2 Ga4'
_cell_volume   240.64307749
_cell_formula_units_Z   2
loop_
 _symmetry_equiv_pos_site_id
 _symmetry_equiv_pos_as_xyz
  1  'x, y, z'
loop_
 _atom_site_type_symbol
 _atom_site_label
 _atom_site_symmetry_multiplicity
 _atom_site_fract_x
 _atom_site_fract_y
 _atom_site_fract_z
 _atom_site_occupancy
  Yb  Yb0  1  0.50000001  0.83518899  0.66481099  1
  Yb  Yb1  1  0.50000001  0.33518899  0.83518899  1
  Yb  Yb2  1  0.50000001  0.16481100  0.33518899  1
  Yb  Yb3  1  0.50000001  0.66481099  0.16481100  1
  Mg  Mg4  1  0.00000000  0.49999999  0.49999999  1
  Mg  Mg5  1  0.00000000  0.00000000  0.00000000  1
  Ga  Ga6  1  0.00000000  0.13248000  0.63247999  1
  Ga  Ga7  1  0.00000000  0.63247999  0.86751998  1
  Ga  Ga8  1  -0.00000000  0.36751999  0.13248000  1
  Ga  Ga9  1  0.00000000  0.86751998  0.36751999  1
