# generated using pymatgen
data_Y5Sn3
_symmetry_space_group_name_H-M   'P 1'
_cell_length_a   6.25990820
_cell_length_b   9.02272320
_cell_length_c   9.02359676
_cell_angle_alpha   119.99680328
_cell_angle_beta   90.00000000
_cell_angle_gamma   90.00000000
_symmetry_Int_Tables_number   1
_chemical_formula_structural   Y5Sn3
_chemical_formula_sum   'Y10 Sn6'
_cell_volume   441.39753015
_cell_formula_units_Z   2
loop_
 _symmetry_equiv_pos_site_id
 _symmetry_equiv_pos_as_xyz
  1  'x, y, z'
loop_
 _atom_site_type_symbol
 _atom_site_label
 _atom_site_symmetry_multiplicity
 _atom_site_fract_x
 _atom_site_fract_y
 _atom_site_fract_z
 _atom_site_occupancy
  Y  Y0  1  0.49999998  0.33333334  0.66666667  1
  Y  Y1  1  0.49999998  0.66666667  0.33333333  1
  Y  Y2  1  0.00000000  0.66666667  0.33333333  1
  Y  Y3  1  0.00000000  0.33333334  0.66666667  1
  Y  Y4  1  0.74999698  0.24616000  -0.00000000  1
  Y  Y5  1  0.75000198  0.75380001  0.75378100  1
  Y  Y6  1  0.75000198  0.00001900  0.24621900  1
  Y  Y7  1  0.24999699  0.75384001  -0.00000001  1
  Y  Y8  1  0.25000199  0.24620000  0.24621900  1
  Y  Y9  1  0.25000199  0.99998101  0.75378099  1
  Sn  Sn10  1  0.74999698  0.61207801  -0.00000001  1
  Sn  Sn11  1  0.75000198  0.38793200  0.38794300  1
  Sn  Sn12  1  0.75000198  0.99998901  0.61205699  1
  Sn  Sn13  1  0.24999699  0.38792200  -0.00000000  1
  Sn  Sn14  1  0.25000199  0.61206801  0.61205700  1
  Sn  Sn15  1  0.25000199  0.00001100  0.38794300  1
