# generated using pymatgen
data_YbInSn
_symmetry_space_group_name_H-M   'P 1'
_cell_length_a   4.74043417
_cell_length_b   7.66071415
_cell_length_c   7.66071415
_cell_angle_alpha   120.00000000
_cell_angle_beta   90.00000000
_cell_angle_gamma   90.00000000
_symmetry_Int_Tables_number   1
_chemical_formula_structural   YbInSn
_chemical_formula_sum   'Yb3 In3 Sn3'
_cell_volume   240.92799505
_cell_formula_units_Z   3
loop_
 _symmetry_equiv_pos_site_id
 _symmetry_equiv_pos_as_xyz
  1  'x, y, z'
loop_
 _atom_site_type_symbol
 _atom_site_label
 _atom_site_symmetry_multiplicity
 _atom_site_fract_x
 _atom_site_fract_y
 _atom_site_fract_z
 _atom_site_occupancy
  Yb  Yb0  1  0.00000000  0.00000000  0.56827299  1
  Yb  Yb1  1  -0.00000000  0.56827299  0.00000000  1
  Yb  Yb2  1  -0.00000000  0.43172699  0.43172700  1
  In  In3  1  0.49999998  0.24223600  0.00000000  1
  In  In4  1  0.49999998  0.75776399  0.75776399  1
  In  In5  1  0.49999998  0.00000000  0.24223600  1
  Sn  Sn6  1  0.49999998  0.33333333  0.66666666  1
  Sn  Sn7  1  0.00000000  0.00000000  0.00000000  1
  Sn  Sn8  1  0.49999998  0.66666666  0.33333333  1
