# generated using pymatgen
data_Lu2GaSi4
_symmetry_space_group_name_H-M   'P 1'
_cell_length_a   3.79489303
_cell_length_b   3.81999612
_cell_length_c   16.68011284
_cell_angle_alpha   83.42478180
_cell_angle_beta   90.00000000
_cell_angle_gamma   90.00000000
_symmetry_Int_Tables_number   1
_chemical_formula_structural   Lu2GaSi4
_chemical_formula_sum   'Lu4 Ga2 Si8'
_cell_volume   240.21237999
_cell_formula_units_Z   2
loop_
 _symmetry_equiv_pos_site_id
 _symmetry_equiv_pos_as_xyz
  1  'x, y, z'
loop_
 _atom_site_type_symbol
 _atom_site_label
 _atom_site_symmetry_multiplicity
 _atom_site_fract_x
 _atom_site_fract_y
 _atom_site_fract_z
 _atom_site_occupancy
  Lu  Lu0  1  0.74999999  0.32225399  0.35549201  1
  Lu  Lu1  1  0.25000000  0.67774598  0.64450802  1
  Lu  Lu2  1  0.74999999  0.04734400  0.90531203  1
  Lu  Lu3  1  0.25000000  0.95265597  0.09468801  1
  Si  Si4  1  0.25000000  0.25010699  0.49978602  1
  Ga  Ga5  1  0.74999999  0.74989298  0.50021402  1
  Si  Si6  1  0.74999999  0.88673497  0.22653001  1
  Ga  Ga7  1  0.25000000  0.11326500  0.77347003  1
  Si  Si8  1  0.74999999  0.20139999  0.59720002  1
  Si  Si9  1  0.25000000  0.79859997  0.40280002  1
  Si  Si10  1  0.25000000  0.52789198  0.94421603  1
  Si  Si11  1  0.74999999  0.47210798  0.05578400  1
  Si  Si12  1  0.25000000  0.38705799  0.22588401  1
  Si  Si13  1  0.74999999  0.61294198  0.77411603  1
