# generated using pymatgen
data_Ca2Mg
_symmetry_space_group_name_H-M   'P 1'
_cell_length_a   3.73227000
_cell_length_b   7.03946209
_cell_length_c   7.49433517
_cell_angle_alpha   105.29283142
_cell_angle_beta   90.00000000
_cell_angle_gamma   105.37267303
_symmetry_Int_Tables_number   1
_chemical_formula_structural   Ca2Mg
_chemical_formula_sum   'Ca4 Mg2'
_cell_volume   182.61435925
_cell_formula_units_Z   2
loop_
 _symmetry_equiv_pos_site_id
 _symmetry_equiv_pos_as_xyz
  1  'x, y, z'
loop_
 _atom_site_type_symbol
 _atom_site_label
 _atom_site_symmetry_multiplicity
 _atom_site_fract_x
 _atom_site_fract_y
 _atom_site_fract_z
 _atom_site_occupancy
  Ca  Ca0  1  0.15293601  0.30587201  0.57129001  1
  Ca  Ca1  1  0.84706403  0.69412802  0.42871003  1
  Ca  Ca2  1  0.16380402  0.32760801  0.08721802  1
  Ca  Ca3  1  0.83619603  0.67239202  0.91278203  1
  Mg  Mg4  1  0.50379900  0.00759800  0.76387099  1
  Mg  Mg5  1  0.49620105  0.99240204  0.23612905  1
