# generated using pymatgen
data_Pr3SiO6
_symmetry_space_group_name_H-M   'P 1'
_cell_length_a   5.64469719
_cell_length_b   7.55731297
_cell_length_c   7.55731297
_cell_angle_alpha   102.88919067
_cell_angle_beta   90.00000000
_cell_angle_gamma   90.00000000
_symmetry_Int_Tables_number   1
_chemical_formula_structural   Pr3SiO6
_chemical_formula_sum   'Pr6 Si2 O12'
_cell_volume   314.26242176
_cell_formula_units_Z   2
loop_
 _symmetry_equiv_pos_site_id
 _symmetry_equiv_pos_as_xyz
  1  'x, y, z'
loop_
 _atom_site_type_symbol
 _atom_site_label
 _atom_site_symmetry_multiplicity
 _atom_site_fract_x
 _atom_site_fract_y
 _atom_site_fract_z
 _atom_site_occupancy
  Pr  Pr0  1  0.53219598  0.30092701  0.08513299  1
  Pr  Pr1  1  0.03219600  0.08513300  0.30092701  1
  Pr  Pr2  1  0.57118598  0.39503501  0.60496501  1
  Pr  Pr3  1  0.07118600  0.60496501  0.39503499  1
  Pr  Pr4  1  0.53219598  0.91486702  0.69907299  1
  Pr  Pr5  1  0.03219600  0.69907302  0.91486701  1
  Si  Si6  1  0.99089597  0.19466900  0.80533102  1
  Si  Si7  1  0.49089598  0.80533102  0.19466898  1
  O  O8  1  0.79915497  0.35323301  0.32684600  1
  O  O9  1  0.29915499  0.32684601  0.35323300  1
  O  O10  1  0.33878199  0.59249901  0.11408899  1
  O  O11  1  0.83878197  0.11408900  0.59249902  1
  O  O12  1  0.87840497  0.05264400  0.94735603  1
  O  O13  1  0.30529799  0.21291201  0.78708802  1
  O  O14  1  0.80529797  0.78708802  0.21291198  1
  O  O15  1  0.37840499  0.94735602  0.05264397  1
  O  O16  1  0.83878197  0.40750101  0.88591102  1
  O  O17  1  0.33878199  0.88591102  0.40750099  1
  O  O18  1  0.79915497  0.67315402  0.64676700  1
  O  O19  1  0.29915499  0.64676702  0.67315400  1
