# generated using pymatgen
data_Li4ReO7
_symmetry_space_group_name_H-M   'P 1'
_cell_length_a   5.06676197
_cell_length_b   5.72255611
_cell_length_c   5.24400187
_cell_angle_alpha   90.00000000
_cell_angle_beta   84.87229919
_cell_angle_gamma   90.00000000
_symmetry_Int_Tables_number   1
_chemical_formula_structural   Li4ReO7
_chemical_formula_sum   'Li4 Re1 O7'
_cell_volume   151.44043677
_cell_formula_units_Z   1
loop_
 _symmetry_equiv_pos_site_id
 _symmetry_equiv_pos_as_xyz
  1  'x, y, z'
loop_
 _atom_site_type_symbol
 _atom_site_label
 _atom_site_symmetry_multiplicity
 _atom_site_fract_x
 _atom_site_fract_y
 _atom_site_fract_z
 _atom_site_occupancy
  Li  Li0  1  0.50000000  0.69815299  0.24999998  1
  Li  Li1  1  0.50000000  0.30184699  0.74999996  1
  Li  Li2  1  0.00000000  0.17535300  0.24999999  1
  Li  Li3  1  0.00000000  0.82464698  0.74999997  1
  O  O4  1  0.78160201  0.90610598  0.45843797  1
  Re  Re5  1  0.78160201  0.09389400  0.95843795  1
  O  O6  1  0.73363401  0.39268599  0.38710397  1
  O  O7  1  0.73363401  0.60731399  0.88710395  1
  O  O8  1  0.26636600  0.39268599  0.11289599  1
  O  O9  1  0.26636600  0.60731399  0.61289597  1
  O  O10  1  0.21839800  0.90610598  0.04156200  1
  O  O11  1  0.21839800  0.09389400  0.54156197  1
