# generated using pymatgen
data_SrPb2
_symmetry_space_group_name_H-M   'P 1'
_cell_length_a   5.17641020
_cell_length_b   5.17641020
_cell_length_c   8.01546383
_cell_angle_alpha   90.00000000
_cell_angle_beta   90.00000000
_cell_angle_gamma   90.00000000
_symmetry_Int_Tables_number   1
_chemical_formula_structural   SrPb2
_chemical_formula_sum   'Sr2 Pb4'
_cell_volume   214.77613706
_cell_formula_units_Z   2
loop_
 _symmetry_equiv_pos_site_id
 _symmetry_equiv_pos_as_xyz
  1  'x, y, z'
loop_
 _atom_site_type_symbol
 _atom_site_label
 _atom_site_symmetry_multiplicity
 _atom_site_fract_x
 _atom_site_fract_y
 _atom_site_fract_z
 _atom_site_occupancy
  Sr  Sr0  1  0.00000000  0.49999998  0.37297201  1
  Sr  Sr1  1  0.49999998  0.00000000  0.62702801  1
  Pb  Pb2  1  0.49999998  0.49999998  0.00000000  1
  Pb  Pb3  1  0.00000000  0.00000000  0.00000000  1
  Pb  Pb4  1  0.49999998  0.00000000  0.18510800  1
  Pb  Pb5  1  0.00000000  0.49999998  0.81489202  1
