# generated using pymatgen
data_Li3CoO4
_symmetry_space_group_name_H-M   'P 1'
_cell_length_a   5.89899635
_cell_length_b   5.90493774
_cell_length_c   5.91297770
_cell_angle_alpha   119.88880920
_cell_angle_beta   90.16468048
_cell_angle_gamma   119.77165222
_symmetry_Int_Tables_number   1
_chemical_formula_structural   Li3CoO4
_chemical_formula_sum   'Li6 Co2 O8'
_cell_volume   146.17801339
_cell_formula_units_Z   2
loop_
 _symmetry_equiv_pos_site_id
 _symmetry_equiv_pos_as_xyz
  1  'x, y, z'
loop_
 _atom_site_type_symbol
 _atom_site_label
 _atom_site_symmetry_multiplicity
 _atom_site_fract_x
 _atom_site_fract_y
 _atom_site_fract_z
 _atom_site_occupancy
  Li  Li0  1  0.50460098  0.00009500  0.49816998  1
  Li  Li1  1  0.00400499  0.99731999  0.49654705  1
  Li  Li2  1  0.00259899  0.49930799  0.49774602  1
  Li  Li3  1  0.00208399  0.49816399  0.99633501  1
  Li  Li4  1  0.50219197  0.99927599  0.99795203  1
  Li  Li5  1  0.00211999  0.99926299  0.99780004  1
  Co  Co6  1  0.50222498  0.49936799  0.49785501  1
  Co  Co7  1  0.50231398  0.49933599  0.99790700  1
  O  O8  1  0.25998999  0.01375600  0.24006199  1
  O  O9  1  0.74549396  0.98436099  0.22564104  1
  O  O10  1  0.25906099  0.01431200  0.77016898  1
  O  O11  1  0.74440396  0.98496999  0.75578803  1
  O  O12  1  0.73352597  0.48098499  0.23830901  1
  O  O13  1  0.26229599  0.48275299  0.24048902  1
  O  O14  1  0.74238897  0.51592399  0.75520900  1
  O  O15  1  0.27117998  0.51779299  0.75753801  1
