# generated using pymatgen
data_LiAl4
_symmetry_space_group_name_H-M   'P 1'
_cell_length_a   3.34102893
_cell_length_b   3.34102893
_cell_length_c   14.92032623
_cell_angle_alpha   90.00000000
_cell_angle_beta   90.00000000
_cell_angle_gamma   90.00000000
_symmetry_Int_Tables_number   1
_chemical_formula_structural   LiAl4
_chemical_formula_sum   'Li2 Al8'
_cell_volume   166.54775816
_cell_formula_units_Z   2
loop_
 _symmetry_equiv_pos_site_id
 _symmetry_equiv_pos_as_xyz
  1  'x, y, z'
loop_
 _atom_site_type_symbol
 _atom_site_label
 _atom_site_symmetry_multiplicity
 _atom_site_fract_x
 _atom_site_fract_y
 _atom_site_fract_z
 _atom_site_occupancy
  Li  Li0  1  0.50000001  0.50000001  0.10761500  1
  Li  Li1  1  0.50000001  0.50000001  0.30014800  1
  Al  Al2  1  0.50000001  0.50000001  0.49999999  1
  Al  Al3  1  0.50000001  0.50000001  0.69985199  1
  Al  Al4  1  0.50000001  0.50000001  0.89238499  1
  Al  Al5  1  0.00000000  0.00000000  0.00000000  1
  Al  Al6  1  0.00000000  0.00000000  0.20105700  1
  Al  Al7  1  0.00000000  0.00000000  0.40037399  1
  Al  Al8  1  0.00000000  0.00000000  0.59962599  1
  Al  Al9  1  0.00000000  0.00000000  0.79894299  1
