# generated using pymatgen
data_LiCa5In2O12
_symmetry_space_group_name_H-M   'P 1'
_cell_length_a   5.61209202
_cell_length_b   5.61230516
_cell_length_c   9.85447311
_cell_angle_alpha   73.45251465
_cell_angle_beta   89.99706268
_cell_angle_gamma   59.99838257
_symmetry_Int_Tables_number   1
_chemical_formula_structural   LiCa5In2O12
_chemical_formula_sum   'Li1 Ca5 In2 O12'
_cell_volume   253.84666190
_cell_formula_units_Z   1
loop_
 _symmetry_equiv_pos_site_id
 _symmetry_equiv_pos_as_xyz
  1  'x, y, z'
loop_
 _atom_site_type_symbol
 _atom_site_label
 _atom_site_symmetry_multiplicity
 _atom_site_fract_x
 _atom_site_fract_y
 _atom_site_fract_z
 _atom_site_occupancy
  Ca  Ca0  1  0.88711096  0.22584701  0.66125800  1
  Ca  Ca1  1  0.38763898  0.22471101  0.16293900  1
  Ca  Ca2  1  0.13480297  0.73044204  0.40437197  1
  Ca  Ca3  1  0.63518795  0.72969404  0.90548197  1
  Ca  Ca4  1  0.74584795  0.50813802  0.23775200  1
  Li  Li5  1  0.24592397  0.50802402  0.73791697  1
  In  In6  1  0.99724296  0.00546100  0.99174299  1
  In  In7  1  0.49751998  0.00487300  0.49259000  1
  O  O8  1  0.45240795  0.94741705  0.05405699  1
  O  O9  1  0.95049693  0.94626405  0.55494099  1
  O  O10  1  0.00146398  0.54615903  0.05403499  1
  O  O11  1  0.50119496  0.54836803  0.55492398  1
  O  O12  1  0.60021796  0.39833602  0.05405101  1
  O  O13  1  0.10332898  0.39551702  0.55493998  1
  O  O14  1  0.20317999  0.04759200  0.30280099  1
  O  O15  1  0.70500997  0.04508800  0.80285099  1
  O  O16  1  0.35035497  0.44645402  0.30279799  1
  O  O17  1  0.84789995  0.44709802  0.80284099  1
  O  O18  1  0.74923394  0.90037704  0.30283599  1
  O  O19  1  0.24993296  0.90214404  0.80287096  1
