# generated using pymatgen
data_Dy2ErAl9
_symmetry_space_group_name_H-M   'P 1'
_cell_length_a   6.11995173
_cell_length_b   6.11995173
_cell_length_c   7.98779726
_cell_angle_alpha   67.47531891
_cell_angle_beta   67.47531891
_cell_angle_gamma   60.00000000
_symmetry_Int_Tables_number   1
_chemical_formula_structural   Dy2ErAl9
_chemical_formula_sum   'Dy2 Er1 Al9'
_cell_volume   232.36526578
_cell_formula_units_Z   1
loop_
 _symmetry_equiv_pos_site_id
 _symmetry_equiv_pos_as_xyz
  1  'x, y, z'
loop_
 _atom_site_type_symbol
 _atom_site_label
 _atom_site_symmetry_multiplicity
 _atom_site_fract_x
 _atom_site_fract_y
 _atom_site_fract_z
 _atom_site_occupancy
  Er  Er0  1  0.00000000  0.00000000  0.00000000  1
  Dy  Dy1  1  0.21909902  0.21909901  0.34270297  1
  Dy  Dy2  1  0.78090106  0.78090104  0.65729691  1
  Al  Al3  1  0.50000004  0.50000003  -0.00000005  1
  Al  Al4  1  0.00000001  0.50000003  -0.00000002  1
  Al  Al5  1  0.50000003  0.00000000  -0.00000002  1
  Al  Al6  1  0.28942303  0.75331004  0.66784394  1
  Al  Al7  1  0.28942302  0.28942301  0.66784396  1
  Al  Al8  1  0.75331005  0.28942301  0.66784394  1
  Al  Al9  1  0.24669003  0.71057704  0.33215595  1
  Al  Al10  1  0.71057705  0.24669001  0.33215595  1
  Al  Al11  1  0.71057705  0.71057704  0.33215593  1
