# generated using pymatgen
data_Li3HfSiN4
_symmetry_space_group_name_H-M   'P 1'
_cell_length_a   3.62695909
_cell_length_b   6.03774214
_cell_length_c   6.03774118
_cell_angle_alpha   120.00000763
_cell_angle_beta   90.00000000
_cell_angle_gamma   90.00000000
_symmetry_Int_Tables_number   1
_chemical_formula_structural   Li3HfSiN4
_chemical_formula_sum   'Li3 Hf1 Si1 N4'
_cell_volume   114.50443505
_cell_formula_units_Z   1
loop_
 _symmetry_equiv_pos_site_id
 _symmetry_equiv_pos_as_xyz
  1  'x, y, z'
loop_
 _atom_site_type_symbol
 _atom_site_label
 _atom_site_symmetry_multiplicity
 _atom_site_fract_x
 _atom_site_fract_y
 _atom_site_fract_z
 _atom_site_occupancy
  Hf  Hf0  1  -0.00000000  0.25447600  0.00000002  1
  Li  Li1  1  -0.00000000  0.74552401  0.74552404  1
  Li  Li2  1  0.99999998  0.00000000  0.25447600  1
  Li  Li3  1  -0.00000000  0.33333334  0.66666669  1
  N  N4  1  -0.00000000  0.66666667  0.33333337  1
  Si  Si5  1  0.49999999  0.00000000  -0.00000000  1
  N  N6  1  0.49999999  0.59584000  1.00000003  1
  N  N7  1  0.49999999  0.40416000  0.40416002  1
  N  N8  1  0.49999999  0.00000000  0.59584000  1
