# generated using pymatgen
data_LiCO3
_symmetry_space_group_name_H-M   'P 1'
_cell_length_a   3.30171990
_cell_length_b   3.31057000
_cell_length_c   4.64823627
_cell_angle_alpha   94.60824585
_cell_angle_beta   90.00000000
_cell_angle_gamma   119.91160583
_symmetry_Int_Tables_number   1
_chemical_formula_structural   LiCO3
_chemical_formula_sum   'Li1 C1 O3'
_cell_volume   43.85048004
_cell_formula_units_Z   1
loop_
 _symmetry_equiv_pos_site_id
 _symmetry_equiv_pos_as_xyz
  1  'x, y, z'
loop_
 _atom_site_type_symbol
 _atom_site_label
 _atom_site_symmetry_multiplicity
 _atom_site_fract_x
 _atom_site_fract_y
 _atom_site_fract_z
 _atom_site_occupancy
  Li  Li0  1  0.03115800  0.00000000  0.00000000  1
  C  C1  1  0.41949098  0.58853499  0.57299999  1
  O  O2  1  0.83095601  0.41146500  0.42699999  1
  O  O3  1  0.34726298  0.61731599  0.77564598  1
  O  O4  1  0.72994700  0.38268400  0.22435400  1
