# generated using pymatgen
data_Ba2NbWO6
_symmetry_space_group_name_H-M   'P 1'
_cell_length_a   6.15076113
_cell_length_b   6.15076113
_cell_length_c   6.15076208
_cell_angle_alpha   60.41399765
_cell_angle_beta   60.41399765
_cell_angle_gamma   60.41399765
_symmetry_Int_Tables_number   1
_chemical_formula_structural   Ba2NbWO6
_chemical_formula_sum   'Ba2 Nb1 W1 O6'
_cell_volume   166.08040926
_cell_formula_units_Z   1
loop_
 _symmetry_equiv_pos_site_id
 _symmetry_equiv_pos_as_xyz
  1  'x, y, z'
loop_
 _atom_site_type_symbol
 _atom_site_label
 _atom_site_symmetry_multiplicity
 _atom_site_fract_x
 _atom_site_fract_y
 _atom_site_fract_z
 _atom_site_occupancy
  Ba  Ba0  1  0.25153601  0.25153601  0.25153597  1
  Ba  Ba1  1  0.74846404  0.74846403  0.74846392  1
  Nb  Nb2  1  0.00000000  0.00000000  0.00000000  1
  W  W3  1  0.50000002  0.50000002  0.49999995  1
  O  O4  1  0.68827903  0.27246801  0.77216594  1
  O  O5  1  0.72753203  0.22783401  0.31172096  1
  O  O6  1  0.77216604  0.68827903  0.27246794  1
  O  O7  1  0.22783401  0.31172101  0.72753196  1
  O  O8  1  0.27246801  0.77216603  0.68827894  1
  O  O9  1  0.31172102  0.72753203  0.22783396  1
