# generated using pymatgen
data_Y7NiPd10
_symmetry_space_group_name_H-M   'P 1'
_cell_length_a   7.75923586
_cell_length_b   8.66299915
_cell_length_c   7.75923586
_cell_angle_alpha   63.39495850
_cell_angle_beta   90.00000000
_cell_angle_gamma   116.60504150
_symmetry_Int_Tables_number   1
_chemical_formula_structural   Y7NiPd10
_chemical_formula_sum   'Y7 Ni1 Pd10'
_cell_volume   403.62406652
_cell_formula_units_Z   1
loop_
 _symmetry_equiv_pos_site_id
 _symmetry_equiv_pos_as_xyz
  1  'x, y, z'
loop_
 _atom_site_type_symbol
 _atom_site_label
 _atom_site_symmetry_multiplicity
 _atom_site_fract_x
 _atom_site_fract_y
 _atom_site_fract_z
 _atom_site_occupancy
  Y  Y0  1  0.75000001  0.49999997  0.25000001  1
  Y  Y1  1  0.25000000  0.49999997  0.75000002  1
  Y  Y2  1  0.83795601  0.00000000  0.66204401  1
  Y  Y3  1  0.66204401  0.99999895  0.16204501  1
  Y  Y4  1  0.33795601  0.00000100  0.83795501  1
  Y  Y5  1  0.16204400  0.99999995  0.33795601  1
  Ni  Ni6  1  0.25000000  0.49999997  0.25000001  1
  Y  Y7  1  0.75000001  0.49999997  0.75000002  1
  Pd  Pd8  1  0.98872902  0.26808899  0.22064001  1
  Pd  Pd9  1  0.72064001  0.73191096  0.48872901  1
  Pd  Pd10  1  0.01127100  0.73191096  0.77936002  1
  Pd  Pd11  1  0.51127100  0.73191096  0.98872902  1
  Pd  Pd12  1  0.22064000  0.73191096  0.27936001  1
  Pd  Pd13  1  0.48872901  0.26808899  0.01127100  1
  Pd  Pd14  1  0.77936001  0.26808899  0.72064001  1
  Pd  Pd15  1  0.27936000  0.26808899  0.51127101  1
  Pd  Pd16  1  0.00000000  0.00000000  0.00000000  1
  Pd  Pd17  1  0.50000001  0.00000000  0.50000001  1
