# generated using pymatgen
data_Be2BC
_symmetry_space_group_name_H-M   'P 1'
_cell_length_a   3.05414438
_cell_length_b   3.05414438
_cell_length_c   10.11357975
_cell_angle_alpha   81.31555939
_cell_angle_beta   81.31555939
_cell_angle_gamma   59.99998856
_symmetry_Int_Tables_number   1
_chemical_formula_structural   Be2BC
_chemical_formula_sum   'Be4 B2 C2'
_cell_volume   80.44726919
_cell_formula_units_Z   2
loop_
 _symmetry_equiv_pos_site_id
 _symmetry_equiv_pos_as_xyz
  1  'x, y, z'
loop_
 _atom_site_type_symbol
 _atom_site_label
 _atom_site_symmetry_multiplicity
 _atom_site_fract_x
 _atom_site_fract_y
 _atom_site_fract_z
 _atom_site_occupancy
  Be  Be0  1  0.87462099  0.87462103  0.37613701  1
  Be  Be1  1  0.12537900  0.12537900  0.62386302  1
  Be  Be2  1  0.37578700  0.37578701  0.87263903  1
  Be  Be3  1  0.62421299  0.62421302  0.12736100  1
  B  B4  1  0.25103800  0.25103801  0.24688601  1
  B  B5  1  0.49999999  0.50000002  0.50000002  1
  C  C6  1  0.74896199  0.74896203  0.75311402  1
  C  C7  1  0.00000000  0.00000000  0.00000000  1
