# generated using pymatgen
data_Ce4Al3Si11
_symmetry_space_group_name_H-M   'P 1'
_cell_length_a   6.95474815
_cell_length_b   6.98952293
_cell_length_c   7.00727558
_cell_angle_alpha   90.00000000
_cell_angle_beta   69.69435883
_cell_angle_gamma   90.00000000
_symmetry_Int_Tables_number   1
_chemical_formula_structural   Ce4Al3Si11
_chemical_formula_sum   'Ce4 Al3 Si11'
_cell_volume   319.45797343
_cell_formula_units_Z   1
loop_
 _symmetry_equiv_pos_site_id
 _symmetry_equiv_pos_as_xyz
  1  'x, y, z'
loop_
 _atom_site_type_symbol
 _atom_site_label
 _atom_site_symmetry_multiplicity
 _atom_site_fract_x
 _atom_site_fract_y
 _atom_site_fract_z
 _atom_site_occupancy
  Ce  Ce0  1  0.94984697  0.16467700  0.18606903  1
  Ce  Ce1  1  0.55015298  0.66467701  0.81393104  1
  Ce  Ce2  1  0.05015300  0.83532301  0.81393103  1
  Ce  Ce3  1  0.44984699  0.33532300  0.18606902  1
  Al  Al4  1  0.63731898  0.95114101  0.09417202  1
  Al  Al5  1  0.86268097  0.45114100  0.90582805  1
  Si  Si6  1  0.36268099  0.04885900  0.90582804  1
  Al  Al7  1  0.13731900  0.54885901  0.09417201  1
  Si  Si8  1  0.63867398  0.35886300  0.50527703  1
  Si  Si9  1  0.86132597  0.85886301  0.49472304  1
  Si  Si10  1  0.36132599  0.64113701  0.49472302  1
  Si  Si11  1  0.13867400  0.14113700  0.50527702  1
  Si  Si12  1  0.49999998  0.00000000  0.50000003  1
  Si  Si13  1  0.00000000  0.50000000  0.50000002  1
  Si  Si14  1  0.74474198  0.65311501  0.24213803  1
  Si  Si15  1  0.75525798  0.15311500  0.75786204  1
  Si  Si16  1  0.25525799  0.34688500  0.75786203  1
  Si  Si17  1  0.24474199  0.84688501  0.24213801  1
