# generated using pymatgen
data_YbInRh
_symmetry_space_group_name_H-M   'P 1'
_cell_length_a   4.30828810
_cell_length_b   7.12539291
_cell_length_c   8.13313580
_cell_angle_alpha   90.00000000
_cell_angle_beta   90.00000000
_cell_angle_gamma   90.00000000
_symmetry_Int_Tables_number   1
_chemical_formula_structural   YbInRh
_chemical_formula_sum   'Yb4 In4 Rh4'
_cell_volume   249.67299917
_cell_formula_units_Z   4
loop_
 _symmetry_equiv_pos_site_id
 _symmetry_equiv_pos_as_xyz
  1  'x, y, z'
loop_
 _atom_site_type_symbol
 _atom_site_label
 _atom_site_symmetry_multiplicity
 _atom_site_fract_x
 _atom_site_fract_y
 _atom_site_fract_z
 _atom_site_occupancy
  Yb  Yb0  1  0.24999999  0.53489801  0.18085300  1
  Yb  Yb1  1  0.74999998  0.46510201  0.81914702  1
  Yb  Yb2  1  0.74999998  0.96510201  0.68085302  1
  Yb  Yb3  1  0.24999999  0.03489800  0.31914701  1
  In  In4  1  0.24999999  0.63501001  0.56128601  1
  In  In5  1  0.74999998  0.36499000  0.43871401  1
  In  In6  1  0.74999998  0.86499001  0.06128600  1
  In  In7  1  0.24999999  0.13501000  0.93871402  1
  Rh  Rh8  1  0.24999999  0.77470801  0.88437802  1
  Rh  Rh9  1  0.74999998  0.22529200  0.11562200  1
  Rh  Rh10  1  0.74999998  0.72529201  0.38437801  1
  Rh  Rh11  1  0.24999999  0.27470800  0.61562202  1
