# generated using pymatgen
data_La3CuO4
_symmetry_space_group_name_H-M   'P 1'
_cell_length_a   3.79120994
_cell_length_b   3.79120994
_cell_length_c   10.85137081
_cell_angle_alpha   100.06050873
_cell_angle_beta   100.06050873
_cell_angle_gamma   90.00000000
_symmetry_Int_Tables_number   1
_chemical_formula_structural   La3CuO4
_chemical_formula_sum   'La3 Cu1 O4'
_cell_volume   151.13522514
_cell_formula_units_Z   1
loop_
 _symmetry_equiv_pos_site_id
 _symmetry_equiv_pos_as_xyz
  1  'x, y, z'
loop_
 _atom_site_type_symbol
 _atom_site_label
 _atom_site_symmetry_multiplicity
 _atom_site_fract_x
 _atom_site_fract_y
 _atom_site_fract_z
 _atom_site_occupancy
  La  La0  1  0.00000000  0.00000000  0.00000000  1
  La  La1  1  0.31407501  0.31407501  0.62814999  1
  La  La2  1  0.68592503  0.68592502  0.37185001  1
  Cu  Cu3  1  0.12754600  0.12754600  0.25509199  1
  O  O4  1  0.87245403  0.87245402  0.74490800  1
  O  O5  1  0.50000002  0.50000001  0.00000001  1
  O  O6  1  0.75000002  0.25000001  0.50000000  1
  O  O7  1  0.25000002  0.75000002  0.50000000  1
