# generated using pymatgen
data_NaEu3(CuO6)2
_symmetry_space_group_name_H-M   'P 1'
_cell_length_a   3.57233620
_cell_length_b   8.19806957
_cell_length_c   9.09264088
_cell_angle_alpha   63.20446777
_cell_angle_beta   85.18016815
_cell_angle_gamma   79.25825500
_symmetry_Int_Tables_number   1
_chemical_formula_structural   NaEu3(CuO6)2
_chemical_formula_sum   'Na1 Eu3 Cu2 O12'
_cell_volume   233.53047210
_cell_formula_units_Z   1
loop_
 _symmetry_equiv_pos_site_id
 _symmetry_equiv_pos_as_xyz
  1  'x, y, z'
loop_
 _atom_site_type_symbol
 _atom_site_label
 _atom_site_symmetry_multiplicity
 _atom_site_fract_x
 _atom_site_fract_y
 _atom_site_fract_z
 _atom_site_occupancy
  Eu  Eu0  1  0.00395407  0.61768402  0.64429503  1
  Eu  Eu1  1  0.34785207  0.69850802  0.23633502  1
  Na  Na2  1  0.34785210  0.93484303  0.76366504  1
  Eu  Eu3  1  0.00395403  0.26197901  0.35570501  1
  O  O4  1  0.63674501  0.20694301  -0.00000000  1
  Cu  Cu5  1  0.59319009  0.92677703  0.39283403  1
  Cu  Cu6  1  0.96432405  0.55947902  0.00000000  1
  O  O7  1  0.59319003  0.31961101  0.60716601  1
  O  O8  1  0.05113604  0.38753101  0.00000001  1
  O  O9  1  0.57877400  0.11495000  0.29140700  1
  O  O10  1  0.92013305  0.57183002  0.14812201  1
  O  O11  1  0.79450607  0.79480002  0.34655302  1
  O  O12  1  0.92013306  0.71995202  0.85187803  1
  O  O13  1  0.79450600  0.14135300  0.65344701  1
  O  O14  1  0.40996709  0.86300802  0.54477303  1
  O  O15  1  0.40996704  0.40778101  0.45522702  1
  O  O16  1  0.57877403  0.40635701  0.70859302  1
  O  O17  1  0.24864500  0.00021400  1.00000002  1
