# generated using pymatgen
data_Sr2LaTlO5
_symmetry_space_group_name_H-M   'P 1'
_cell_length_a   4.05478191
_cell_length_b   4.05478287
_cell_length_c   9.82206726
_cell_angle_alpha   101.91215515
_cell_angle_beta   101.91215515
_cell_angle_gamma   90.00001526
_symmetry_Int_Tables_number   1
_chemical_formula_structural   Sr2LaTlO5
_chemical_formula_sum   'Sr2 La1 Tl1 O5'
_cell_volume   154.45370042
_cell_formula_units_Z   1
loop_
 _symmetry_equiv_pos_site_id
 _symmetry_equiv_pos_as_xyz
  1  'x, y, z'
loop_
 _atom_site_type_symbol
 _atom_site_label
 _atom_site_symmetry_multiplicity
 _atom_site_fract_x
 _atom_site_fract_y
 _atom_site_fract_z
 _atom_site_occupancy
  Sr  Sr0  1  0.31031201  0.31031201  0.62062401  1
  La  La1  1  0.68968801  0.68968801  0.37937599  1
  Sr  Sr2  1  0.50000001  0.00000000  -0.00000000  1
  Tl  Tl3  1  0.00000000  0.50000001  -0.00000001  1
  O  O4  1  0.89941902  0.89941902  0.79883800  1
  O  O5  1  0.10058100  0.10058100  0.20116200  1
  O  O6  1  0.25000001  0.75000001  0.50000000  1
  O  O7  1  0.75000001  0.25000000  0.50000001  1
  O  O8  1  0.50000001  0.50000001  1.00000002  1
