# generated using pymatgen
data_V2CrO5
_symmetry_space_group_name_H-M   'P 1'
_cell_length_a   5.18933630
_cell_length_b   5.18933630
_cell_length_c   5.67341280
_cell_angle_alpha   62.78452682
_cell_angle_beta   62.78452682
_cell_angle_gamma   59.99999619
_symmetry_Int_Tables_number   1
_chemical_formula_structural   V2CrO5
_chemical_formula_sum   'V2 Cr1 O5'
_cell_volume   112.35778056
_cell_formula_units_Z   1
loop_
 _symmetry_equiv_pos_site_id
 _symmetry_equiv_pos_as_xyz
  1  'x, y, z'
loop_
 _atom_site_type_symbol
 _atom_site_label
 _atom_site_symmetry_multiplicity
 _atom_site_fract_x
 _atom_site_fract_y
 _atom_site_fract_z
 _atom_site_occupancy
  V  V0  1  0.00000000  0.00000000  0.00000000  1
  V  V1  1  0.50000003  0.50000001  0.49999997  1
  Cr  Cr2  1  0.10961302  0.41928900  0.73910297  1
  O  O3  1  0.41928904  0.73199501  0.73910296  1
  O  O4  1  0.26800504  0.89038701  0.26089697  1
  O  O5  1  0.58071102  0.26800500  0.26089698  1
  O  O6  1  0.89038704  0.58071101  0.26089696  1
  O  O7  1  0.73199502  0.10961300  0.73910297  1
