# generated using pymatgen
data_YSn
_symmetry_space_group_name_H-M   'P 1'
_cell_length_a   4.07163095
_cell_length_b   4.66809702
_cell_length_c   11.42433262
_cell_angle_alpha   90.00000000
_cell_angle_beta   90.00000000
_cell_angle_gamma   90.00000000
_symmetry_Int_Tables_number   1
_chemical_formula_structural   YSn
_chemical_formula_sum   'Y4 Sn4'
_cell_volume   217.13964333
_cell_formula_units_Z   4
loop_
 _symmetry_equiv_pos_site_id
 _symmetry_equiv_pos_as_xyz
  1  'x, y, z'
loop_
 _atom_site_type_symbol
 _atom_site_label
 _atom_site_symmetry_multiplicity
 _atom_site_fract_x
 _atom_site_fract_y
 _atom_site_fract_z
 _atom_site_occupancy
  Y  Y0  1  0.50000001  0.50000000  0.14379900  1
  Y  Y1  1  -0.00000000  0.50000000  0.64206502  1
  Y  Y2  1  0.00000000  0.00000000  0.35799901  1
  Y  Y3  1  0.50000001  0.00000000  0.85679203  1
  Sn  Sn4  1  0.50000001  0.50000000  0.42953601  1
  Sn  Sn5  1  -0.00000000  0.50000000  0.92549003  1
  Sn  Sn6  1  0.00000000  0.00000000  0.07451900  1
  Sn  Sn7  1  0.50000001  0.00000000  0.56980002  1
