# generated using pymatgen
data_Ce5In7Sb2
_symmetry_space_group_name_H-M   'P 1'
_cell_length_a   4.46476603
_cell_length_b   4.46517992
_cell_length_c   22.65240860
_cell_angle_alpha   84.34382629
_cell_angle_beta   90.00000000
_cell_angle_gamma   90.00000000
_symmetry_Int_Tables_number   1
_chemical_formula_structural   Ce5In7Sb2
_chemical_formula_sum   'Ce5 In7 Sb2'
_cell_volume   449.39932841
_cell_formula_units_Z   1
loop_
 _symmetry_equiv_pos_site_id
 _symmetry_equiv_pos_as_xyz
  1  'x, y, z'
loop_
 _atom_site_type_symbol
 _atom_site_label
 _atom_site_symmetry_multiplicity
 _atom_site_fract_x
 _atom_site_fract_y
 _atom_site_fract_z
 _atom_site_occupancy
  Ce  Ce0  1  0.75000000  0.09771400  0.80457201  1
  Ce  Ce1  1  0.25000000  0.90228601  0.19542801  1
  Ce  Ce2  1  0.75000000  0.30675600  0.38648801  1
  Ce  Ce3  1  0.25000000  0.69324401  0.61351201  1
  Ce  Ce4  1  0.75000000  0.95861602  0.08276801  1
  In  In5  1  0.25000000  0.04138400  0.91723202  1
  In  In6  1  0.75000000  0.54183901  0.91632202  1
  In  In7  1  0.25000000  0.45816101  0.08367800  1
  In  In8  1  0.75000000  0.74998601  0.50002801  1
  In  In9  1  0.25000000  0.25001400  0.49997201  1
  Sb  Sb10  1  0.75000000  0.17258600  0.65482801  1
  In  In11  1  0.25000000  0.82741401  0.34517201  1
  In  In12  1  0.75000000  0.38019301  0.23961401  1
  Sb  Sb13  1  0.25000000  0.61980701  0.76038602  1
