# generated using pymatgen
data_Ce4Bi3
_symmetry_space_group_name_H-M   'P 1'
_cell_length_a   8.39671230
_cell_length_b   8.39671230
_cell_length_c   8.39671230
_cell_angle_alpha   109.47122192
_cell_angle_beta   109.47122192
_cell_angle_gamma   109.47122192
_symmetry_Int_Tables_number   1
_chemical_formula_structural   Ce4Bi3
_chemical_formula_sum   'Ce8 Bi6'
_cell_volume   455.72820523
_cell_formula_units_Z   2
loop_
 _symmetry_equiv_pos_site_id
 _symmetry_equiv_pos_as_xyz
  1  'x, y, z'
loop_
 _atom_site_type_symbol
 _atom_site_label
 _atom_site_symmetry_multiplicity
 _atom_site_fract_x
 _atom_site_fract_y
 _atom_site_fract_z
 _atom_site_occupancy
  Ce  Ce0  1  0.00000003  0.50000001  0.14346702  1
  Ce  Ce1  1  0.00000003  0.50000001  0.64346701  1
  Ce  Ce2  1  0.35653302  0.35653301  0.85653301  1
  Ce  Ce3  1  0.64346699  0.00000000  0.00000002  1
  Ce  Ce4  1  0.85653304  0.85653302  0.35653306  1
  Ce  Ce5  1  0.50000000  0.14346700  0.50000001  1
  Ce  Ce6  1  0.14346700  0.00000000  0.00000000  1
  Ce  Ce7  1  0.50000003  0.64346701  0.50000004  1
  Bi  Bi8  1  0.25000005  0.87500002  0.62500004  1
  Bi  Bi9  1  0.87500000  0.12500000  0.75000001  1
  Bi  Bi10  1  0.62500002  0.37500001  0.25000003  1
  Bi  Bi11  1  0.75000003  0.62500001  0.87500003  1
  Bi  Bi12  1  0.12500001  0.25000000  0.37500001  1
  Bi  Bi13  1  0.37500004  0.75000001  0.12500005  1
