# generated using pymatgen
data_Li2CuO5
_symmetry_space_group_name_H-M   'P 1'
_cell_length_a   4.63477421
_cell_length_b   4.95995998
_cell_length_c   4.95996046
_cell_angle_alpha   60.00000381
_cell_angle_beta   90.00000000
_cell_angle_gamma   90.00000000
_symmetry_Int_Tables_number   1
_chemical_formula_structural   Li2CuO5
_chemical_formula_sum   'Li2 Cu1 O5'
_cell_volume   98.74511434
_cell_formula_units_Z   1
loop_
 _symmetry_equiv_pos_site_id
 _symmetry_equiv_pos_as_xyz
  1  'x, y, z'
loop_
 _atom_site_type_symbol
 _atom_site_label
 _atom_site_symmetry_multiplicity
 _atom_site_fract_x
 _atom_site_fract_y
 _atom_site_fract_z
 _atom_site_occupancy
  Li  Li0  1  0.49999998  0.00000000  0.00000000  1
  Li  Li1  1  0.00000000  0.33333333  0.33333334  1
  Cu  Cu2  1  0.77033297  0.31617700  0.63933701  1
  O  O3  1  0.22966699  0.63933700  0.31617701  1
  O  O4  1  0.22966699  0.04448600  0.63933701  1
  O  O5  1  0.77033297  0.63933700  0.04448600  1
  O  O6  1  0.77033297  0.04448600  0.31617701  1
  O  O7  1  0.22966699  0.31617700  0.04448600  1
