# generated using pymatgen
data_PrP4
_symmetry_space_group_name_H-M   'P 1'
_cell_length_a   4.00238609
_cell_length_b   4.00238609
_cell_length_c   5.58488655
_cell_angle_alpha   110.99723816
_cell_angle_beta   110.99723816
_cell_angle_gamma   90.00000000
_symmetry_Int_Tables_number   1
_chemical_formula_structural   PrP4
_chemical_formula_sum   'Pr1 P4'
_cell_volume   77.12725837
_cell_formula_units_Z   1
loop_
 _symmetry_equiv_pos_site_id
 _symmetry_equiv_pos_as_xyz
  1  'x, y, z'
loop_
 _atom_site_type_symbol
 _atom_site_label
 _atom_site_symmetry_multiplicity
 _atom_site_fract_x
 _atom_site_fract_y
 _atom_site_fract_z
 _atom_site_occupancy
  Pr  Pr0  1  0.00000000  0.00000000  0.00000000  1
  P  P1  1  0.74999999  0.25000000  0.50000003  1
  P  P2  1  0.25000001  0.74999999  0.50000003  1
  P  P3  1  0.36217300  0.36217299  0.72434604  1
  P  P4  1  0.63782700  0.63782699  0.27565403  1
