# generated using pymatgen
data_Sr4LiMn3O12
_symmetry_space_group_name_H-M   'P 1'
_cell_length_a   5.79720974
_cell_length_b   5.80056429
_cell_length_c   10.03382874
_cell_angle_alpha   73.26147461
_cell_angle_beta   73.20928955
_cell_angle_gamma   60.02144241
_symmetry_Int_Tables_number   1
_chemical_formula_structural   Sr4LiMn3O12
_chemical_formula_sum   'Sr4 Li1 Mn3 O12'
_cell_volume   275.57648871
_cell_formula_units_Z   1
loop_
 _symmetry_equiv_pos_site_id
 _symmetry_equiv_pos_as_xyz
  1  'x, y, z'
loop_
 _atom_site_type_symbol
 _atom_site_label
 _atom_site_symmetry_multiplicity
 _atom_site_fract_x
 _atom_site_fract_y
 _atom_site_fract_z
 _atom_site_occupancy
  Sr  Sr0  1  0.37679999  0.37554900  0.87558501  1
  Sr  Sr1  1  0.87294498  0.87525599  0.37413599  1
  Sr  Sr2  1  0.62799599  0.62434299  0.12462799  1
  Sr  Sr3  1  0.12239600  0.12485800  0.62570701  1
  Li  Li4  1  0.51122099  0.49973899  0.50010300  1
  Mn  Mn5  1  0.99184598  0.99977599  0.99992200  1
  Mn  Mn6  1  0.74940998  0.75130299  0.74900300  1
  Mn  Mn7  1  0.24977099  0.24876300  0.25098100  1
  O  O8  1  0.62767499  0.12582200  0.12686801  1
  O  O9  1  0.10390499  0.63028799  0.62933599  1
  O  O10  1  0.39554299  0.86913499  0.87091299  1
  O  O11  1  0.87272399  0.37331300  0.37355301  1
  O  O12  1  0.36351899  0.37051100  0.37052800  1
  O  O13  1  0.88038298  0.87380099  0.87334400  1
  O  O14  1  0.36780599  0.87426399  0.37572698  1
  O  O15  1  0.88233599  0.37301600  0.87581402  1
  O  O16  1  0.13562500  0.13016800  0.12921300  1
  O  O17  1  0.61943699  0.62726699  0.62623200  1
  O  O18  1  0.13131599  0.62668299  0.12400898  1
  O  O19  1  0.61734799  0.12614300  0.62439702  1
