# generated using pymatgen
data_Nb8(FeSi3)3
_symmetry_space_group_name_H-M   'P 1'
_cell_length_a   5.92948484
_cell_length_b   5.92948484
_cell_length_c   6.89760399
_cell_angle_alpha   90.00000000
_cell_angle_beta   90.00000000
_cell_angle_gamma   90.00000000
_symmetry_Int_Tables_number   1
_chemical_formula_structural   Nb8(FeSi3)3
_chemical_formula_sum   'Nb8 Fe3 Si9'
_cell_volume   242.51141371
_cell_formula_units_Z   1
loop_
 _symmetry_equiv_pos_site_id
 _symmetry_equiv_pos_as_xyz
  1  'x, y, z'
loop_
 _atom_site_type_symbol
 _atom_site_label
 _atom_site_symmetry_multiplicity
 _atom_site_fract_x
 _atom_site_fract_y
 _atom_site_fract_z
 _atom_site_occupancy
  Nb  Nb0  1  0.66425602  0.81436902  0.50000000  1
  Nb  Nb1  1  0.33574401  0.18563100  0.50000000  1
  Nb  Nb2  1  0.83574402  0.31436901  0.00000000  1
  Nb  Nb3  1  0.16425600  0.68563102  -0.00000000  1
  Nb  Nb4  1  0.81436902  0.33574401  0.50000000  1
  Nb  Nb5  1  0.18563100  0.66425602  0.50000000  1
  Nb  Nb6  1  0.31436901  0.16425600  0.00000000  1
  Nb  Nb7  1  0.68563102  0.83574402  -0.00000000  1
  Si  Si8  1  0.38687801  0.88687802  0.25000000  1
  Fe  Fe9  1  0.61312202  0.11312200  0.25000000  1
  Fe  Fe10  1  0.11312200  0.38687801  0.75000000  1
  Si  Si11  1  0.88687802  0.61312202  0.75000000  1
  Si  Si12  1  0.88687802  0.61312202  0.25000000  1
  Si  Si13  1  0.11312200  0.38687801  0.25000000  1
  Si  Si14  1  0.38687801  0.88687802  0.75000000  1
  Si  Si15  1  0.61312202  0.11312200  0.75000000  1
  Si  Si16  1  0.50000001  0.50000001  0.22103600  1
  Si  Si17  1  0.00000000  0.00000000  0.72103600  1
  Fe  Fe18  1  0.50000001  0.50000001  0.77896400  1
  Si  Si19  1  0.00000000  0.00000000  0.27896400  1
