# generated using pymatgen
data_CeGa3Ge
_symmetry_space_group_name_H-M   'P 1'
_cell_length_a   4.27788210
_cell_length_b   4.27788210
_cell_length_c   6.11147499
_cell_angle_alpha   110.48656464
_cell_angle_beta   110.48656464
_cell_angle_gamma   90.00000000
_symmetry_Int_Tables_number   1
_chemical_formula_structural   CeGa3Ge
_chemical_formula_sum   'Ce1 Ga3 Ge1'
_cell_volume   97.18115965
_cell_formula_units_Z   1
loop_
 _symmetry_equiv_pos_site_id
 _symmetry_equiv_pos_as_xyz
  1  'x, y, z'
loop_
 _atom_site_type_symbol
 _atom_site_label
 _atom_site_symmetry_multiplicity
 _atom_site_fract_x
 _atom_site_fract_y
 _atom_site_fract_z
 _atom_site_occupancy
  Ce  Ce0  1  0.00000000  0.00000000  0.00000000  1
  Ga  Ga1  1  0.61849601  0.61849600  0.23699203  1
  Ga  Ga2  1  0.38150401  0.38150400  0.76300800  1
  Ga  Ga3  1  0.75000000  0.25000000  0.50000001  1
  Ge  Ge4  1  0.25000002  0.74999999  0.50000002  1
