# generated using pymatgen
data_USi2
_symmetry_space_group_name_H-M   'P 1'
_cell_length_a   3.81427908
_cell_length_b   6.43128109
_cell_length_c   7.32752085
_cell_angle_alpha   90.00000000
_cell_angle_beta   90.00000000
_cell_angle_gamma   90.00000000
_symmetry_Int_Tables_number   1
_chemical_formula_structural   USi2
_chemical_formula_sum   'U4 Si8'
_cell_volume   179.74922235
_cell_formula_units_Z   4
loop_
 _symmetry_equiv_pos_site_id
 _symmetry_equiv_pos_as_xyz
  1  'x, y, z'
loop_
 _atom_site_type_symbol
 _atom_site_label
 _atom_site_symmetry_multiplicity
 _atom_site_fract_x
 _atom_site_fract_y
 _atom_site_fract_z
 _atom_site_occupancy
  U  U0  1  0.74999998  0.52422599  0.82782202  1
  U  U1  1  0.24999999  0.97577399  0.32782201  1
  U  U2  1  0.74999998  0.02422600  0.67217801  1
  U  U3  1  0.24999999  0.47577399  0.17217800  1
  Si  Si4  1  0.24999999  0.23260100  0.87601902  1
  Si  Si5  1  0.24999999  0.73260099  0.62398101  1
  Si  Si6  1  0.74999998  0.76739899  0.12398100  1
  Si  Si7  1  0.74999998  0.26739900  0.37601901  1
  Si  Si8  1  0.24999999  0.85461399  0.93510402  1
  Si  Si9  1  0.24999999  0.35461400  0.56489601  1
  Si  Si10  1  0.74999998  0.64538599  0.43510401  1
  Si  Si11  1  0.74999998  0.14538600  0.06489600  1
