# generated using pymatgen
data_Ce2(GaPd)3
_symmetry_space_group_name_H-M   'P 1'
_cell_length_a   3.97798610
_cell_length_b   3.97798610
_cell_length_c   17.60720634
_cell_angle_alpha   90.00000000
_cell_angle_beta   90.00000000
_cell_angle_gamma   90.00000000
_symmetry_Int_Tables_number   1
_chemical_formula_structural   Ce2(GaPd)3
_chemical_formula_sum   'Ce4 Ga6 Pd6'
_cell_volume   278.62300756
_cell_formula_units_Z   2
loop_
 _symmetry_equiv_pos_site_id
 _symmetry_equiv_pos_as_xyz
  1  'x, y, z'
loop_
 _atom_site_type_symbol
 _atom_site_label
 _atom_site_symmetry_multiplicity
 _atom_site_fract_x
 _atom_site_fract_y
 _atom_site_fract_z
 _atom_site_occupancy
  Ce  Ce0  1  0.00000000  0.00000000  0.88133603  1
  Ce  Ce1  1  0.00000000  0.00000000  0.11760700  1
  Ce  Ce2  1  0.49999999  0.49999999  0.61981802  1
  Ce  Ce3  1  0.49999999  0.49999999  0.38093301  1
  Ga  Ga4  1  0.49999999  0.00000000  0.00003400  1
  Ga  Ga5  1  0.00000000  0.49999999  0.49994702  1
  Ga  Ga6  1  0.49999999  0.00000000  0.49994702  1
  Ga  Ga7  1  0.00000000  0.49999999  0.00003400  1
  Ga  Ga8  1  0.49999999  0.49999999  0.12666000  1
  Ga  Ga9  1  0.00000000  0.00000000  0.62317002  1
  Pd  Pd10  1  0.00000000  0.00000000  0.37590301  1
  Pd  Pd11  1  0.49999999  0.49999999  0.87531503  1
  Pd  Pd12  1  0.00000000  0.49999999  0.24969401  1
  Pd  Pd13  1  0.49999999  0.00000000  0.74995403  1
  Pd  Pd14  1  0.49999999  0.00000000  0.24969401  1
  Pd  Pd15  1  0.00000000  0.49999999  0.74995403  1
