# generated using pymatgen
data_Ce2NiPd
_symmetry_space_group_name_H-M   'P 1'
_cell_length_a   3.88691592
_cell_length_b   4.31452894
_cell_length_c   10.62631989
_cell_angle_alpha   90.00000000
_cell_angle_beta   90.00000000
_cell_angle_gamma   90.00000000
_symmetry_Int_Tables_number   1
_chemical_formula_structural   Ce2NiPd
_chemical_formula_sum   'Ce4 Ni2 Pd2'
_cell_volume   178.20562920
_cell_formula_units_Z   2
loop_
 _symmetry_equiv_pos_site_id
 _symmetry_equiv_pos_as_xyz
  1  'x, y, z'
loop_
 _atom_site_type_symbol
 _atom_site_label
 _atom_site_symmetry_multiplicity
 _atom_site_fract_x
 _atom_site_fract_y
 _atom_site_fract_z
 _atom_site_occupancy
  Ce  Ce0  1  0.00000000  0.00000000  0.13761000  1
  Ce  Ce1  1  0.00000000  0.50000001  0.64107001  1
  Ce  Ce2  1  0.50000001  0.50000001  0.35924800  1
  Ce  Ce3  1  0.50000001  0.00000000  0.86077001  1
  Ni  Ni4  1  0.00000000  0.50000001  0.92464001  1
  Pd  Pd5  1  0.50000001  0.50000001  0.07579000  1
  Ni  Ni6  1  0.50000001  0.00000000  0.58039901  1
  Pd  Pd7  1  0.00000000  0.00000000  0.42047400  1
