# generated using pymatgen
data_Hf3SiAg2C3
_symmetry_space_group_name_H-M   'P 1'
_cell_length_a   4.81363392
_cell_length_b   4.81363440
_cell_length_c   6.65800714
_cell_angle_alpha   90.00000000
_cell_angle_beta   90.00000000
_cell_angle_gamma   119.99999237
_symmetry_Int_Tables_number   1
_chemical_formula_structural   Hf3SiAg2C3
_chemical_formula_sum   'Hf3 Si1 Ag2 C3'
_cell_volume   133.60449887
_cell_formula_units_Z   1
loop_
 _symmetry_equiv_pos_site_id
 _symmetry_equiv_pos_as_xyz
  1  'x, y, z'
loop_
 _atom_site_type_symbol
 _atom_site_label
 _atom_site_symmetry_multiplicity
 _atom_site_fract_x
 _atom_site_fract_y
 _atom_site_fract_z
 _atom_site_occupancy
  Hf  Hf0  1  0.49999994  1.00000000  0.66666665  1
  Hf  Hf1  1  0.49999997  0.50000000  0.99999998  1
  Hf  Hf2  1  -0.00000004  0.50000000  0.33333333  1
  Ag  Ag3  1  0.83453496  0.66907000  0.66666665  1
  Ag  Ag4  1  0.83453500  0.16546500  -0.00000000  1
  C  C5  1  0.33092999  0.16546500  0.33333333  1
  Si  Si6  1  0.16546498  0.33093000  0.66666665  1
  C  C7  1  0.16546494  0.83453500  0.99999998  1
  C  C8  1  0.66906995  0.83453500  0.33333333  1
