# generated using pymatgen
data_BaC2
_symmetry_space_group_name_H-M   'P 1'
_cell_length_a   6.31963396
_cell_length_b   6.31963396
_cell_length_c   6.31963396
_cell_angle_alpha   90.00000000
_cell_angle_beta   90.00000000
_cell_angle_gamma   90.00000000
_symmetry_Int_Tables_number   1
_chemical_formula_structural   BaC2
_chemical_formula_sum   'Ba4 C8'
_cell_volume   252.39210908
_cell_formula_units_Z   4
loop_
 _symmetry_equiv_pos_site_id
 _symmetry_equiv_pos_as_xyz
  1  'x, y, z'
loop_
 _atom_site_type_symbol
 _atom_site_label
 _atom_site_symmetry_multiplicity
 _atom_site_fract_x
 _atom_site_fract_y
 _atom_site_fract_z
 _atom_site_occupancy
  Ba  Ba0  1  0.36677500  0.36677500  0.36677500  1
  Ba  Ba1  1  0.13322500  0.63322500  0.86677501  1
  Ba  Ba2  1  0.63322500  0.86677501  0.13322500  1
  Ba  Ba3  1  0.86677501  0.13322500  0.63322500  1
  C  C4  1  0.67026900  0.67026900  0.67026900  1
  C  C5  1  0.82973101  0.32973100  0.17026900  1
  C  C6  1  0.32973100  0.17026900  0.82973101  1
  C  C7  1  0.17026900  0.82973101  0.32973100  1
  C  C8  1  0.07019900  0.07019900  0.07019900  1
  C  C9  1  0.42980100  0.92980101  0.57019900  1
  C  C10  1  0.92980101  0.57019900  0.42980100  1
  C  C11  1  0.57019900  0.42980100  0.92980101  1
