# generated using pymatgen
data_CeNi3
_symmetry_space_group_name_H-M   'P 1'
_cell_length_a   5.11201382
_cell_length_b   5.11201382
_cell_length_c   8.64857388
_cell_angle_alpha   72.81002808
_cell_angle_beta   72.81002808
_cell_angle_gamma   60.00000381
_symmetry_Int_Tables_number   1
_chemical_formula_structural   CeNi3
_chemical_formula_sum   'Ce3 Ni9'
_cell_volume   183.98079503
_cell_formula_units_Z   3
loop_
 _symmetry_equiv_pos_site_id
 _symmetry_equiv_pos_as_xyz
  1  'x, y, z'
loop_
 _atom_site_type_symbol
 _atom_site_label
 _atom_site_symmetry_multiplicity
 _atom_site_fract_x
 _atom_site_fract_y
 _atom_site_fract_z
 _atom_site_occupancy
  Ce  Ce0  1  0.00000000  0.00000000  0.00000000  1
  Ce  Ce1  1  0.14186900  0.14186900  0.57439301  1
  Ce  Ce2  1  0.85813101  0.85813099  0.42560701  1
  Ni  Ni3  1  0.50000001  0.49999999  0.50000001  1
  Ni  Ni4  1  0.33269500  0.33269499  0.00191500  1
  Ni  Ni5  1  0.66730501  0.66730499  0.99808502  1
  Ni  Ni6  1  0.58052800  0.08238000  0.75656401  1
  Ni  Ni7  1  0.58052801  0.58052799  0.75656401  1
  Ni  Ni8  1  0.08238001  0.58052799  0.75656401  1
  Ni  Ni9  1  0.91762000  0.41947199  0.24343601  1
  Ni  Ni10  1  0.41947201  0.91761998  0.24343601  1
  Ni  Ni11  1  0.41947200  0.41947199  0.24343601  1
