# generated using pymatgen
data_SrTl
_symmetry_space_group_name_H-M   'P 1'
_cell_length_a   5.91254902
_cell_length_b   7.70495605
_cell_length_c   7.70495653
_cell_angle_alpha   60.00000000
_cell_angle_beta   90.00000000
_cell_angle_gamma   90.00000000
_symmetry_Int_Tables_number   1
_chemical_formula_structural   SrTl
_chemical_formula_sum   'Sr4 Tl4'
_cell_volume   303.98051401
_cell_formula_units_Z   4
loop_
 _symmetry_equiv_pos_site_id
 _symmetry_equiv_pos_as_xyz
  1  'x, y, z'
loop_
 _atom_site_type_symbol
 _atom_site_label
 _atom_site_symmetry_multiplicity
 _atom_site_fract_x
 _atom_site_fract_y
 _atom_site_fract_z
 _atom_site_occupancy
  Sr  Sr0  1  0.75000000  0.64806100  0.17596998  1
  Sr  Sr1  1  0.75000000  0.17596900  0.17596999  1
  Sr  Sr2  1  0.75000000  0.17596900  0.64806198  1
  Sr  Sr3  1  0.25000000  0.35193900  0.82402997  1
  Tl  Tl4  1  0.25000000  0.82403101  0.82402995  1
  Tl  Tl5  1  0.25000000  0.82403101  0.35193797  1
  Tl  Tl6  1  0.25000000  0.33333334  0.33333331  1
  Tl  Tl7  1  0.75000000  0.66666667  0.66666663  1
