# generated using pymatgen
data_Co
_symmetry_space_group_name_H-M   'P 1'
_cell_length_a   6.10150623
_cell_length_b   6.10150623
_cell_length_c   6.10150623
_cell_angle_alpha   90.00000000
_cell_angle_beta   90.00000000
_cell_angle_gamma   90.00000000
_symmetry_Int_Tables_number   1
_chemical_formula_structural   Co
_chemical_formula_sum   Co12
_cell_volume   227.14918234
_cell_formula_units_Z   12
loop_
 _symmetry_equiv_pos_site_id
 _symmetry_equiv_pos_as_xyz
  1  'x, y, z'
loop_
 _atom_site_type_symbol
 _atom_site_label
 _atom_site_symmetry_multiplicity
 _atom_site_fract_x
 _atom_site_fract_y
 _atom_site_fract_z
 _atom_site_occupancy
  Co  Co0  1  0.87867797  0.37867799  0.12132200  1
  Co  Co1  1  0.37867799  0.12132200  0.87867797  1
  Co  Co2  1  0.12132200  0.87867797  0.37867799  1
  Co  Co3  1  0.62132198  0.62132198  0.62132198  1
  Co  Co4  1  0.51273198  0.01273200  0.48726798  1
  Co  Co5  1  0.01273200  0.48726798  0.51273198  1
  Co  Co6  1  0.48726798  0.51273198  0.01273200  1
  Co  Co7  1  0.98726796  0.98726796  0.98726796  1
  Co  Co8  1  0.11765200  0.61765198  0.88234797  1
  Co  Co9  1  0.61765198  0.88234797  0.11765200  1
  Co  Co10  1  0.88234797  0.11765200  0.61765198  1
  Co  Co11  1  0.38234799  0.38234799  0.38234799  1
