# generated using pymatgen
data_Ba3(InSi2)2
_symmetry_space_group_name_H-M   'P 1'
_cell_length_a   5.70993996
_cell_length_b   8.59220600
_cell_length_c   11.23787975
_cell_angle_alpha   112.47545624
_cell_angle_beta   104.71723175
_cell_angle_gamma   90.00000000
_symmetry_Int_Tables_number   1
_chemical_formula_structural   Ba3(InSi2)2
_chemical_formula_sum   'Ba6 In4 Si8'
_cell_volume   489.83056093
_cell_formula_units_Z   2
loop_
 _symmetry_equiv_pos_site_id
 _symmetry_equiv_pos_as_xyz
  1  'x, y, z'
loop_
 _atom_site_type_symbol
 _atom_site_label
 _atom_site_symmetry_multiplicity
 _atom_site_fract_x
 _atom_site_fract_y
 _atom_site_fract_z
 _atom_site_occupancy
  Ba  Ba0  1  0.08569500  0.70645499  0.17138998  1
  Ba  Ba1  1  0.58569601  0.96493598  0.17139098  1
  Ba  Ba2  1  0.75000001  0.36913399  0.50000001  1
  Ba  Ba3  1  0.25000001  0.63086599  0.49999999  1
  Ba  Ba4  1  0.41430401  0.03506400  0.82860902  1
  Ba  Ba5  1  0.91430502  0.29354499  0.82861002  1
  Si  Si6  1  0.25000000  0.08484700  0.50000001  1
  In  In7  1  0.75000002  0.91515298  0.49999999  1
  In  In8  1  0.00000000  0.00000000  0.00000000  1
  In  In9  1  0.50000001  0.49999999  -0.00000001  1
  Si  Si10  1  0.81390501  0.31390499  0.12781001  1
  In  In11  1  0.31390501  0.31390499  0.12781000  1
  Si  Si12  1  0.14527500  0.18067100  0.29055000  1
  Si  Si13  1  0.64527501  0.60987899  0.29055000  1
  Si  Si14  1  0.35472501  0.39012099  0.70945001  1
  Si  Si15  1  0.85472502  0.81932899  0.70945000  1
  Si  Si16  1  0.68609501  0.68609499  0.87219001  1
  Si  Si17  1  0.18609501  0.68609499  0.87219000  1
