# generated using pymatgen
data_Li2Cu5O7
_symmetry_space_group_name_H-M   'P 1'
_cell_length_a   5.86934423
_cell_length_b   5.86934423
_cell_length_c   5.86934423
_cell_angle_alpha   60.00000000
_cell_angle_beta   60.00000000
_cell_angle_gamma   60.00000000
_symmetry_Int_Tables_number   1
_chemical_formula_structural   Li2Cu5O7
_chemical_formula_sum   'Li2 Cu5 O7'
_cell_volume   142.97290665
_cell_formula_units_Z   1
loop_
 _symmetry_equiv_pos_site_id
 _symmetry_equiv_pos_as_xyz
  1  'x, y, z'
loop_
 _atom_site_type_symbol
 _atom_site_label
 _atom_site_symmetry_multiplicity
 _atom_site_fract_x
 _atom_site_fract_y
 _atom_site_fract_z
 _atom_site_occupancy
  Li  Li0  1  0.49999999  0.49999999  0.49999999  1
  Li  Li1  1  0.24999999  0.24999999  0.24999999  1
  Cu  Cu2  1  0.37499999  0.87499998  0.87499998  1
  Cu  Cu3  1  0.87499998  0.87499998  0.37499999  1
  Cu  Cu4  1  0.87499998  0.87499998  0.87499998  1
  Cu  Cu5  1  0.87499998  0.37499999  0.87499998  1
  Cu  Cu6  1  0.66209498  0.11263500  0.11263500  1
  O  O7  1  0.63736598  0.63736498  0.08790400  1
  O  O8  1  0.63736598  0.63736498  0.63736498  1
  O  O9  1  0.63736598  0.08790400  0.63736498  1
  O  O10  1  0.11263400  0.11263500  0.11263500  1
  O  O11  1  0.11263400  0.66209598  0.11263500  1
  O  O12  1  0.11263400  0.11263500  0.66209598  1
  O  O13  1  0.08790500  0.63736498  0.63736498  1
