# generated using pymatgen
data_TaNbRe2
_symmetry_space_group_name_H-M   'P 1'
_cell_length_a   3.99466181
_cell_length_b   3.99466181
_cell_length_c   7.36876917
_cell_angle_alpha   74.27303314
_cell_angle_beta   74.27303314
_cell_angle_gamma   60.00000381
_symmetry_Int_Tables_number   1
_chemical_formula_structural   TaNbRe2
_chemical_formula_sum   'Ta1 Nb1 Re2'
_cell_volume   96.71604524
_cell_formula_units_Z   1
loop_
 _symmetry_equiv_pos_site_id
 _symmetry_equiv_pos_as_xyz
  1  'x, y, z'
loop_
 _atom_site_type_symbol
 _atom_site_label
 _atom_site_symmetry_multiplicity
 _atom_site_fract_x
 _atom_site_fract_y
 _atom_site_fract_z
 _atom_site_occupancy
  Ta  Ta0  1  0.99956105  0.99956100  0.00131698  1
  Nb  Nb1  1  0.14878901  0.14878900  0.55363299  1
  Re  Re2  1  0.26616201  0.26616200  0.20151399  1
  Re  Re3  1  0.74448804  0.74448800  0.76653598  1
