# generated using pymatgen
data_Pr2P3
_symmetry_space_group_name_H-M   'P 1'
_cell_length_a   3.96916604
_cell_length_b   3.96916556
_cell_length_c   17.22114372
_cell_angle_alpha   90.00000000
_cell_angle_beta   90.00000000
_cell_angle_gamma   120.00000763
_symmetry_Int_Tables_number   1
_chemical_formula_structural   Pr2P3
_chemical_formula_sum   'Pr4 P6'
_cell_volume   234.95845148
_cell_formula_units_Z   2
loop_
 _symmetry_equiv_pos_site_id
 _symmetry_equiv_pos_as_xyz
  1  'x, y, z'
loop_
 _atom_site_type_symbol
 _atom_site_label
 _atom_site_symmetry_multiplicity
 _atom_site_fract_x
 _atom_site_fract_y
 _atom_site_fract_z
 _atom_site_occupancy
  Pr  Pr0  1  0.00000000  0.00000000  0.89663096  1
  Pr  Pr1  1  0.00000000  0.00000000  0.10336900  1
  Pr  Pr2  1  0.00000000  0.00000000  0.39663098  1
  Pr  Pr3  1  0.00000000  0.00000000  0.60336897  1
  P  P4  1  0.66666668  0.33333334  0.49843998  1
  P  P5  1  0.33333338  0.66666668  0.50155998  1
  P  P6  1  0.33333338  0.66666668  0.99843996  1
  P  P7  1  0.66666668  0.33333334  0.00156000  1
  P  P8  1  0.66666668  0.33333334  0.74999997  1
  P  P9  1  0.33333338  0.66666668  0.24999999  1
