# generated using pymatgen
data_Rb2TlCuCl5
_symmetry_space_group_name_H-M   'P 1'
_cell_length_a   7.53158855
_cell_length_b   7.53158855
_cell_length_c   7.53158855
_cell_angle_alpha   73.56097412
_cell_angle_beta   68.99173737
_cell_angle_gamma   111.00826263
_symmetry_Int_Tables_number   1
_chemical_formula_structural   Rb2TlCuCl5
_chemical_formula_sum   'Rb2 Tl1 Cu1 Cl5'
_cell_volume   328.19414112
_cell_formula_units_Z   1
loop_
 _symmetry_equiv_pos_site_id
 _symmetry_equiv_pos_as_xyz
  1  'x, y, z'
loop_
 _atom_site_type_symbol
 _atom_site_label
 _atom_site_symmetry_multiplicity
 _atom_site_fract_x
 _atom_site_fract_y
 _atom_site_fract_z
 _atom_site_occupancy
  Rb  Rb0  1  0.49999995  0.74999996  0.75000001  1
  Rb  Rb1  1  0.49999997  0.24999999  0.25000001  1
  Cu  Cu2  1  0.00000000  0.00000000  0.00000000  1
  Tl  Tl3  1  -0.00000003  0.66020397  0.33979601  1
  Cl  Cl4  1  -0.00000001  0.33979598  0.66020399  1
  Cl  Cl5  1  -0.00000003  0.79428696  0.79428700  1
  Cl  Cl6  1  0.58857295  0.79428596  0.20571403  1
  Cl  Cl7  1  -0.00000001  0.20571299  0.20571300  1
  Cl  Cl8  1  0.41142698  0.20571399  0.79428599  1
