# generated using pymatgen
data_LiTlHC
_symmetry_space_group_name_H-M   'P 1'
_cell_length_a   2.92114043
_cell_length_b   2.92114043
_cell_length_c   6.37293148
_cell_angle_alpha   76.75099945
_cell_angle_beta   76.75099945
_cell_angle_gamma   59.99999237
_symmetry_Int_Tables_number   1
_chemical_formula_structural   LiTlHC
_chemical_formula_sum   'Li1 Tl1 H1 C1'
_cell_volume   45.41594972
_cell_formula_units_Z   1
loop_
 _symmetry_equiv_pos_site_id
 _symmetry_equiv_pos_as_xyz
  1  'x, y, z'
loop_
 _atom_site_type_symbol
 _atom_site_label
 _atom_site_symmetry_multiplicity
 _atom_site_fract_x
 _atom_site_fract_y
 _atom_site_fract_z
 _atom_site_occupancy
  Li  Li0  1  0.50000002  0.49999999  0.49999997  1
  Tl  Tl1  1  0.00000000  0.00000000  0.00000000  1
  H  H2  1  0.88514003  0.88513998  0.34457995  1
  C  C3  1  0.11486000  0.11486000  0.65541999  1
