# generated using pymatgen
data_KCuCl3
_symmetry_space_group_name_H-M   'P 1'
_cell_length_a   5.88714314
_cell_length_b   7.64196110
_cell_length_c   11.43767071
_cell_angle_alpha   90.00000000
_cell_angle_beta   90.00000000
_cell_angle_gamma   90.00000000
_symmetry_Int_Tables_number   1
_chemical_formula_structural   KCuCl3
_chemical_formula_sum   'K4 Cu4 Cl12'
_cell_volume   514.57301397
_cell_formula_units_Z   4
loop_
 _symmetry_equiv_pos_site_id
 _symmetry_equiv_pos_as_xyz
  1  'x, y, z'
loop_
 _atom_site_type_symbol
 _atom_site_label
 _atom_site_symmetry_multiplicity
 _atom_site_fract_x
 _atom_site_fract_y
 _atom_site_fract_z
 _atom_site_occupancy
  K  K0  1  0.00107900  0.64698799  0.74155502  1
  K  K1  1  0.49892099  0.35301200  0.24155501  1
  K  K2  1  0.00288300  0.60860299  0.41768601  1
  K  K3  1  0.49711699  0.39139699  0.91768602  1
  Cu  Cu4  1  0.99711698  0.10860300  0.08231400  1
  Cu  Cu5  1  0.50288299  0.89139699  0.58231401  1
  Cu  Cu6  1  0.50107899  0.85301199  0.25844501  1
  Cu  Cu7  1  0.99892098  0.14698800  0.75844502  1
  Cl  Cl8  1  0.49561699  0.88937499  0.94339402  1
  Cl  Cl9  1  0.50438299  0.38937500  0.55660601  1
  Cl  Cl10  1  0.00438300  0.11062500  0.44339401  1
  Cl  Cl11  1  0.99561698  0.61062499  0.05660600  1
  Cl  Cl12  1  0.33767799  0.69469899  0.04764900  1
  Cl  Cl13  1  0.49639299  0.58305399  0.43486201  1
  Cl  Cl14  1  0.99639298  0.91694599  0.56513801  1
  Cl  Cl15  1  0.16232200  0.30530100  0.54764901  1
  Cl  Cl16  1  0.50360699  0.08305400  0.06513800  1
  Cl  Cl17  1  0.66232198  0.19469900  0.45235101  1
  Cl  Cl18  1  0.83767798  0.80530099  0.95235102  1
  Cl  Cl19  1  0.00360700  0.41694599  0.93486202  1
