# generated using pymatgen
data_EuH5O4
_symmetry_space_group_name_H-M   'P 1'
_cell_length_a   3.50557995
_cell_length_b   5.76614809
_cell_length_c   6.12707996
_cell_angle_alpha   116.59449768
_cell_angle_beta   106.33201599
_cell_angle_gamma   90.61490631
_symmetry_Int_Tables_number   1
_chemical_formula_structural   EuH5O4
_chemical_formula_sum   'Eu1 H5 O4'
_cell_volume   104.92273240
_cell_formula_units_Z   1
loop_
 _symmetry_equiv_pos_site_id
 _symmetry_equiv_pos_as_xyz
  1  'x, y, z'
loop_
 _atom_site_type_symbol
 _atom_site_label
 _atom_site_symmetry_multiplicity
 _atom_site_fract_x
 _atom_site_fract_y
 _atom_site_fract_z
 _atom_site_occupancy
  Eu  Eu0  1  0.17074401  0.15484900  0.31425100  1
  H  H1  1  0.86374704  0.84246601  0.70147703  1
  H  H2  1  0.54231403  0.72527001  0.02737604  1
  H  H3  1  0.34914201  0.30754901  0.99483200  1
  H  H4  1  0.87868503  0.37303501  0.71845201  1
  H  H5  1  0.16389102  0.66322101  0.29137803  1
  O  O6  1  0.53749103  0.88664802  0.01213505  1
  O  O7  1  0.06960201  0.30511301  0.99478899  1
  O  O8  1  0.79610903  0.39744201  0.56165602  1
  O  O9  1  0.23908502  0.83628601  0.44789803  1
