# generated using pymatgen
data_Na3LiS4
_symmetry_space_group_name_H-M   'P 1'
_cell_length_a   5.92979622
_cell_length_b   5.92979622
_cell_length_c   7.27622461
_cell_angle_alpha   114.04647827
_cell_angle_beta   114.04647827
_cell_angle_gamma   90.00000000
_symmetry_Int_Tables_number   1
_chemical_formula_structural   Na3LiS4
_chemical_formula_sum   'Na3 Li1 S4'
_cell_volume   209.09766127
_cell_formula_units_Z   1
loop_
 _symmetry_equiv_pos_site_id
 _symmetry_equiv_pos_as_xyz
  1  'x, y, z'
loop_
 _atom_site_type_symbol
 _atom_site_label
 _atom_site_symmetry_multiplicity
 _atom_site_fract_x
 _atom_site_fract_y
 _atom_site_fract_z
 _atom_site_occupancy
  Li  Li0  1  0.74466005  0.74466000  0.48932011  1
  Na  Na1  1  0.49466007  0.99466001  0.98932013  1
  Na  Na2  1  0.25534002  0.25534000  0.51068004  1
  Na  Na3  1  0.00534004  0.50534000  0.01068004  1
  S  S4  1  0.50000003  0.50000000  1.00000009  1
  S  S5  1  0.25000005  0.75000000  0.50000009  1
  S  S6  1  0.00000000  0.00000000  0.00000000  1
  S  S7  1  0.75000001  0.25000000  0.50000007  1
