# generated using pymatgen
data_SrLiCa4Zn2O12
_symmetry_space_group_name_H-M   'P 1'
_cell_length_a   5.47798204
_cell_length_b   5.52976799
_cell_length_c   7.78879118
_cell_angle_alpha   90.00000000
_cell_angle_beta   90.00000000
_cell_angle_gamma   89.78703308
_symmetry_Int_Tables_number   1
_chemical_formula_structural   SrLiCa4Zn2O12
_chemical_formula_sum   'Sr1 Li1 Ca4 Zn2 O12'
_cell_volume   235.93619703
_cell_formula_units_Z   1
loop_
 _symmetry_equiv_pos_site_id
 _symmetry_equiv_pos_as_xyz
  1  'x, y, z'
loop_
 _atom_site_type_symbol
 _atom_site_label
 _atom_site_symmetry_multiplicity
 _atom_site_fract_x
 _atom_site_fract_y
 _atom_site_fract_z
 _atom_site_occupancy
  Sr  Sr0  1  0.99654800  0.53409702  0.49999999  1
  Ca  Ca1  1  0.49584800  0.95597604  0.99999998  1
  Ca  Ca2  1  0.00152600  0.46644702  -0.00000000  1
  Ca  Ca3  1  0.50129100  0.49149502  0.24692799  1
  Ca  Ca4  1  0.99945800  0.99700104  0.75454098  1
  Li  Li5  1  0.50129100  0.49149502  0.75307198  1
  Zn  Zn6  1  0.99945800  0.99700104  0.24545899  1
  Zn  Zn7  1  0.50423000  0.01340700  0.49999999  1
  O  O8  1  0.43195800  0.50179802  0.49999999  1
  O  O9  1  0.04647001  0.97753704  0.49999999  1
  O  O10  1  0.56685600  0.51134602  -0.00000000  1
  O  O11  1  0.92841899  0.02851900  0.99999998  1
  O  O12  1  0.71599700  0.78738203  0.26861899  1
  O  O13  1  0.79628600  0.29969001  0.71720998  1
  O  O14  1  0.28960100  0.21426601  0.78974398  1
  O  O15  1  0.21143800  0.71560403  0.21023800  1
  O  O16  1  0.28960100  0.21426601  0.21025600  1
  O  O17  1  0.21143800  0.71560403  0.78976198  1
  O  O18  1  0.71599700  0.78738203  0.73138098  1
  O  O19  1  0.79628600  0.29969001  0.28278999  1
