# generated using pymatgen
data_KBi2
_symmetry_space_group_name_H-M   'P 1'
_cell_length_a   7.31184006
_cell_length_b   7.31184006
_cell_length_c   11.85739517
_cell_angle_alpha   90.00000000
_cell_angle_beta   90.00000000
_cell_angle_gamma   120.00000000
_symmetry_Int_Tables_number   1
_chemical_formula_structural   KBi2
_chemical_formula_sum   'K4 Bi8'
_cell_volume   549.00119693
_cell_formula_units_Z   4
loop_
 _symmetry_equiv_pos_site_id
 _symmetry_equiv_pos_as_xyz
  1  'x, y, z'
loop_
 _atom_site_type_symbol
 _atom_site_label
 _atom_site_symmetry_multiplicity
 _atom_site_fract_x
 _atom_site_fract_y
 _atom_site_fract_z
 _atom_site_occupancy
  K  K0  1  0.66666666  0.33333332  0.56137199  1
  K  K1  1  0.33333332  0.66666664  0.06137200  1
  K  K2  1  0.33333332  0.66666664  0.43862799  1
  K  K3  1  0.66666666  0.33333332  0.93862799  1
  Bi  Bi4  1  0.83091699  0.16908399  0.25000000  1
  Bi  Bi5  1  0.16908299  0.33816599  0.74999999  1
  Bi  Bi6  1  0.66183298  0.83091597  0.74999999  1
  Bi  Bi7  1  0.33816699  0.16908399  0.25000000  1
  Bi  Bi8  1  0.00000000  0.00000000  0.00000000  1
  Bi  Bi9  1  0.00000000  0.00000000  0.49999999  1
  Bi  Bi10  1  0.16908299  0.83091597  0.74999999  1
  Bi  Bi11  1  0.83091698  0.66183398  0.25000000  1
