# generated using pymatgen
data_ZrTiFe2
_symmetry_space_group_name_H-M   'P 1'
_cell_length_a   4.20922470
_cell_length_b   4.20922470
_cell_length_c   7.27257109
_cell_angle_alpha   73.17853546
_cell_angle_beta   73.17853546
_cell_angle_gamma   60.00001907
_symmetry_Int_Tables_number   1
_chemical_formula_structural   ZrTiFe2
_chemical_formula_sum   'Zr1 Ti1 Fe2'
_cell_volume   105.17485548
_cell_formula_units_Z   1
loop_
 _symmetry_equiv_pos_site_id
 _symmetry_equiv_pos_as_xyz
  1  'x, y, z'
loop_
 _atom_site_type_symbol
 _atom_site_label
 _atom_site_symmetry_multiplicity
 _atom_site_fract_x
 _atom_site_fract_y
 _atom_site_fract_z
 _atom_site_occupancy
  Ti  Ti0  1  0.63488703  0.63488702  0.09533901  1
  Zr  Zr1  1  0.11695401  0.11695400  0.64913801  1
  Fe  Fe2  1  0.99038004  0.99038002  0.02886002  1
  Fe  Fe3  1  0.50778002  0.50778001  0.47666002  1
