# generated using pymatgen
data_UNi
_symmetry_space_group_name_H-M   'P 1'
_cell_length_a   5.98257685
_cell_length_b   5.98257685
_cell_length_c   7.61682081
_cell_angle_alpha   90.00000000
_cell_angle_beta   90.00000000
_cell_angle_gamma   90.00000000
_symmetry_Int_Tables_number   1
_chemical_formula_structural   UNi
_chemical_formula_sum   'U7 Ni7'
_cell_volume   272.61535304
_cell_formula_units_Z   7
loop_
 _symmetry_equiv_pos_site_id
 _symmetry_equiv_pos_as_xyz
  1  'x, y, z'
loop_
 _atom_site_type_symbol
 _atom_site_label
 _atom_site_symmetry_multiplicity
 _atom_site_fract_x
 _atom_site_fract_y
 _atom_site_fract_z
 _atom_site_occupancy
  U  U0  1  -0.00000000  0.50000001  -0.00000000  1
  U  U1  1  0.50000001  0.00000000  0.00000000  1
  U  U2  1  0.00000000  0.00000000  0.16025900  1
  U  U3  1  0.00000000  0.00000000  0.83974102  1
  U  U4  1  0.50000001  0.50000001  0.83974102  1
  U  U5  1  0.50000001  0.50000001  0.16025900  1
  U  U6  1  0.68301202  0.18301200  0.34954801  1
  Ni  Ni7  1  0.81698802  0.68301202  0.34954801  1
  Ni  Ni8  1  0.18301200  0.31698801  0.34954801  1
  Ni  Ni9  1  0.68301202  0.81698802  0.65045202  1
  Ni  Ni10  1  0.31698801  0.18301200  0.65045202  1
  Ni  Ni11  1  0.31698801  0.81698802  0.34954801  1
  Ni  Ni12  1  0.18301200  0.68301202  0.65045202  1
  Ni  Ni13  1  0.81698802  0.31698801  0.65045202  1
