# generated using pymatgen
data_Na3LiCu2O5
_symmetry_space_group_name_H-M   'P 1'
_cell_length_a   3.84328198
_cell_length_b   3.84328198
_cell_length_c   10.19058704
_cell_angle_alpha   100.86935425
_cell_angle_beta   100.86935425
_cell_angle_gamma   90.00000000
_symmetry_Int_Tables_number   1
_chemical_formula_structural   Na3LiCu2O5
_chemical_formula_sum   'Na3 Li1 Cu2 O5'
_cell_volume   145.07217027
_cell_formula_units_Z   1
loop_
 _symmetry_equiv_pos_site_id
 _symmetry_equiv_pos_as_xyz
  1  'x, y, z'
loop_
 _atom_site_type_symbol
 _atom_site_label
 _atom_site_symmetry_multiplicity
 _atom_site_fract_x
 _atom_site_fract_y
 _atom_site_fract_z
 _atom_site_occupancy
  Na  Na0  1  0.00000000  0.00000000  0.00000000  1
  Na  Na1  1  0.82289200  0.82289200  0.64578397  1
  Na  Na2  1  0.17710800  0.17710800  0.35421599  1
  Li  Li3  1  0.41070400  0.41070400  0.82140797  1
  Cu  Cu4  1  0.58929600  0.58929600  0.17859199  1
  Cu  Cu5  1  0.29351700  0.29351700  0.58703398  1
  O  O6  1  0.70648300  0.70648300  0.41296598  1
  O  O7  1  0.90912100  0.40912100  0.81824196  1
  O  O8  1  0.40912100  0.90912100  0.81824196  1
  O  O9  1  0.09087900  0.59087900  0.18175799  1
  O  O10  1  0.59087900  0.09087900  0.18175799  1
