# generated using pymatgen
data_CaCd2
_symmetry_space_group_name_H-M   'P 1'
_cell_length_a   4.87814379
_cell_length_b   4.87814426
_cell_length_c   7.82133722
_cell_angle_alpha   90.00000000
_cell_angle_beta   90.00000000
_cell_angle_gamma   120.00000000
_symmetry_Int_Tables_number   1
_chemical_formula_structural   CaCd2
_chemical_formula_sum   'Ca2 Cd4'
_cell_volume   161.18361065
_cell_formula_units_Z   2
loop_
 _symmetry_equiv_pos_site_id
 _symmetry_equiv_pos_as_xyz
  1  'x, y, z'
loop_
 _atom_site_type_symbol
 _atom_site_label
 _atom_site_symmetry_multiplicity
 _atom_site_fract_x
 _atom_site_fract_y
 _atom_site_fract_z
 _atom_site_occupancy
  Ca  Ca0  1  0.00000000  0.00000000  0.74918698  1
  Ca  Ca1  1  0.00000000  0.00000000  0.24918699  1
  Cd  Cd2  1  0.66666671  0.33333334  0.56885398  1
  Cd  Cd3  1  0.33333338  0.66666669  0.06885400  1
  Cd  Cd4  1  0.66666671  0.33333334  0.96595897  1
  Cd  Cd5  1  0.33333338  0.66666669  0.46595899  1
