# generated using pymatgen
data_CeAlSi3
_symmetry_space_group_name_H-M   'P 1'
_cell_length_a   4.29560614
_cell_length_b   4.29560614
_cell_length_c   5.82641125
_cell_angle_alpha   111.63128662
_cell_angle_beta   111.63128662
_cell_angle_gamma   90.00000000
_symmetry_Int_Tables_number   1
_chemical_formula_structural   CeAlSi3
_chemical_formula_sum   'Ce1 Al1 Si3'
_cell_volume   91.74481334
_cell_formula_units_Z   1
loop_
 _symmetry_equiv_pos_site_id
 _symmetry_equiv_pos_as_xyz
  1  'x, y, z'
loop_
 _atom_site_type_symbol
 _atom_site_label
 _atom_site_symmetry_multiplicity
 _atom_site_fract_x
 _atom_site_fract_y
 _atom_site_fract_z
 _atom_site_occupancy
  Ce  Ce0  1  0.32775798  0.32775798  0.65551599  1
  Al  Al1  1  0.99885393  0.99885395  0.99770795  1
  Si  Si2  1  0.09026598  0.59026597  0.18053198  1
  Si  Si3  1  0.77125595  0.77125596  0.54251196  1
  Si  Si4  1  0.59026597  0.09026600  0.18053199  1
