# generated using pymatgen
data_Sr(FeP)2
_symmetry_space_group_name_H-M   'P 1'
_cell_length_a   3.91942000
_cell_length_b   3.91942000
_cell_length_c   6.89707184
_cell_angle_alpha   106.50724030
_cell_angle_beta   106.50724030
_cell_angle_gamma   90.00000000
_symmetry_Int_Tables_number   1
_chemical_formula_structural   Sr(FeP)2
_chemical_formula_sum   'Sr1 Fe2 P2'
_cell_volume   97.02159515
_cell_formula_units_Z   1
loop_
 _symmetry_equiv_pos_site_id
 _symmetry_equiv_pos_as_xyz
  1  'x, y, z'
loop_
 _atom_site_type_symbol
 _atom_site_label
 _atom_site_symmetry_multiplicity
 _atom_site_fract_x
 _atom_site_fract_y
 _atom_site_fract_z
 _atom_site_occupancy
  Sr  Sr0  1  0.00000000  0.00000000  0.00000000  1
  Fe  Fe1  1  0.74999999  0.25000000  0.49999999  1
  Fe  Fe2  1  0.24999999  0.74999999  0.49999998  1
  P  P3  1  0.63956199  0.63956200  0.27912398  1
  P  P4  1  0.36043799  0.36043800  0.72087599  1
