# generated using pymatgen
data_CaMnO3
_symmetry_space_group_name_H-M   'P 1'
_cell_length_a   5.63828611
_cell_length_b   5.76841259
_cell_length_c   8.05072689
_cell_angle_alpha   90.00000000
_cell_angle_beta   90.00000000
_cell_angle_gamma   89.97362518
_symmetry_Int_Tables_number   1
_chemical_formula_structural   CaMnO3
_chemical_formula_sum   'Ca4 Mn4 O12'
_cell_volume   261.84149649
_cell_formula_units_Z   4
loop_
 _symmetry_equiv_pos_site_id
 _symmetry_equiv_pos_as_xyz
  1  'x, y, z'
loop_
 _atom_site_type_symbol
 _atom_site_label
 _atom_site_symmetry_multiplicity
 _atom_site_fract_x
 _atom_site_fract_y
 _atom_site_fract_z
 _atom_site_occupancy
  Ca  Ca0  1  0.48907596  0.45775400  0.00000000  1
  Ca  Ca1  1  0.01353494  0.94965700  0.00000000  1
  Ca  Ca2  1  0.51055795  0.55221600  0.50000001  1
  Ca  Ca3  1  0.99060798  0.04744900  0.50000001  1
  Mn  Mn4  1  0.49956999  0.00125700  0.25215300  1
  Mn  Mn5  1  0.00032497  0.50012400  0.74727201  1
  Mn  Mn6  1  0.49956999  0.00125700  0.74784701  1
  Mn  Mn7  1  0.00032497  0.50012400  0.25272800  1
  O  O8  1  0.60258399  0.02197500  0.00000000  1
  O  O9  1  0.91878995  0.54003900  0.00000000  1
  O  O10  1  0.39786793  0.96270900  0.50000001  1
  O  O11  1  0.10412297  0.45772700  0.50000001  1
  O  O12  1  0.19533298  0.19880000  0.19930100  1
  O  O13  1  0.29491295  0.70847600  0.79437701  1
  O  O14  1  0.79860493  0.79683600  0.69464001  1
  O  O15  1  0.69768297  0.29974600  0.30467800  1
  O  O16  1  0.79860493  0.79683600  0.30536000  1
  O  O17  1  0.69768297  0.29974600  0.69532201  1
  O  O18  1  0.19533298  0.19880000  0.80069901  1
  O  O19  1  0.29491295  0.70847600  0.20562300  1
