# generated using pymatgen
data_Hf4TaFe6N
_symmetry_space_group_name_H-M   'P 1'
_cell_length_a   5.45074797
_cell_length_b   5.45074797
_cell_length_c   6.65718079
_cell_angle_alpha   114.16643524
_cell_angle_beta   114.16643524
_cell_angle_gamma   90.00000000
_symmetry_Int_Tables_number   1
_chemical_formula_structural   Hf4TaFe6N
_chemical_formula_sum   'Hf4 Ta1 Fe6 N1'
_cell_volume   161.26817827
_cell_formula_units_Z   1
loop_
 _symmetry_equiv_pos_site_id
 _symmetry_equiv_pos_as_xyz
  1  'x, y, z'
loop_
 _atom_site_type_symbol
 _atom_site_label
 _atom_site_symmetry_multiplicity
 _atom_site_fract_x
 _atom_site_fract_y
 _atom_site_fract_z
 _atom_site_occupancy
  Hf  Hf0  1  0.00000000  0.00000000  0.00000000  1
  Hf  Hf1  1  0.75000001  0.25000000  0.50000001  1
  Hf  Hf2  1  0.50000001  0.50000001  0.00000002  1
  Hf  Hf3  1  0.25000001  0.75000001  0.50000001  1
  Ta  Ta4  1  0.61276402  0.62500001  0.75000001  1
  N  N5  1  0.87500002  0.86276401  0.25000002  1
  Fe  Fe6  1  0.37500002  0.86276401  0.25000002  1
  Fe  Fe7  1  0.13723600  0.12500000  0.74999999  1
  Fe  Fe8  1  0.37500001  0.38723601  0.25000001  1
  Fe  Fe9  1  0.87500002  0.38723601  0.25000001  1
  Fe  Fe10  1  0.13723601  0.62500001  0.75000000  1
  Fe  Fe11  1  0.61276401  0.12500000  0.75000000  1
