# generated using pymatgen
data_Li2CuS5
_symmetry_space_group_name_H-M   'P 1'
_cell_length_a   4.86302233
_cell_length_b   4.86302233
_cell_length_c   4.86302233
_cell_angle_alpha   98.37779999
_cell_angle_beta   98.37779999
_cell_angle_gamma   98.37779999
_symmetry_Int_Tables_number   1
_chemical_formula_structural   Li2CuS5
_chemical_formula_sum   'Li2 Cu1 S5'
_cell_volume   110.91501577
_cell_formula_units_Z   1
loop_
 _symmetry_equiv_pos_site_id
 _symmetry_equiv_pos_as_xyz
  1  'x, y, z'
loop_
 _atom_site_type_symbol
 _atom_site_label
 _atom_site_symmetry_multiplicity
 _atom_site_fract_x
 _atom_site_fract_y
 _atom_site_fract_z
 _atom_site_occupancy
  Li  Li0  1  0.50000000  0.49999998  0.50000006  1
  Li  Li1  1  0.00000000  0.00000000  0.00000000  1
  Cu  Cu2  1  0.28989700  0.28989699  0.92978905  1
  S  S3  1  0.28989702  0.92978897  0.28989707  1
  S  S4  1  0.71010298  0.07021100  0.71010306  1
  S  S5  1  0.71010300  0.71010298  0.07021107  1
  S  S6  1  0.07021102  0.71010298  0.71010306  1
  S  S7  1  0.92978898  0.28989699  0.28989706  1
