# generated using pymatgen
data_Li2Al2SiO7
_symmetry_space_group_name_H-M   'P 1'
_cell_length_a   5.08727217
_cell_length_b   5.08727217
_cell_length_c   7.29155016
_cell_angle_alpha   90.00000000
_cell_angle_beta   90.00000000
_cell_angle_gamma   90.00000000
_symmetry_Int_Tables_number   1
_chemical_formula_structural   Li2Al2SiO7
_chemical_formula_sum   'Li2 Al2 Si1 O7'
_cell_volume   188.70778342
_cell_formula_units_Z   1
loop_
 _symmetry_equiv_pos_site_id
 _symmetry_equiv_pos_as_xyz
  1  'x, y, z'
loop_
 _atom_site_type_symbol
 _atom_site_label
 _atom_site_symmetry_multiplicity
 _atom_site_fract_x
 _atom_site_fract_y
 _atom_site_fract_z
 _atom_site_occupancy
  Li  Li0  1  0.68121098  0.68121098  0.49999999  1
  Li  Li1  1  0.81878897  0.18121099  0.74999998  1
  Al  Al2  1  0.18121099  0.81878897  0.24999999  1
  Al  Al3  1  0.31878899  0.31878899  0.00000000  1
  O  O4  1  0.84331997  0.77204897  0.29587099  1
  Si  Si5  1  0.15667999  0.22795099  0.79587098  1
  O  O6  1  0.77204897  0.84331997  0.70412898  1
  O  O7  1  0.27204899  0.65667998  0.04587100  1
  O  O8  1  0.22795099  0.15667999  0.20412900  1
  O  O9  1  0.34331999  0.72795098  0.45412899  1
  O  O10  1  0.65667998  0.27204899  0.95412898  1
  O  O11  1  0.72795098  0.34331999  0.54587099  1
