# generated using pymatgen
data_Li6YS7
_symmetry_space_group_name_H-M   'P 1'
_cell_length_a   8.14585781
_cell_length_b   8.14585781
_cell_length_c   8.14585781
_cell_angle_alpha   60.00000000
_cell_angle_beta   60.00000000
_cell_angle_gamma   60.00000000
_symmetry_Int_Tables_number   1
_chemical_formula_structural   Li6YS7
_chemical_formula_sum   'Li6 Y1 S7'
_cell_volume   382.20421948
_cell_formula_units_Z   1
loop_
 _symmetry_equiv_pos_site_id
 _symmetry_equiv_pos_as_xyz
  1  'x, y, z'
loop_
 _atom_site_type_symbol
 _atom_site_label
 _atom_site_symmetry_multiplicity
 _atom_site_fract_x
 _atom_site_fract_y
 _atom_site_fract_z
 _atom_site_occupancy
  Li  Li0  1  0.37499998  0.87499995  0.87499995  1
  Li  Li1  1  0.87499995  0.87499995  0.37499998  1
  Li  Li2  1  0.87499995  0.37499998  0.87499995  1
  Li  Li3  1  0.87499995  0.87499995  0.87499995  1
  Li  Li4  1  0.24999999  0.24999999  0.24999999  1
  Li  Li5  1  0.49999997  0.49999997  0.49999997  1
  S  S6  1  0.11201299  0.11201199  0.66396297  1
  Y  Y7  1  0.08603600  0.63798797  0.63798797  1
  S  S8  1  0.11201299  0.66396297  0.11201199  1
  S  S9  1  0.11201299  0.11201199  0.11201199  1
  S  S10  1  0.63798697  0.08603700  0.63798797  1
  S  S11  1  0.63798697  0.63798797  0.63798797  1
  S  S12  1  0.63798697  0.63798797  0.08603700  1
  S  S13  1  0.66396397  0.11201199  0.11201199  1
