# generated using pymatgen
data_Pr4Sn3Ge8
_symmetry_space_group_name_H-M   'P 1'
_cell_length_a   4.27403593
_cell_length_b   9.59139442
_cell_length_c   9.59139442
_cell_angle_alpha   120.00000000
_cell_angle_beta   90.00000000
_cell_angle_gamma   90.00000000
_symmetry_Int_Tables_number   1
_chemical_formula_structural   Pr4Sn3Ge8
_chemical_formula_sum   'Pr4 Sn3 Ge8'
_cell_volume   340.51190630
_cell_formula_units_Z   1
loop_
 _symmetry_equiv_pos_site_id
 _symmetry_equiv_pos_as_xyz
  1  'x, y, z'
loop_
 _atom_site_type_symbol
 _atom_site_label
 _atom_site_symmetry_multiplicity
 _atom_site_fract_x
 _atom_site_fract_y
 _atom_site_fract_z
 _atom_site_occupancy
  Pr  Pr0  1  -0.00000000  0.31880799  0.15940400  1
  Pr  Pr1  1  -0.00000000  0.84059597  0.68119199  1
  Pr  Pr2  1  -0.00000000  0.84059597  0.15940400  1
  Pr  Pr3  1  0.50000001  0.58604698  0.79302298  1
  Sn  Sn4  1  0.50000001  0.20697599  0.41395199  1
  Sn  Sn5  1  0.50000001  0.20697599  0.79302298  1
  Ge  Ge6  1  0.50000001  0.85811497  0.42905799  1
  Sn  Sn7  1  0.50000001  0.57094298  0.14188600  1
  Ge  Ge8  1  0.50000001  0.57094298  0.42905799  1
  Ge  Ge9  1  -0.00000000  0.66666664  0.33333333  1
  Ge  Ge10  1  -0.00000000  0.02147500  0.51073698  1
  Ge  Ge11  1  -0.00000000  0.48926198  0.97852397  1
  Ge  Ge12  1  -0.00000000  0.48926198  0.51073699  1
  Ge  Ge13  1  0.50000001  0.00000000  -0.00000000  1
  Ge  Ge14  1  -0.00000000  0.33333332  0.66666665  1
