# generated using pymatgen
data_DyGe
_symmetry_space_group_name_H-M   'P 1'
_cell_length_a   4.34518003
_cell_length_b   4.34567595
_cell_length_c   13.16438961
_cell_angle_alpha   90.00000000
_cell_angle_beta   99.49929047
_cell_angle_gamma   90.00000000
_symmetry_Int_Tables_number   1
_chemical_formula_structural   DyGe
_chemical_formula_sum   'Dy4 Ge4'
_cell_volume   245.17118917
_cell_formula_units_Z   4
loop_
 _symmetry_equiv_pos_site_id
 _symmetry_equiv_pos_as_xyz
  1  'x, y, z'
loop_
 _atom_site_type_symbol
 _atom_site_label
 _atom_site_symmetry_multiplicity
 _atom_site_fract_x
 _atom_site_fract_y
 _atom_site_fract_z
 _atom_site_occupancy
  Dy  Dy0  1  0.16977900  0.75000001  0.33955800  1
  Dy  Dy1  1  0.83022100  0.25000000  0.66044201  1
  Dy  Dy2  1  0.92535900  0.75000001  0.85071801  1
  Dy  Dy3  1  0.07464100  0.25000000  0.14928200  1
  Ge  Ge4  1  0.57469500  0.75000001  0.14939000  1
  Ge  Ge5  1  0.42530500  0.25000000  0.85061001  1
  Ge  Ge6  1  0.29358600  0.75000001  0.58717201  1
  Ge  Ge7  1  0.70641400  0.25000000  0.41282801  1
