# generated using pymatgen
data_Na3LiS4
_symmetry_space_group_name_H-M   'P 1'
_cell_length_a   4.16427612
_cell_length_b   5.66327715
_cell_length_c   7.18801308
_cell_angle_alpha   90.00000000
_cell_angle_beta   89.95213318
_cell_angle_gamma   90.00000000
_symmetry_Int_Tables_number   1
_chemical_formula_structural   Na3LiS4
_chemical_formula_sum   'Na3 Li1 S4'
_cell_volume   169.51808648
_cell_formula_units_Z   1
loop_
 _symmetry_equiv_pos_site_id
 _symmetry_equiv_pos_as_xyz
  1  'x, y, z'
loop_
 _atom_site_type_symbol
 _atom_site_label
 _atom_site_symmetry_multiplicity
 _atom_site_fract_x
 _atom_site_fract_y
 _atom_site_fract_z
 _atom_site_occupancy
  Li  Li0  1  0.99993605  0.50564799  0.00755800  1
  Na  Na1  1  0.50001802  0.50328699  0.49262299  1
  Na  Na2  1  0.99993605  0.99435197  0.00755800  1
  Na  Na3  1  0.50001802  0.99671297  0.49262299  1
  S  S4  1  0.50011102  0.24999999  0.83289999  1
  S  S5  1  0.00012200  0.24999999  0.33437700  1
  S  S6  1  0.99997705  0.74999998  0.66724299  1
  S  S7  1  0.49988202  0.74999998  0.16512000  1
