# generated using pymatgen
data_SrCuS
_symmetry_space_group_name_H-M   'P 1'
_cell_length_a   4.40141010
_cell_length_b   4.40141010
_cell_length_c   20.47163773
_cell_angle_alpha   90.00000000
_cell_angle_beta   90.00000000
_cell_angle_gamma   120.00000000
_symmetry_Int_Tables_number   1
_chemical_formula_structural   SrCuS
_chemical_formula_sum   'Sr4 Cu4 S4'
_cell_volume   343.45266544
_cell_formula_units_Z   4
loop_
 _symmetry_equiv_pos_site_id
 _symmetry_equiv_pos_as_xyz
  1  'x, y, z'
loop_
 _atom_site_type_symbol
 _atom_site_label
 _atom_site_symmetry_multiplicity
 _atom_site_fract_x
 _atom_site_fract_y
 _atom_site_fract_z
 _atom_site_occupancy
  Sr  Sr0  1  0.00000000  0.00000000  0.49999998  1
  Sr  Sr1  1  0.00000000  0.00000000  0.00000000  1
  Sr  Sr2  1  0.00000000  0.00000000  0.74999997  1
  Sr  Sr3  1  0.00000000  0.00000000  0.24999999  1
  Cu  Cu4  1  0.66666666  0.33333334  0.63499898  1
  Cu  Cu5  1  0.33333334  0.66666667  0.36500099  1
  Cu  Cu6  1  0.33333334  0.66666667  0.13499900  1
  Cu  Cu7  1  0.66666666  0.33333334  0.86500097  1
  S  S8  1  0.66666666  0.33333334  0.11628100  1
  S  S9  1  0.33333334  0.66666667  0.88371897  1
  S  S10  1  0.33333334  0.66666667  0.61628098  1
  S  S11  1  0.66666666  0.33333334  0.38371899  1
