# generated using pymatgen
data_Ba3In3Pd2
_symmetry_space_group_name_H-M   'P 1'
_cell_length_a   6.77279568
_cell_length_b   6.77279568
_cell_length_c   10.47586727
_cell_angle_alpha   90.00000000
_cell_angle_beta   90.00000000
_cell_angle_gamma   100.33647156
_symmetry_Int_Tables_number   1
_chemical_formula_structural   Ba3In3Pd2
_chemical_formula_sum   'Ba6 In6 Pd4'
_cell_volume   472.73739871
_cell_formula_units_Z   2
loop_
 _symmetry_equiv_pos_site_id
 _symmetry_equiv_pos_as_xyz
  1  'x, y, z'
loop_
 _atom_site_type_symbol
 _atom_site_label
 _atom_site_symmetry_multiplicity
 _atom_site_fract_x
 _atom_site_fract_y
 _atom_site_fract_z
 _atom_site_occupancy
  Ba  Ba0  1  0.65238595  0.65238597  0.74999998  1
  Ba  Ba1  1  0.34761397  0.34761399  0.24999999  1
  Ba  Ba2  1  0.78989396  0.21010599  0.49999999  1
  Ba  Ba3  1  0.78989396  0.21010599  -0.00000000  1
  Ba  Ba4  1  0.21010595  0.78989397  0.49999999  1
  Ba  Ba5  1  0.21010595  0.78989397  -0.00000000  1
  In  In6  1  0.10443597  0.46298598  0.74999998  1
  In  In7  1  0.53701394  0.89556396  0.24999999  1
  In  In8  1  0.89556394  0.53701398  0.24999999  1
  In  In9  1  0.46298598  0.10443600  0.74999998  1
  In  In10  1  0.06767399  0.06767400  0.74999998  1
  In  In11  1  0.93232592  0.93232596  0.24999999  1
  Pd  Pd12  1  0.29793098  0.29793099  0.57106099  1
  Pd  Pd13  1  0.70206894  0.70206897  0.42893899  1
  Pd  Pd14  1  0.29793098  0.29793099  0.92893898  1
  Pd  Pd15  1  0.70206894  0.70206897  0.07106100  1
