# generated using pymatgen
data_RbSb
_symmetry_space_group_name_H-M   'P 1'
_cell_length_a   6.73913622
_cell_length_b   7.15903616
_cell_length_c   13.50312519
_cell_angle_alpha   90.00000000
_cell_angle_beta   90.00000000
_cell_angle_gamma   90.00000000
_symmetry_Int_Tables_number   1
_chemical_formula_structural   RbSb
_chemical_formula_sum   'Rb8 Sb8'
_cell_volume   651.46799540
_cell_formula_units_Z   8
loop_
 _symmetry_equiv_pos_site_id
 _symmetry_equiv_pos_as_xyz
  1  'x, y, z'
loop_
 _atom_site_type_symbol
 _atom_site_label
 _atom_site_symmetry_multiplicity
 _atom_site_fract_x
 _atom_site_fract_y
 _atom_site_fract_z
 _atom_site_occupancy
  Rb  Rb0  1  0.54845698  0.00000000  0.00000000  1
  Rb  Rb1  1  0.45154299  0.49999999  0.49999999  1
  Rb  Rb2  1  0.82314897  0.49999999  0.74582799  1
  Rb  Rb3  1  0.82314897  0.49999999  0.25417200  1
  Rb  Rb4  1  0.17685099  0.00000000  0.75417199  1
  Rb  Rb5  1  0.17685099  0.00000000  0.24582800  1
  Rb  Rb6  1  0.32367899  0.49999999  0.88414599  1
  Rb  Rb7  1  0.32367899  0.49999999  0.11585400  1
  Sb  Sb8  1  0.03246000  0.27707199  -0.00000000  1
  Sb  Sb9  1  0.03246000  0.72292798  -0.00000000  1
  Sb  Sb10  1  0.96753997  0.77707198  0.49999999  1
  Sb  Sb11  1  0.96753997  0.22292800  0.49999999  1
  Sb  Sb12  1  0.67632098  0.00000000  0.38414599  1
  Sb  Sb13  1  0.67632098  0.00000000  0.61585399  1
  Sb  Sb14  1  0.67889398  0.49999999  0.00000000  1
  Sb  Sb15  1  0.32110599  0.00000000  0.49999999  1
