# generated using pymatgen
data_Er2Fe3Si7
_symmetry_space_group_name_H-M   'P 1'
_cell_length_a   5.03909636
_cell_length_b   5.03909540
_cell_length_c   7.90058613
_cell_angle_alpha   90.00000000
_cell_angle_beta   90.00000000
_cell_angle_gamma   119.58073425
_symmetry_Int_Tables_number   1
_chemical_formula_structural   Er2Fe3Si7
_chemical_formula_sum   'Er2 Fe3 Si7'
_cell_volume   174.46749851
_cell_formula_units_Z   1
loop_
 _symmetry_equiv_pos_site_id
 _symmetry_equiv_pos_as_xyz
  1  'x, y, z'
loop_
 _atom_site_type_symbol
 _atom_site_label
 _atom_site_symmetry_multiplicity
 _atom_site_fract_x
 _atom_site_fract_y
 _atom_site_fract_z
 _atom_site_occupancy
  Er  Er0  1  0.00000000  0.00000000  0.49999999  1
  Er  Er1  1  0.00000000  0.00000000  0.00000000  1
  Fe  Fe2  1  0.30550400  0.62916403  -0.00000000  1
  Fe  Fe3  1  0.50000000  0.00000000  0.23967200  1
  Si  Si4  1  0.62916399  0.30550401  0.49999999  1
  Si  Si5  1  0.37083599  0.69449603  0.49999999  1
  Fe  Fe6  1  0.69449599  0.37083602  0.99999998  1
  Si  Si7  1  -0.00000000  0.50000002  0.73967199  1
  Si  Si8  1  -0.00000000  0.50000002  0.26032800  1
  Si  Si9  1  0.50000000  0.00000000  0.76032799  1
  Si  Si10  1  0.49999999  0.50000002  0.25000000  1
  Si  Si11  1  0.49999999  0.50000002  0.74999999  1
