# generated using pymatgen
data_Ba2NiMoO6
_symmetry_space_group_name_H-M   'P 1'
_cell_length_a   5.69683409
_cell_length_b   5.69683409
_cell_length_c   5.69683456
_cell_angle_alpha   60.66001511
_cell_angle_beta   60.66001511
_cell_angle_gamma   60.66001892
_symmetry_Int_Tables_number   1
_chemical_formula_structural   Ba2NiMoO6
_chemical_formula_sum   'Ba2 Ni1 Mo1 O6'
_cell_volume   132.68116413
_cell_formula_units_Z   1
loop_
 _symmetry_equiv_pos_site_id
 _symmetry_equiv_pos_as_xyz
  1  'x, y, z'
loop_
 _atom_site_type_symbol
 _atom_site_label
 _atom_site_symmetry_multiplicity
 _atom_site_fract_x
 _atom_site_fract_y
 _atom_site_fract_z
 _atom_site_occupancy
  Ba  Ba0  1  0.24886799  0.24886800  0.24886801  1
  Ba  Ba1  1  0.75113196  0.75113200  0.75113202  1
  Ni  Ni2  1  0.49999997  0.50000000  0.50000002  1
  Mo  Mo3  1  0.00000000  0.00000000  0.00000000  1
  O  O4  1  0.66315098  0.24682700  0.83858302  1
  O  O5  1  0.24682696  0.83858300  0.66315102  1
  O  O6  1  0.83858296  0.66315100  0.24682701  1
  O  O7  1  0.33684897  0.75317300  0.16141701  1
  O  O8  1  0.16141698  0.33684900  0.75317302  1
  O  O9  1  0.75317298  0.16141700  0.33684901  1
