# generated using pymatgen
data_YbSn2
_symmetry_space_group_name_H-M   'P 1'
_cell_length_a   4.45232201
_cell_length_b   7.63769913
_cell_length_c   9.11923409
_cell_angle_alpha   90.00000000
_cell_angle_beta   90.00000000
_cell_angle_gamma   90.00000000
_symmetry_Int_Tables_number   1
_chemical_formula_structural   YbSn2
_chemical_formula_sum   'Yb4 Sn8'
_cell_volume   310.10407730
_cell_formula_units_Z   4
loop_
 _symmetry_equiv_pos_site_id
 _symmetry_equiv_pos_as_xyz
  1  'x, y, z'
loop_
 _atom_site_type_symbol
 _atom_site_label
 _atom_site_symmetry_multiplicity
 _atom_site_fract_x
 _atom_site_fract_y
 _atom_site_fract_z
 _atom_site_occupancy
  Yb  Yb0  1  0.25000000  0.24965300  0.87858099  1
  Yb  Yb1  1  0.25000000  0.74965299  0.62141899  1
  Yb  Yb2  1  0.75000000  0.75034699  0.12141900  1
  Yb  Yb3  1  0.75000000  0.25034700  0.37858100  1
  Sn  Sn4  1  0.25000000  0.36019299  0.56976799  1
  Sn  Sn5  1  0.25000000  0.86019299  0.93023199  1
  Sn  Sn6  1  0.75000000  0.63980699  0.43023200  1
  Sn  Sn7  1  0.75000000  0.13980700  0.06976800  1
  Sn  Sn8  1  0.25000000  0.47085699  0.16397900  1
  Sn  Sn9  1  0.25000000  0.97085698  0.33602100  1
  Sn  Sn10  1  0.75000000  0.52914299  0.83602099  1
  Sn  Sn11  1  0.75000000  0.02914300  0.66397899  1
