# generated using pymatgen
data_Pr(SiNi)2
_symmetry_space_group_name_H-M   'P 1'
_cell_length_a   3.89130807
_cell_length_b   3.89130807
_cell_length_c   6.01910686
_cell_angle_alpha   108.85935974
_cell_angle_beta   108.85935974
_cell_angle_gamma   90.00000000
_symmetry_Int_Tables_number   1
_chemical_formula_structural   Pr(SiNi)2
_chemical_formula_sum   'Pr1 Si2 Ni2'
_cell_volume   81.06213345
_cell_formula_units_Z   1
loop_
 _symmetry_equiv_pos_site_id
 _symmetry_equiv_pos_as_xyz
  1  'x, y, z'
loop_
 _atom_site_type_symbol
 _atom_site_label
 _atom_site_symmetry_multiplicity
 _atom_site_fract_x
 _atom_site_fract_y
 _atom_site_fract_z
 _atom_site_occupancy
  Pr  Pr0  1  0.00000000  0.00000000  0.00000000  1
  Ni  Ni1  1  0.74999997  0.24999999  0.49999996  1
  Ni  Ni2  1  0.24999997  0.74999998  0.49999995  1
  Si  Si3  1  0.62198096  0.62198098  0.24396196  1
  Si  Si4  1  0.37801898  0.37801899  0.75603795  1
