# generated using pymatgen
data_Sr4H2O3
_symmetry_space_group_name_H-M   'P 1'
_cell_length_a   4.12482405
_cell_length_b   4.12482405
_cell_length_c   11.41281128
_cell_angle_alpha   100.41113281
_cell_angle_beta   100.41113281
_cell_angle_gamma   90.00000000
_symmetry_Int_Tables_number   1
_chemical_formula_structural   Sr4H2O3
_chemical_formula_sum   'Sr4 H2 O3'
_cell_volume   187.73131986
_cell_formula_units_Z   1
loop_
 _symmetry_equiv_pos_site_id
 _symmetry_equiv_pos_as_xyz
  1  'x, y, z'
loop_
 _atom_site_type_symbol
 _atom_site_label
 _atom_site_symmetry_multiplicity
 _atom_site_fract_x
 _atom_site_fract_y
 _atom_site_fract_z
 _atom_site_occupancy
  Sr  Sr0  1  0.31443700  0.31443700  0.62887402  1
  Sr  Sr1  1  0.68556299  0.68556299  0.37112602  1
  Sr  Sr2  1  0.49999999  0.00000000  0.00000000  1
  Sr  Sr3  1  0.00000000  0.50000000  0.00000000  1
  H  H4  1  0.90270599  0.90270599  0.80541203  1
  H  H5  1  0.09729400  0.09729400  0.19458801  1
  O  O6  1  0.50000000  0.50000000  0.00000000  1
  O  O7  1  0.25000000  0.74999999  0.50000002  1
  O  O8  1  0.74999999  0.25000000  0.50000002  1
