# generated using pymatgen
data_NaLiCuS4
_symmetry_space_group_name_H-M   'P 1'
_cell_length_a   3.37959599
_cell_length_b   5.63204098
_cell_length_c   7.38705730
_cell_angle_alpha   107.59439087
_cell_angle_beta   103.22355652
_cell_angle_gamma   90.00000000
_symmetry_Int_Tables_number   1
_chemical_formula_structural   NaLiCuS4
_chemical_formula_sum   'Na1 Li1 Cu1 S4'
_cell_volume   130.11144135
_cell_formula_units_Z   1
loop_
 _symmetry_equiv_pos_site_id
 _symmetry_equiv_pos_as_xyz
  1  'x, y, z'
loop_
 _atom_site_type_symbol
 _atom_site_label
 _atom_site_symmetry_multiplicity
 _atom_site_fract_x
 _atom_site_fract_y
 _atom_site_fract_z
 _atom_site_occupancy
  Na  Na0  1  0.49999997  0.49999998  -0.00000004  1
  Li  Li1  1  0.24688699  0.20347299  0.49377399  1
  Cu  Cu2  1  0.75311295  0.79652696  0.50622595  1
  S  S3  1  0.64077099  0.00059700  0.28154199  1
  S  S4  1  0.35922895  0.99940295  0.71845794  1
  S  S5  1  0.16311297  0.51583697  0.32622597  1
  S  S6  1  0.83688697  0.48416298  0.67377396  1
