# generated using pymatgen
data_Pr2Mg
_symmetry_space_group_name_H-M   'P 1'
_cell_length_a   3.89841604
_cell_length_b   7.10459757
_cell_length_c   8.08780003
_cell_angle_alpha   105.93208313
_cell_angle_beta   90.00000000
_cell_angle_gamma   105.92379761
_symmetry_Int_Tables_number   1
_chemical_formula_structural   Pr2Mg
_chemical_formula_sum   'Pr4 Mg2'
_cell_volume   206.44704149
_cell_formula_units_Z   2
loop_
 _symmetry_equiv_pos_site_id
 _symmetry_equiv_pos_as_xyz
  1  'x, y, z'
loop_
 _atom_site_type_symbol
 _atom_site_label
 _atom_site_symmetry_multiplicity
 _atom_site_fract_x
 _atom_site_fract_y
 _atom_site_fract_z
 _atom_site_occupancy
  Pr  Pr0  1  0.97695195  0.95390401  0.76065803  1
  Pr  Pr1  1  0.68077198  0.36154401  0.63163601  1
  Pr  Pr2  1  0.31922797  0.63845601  0.36836402  1
  Pr  Pr3  1  0.02304800  0.04609600  0.23934200  1
  Mg  Mg4  1  0.66696998  0.33394001  0.04351301  1
  Mg  Mg5  1  0.33302997  0.66606001  0.95648702  1
