# generated using pymatgen
data_Pr3Sn5
_symmetry_space_group_name_H-M   'P 1'
_cell_length_a   7.82317591
_cell_length_b   8.88965988
_cell_length_c   7.82317591
_cell_angle_alpha   63.89513016
_cell_angle_beta   90.00000000
_cell_angle_gamma   116.10486603
_symmetry_Int_Tables_number   1
_chemical_formula_structural   Pr3Sn5
_chemical_formula_sum   'Pr6 Sn10'
_cell_volume   425.89355581
_cell_formula_units_Z   2
loop_
 _symmetry_equiv_pos_site_id
 _symmetry_equiv_pos_as_xyz
  1  'x, y, z'
loop_
 _atom_site_type_symbol
 _atom_site_label
 _atom_site_symmetry_multiplicity
 _atom_site_fract_x
 _atom_site_fract_y
 _atom_site_fract_z
 _atom_site_occupancy
  Pr  Pr0  1  0.67631795  0.70827096  0.46804702  1
  Pr  Pr1  1  0.53195295  0.70827096  0.96804702  1
  Pr  Pr2  1  0.03195294  0.70827096  0.82368202  1
  Pr  Pr3  1  0.82368199  0.29172898  0.67631801  1
  Sn  Sn4  1  0.32368198  0.29172898  0.53195301  1
  Pr  Pr5  1  0.17631794  0.70827096  0.32368201  1
  Pr  Pr6  1  0.46804698  0.29172898  0.03195300  1
  Sn  Sn7  1  0.50000001  0.00000000  0.50000001  1
  Sn  Sn8  1  0.96804699  0.29172898  0.17631801  1
  Sn  Sn9  1  0.00000000  0.00000000  0.00000000  1
  Sn  Sn10  1  0.88493701  0.00000000  0.61506301  1
  Sn  Sn11  1  0.61506301  0.00000000  0.11506300  1
  Sn  Sn12  1  0.38493692  0.99999995  0.88493702  1
  Sn  Sn13  1  0.11506292  0.99999995  0.38493702  1
  Sn  Sn14  1  0.74999997  0.49999997  0.25000001  1
  Sn  Sn15  1  0.24999996  0.49999997  0.75000002  1
