# generated using pymatgen
data_Pr3Mg
_symmetry_space_group_name_H-M   'P 1'
_cell_length_a   4.84941578
_cell_length_b   4.84941578
_cell_length_c   6.08553886
_cell_angle_alpha   113.48054504
_cell_angle_beta   113.48054504
_cell_angle_gamma   90.00000000
_symmetry_Int_Tables_number   1
_chemical_formula_structural   Pr3Mg
_chemical_formula_sum   'Pr3 Mg1'
_cell_volume   118.22996971
_cell_formula_units_Z   1
loop_
 _symmetry_equiv_pos_site_id
 _symmetry_equiv_pos_as_xyz
  1  'x, y, z'
loop_
 _atom_site_type_symbol
 _atom_site_label
 _atom_site_symmetry_multiplicity
 _atom_site_fract_x
 _atom_site_fract_y
 _atom_site_fract_z
 _atom_site_occupancy
  Pr  Pr0  1  0.00000000  0.00000000  0.00000000  1
  Pr  Pr1  1  0.75000001  0.25000001  0.49999995  1
  Pr  Pr2  1  0.24999998  0.75000002  0.49999995  1
  Mg  Mg3  1  0.49999999  0.50000001  -0.00000004  1
