# generated using pymatgen
data_Pr7NdGe5Rh6
_symmetry_space_group_name_H-M   'P 1'
_cell_length_a   8.44639206
_cell_length_b   8.44639206
_cell_length_c   8.44639206
_cell_angle_alpha   109.47122192
_cell_angle_beta   109.47122192
_cell_angle_gamma   109.47122192
_symmetry_Int_Tables_number   1
_chemical_formula_structural   Pr7NdGe5Rh6
_chemical_formula_sum   'Pr7 Nd1 Ge5 Rh6'
_cell_volume   463.86520579
_cell_formula_units_Z   1
loop_
 _symmetry_equiv_pos_site_id
 _symmetry_equiv_pos_as_xyz
  1  'x, y, z'
loop_
 _atom_site_type_symbol
 _atom_site_label
 _atom_site_symmetry_multiplicity
 _atom_site_fract_x
 _atom_site_fract_y
 _atom_site_fract_z
 _atom_site_occupancy
  Pr  Pr0  1  0.48979204  0.18735402  0.30243804  1
  Pr  Pr1  1  0.51020808  0.81264608  0.69756210  1
  Pr  Pr2  1  0.11508406  0.81264608  0.30243806  1
  Pr  Pr3  1  0.88491607  0.18735402  0.69756207  1
  Pr  Pr4  1  0.18735406  0.69756207  0.88491609  1
  Pr  Pr5  1  0.81264607  0.30243803  0.11508404  1
  Nd  Nd6  1  0.81264610  0.69756207  0.51020809  1
  Ge  Ge7  1  0.18735403  0.30243803  0.48979205  1
  Pr  Pr8  1  0.30243803  0.11508401  0.81264606  1
  Ge  Ge9  1  0.69756210  0.88491608  0.18735408  1
  Ge  Ge10  1  0.69756208  0.51020805  0.81264609  1
  Ge  Ge11  1  0.30243805  0.48979205  0.18735404  1
  Rh  Rh12  1  0.00000000  0.00000000  0.00000000  1
  Rh  Rh13  1  0.50000009  0.87717708  0.37717708  1
  Rh  Rh14  1  0.50000004  0.12282301  0.62282305  1
  Ge  Ge15  1  0.12282305  0.62282306  0.50000007  1
  Rh  Rh16  1  0.87717708  0.37717704  0.50000007  1
  Rh  Rh17  1  0.62282307  0.50000005  0.12282305  1
  Rh  Rh18  1  0.37717706  0.50000005  0.87717709  1
