# generated using pymatgen
data_Ce2Ga2(SiGe)3
_symmetry_space_group_name_H-M   'P 1'
_cell_length_a   4.05362511
_cell_length_b   4.05362511
_cell_length_c   10.26771164
_cell_angle_alpha   90.00000000
_cell_angle_beta   90.00000000
_cell_angle_gamma   90.00000000
_symmetry_Int_Tables_number   1
_chemical_formula_structural   Ce2Ga2(SiGe)3
_chemical_formula_sum   'Ce2 Ga2 Si3 Ge3'
_cell_volume   168.71776966
_cell_formula_units_Z   1
loop_
 _symmetry_equiv_pos_site_id
 _symmetry_equiv_pos_as_xyz
  1  'x, y, z'
loop_
 _atom_site_type_symbol
 _atom_site_label
 _atom_site_symmetry_multiplicity
 _atom_site_fract_x
 _atom_site_fract_y
 _atom_site_fract_z
 _atom_site_occupancy
  Ce  Ce0  1  0.49999999  0.00000000  0.75231803  1
  Ce  Ce1  1  0.00000000  0.49999999  0.24768201  1
  Ga  Ga2  1  0.00000000  0.00000000  0.50000002  1
  Si  Si3  1  0.00000000  0.00000000  0.00000000  1
  Ga  Ga4  1  0.49999999  0.49999999  0.50000002  1
  Ge  Ge5  1  0.49999999  0.49999999  0.00000000  1
  Ge  Ge6  1  0.00000000  0.49999999  0.87452203  1
  Si  Si7  1  0.49999999  0.00000000  0.36740201  1
  Ge  Ge8  1  0.49999999  0.00000000  0.12547800  1
  Si  Si9  1  0.00000000  0.49999999  0.63259802  1
