# generated using pymatgen
data_Ca2AgS2
_symmetry_space_group_name_H-M   'P 1'
_cell_length_a   4.17385387
_cell_length_b   5.35278797
_cell_length_c   7.49948168
_cell_angle_alpha   110.90853882
_cell_angle_beta   106.15734863
_cell_angle_gamma   90.00000000
_symmetry_Int_Tables_number   1
_chemical_formula_structural   Ca2AgS2
_chemical_formula_sum   'Ca2 Ag1 S2'
_cell_volume   149.41252093
_cell_formula_units_Z   1
loop_
 _symmetry_equiv_pos_site_id
 _symmetry_equiv_pos_as_xyz
  1  'x, y, z'
loop_
 _atom_site_type_symbol
 _atom_site_label
 _atom_site_symmetry_multiplicity
 _atom_site_fract_x
 _atom_site_fract_y
 _atom_site_fract_z
 _atom_site_occupancy
  Ca  Ca0  1  0.66763302  0.16763300  0.33526600  1
  Ca  Ca1  1  0.33236702  0.83236701  0.66473400  1
  Ag  Ag2  1  0.00000000  0.00000000  0.00000000  1
  S  S3  1  0.29846001  0.29846000  0.59691999  1
  S  S4  1  0.70154003  0.70154001  0.40308000  1
