# generated using pymatgen
data_Li2CoS4
_symmetry_space_group_name_H-M   'P 1'
_cell_length_a   3.42863202
_cell_length_b   5.89422560
_cell_length_c   6.78227758
_cell_angle_alpha   114.87149048
_cell_angle_beta   104.64113617
_cell_angle_gamma   90.00000000
_symmetry_Int_Tables_number   1
_chemical_formula_structural   Li2CoS4
_chemical_formula_sum   'Li2 Co1 S4'
_cell_volume   119.42816053
_cell_formula_units_Z   1
loop_
 _symmetry_equiv_pos_site_id
 _symmetry_equiv_pos_as_xyz
  1  'x, y, z'
loop_
 _atom_site_type_symbol
 _atom_site_label
 _atom_site_symmetry_multiplicity
 _atom_site_fract_x
 _atom_site_fract_y
 _atom_site_fract_z
 _atom_site_occupancy
  Li  Li0  1  0.29161001  0.76421000  0.58322000  1
  Li  Li1  1  0.70839000  0.23579000  0.41678000  1
  Co  Co2  1  0.00000001  0.50000000  0.00000000  1
  S  S3  1  0.36534900  0.43902500  0.73069799  1
  S  S4  1  0.93684800  0.05436300  0.87369599  1
  S  S5  1  0.06315201  0.94563700  0.12630401  1
  S  S6  1  0.63465100  0.56097500  0.26930200  1
