# generated using pymatgen
data_Be
_symmetry_space_group_name_H-M   'P 1'
_cell_length_a   3.53624392
_cell_length_b   3.53624392
_cell_length_c   4.28853750
_cell_angle_alpha   114.34878540
_cell_angle_beta   114.34878540
_cell_angle_gamma   90.00000000
_symmetry_Int_Tables_number   1
_chemical_formula_structural   Be
_chemical_formula_sum   Be4
_cell_volume   43.56890392
_cell_formula_units_Z   4
loop_
 _symmetry_equiv_pos_site_id
 _symmetry_equiv_pos_as_xyz
  1  'x, y, z'
loop_
 _atom_site_type_symbol
 _atom_site_label
 _atom_site_symmetry_multiplicity
 _atom_site_fract_x
 _atom_site_fract_y
 _atom_site_fract_z
 _atom_site_occupancy
  Be  Be0  1  0.00000000  0.00000000  0.00000000  1
  Be  Be1  1  0.75000004  0.25000001  0.50000005  1
  Be  Be2  1  0.25000005  0.75000004  0.50000006  1
  Be  Be3  1  0.50000005  0.50000003  0.00000005  1
