# generated using pymatgen
data_Ag2Te
_symmetry_space_group_name_H-M   'P 1'
_cell_length_a   4.48537397
_cell_length_b   6.37699223
_cell_length_c   7.75268984
_cell_angle_alpha   114.28501892
_cell_angle_beta   106.81476593
_cell_angle_gamma   90.00000000
_symmetry_Int_Tables_number   1
_chemical_formula_structural   Ag2Te
_chemical_formula_sum   'Ag4 Te2'
_cell_volume   191.67993749
_cell_formula_units_Z   2
loop_
 _symmetry_equiv_pos_site_id
 _symmetry_equiv_pos_as_xyz
  1  'x, y, z'
loop_
 _atom_site_type_symbol
 _atom_site_label
 _atom_site_symmetry_multiplicity
 _atom_site_fract_x
 _atom_site_fract_y
 _atom_site_fract_z
 _atom_site_occupancy
  Ag  Ag0  1  0.00013500  0.00013500  0.00027000  1
  Ag  Ag1  1  0.67139295  0.67139296  0.34278595  1
  Ag  Ag2  1  0.00688297  0.50688297  0.01376597  1
  Ag  Ag3  1  0.34063594  0.84063595  0.68127196  1
  Te  Te4  1  0.65388998  0.15388999  0.30777998  1
  Te  Te5  1  0.32706098  0.32706098  0.65412199  1
