# generated using pymatgen
data_Ho2GaNi2
_symmetry_space_group_name_H-M   'P 1'
_cell_length_a   4.06398821
_cell_length_b   5.33351898
_cell_length_c   5.33351898
_cell_angle_alpha   60.85638809
_cell_angle_beta   67.60525513
_cell_angle_gamma   67.60525513
_symmetry_Int_Tables_number   1
_chemical_formula_structural   Ho2GaNi2
_chemical_formula_sum   'Ho2 Ga1 Ni2'
_cell_volume   90.57980353
_cell_formula_units_Z   1
loop_
 _symmetry_equiv_pos_site_id
 _symmetry_equiv_pos_as_xyz
  1  'x, y, z'
loop_
 _atom_site_type_symbol
 _atom_site_label
 _atom_site_symmetry_multiplicity
 _atom_site_fract_x
 _atom_site_fract_y
 _atom_site_fract_z
 _atom_site_occupancy
  Ho  Ho0  1  0.20434800  0.29565200  0.29565201  1
  Ho  Ho1  1  0.79565197  0.70434799  0.70434803  1
  Ga  Ga2  1  0.00000000  0.00000000  0.00000000  1
  Ni  Ni3  1  0.49999997  0.27354900  0.72645102  1
  Ni  Ni4  1  0.49999999  0.72645099  0.27354902  1
