# generated using pymatgen
data_NdSi3
_symmetry_space_group_name_H-M   'P 1'
_cell_length_a   4.16298819
_cell_length_b   4.32332516
_cell_length_c   8.40548611
_cell_angle_alpha   90.00000000
_cell_angle_beta   104.33761597
_cell_angle_gamma   90.00000000
_symmetry_Int_Tables_number   1
_chemical_formula_structural   NdSi3
_chemical_formula_sum   'Nd2 Si6'
_cell_volume   146.56962065
_cell_formula_units_Z   2
loop_
 _symmetry_equiv_pos_site_id
 _symmetry_equiv_pos_as_xyz
  1  'x, y, z'
loop_
 _atom_site_type_symbol
 _atom_site_label
 _atom_site_symmetry_multiplicity
 _atom_site_fract_x
 _atom_site_fract_y
 _atom_site_fract_z
 _atom_site_occupancy
  Nd  Nd0  1  0.89396595  0.24999999  0.78793194  1
  Nd  Nd1  1  0.10603399  0.74999997  0.21206799  1
  Si  Si2  1  0.68452696  0.24999999  0.36905397  1
  Si  Si3  1  0.31547298  0.74999997  0.63094596  1
  Si  Si4  1  0.54379497  0.24999999  0.08758998  1
  Si  Si5  1  0.45620497  0.74999997  0.91240995  1
  Si  Si6  1  0.25267999  0.24999999  0.50535997  1
  Si  Si7  1  0.74731996  0.74999997  0.49463996  1
