# generated using pymatgen
data_YGa3
_symmetry_space_group_name_H-M   'P 1'
_cell_length_a   5.32762241
_cell_length_b   5.34473801
_cell_length_c   8.50855255
_cell_angle_alpha   90.00000000
_cell_angle_beta   90.00000000
_cell_angle_gamma   119.89456177
_symmetry_Int_Tables_number   1
_chemical_formula_structural   YGa3
_chemical_formula_sum   'Y3 Ga9'
_cell_volume   210.04222933
_cell_formula_units_Z   3
loop_
 _symmetry_equiv_pos_site_id
 _symmetry_equiv_pos_as_xyz
  1  'x, y, z'
loop_
 _atom_site_type_symbol
 _atom_site_label
 _atom_site_symmetry_multiplicity
 _atom_site_fract_x
 _atom_site_fract_y
 _atom_site_fract_z
 _atom_site_occupancy
  Y  Y0  1  0.33329296  0.66657699  0.56512003  1
  Y  Y1  1  0.66351297  0.32706000  0.44808502  1
  Y  Y2  1  0.66351297  0.32706000  0.05191500  1
  Ga  Ga3  1  0.33329296  0.66657699  0.93488005  1
  Ga  Ga4  1  0.83533195  0.67064999  0.75000004  1
  Ga  Ga5  1  0.16329795  0.83579799  0.25000001  1
  Ga  Ga6  1  0.67248794  0.83580199  0.25000001  1
  Ga  Ga7  1  0.16448298  0.32898200  0.25000001  1
  Ga  Ga8  1  0.00577500  0.01153900  0.51057303  1
  Ga  Ga9  1  0.00577500  0.01153900  0.98942705  1
  Ga  Ga10  1  0.83102598  0.15919600  0.75000004  1
  Ga  Ga11  1  0.32820999  0.15922000  0.75000004  1
