# generated using pymatgen
data_La7In2Sb7
_symmetry_space_group_name_H-M   'P 1'
_cell_length_a   6.27337980
_cell_length_b   8.90381908
_cell_length_c   9.86548805
_cell_angle_alpha   90.85434723
_cell_angle_beta   108.53873444
_cell_angle_gamma   90.00000000
_symmetry_Int_Tables_number   1
_chemical_formula_structural   La7In2Sb7
_chemical_formula_sum   'La7 In2 Sb7'
_cell_volume   522.39739855
_cell_formula_units_Z   1
loop_
 _symmetry_equiv_pos_site_id
 _symmetry_equiv_pos_as_xyz
  1  'x, y, z'
loop_
 _atom_site_type_symbol
 _atom_site_label
 _atom_site_symmetry_multiplicity
 _atom_site_fract_x
 _atom_site_fract_y
 _atom_site_fract_z
 _atom_site_occupancy
  La  La0  1  0.75022800  0.26629600  0.49996295  1
  La  La1  1  0.40876800  0.26191000  0.82883696  1
  La  La2  1  0.25026499  0.73370401  0.50003696  1
  La  La3  1  0.57993099  0.73809001  0.17116295  1
  La  La4  1  0.09278600  0.26143000  0.16176798  1
  La  La5  1  0.93101799  0.73857001  0.83823192  1
  In  In6  1  0.75330799  0.63915201  0.50695494  1
  La  La7  1  0.07784599  0.62830300  0.16327797  1
  In  In8  1  0.42209999  0.63690801  0.83168795  1
  Sb  Sb9  1  0.24635299  0.36084800  0.49304497  1
  Sb  Sb10  1  0.59041200  0.36309200  0.16831196  1
  Sb  Sb11  1  0.91456800  0.37169700  0.83672194  1
  Sb  Sb12  1  0.06502298  0.99861301  0.64409195  1
  Sb  Sb13  1  0.42093100  0.00138700  0.35590798  1
  Sb  Sb14  1  0.75019301  0.00000000  -0.00000003  1
  Sb  Sb15  1  0.24627900  0.00000000  -0.00000001  1
