# generated using pymatgen
data_CaMnO3
_symmetry_space_group_name_H-M   'P 1'
_cell_length_a   5.60513306
_cell_length_b   5.69632816
_cell_length_c   7.90975332
_cell_angle_alpha   90.00000000
_cell_angle_beta   90.76571655
_cell_angle_gamma   90.00000000
_symmetry_Int_Tables_number   1
_chemical_formula_structural   CaMnO3
_chemical_formula_sum   'Ca4 Mn4 O12'
_cell_volume   252.52540859
_cell_formula_units_Z   4
loop_
 _symmetry_equiv_pos_site_id
 _symmetry_equiv_pos_as_xyz
  1  'x, y, z'
loop_
 _atom_site_type_symbol
 _atom_site_label
 _atom_site_symmetry_multiplicity
 _atom_site_fract_x
 _atom_site_fract_y
 _atom_site_fract_z
 _atom_site_occupancy
  Ca  Ca0  1  0.48550700  0.20338699  0.25070400  1
  Ca  Ca1  1  0.98550699  0.79661298  0.75070400  1
  Ca  Ca2  1  0.01227000  0.71025698  0.24784100  1
  Ca  Ca3  1  0.51226999  0.28974299  0.74784100  1
  Mn  Mn4  1  0.00074400  0.24973099  0.00048300  1
  Mn  Mn5  1  0.50074399  0.75026898  0.50048300  1
  Mn  Mn6  1  0.99990399  0.24923899  0.49903300  1
  Mn  Mn7  1  0.49990399  0.75076098  0.99903300  1
  O  O8  1  0.40640200  0.72723998  0.74993600  1
  O  O9  1  0.80165099  0.53690098  0.94774900  1
  O  O10  1  0.79572099  0.54043798  0.54722900  1
  O  O11  1  0.29572100  0.45956199  0.04722900  1
  O  O12  1  0.30165100  0.46309899  0.44774900  1
  O  O13  1  0.90640199  0.27275999  0.24993600  1
  O  O14  1  0.08558000  0.22242699  0.75059100  1
  O  O15  1  0.70317999  0.03270100  0.55096600  1
  O  O16  1  0.70903999  0.03776500  0.95546700  1
  O  O17  1  0.20904000  0.96223497  0.45546700  1
  O  O18  1  0.20318000  0.96729897  0.05096600  1
  O  O19  1  0.58557999  0.77757298  0.25059100  1
