# generated using pymatgen
data_Na3LiCuO7
_symmetry_space_group_name_H-M   'P 1'
_cell_length_a   3.57168102
_cell_length_b   5.90137291
_cell_length_c   6.77097082
_cell_angle_alpha   90.00000000
_cell_angle_beta   90.00000000
_cell_angle_gamma   90.00000000
_symmetry_Int_Tables_number   1
_chemical_formula_structural   Na3LiCuO7
_chemical_formula_sum   'Na3 Li1 Cu1 O7'
_cell_volume   142.71731523
_cell_formula_units_Z   1
loop_
 _symmetry_equiv_pos_site_id
 _symmetry_equiv_pos_as_xyz
  1  'x, y, z'
loop_
 _atom_site_type_symbol
 _atom_site_label
 _atom_site_symmetry_multiplicity
 _atom_site_fract_x
 _atom_site_fract_y
 _atom_site_fract_z
 _atom_site_occupancy
  Li  Li0  1  0.25000000  0.73934901  0.61030102  1
  Na  Na1  1  0.75000000  0.26065100  0.38969901  1
  Na  Na2  1  0.25000000  0.23934900  0.88969902  1
  Na  Na3  1  0.75000000  0.76065101  0.11030100  1
  Cu  Cu4  1  0.25000000  0.47414501  0.17707300  1
  O  O5  1  0.75000000  0.52585501  0.82292702  1
  O  O6  1  0.25000000  0.97414501  0.32292701  1
  O  O7  1  0.75000000  0.02585500  0.67707302  1
  O  O8  1  0.75000000  0.64440701  0.42754301  1
  O  O9  1  0.25000000  0.35559301  0.57245702  1
  O  O10  1  0.75000000  0.14440700  0.07245700  1
  O  O11  1  0.25000000  0.85559301  0.92754302  1
