# generated using pymatgen
data_BaMo(WO4)2
_symmetry_space_group_name_H-M   'P 1'
_cell_length_a   5.11185694
_cell_length_b   5.11185694
_cell_length_c   8.58059025
_cell_angle_alpha   87.25938416
_cell_angle_beta   87.25938416
_cell_angle_gamma   62.26345825
_symmetry_Int_Tables_number   1
_chemical_formula_structural   BaMo(WO4)2
_chemical_formula_sum   'Ba1 Mo1 W2 O8'
_cell_volume   198.14667479
_cell_formula_units_Z   1
loop_
 _symmetry_equiv_pos_site_id
 _symmetry_equiv_pos_as_xyz
  1  'x, y, z'
loop_
 _atom_site_type_symbol
 _atom_site_label
 _atom_site_symmetry_multiplicity
 _atom_site_fract_x
 _atom_site_fract_y
 _atom_site_fract_z
 _atom_site_occupancy
  Ba  Ba0  1  0.00000000  0.00000000  0.00000000  1
  Mo  Mo1  1  0.00000000  0.00000000  0.50000000  1
  W  W2  1  0.35640601  0.35640600  0.29870700  1
  W  W3  1  0.64359402  0.64359400  0.70129299  1
  O  O4  1  0.68076802  0.68076800  0.86840899  1
  O  O5  1  0.21604802  0.68937300  0.34410399  1
  O  O6  1  0.78395201  0.31062700  0.65589600  1
  O  O7  1  0.68937301  0.21604800  0.34410399  1
  O  O8  1  0.31062702  0.78395200  0.65589600  1
  O  O9  1  0.31923201  0.31923200  0.13159100  1
  O  O10  1  0.78764802  0.78764800  0.58351199  1
  O  O11  1  0.21235201  0.21235200  0.41648800  1
