# generated using pymatgen
data_Li2CuO4
_symmetry_space_group_name_H-M   'P 1'
_cell_length_a   5.78267384
_cell_length_b   5.78267384
_cell_length_c   5.78267384
_cell_angle_alpha   60.00000000
_cell_angle_beta   60.00000000
_cell_angle_gamma   60.00000000
_symmetry_Int_Tables_number   1
_chemical_formula_structural   Li2CuO4
_chemical_formula_sum   'Li4 Cu2 O8'
_cell_volume   136.73229197
_cell_formula_units_Z   2
loop_
 _symmetry_equiv_pos_site_id
 _symmetry_equiv_pos_as_xyz
  1  'x, y, z'
loop_
 _atom_site_type_symbol
 _atom_site_label
 _atom_site_symmetry_multiplicity
 _atom_site_fract_x
 _atom_site_fract_y
 _atom_site_fract_z
 _atom_site_occupancy
  Li  Li0  1  0.87500002  0.37500001  0.87500002  1
  Li  Li1  1  0.87500002  0.87500002  0.87500002  1
  Li  Li2  1  0.87500002  0.87500002  0.37500001  1
  Li  Li3  1  0.37500001  0.87500002  0.87500002  1
  Cu  Cu4  1  0.50000001  0.50000001  0.50000001  1
  Cu  Cu5  1  0.25000001  0.25000001  0.25000001  1
  O  O6  1  0.08159600  0.63946802  0.63946802  1
  O  O7  1  0.11053100  0.11053200  0.66840502  1
  O  O8  1  0.11053100  0.66840502  0.11053200  1
  O  O9  1  0.11053100  0.11053200  0.11053200  1
  O  O10  1  0.63946902  0.08159500  0.63946802  1
  O  O11  1  0.63946902  0.63946802  0.63946802  1
  O  O12  1  0.66840402  0.11053200  0.11053200  1
  O  O13  1  0.63946902  0.63946802  0.08159500  1
