# generated using pymatgen
data_Te3Mo2Se
_symmetry_space_group_name_H-M   'P 1'
_cell_length_a   3.49802399
_cell_length_b   3.49802423
_cell_length_c   39.65089035
_cell_angle_alpha   90.00000000
_cell_angle_beta   90.00000000
_cell_angle_gamma   120.00000000
_symmetry_Int_Tables_number   1
_chemical_formula_structural   Te3Mo2Se
_chemical_formula_sum   'Te6 Mo4 Se2'
_cell_volume   420.17399644
_cell_formula_units_Z   2
loop_
 _symmetry_equiv_pos_site_id
 _symmetry_equiv_pos_as_xyz
  1  'x, y, z'
loop_
 _atom_site_type_symbol
 _atom_site_label
 _atom_site_symmetry_multiplicity
 _atom_site_fract_x
 _atom_site_fract_y
 _atom_site_fract_z
 _atom_site_occupancy
  Te  Te0  1  0.66666669  0.33333335  0.67202098  1
  Te  Te1  1  0.66666669  0.33333335  0.29601599  1
  Te  Te2  1  0.33333337  0.66666670  0.95253197  1
  Te  Te3  1  0.33333337  0.66666670  0.85961497  1
  Te  Te4  1  0.66666669  0.33333335  0.76437297  1
  Te  Te5  1  0.66666669  0.33333335  0.38892899  1
  Mo  Mo6  1  0.33333337  0.66666670  0.71817998  1
  Mo  Mo7  1  0.66666669  0.33333335  0.90609697  1
  Mo  Mo8  1  0.66666669  0.33333335  0.53033798  1
  Mo  Mo9  1  0.33333337  0.66666670  0.34246799  1
  Se  Se10  1  0.33333337  0.66666670  0.57129298  1
  Se  Se11  1  0.33333337  0.66666670  0.48939098  1
