# generated using pymatgen
data_YbSi2
_symmetry_space_group_name_H-M   'P 1'
_cell_length_a   4.37309313
_cell_length_b   6.98836422
_cell_length_c   7.77784109
_cell_angle_alpha   90.00000000
_cell_angle_beta   90.00000000
_cell_angle_gamma   90.00000000
_symmetry_Int_Tables_number   1
_chemical_formula_structural   YbSi2
_chemical_formula_sum   'Yb4 Si8'
_cell_volume   237.69679360
_cell_formula_units_Z   4
loop_
 _symmetry_equiv_pos_site_id
 _symmetry_equiv_pos_as_xyz
  1  'x, y, z'
loop_
 _atom_site_type_symbol
 _atom_site_label
 _atom_site_symmetry_multiplicity
 _atom_site_fract_x
 _atom_site_fract_y
 _atom_site_fract_z
 _atom_site_occupancy
  Yb  Yb0  1  0.24999999  0.51634998  0.19272900  1
  Yb  Yb1  1  0.74999998  0.48364998  0.80727099  1
  Yb  Yb2  1  0.24999999  0.01635000  0.30727100  1
  Yb  Yb3  1  0.74999998  0.98364997  0.69272899  1
  Si  Si4  1  0.24999999  0.66194498  0.57380599  1
  Si  Si5  1  0.74999998  0.33805499  0.42619400  1
  Si  Si6  1  0.24999999  0.16194499  0.92619399  1
  Si  Si7  1  0.74999998  0.83805497  0.07380600  1
  Si  Si8  1  0.74999998  0.71823198  0.39260500  1
  Si  Si9  1  0.24999999  0.28176799  0.60739499  1
  Si  Si10  1  0.74999998  0.21823199  0.10739500  1
  Si  Si11  1  0.24999999  0.78176798  0.89260499  1
