# generated using pymatgen
data_PrMn3GePd2
_symmetry_space_group_name_H-M   'P 1'
_cell_length_a   4.53056002
_cell_length_b   9.09957790
_cell_length_c   9.09957790
_cell_angle_alpha   120.00000000
_cell_angle_beta   90.00000000
_cell_angle_gamma   90.00000000
_symmetry_Int_Tables_number   1
_chemical_formula_structural   PrMn3GePd2
_chemical_formula_sum   'Pr2 Mn6 Ge2 Pd4'
_cell_volume   324.88152457
_cell_formula_units_Z   2
loop_
 _symmetry_equiv_pos_site_id
 _symmetry_equiv_pos_as_xyz
  1  'x, y, z'
loop_
 _atom_site_type_symbol
 _atom_site_label
 _atom_site_symmetry_multiplicity
 _atom_site_fract_x
 _atom_site_fract_y
 _atom_site_fract_z
 _atom_site_occupancy
  Pr  Pr0  1  0.75000000  0.66666668  0.33333336  1
  Pr  Pr1  1  0.25000000  0.33333334  0.66666670  1
  Mn  Mn2  1  0.75000000  0.96697502  0.81659205  1
  Mn  Mn3  1  0.75000000  0.18340900  0.15038401  1
  Mn  Mn4  1  0.75000000  0.84961702  0.03302602  1
  Mn  Mn5  1  0.25000000  0.03302500  0.18340801  1
  Mn  Mn6  1  0.25000000  0.81659102  0.84961605  1
  Mn  Mn7  1  0.25000000  0.15038300  0.96697404  1
  Pd  Pd8  1  0.75000000  0.63065101  0.69789704  1
  Ge  Ge9  1  0.75000000  0.30210301  0.93275404  1
  Ge  Ge10  1  0.75000000  0.06724600  0.36934902  1
  Pd  Pd11  1  0.25000000  0.36934901  0.30210302  1
  Pd  Pd12  1  0.25000000  0.69789701  0.06724602  1
  Pd  Pd13  1  0.25000000  0.93275402  0.63065104  1
