# generated using pymatgen
data_YbIn2
_symmetry_space_group_name_H-M   'P 1'
_cell_length_a   5.90242577
_cell_length_b   5.90242577
_cell_length_c   6.14622688
_cell_angle_alpha   61.30371857
_cell_angle_beta   61.30371857
_cell_angle_gamma   60.00000381
_symmetry_Int_Tables_number   1
_chemical_formula_structural   YbIn2
_chemical_formula_sum   'Yb2 In4'
_cell_volume   154.32539278
_cell_formula_units_Z   2
loop_
 _symmetry_equiv_pos_site_id
 _symmetry_equiv_pos_as_xyz
  1  'x, y, z'
loop_
 _atom_site_type_symbol
 _atom_site_label
 _atom_site_symmetry_multiplicity
 _atom_site_fract_x
 _atom_site_fract_y
 _atom_site_fract_z
 _atom_site_occupancy
  Yb  Yb0  1  0.16757700  0.16757700  0.49726901  1
  Yb  Yb1  1  0.83242301  0.83242299  0.50273099  1
  In  In2  1  0.66978400  0.00000000  -0.00000000  1
  In  In3  1  0.00000001  0.33021600  1.00000001  1
  In  In4  1  0.50000001  0.49999999  0.50000000  1
  In  In5  1  0.33021601  0.66978399  -0.00000001  1
