# generated using pymatgen
data_CeGa3Ni
_symmetry_space_group_name_H-M   'P 1'
_cell_length_a   4.24385214
_cell_length_b   4.24385214
_cell_length_c   5.78359222
_cell_angle_alpha   111.52377319
_cell_angle_beta   111.52377319
_cell_angle_gamma   90.00000000
_symmetry_Int_Tables_number   1
_chemical_formula_structural   CeGa3Ni
_chemical_formula_sum   'Ce1 Ga3 Ni1'
_cell_volume   89.04585501
_cell_formula_units_Z   1
loop_
 _symmetry_equiv_pos_site_id
 _symmetry_equiv_pos_as_xyz
  1  'x, y, z'
loop_
 _atom_site_type_symbol
 _atom_site_label
 _atom_site_symmetry_multiplicity
 _atom_site_fract_x
 _atom_site_fract_y
 _atom_site_fract_z
 _atom_site_occupancy
  Ce  Ce0  1  0.99727201  0.99727198  0.99454403  1
  Ga  Ga1  1  0.41632200  0.41632199  0.83264400  1
  Ga  Ga2  1  0.26282601  0.76282599  0.52565201  1
  Ga  Ga3  1  0.76282599  0.26282600  0.52565201  1
  Ni  Ni4  1  0.65475300  0.65475299  0.30950603  1
