# generated using pymatgen
data_Li2CrS4
_symmetry_space_group_name_H-M   'P 1'
_cell_length_a   7.20098734
_cell_length_b   7.20098734
_cell_length_c   7.20098734
_cell_angle_alpha   60.00000000
_cell_angle_beta   60.00000000
_cell_angle_gamma   60.00000000
_symmetry_Int_Tables_number   1
_chemical_formula_structural   Li2CrS4
_chemical_formula_sum   'Li4 Cr2 S8'
_cell_volume   264.03478368
_cell_formula_units_Z   2
loop_
 _symmetry_equiv_pos_site_id
 _symmetry_equiv_pos_as_xyz
  1  'x, y, z'
loop_
 _atom_site_type_symbol
 _atom_site_label
 _atom_site_symmetry_multiplicity
 _atom_site_fract_x
 _atom_site_fract_y
 _atom_site_fract_z
 _atom_site_occupancy
  Li  Li0  1  0.37500000  0.87500000  0.87500000  1
  Li  Li1  1  0.87500000  0.87500000  0.37500000  1
  Li  Li2  1  0.87500000  0.87500000  0.87500000  1
  Li  Li3  1  0.87500000  0.37500000  0.87500000  1
  Cr  Cr4  1  0.50000000  0.50000000  0.50000000  1
  Cr  Cr5  1  0.25000000  0.25000000  0.25000000  1
  S  S6  1  0.07954400  0.64015200  0.64015200  1
  S  S7  1  0.10984800  0.10984800  0.67045600  1
  S  S8  1  0.10984800  0.67045600  0.10984800  1
  S  S9  1  0.10984800  0.10984800  0.10984800  1
  S  S10  1  0.64015200  0.07954400  0.64015200  1
  S  S11  1  0.64015200  0.64015200  0.64015200  1
  S  S12  1  0.67045600  0.10984800  0.10984800  1
  S  S13  1  0.64015200  0.64015200  0.07954400  1
