# generated using pymatgen
data_PrGa2
_symmetry_space_group_name_H-M   'P 1'
_cell_length_a   4.28750992
_cell_length_b   4.28751040
_cell_length_c   16.66188049
_cell_angle_alpha   90.00000000
_cell_angle_beta   90.00000000
_cell_angle_gamma   120.00000000
_symmetry_Int_Tables_number   1
_chemical_formula_structural   PrGa2
_chemical_formula_sum   'Pr4 Ga8'
_cell_volume   265.25584993
_cell_formula_units_Z   4
loop_
 _symmetry_equiv_pos_site_id
 _symmetry_equiv_pos_as_xyz
  1  'x, y, z'
loop_
 _atom_site_type_symbol
 _atom_site_label
 _atom_site_symmetry_multiplicity
 _atom_site_fract_x
 _atom_site_fract_y
 _atom_site_fract_z
 _atom_site_occupancy
  Pr  Pr0  1  0.00000000  0.00000000  0.74999998  1
  Pr  Pr1  1  0.00000000  0.00000000  0.24999999  1
  Pr  Pr2  1  0.00000000  0.00000000  0.00000000  1
  Pr  Pr3  1  0.00000000  0.00000000  0.49999999  1
  Ga  Ga4  1  0.66666670  0.33333334  0.86177297  1
  Ga  Ga5  1  0.33333338  0.66666668  0.13822700  1
  Ga  Ga6  1  0.33333338  0.66666668  0.36177299  1
  Ga  Ga7  1  0.66666670  0.33333334  0.63822698  1
  Ga  Ga8  1  0.66666670  0.33333334  0.38233099  1
  Ga  Ga9  1  0.33333338  0.66666668  0.61766898  1
  Ga  Ga10  1  0.33333338  0.66666668  0.88233097  1
  Ga  Ga11  1  0.66666670  0.33333334  0.11766900  1
