# generated using pymatgen
data_HfPt3
_symmetry_space_group_name_H-M   'P 1'
_cell_length_a   5.58579016
_cell_length_b   5.58579016
_cell_length_c   9.16017628
_cell_angle_alpha   90.00000000
_cell_angle_beta   90.00000000
_cell_angle_gamma   120.00000000
_symmetry_Int_Tables_number   1
_chemical_formula_structural   HfPt3
_chemical_formula_sum   'Hf4 Pt12'
_cell_volume   247.51623814
_cell_formula_units_Z   4
loop_
 _symmetry_equiv_pos_site_id
 _symmetry_equiv_pos_as_xyz
  1  'x, y, z'
loop_
 _atom_site_type_symbol
 _atom_site_label
 _atom_site_symmetry_multiplicity
 _atom_site_fract_x
 _atom_site_fract_y
 _atom_site_fract_z
 _atom_site_occupancy
  Hf  Hf0  1  0.33333332  0.66666664  0.49999998  1
  Hf  Hf1  1  0.66666665  0.33333332  -0.00000000  1
  Hf  Hf2  1  0.00000000  0.00000000  0.26735799  1
  Hf  Hf3  1  0.00000000  0.00000000  0.73264198  1
  Pt  Pt4  1  0.16564399  0.33128799  0.99999997  1
  Pt  Pt5  1  0.16564399  0.83435497  -0.00000000  1
  Pt  Pt6  1  0.66871098  0.83435497  0.99999997  1
  Pt  Pt7  1  0.99780097  0.49890098  0.25096999  1
  Pt  Pt8  1  0.50109999  0.00220000  0.25096999  1
  Pt  Pt9  1  0.50109998  0.49890098  0.25096999  1
  Pt  Pt10  1  0.99780097  0.49890098  0.74902998  1
  Pt  Pt11  1  0.50109999  0.00220000  0.74902998  1
  Pt  Pt12  1  0.50109998  0.49890098  0.74902998  1
  Pt  Pt13  1  0.83260497  0.66520998  0.49999998  1
  Pt  Pt14  1  0.83260498  0.16739599  0.49999998  1
  Pt  Pt15  1  0.33479099  0.16739599  0.49999998  1
