# generated using pymatgen
data_NaCuO3
_symmetry_space_group_name_H-M   'P 1'
_cell_length_a   4.76676416
_cell_length_b   5.53623676
_cell_length_c   9.58456326
_cell_angle_alpha   90.01799774
_cell_angle_beta   90.01694489
_cell_angle_gamma   89.98825836
_symmetry_Int_Tables_number   1
_chemical_formula_structural   NaCuO3
_chemical_formula_sum   'Na4 Cu4 O12'
_cell_volume   252.93597251
_cell_formula_units_Z   4
loop_
 _symmetry_equiv_pos_site_id
 _symmetry_equiv_pos_as_xyz
  1  'x, y, z'
loop_
 _atom_site_type_symbol
 _atom_site_label
 _atom_site_symmetry_multiplicity
 _atom_site_fract_x
 _atom_site_fract_y
 _atom_site_fract_z
 _atom_site_occupancy
  Na  Na0  1  0.24995101  0.50005102  0.16640902  1
  Na  Na1  1  0.24986700  0.00054400  0.66820799  1
  Na  Na2  1  0.75016602  0.99917603  0.33648704  1
  Na  Na3  1  0.75019600  0.49913302  0.83107701  1
  Cu  Cu4  1  0.49958501  0.49999302  0.50418002  1
  Cu  Cu5  1  0.00040102  0.49998302  0.50417701  1
  Cu  Cu6  1  0.49997099  0.00024500  0.99554499  1
  Cu  Cu7  1  0.00000800  0.00023800  0.99554898  1
  O  O8  1  0.74996500  0.50092302  0.35167702  1
  O  O9  1  0.74988199  0.00038200  0.84404700  1
  O  O10  1  0.25010903  0.99883503  0.14793203  1
  O  O11  1  0.25001301  0.49951102  0.65627101  1
  O  O12  1  0.75004101  0.77005802  0.07344804  1
  O  O13  1  0.75010399  0.22762801  0.07196802  1
  O  O14  1  0.74995899  0.26739001  0.57927101  1
  O  O15  1  0.75011601  0.72800102  0.57894203  1
  O  O16  1  0.25003102  0.73595702  0.43042502  1
  O  O17  1  0.24986600  0.26862401  0.43110900  1
  O  O18  1  0.24992000  0.22897601  0.91572099  1
  O  O19  1  0.24985102  0.77435002  0.91755701  1
