# generated using pymatgen
data_Nb2Fe2Si
_symmetry_space_group_name_H-M   'P 1'
_cell_length_a   5.31480694
_cell_length_b   5.31480694
_cell_length_c   5.76239681
_cell_angle_alpha   90.00000000
_cell_angle_beta   90.00000000
_cell_angle_gamma   90.00000000
_symmetry_Int_Tables_number   1
_chemical_formula_structural   Nb2Fe2Si
_chemical_formula_sum   'Nb4 Fe4 Si2'
_cell_volume   162.77141845
_cell_formula_units_Z   2
loop_
 _symmetry_equiv_pos_site_id
 _symmetry_equiv_pos_as_xyz
  1  'x, y, z'
loop_
 _atom_site_type_symbol
 _atom_site_label
 _atom_site_symmetry_multiplicity
 _atom_site_fract_x
 _atom_site_fract_y
 _atom_site_fract_z
 _atom_site_occupancy
  Nb  Nb0  1  0.76759101  0.37229400  0.84551903  1
  Nb  Nb1  1  0.87229401  0.26759100  0.34551901  1
  Nb  Nb2  1  0.12770600  0.73240901  0.34551901  1
  Fe  Fe3  1  0.62770601  0.76759101  0.15448101  1
  Nb  Nb4  1  0.26759100  0.12770600  0.65448102  1
  Fe  Fe5  1  0.73240901  0.87229401  0.65448102  1
  Fe  Fe6  1  0.23240900  0.62770601  0.84551903  1
  Fe  Fe7  1  0.37229400  0.23240900  0.15448101  1
  Si  Si8  1  0.50000001  0.50000001  0.50000002  1
  Si  Si9  1  0.00000000  0.00000000  0.00000000  1
