# generated using pymatgen
data_ZrNbCo4
_symmetry_space_group_name_H-M   'P 1'
_cell_length_a   4.78153419
_cell_length_b   4.78153419
_cell_length_c   7.76508379
_cell_angle_alpha   90.00000000
_cell_angle_beta   90.00000000
_cell_angle_gamma   120.00000000
_symmetry_Int_Tables_number   1
_chemical_formula_structural   ZrNbCo4
_chemical_formula_sum   'Zr2 Nb2 Co8'
_cell_volume   153.74864961
_cell_formula_units_Z   2
loop_
 _symmetry_equiv_pos_site_id
 _symmetry_equiv_pos_as_xyz
  1  'x, y, z'
loop_
 _atom_site_type_symbol
 _atom_site_label
 _atom_site_symmetry_multiplicity
 _atom_site_fract_x
 _atom_site_fract_y
 _atom_site_fract_z
 _atom_site_occupancy
  Zr  Zr0  1  0.66666664  0.33333332  0.56409102  1
  Zr  Zr1  1  0.33333331  0.66666664  0.43590901  1
  Nb  Nb2  1  0.33333331  0.66666664  0.06409100  1
  Nb  Nb3  1  0.66666664  0.33333332  0.93590903  1
  Co  Co4  1  0.00000000  0.00000000  0.50000001  1
  Co  Co5  1  0.00000000  0.00000000  0.00000000  1
  Co  Co6  1  0.16871399  0.33742799  0.75000002  1
  Co  Co7  1  0.16871398  0.83128597  0.75000002  1
  Co  Co8  1  0.66257197  0.83128597  0.75000002  1
  Co  Co9  1  0.83128597  0.66257198  0.25000001  1
  Co  Co10  1  0.83128598  0.16871399  0.25000001  1
  Co  Co11  1  0.33742799  0.16871399  0.25000001  1
