# generated using pymatgen
data_Rb5Bi7
_symmetry_space_group_name_H-M   'P 1'
_cell_length_a   7.72483015
_cell_length_b   7.72483015
_cell_length_c   12.73087120
_cell_angle_alpha   90.00000000
_cell_angle_beta   90.00000000
_cell_angle_gamma   120.00000000
_symmetry_Int_Tables_number   1
_chemical_formula_structural   Rb5Bi7
_chemical_formula_sum   'Rb5 Bi7'
_cell_volume   657.91022243
_cell_formula_units_Z   1
loop_
 _symmetry_equiv_pos_site_id
 _symmetry_equiv_pos_as_xyz
  1  'x, y, z'
loop_
 _atom_site_type_symbol
 _atom_site_label
 _atom_site_symmetry_multiplicity
 _atom_site_fract_x
 _atom_site_fract_y
 _atom_site_fract_z
 _atom_site_occupancy
  Rb  Rb0  1  0.66666665  0.33333333  0.56333499  1
  Rb  Rb1  1  0.33333333  0.66666665  0.43666499  1
  Rb  Rb2  1  0.33333333  0.66666665  0.06333500  1
  Rb  Rb3  1  0.66666665  0.33333333  0.93666499  1
  Rb  Rb4  1  0.00000000  0.00000000  0.49999999  1
  Bi  Bi5  1  0.00000000  0.00000000  0.00000000  1
  Bi  Bi6  1  0.16799300  0.33598599  0.74999999  1
  Bi  Bi7  1  0.16799300  0.83200698  0.74999999  1
  Bi  Bi8  1  0.66401399  0.83200698  0.74999999  1
  Bi  Bi9  1  0.83200698  0.66401398  0.25000000  1
  Bi  Bi10  1  0.83200698  0.16799300  0.25000000  1
  Bi  Bi11  1  0.33598599  0.16799300  0.25000000  1
