# generated using pymatgen
data_LiSiO4
_symmetry_space_group_name_H-M   'P 1'
_cell_length_a   5.88416767
_cell_length_b   6.89428854
_cell_length_c   6.89428854
_cell_angle_alpha   84.38895416
_cell_angle_beta   74.92028046
_cell_angle_gamma   74.92028046
_symmetry_Int_Tables_number   1
_chemical_formula_structural   LiSiO4
_chemical_formula_sum   'Li3 Si3 O12'
_cell_volume   260.61563845
_cell_formula_units_Z   3
loop_
 _symmetry_equiv_pos_site_id
 _symmetry_equiv_pos_as_xyz
  1  'x, y, z'
loop_
 _atom_site_type_symbol
 _atom_site_label
 _atom_site_symmetry_multiplicity
 _atom_site_fract_x
 _atom_site_fract_y
 _atom_site_fract_z
 _atom_site_occupancy
  Li  Li0  1  1.00000001  0.08813000  0.91186999  1
  Li  Li1  1  0.50000000  0.91431298  0.08568704  1
  Li  Li2  1  0.48202000  0.39040899  0.20884802  1
  Si  Si3  1  0.98836601  0.20670299  0.38812601  1
  Si  Si4  1  0.51798000  0.79115198  0.60959103  1
  Si  Si5  1  0.01163400  0.61187398  0.79329701  1
  O  O6  1  0.59634500  0.19768199  0.03894701  1
  O  O7  1  0.46349200  0.62186698  0.09822203  1
  O  O8  1  0.12009500  0.03997100  0.19332000  1
  O  O9  1  0.69584100  0.35098499  0.36212101  1
  O  O10  1  0.53650800  0.90177798  0.37813304  1
  O  O11  1  0.19059000  0.36807899  0.36180601  1
  O  O12  1  0.30415900  0.63787898  0.64901502  1
  O  O13  1  0.96286601  0.08717900  0.61392700  1
  O  O14  1  0.80941000  0.63819398  0.63192102  1
  O  O15  1  0.40365500  0.96105297  0.80231803  1
  O  O16  1  0.03713400  0.38607299  0.91282100  1
  O  O17  1  0.87990500  0.80667998  0.96002902  1
