# generated using pymatgen
data_Pr(AlPd)3
_symmetry_space_group_name_H-M   'P 1'
_cell_length_a   6.01715612
_cell_length_b   6.01715612
_cell_length_c   7.54207611
_cell_angle_alpha   90.00000000
_cell_angle_beta   90.00000000
_cell_angle_gamma   90.00000000
_symmetry_Int_Tables_number   1
_chemical_formula_structural   Pr(AlPd)3
_chemical_formula_sum   'Pr2 Al6 Pd6'
_cell_volume   273.06967340
_cell_formula_units_Z   2
loop_
 _symmetry_equiv_pos_site_id
 _symmetry_equiv_pos_as_xyz
  1  'x, y, z'
loop_
 _atom_site_type_symbol
 _atom_site_label
 _atom_site_symmetry_multiplicity
 _atom_site_fract_x
 _atom_site_fract_y
 _atom_site_fract_z
 _atom_site_occupancy
  Pr  Pr0  1  0.49999999  0.00000000  0.00000000  1
  Pr  Pr1  1  0.00000000  0.49999999  0.00000000  1
  Al  Al2  1  0.49999999  0.49999999  0.16005300  1
  Al  Al3  1  0.00000000  0.00000000  0.16005300  1
  Al  Al4  1  0.00000000  0.00000000  0.83994699  1
  Pd  Pd5  1  0.49999999  0.49999999  0.83994699  1
  Al  Al6  1  0.80829798  0.69170199  0.34714799  1
  Pd  Pd7  1  0.30829799  0.80829798  0.34714799  1
  Pd  Pd8  1  0.69170199  0.19170200  0.34714799  1
  Al  Al9  1  0.19170200  0.30829799  0.34714799  1
  Pd  Pd10  1  0.69170199  0.80829798  0.65285199  1
  Al  Al11  1  0.19170200  0.69170199  0.65285199  1
  Pd  Pd12  1  0.80829798  0.30829799  0.65285199  1
  Pd  Pd13  1  0.30829799  0.19170200  0.65285199  1
