# generated using pymatgen
data_SrMg2AgGe
_symmetry_space_group_name_H-M   'P 1'
_cell_length_a   4.74260378
_cell_length_b   4.74260330
_cell_length_c   7.73691797
_cell_angle_alpha   90.00000000
_cell_angle_beta   90.00000000
_cell_angle_gamma   120.00000000
_symmetry_Int_Tables_number   1
_chemical_formula_structural   SrMg2AgGe
_chemical_formula_sum   'Sr1 Mg2 Ag1 Ge1'
_cell_volume   150.70659806
_cell_formula_units_Z   1
loop_
 _symmetry_equiv_pos_site_id
 _symmetry_equiv_pos_as_xyz
  1  'x, y, z'
loop_
 _atom_site_type_symbol
 _atom_site_label
 _atom_site_symmetry_multiplicity
 _atom_site_fract_x
 _atom_site_fract_y
 _atom_site_fract_z
 _atom_site_occupancy
  Sr  Sr0  1  0.00000000  0.00000000  0.00000000  1
  Mg  Mg1  1  0.33333330  0.66666668  0.63059600  1
  Mg  Mg2  1  0.66666668  0.33333334  0.36940400  1
  Ge  Ge3  1  0.66666668  0.33333334  0.74916200  1
  Ag  Ag4  1  0.33333330  0.66666668  0.25083800  1
