# generated using pymatgen
data_Li2Ag
_symmetry_space_group_name_H-M   'P 1'
_cell_length_a   4.16411018
_cell_length_b   4.16411018
_cell_length_c   10.22414780
_cell_angle_alpha   90.00000000
_cell_angle_beta   90.00000000
_cell_angle_gamma   120.00000000
_symmetry_Int_Tables_number   1
_chemical_formula_structural   Li2Ag
_chemical_formula_sum   'Li4 Ag2'
_cell_volume   153.53315543
_cell_formula_units_Z   2
loop_
 _symmetry_equiv_pos_site_id
 _symmetry_equiv_pos_as_xyz
  1  'x, y, z'
loop_
 _atom_site_type_symbol
 _atom_site_label
 _atom_site_symmetry_multiplicity
 _atom_site_fract_x
 _atom_site_fract_y
 _atom_site_fract_z
 _atom_site_occupancy
  Li  Li0  1  0.00000000  0.00000000  0.50000001  1
  Li  Li1  1  0.66666663  0.33333331  0.84386602  1
  Li  Li2  1  0.33333331  0.66666663  0.15613400  1
  Ag  Ag3  1  0.66666663  0.33333331  0.32985901  1
  Ag  Ag4  1  0.33333331  0.66666663  0.67014101  1
  Li  Li5  1  0.00000000  0.00000000  0.00000000  1
