# generated using pymatgen
data_Ba2Cu2O3
_symmetry_space_group_name_H-M   'P 1'
_cell_length_a   5.08654308
_cell_length_b   7.20683813
_cell_length_c   7.20683908
_cell_angle_alpha   119.99999237
_cell_angle_beta   90.00000000
_cell_angle_gamma   90.00000000
_symmetry_Int_Tables_number   1
_chemical_formula_structural   Ba2Cu2O3
_chemical_formula_sum   'Ba4 Cu4 O6'
_cell_volume   228.79313295
_cell_formula_units_Z   2
loop_
 _symmetry_equiv_pos_site_id
 _symmetry_equiv_pos_as_xyz
  1  'x, y, z'
loop_
 _atom_site_type_symbol
 _atom_site_label
 _atom_site_symmetry_multiplicity
 _atom_site_fract_x
 _atom_site_fract_y
 _atom_site_fract_z
 _atom_site_occupancy
  Ba  Ba0  1  0.74999999  0.06877200  0.71760699  1
  Ba  Ba1  1  0.74999999  0.28239299  0.35116498  1
  Ba  Ba2  1  0.74999999  0.64883497  0.93122796  1
  Ba  Ba3  1  0.25000000  0.93122796  0.28239295  1
  Cu  Cu4  1  0.25000000  0.71760697  0.64883496  1
  Cu  Cu5  1  0.25000000  0.35116498  0.06877198  1
  Cu  Cu6  1  0.25000000  0.33333332  0.66666664  1
  Cu  Cu7  1  0.74999999  0.66666664  0.33333329  1
  O  O8  1  0.25000000  0.08248800  0.69407599  1
  O  O9  1  0.25000000  0.30592399  0.38841198  1
  O  O10  1  0.25000000  0.61158797  0.91751196  1
  O  O11  1  0.74999999  0.91751196  0.30592395  1
  O  O12  1  0.74999999  0.69407597  0.61158796  1
  O  O13  1  0.74999999  0.38841198  0.08248798  1
