# generated using pymatgen
data_Na2La3NbO12
_symmetry_space_group_name_H-M   'P 1'
_cell_length_a   5.70513201
_cell_length_b   6.10424328
_cell_length_c   8.27096176
_cell_angle_alpha   102.02294159
_cell_angle_beta   90.00000000
_cell_angle_gamma   90.00000000
_symmetry_Int_Tables_number   1
_chemical_formula_structural   Na2La3NbO12
_chemical_formula_sum   'Na2 La3 Nb1 O12'
_cell_volume   281.72211467
_cell_formula_units_Z   1
loop_
 _symmetry_equiv_pos_site_id
 _symmetry_equiv_pos_as_xyz
  1  'x, y, z'
loop_
 _atom_site_type_symbol
 _atom_site_label
 _atom_site_symmetry_multiplicity
 _atom_site_fract_x
 _atom_site_fract_y
 _atom_site_fract_z
 _atom_site_occupancy
  Na  Na0  1  0.69717300  0.65627297  0.68547095  1
  Na  Na1  1  0.19717300  0.34372699  0.31452898  1
  La  La2  1  0.70760000  0.81100397  0.22359597  1
  La  La3  1  0.20760000  0.18899599  0.77640396  1
  O  O4  1  0.88852500  0.45310898  0.47734997  1
  La  La5  1  0.38852500  0.54689098  0.52264996  1
  O  O6  1  0.42608900  0.92801996  0.76953094  1
  Nb  Nb7  1  0.92608900  0.07198000  0.23046899  1
  O  O8  1  0.94643900  0.96135296  0.75983494  1
  O  O9  1  0.44643900  0.03864700  0.24016499  1
  O  O10  1  0.99594700  0.45466198  0.78739396  1
  O  O11  1  0.49594700  0.54533798  0.21260598  1
  O  O12  1  0.70390900  0.75561097  0.97725994  1
  O  O13  1  0.20390900  0.24438899  0.02273999  1
  O  O14  1  0.71095300  0.86137696  0.47140996  1
  O  O15  1  0.21095300  0.13862299  0.52858997  1
  O  O16  1  0.49972600  0.37806998  0.78264996  1
  O  O17  1  0.99972600  0.62192997  0.21734998  1
