# generated using pymatgen
data_NaCdPd
_symmetry_space_group_name_H-M   'P 1'
_cell_length_a   3.66929007
_cell_length_b   4.74366379
_cell_length_c   4.74366331
_cell_angle_alpha   120.00000000
_cell_angle_beta   90.00000000
_cell_angle_gamma   90.00000000
_symmetry_Int_Tables_number   1
_chemical_formula_structural   NaCdPd
_chemical_formula_sum   'Na1 Cd1 Pd1'
_cell_volume   71.50566236
_cell_formula_units_Z   1
loop_
 _symmetry_equiv_pos_site_id
 _symmetry_equiv_pos_as_xyz
  1  'x, y, z'
loop_
 _atom_site_type_symbol
 _atom_site_label
 _atom_site_symmetry_multiplicity
 _atom_site_fract_x
 _atom_site_fract_y
 _atom_site_fract_z
 _atom_site_occupancy
  Na  Na0  1  -0.00000000  0.66666667  0.33333331  1
  Cd  Cd1  1  0.49999999  0.00000000  -0.00000000  1
  Pd  Pd2  1  0.49999999  0.33333334  0.66666668  1
