# generated using pymatgen
data_YNi2
_symmetry_space_group_name_H-M   'P 1'
_cell_length_a   5.26905203
_cell_length_b   5.26905203
_cell_length_c   5.26905298
_cell_angle_alpha   60.24079895
_cell_angle_beta   60.24079895
_cell_angle_gamma   60.24079514
_symmetry_Int_Tables_number   1
_chemical_formula_structural   YNi2
_chemical_formula_sum   'Y2 Ni4'
_cell_volume   104.00243587
_cell_formula_units_Z   2
loop_
 _symmetry_equiv_pos_site_id
 _symmetry_equiv_pos_as_xyz
  1  'x, y, z'
loop_
 _atom_site_type_symbol
 _atom_site_label
 _atom_site_symmetry_multiplicity
 _atom_site_fract_x
 _atom_site_fract_y
 _atom_site_fract_z
 _atom_site_occupancy
  Y  Y0  1  0.37510899  0.37510902  0.37510903  1
  Y  Y1  1  0.62489099  0.62489103  0.62489105  1
  Ni  Ni2  1  0.00000000  0.00000000  0.00000000  1
  Ni  Ni3  1  0.50000001  0.00000000  0.00000002  1
  Ni  Ni4  1  -0.00000002  0.50000002  0.00000003  1
  Ni  Ni5  1  0.00000000  0.00000000  0.50000000  1
