# generated using pymatgen
data_Li4CoO6
_symmetry_space_group_name_H-M   'P 1'
_cell_length_a   2.92107391
_cell_length_b   6.63987303
_cell_length_c   7.16595125
_cell_angle_alpha   111.05377960
_cell_angle_beta   101.76020813
_cell_angle_gamma   90.00000000
_symmetry_Int_Tables_number   1
_chemical_formula_structural   Li4CoO6
_chemical_formula_sum   'Li4 Co1 O6'
_cell_volume   126.57819003
_cell_formula_units_Z   1
loop_
 _symmetry_equiv_pos_site_id
 _symmetry_equiv_pos_as_xyz
  1  'x, y, z'
loop_
 _atom_site_type_symbol
 _atom_site_label
 _atom_site_symmetry_multiplicity
 _atom_site_fract_x
 _atom_site_fract_y
 _atom_site_fract_z
 _atom_site_occupancy
  Li  Li0  1  0.54871399  0.61167002  0.09742798  1
  Li  Li1  1  0.79005102  0.06065300  0.58010199  1
  Li  Li2  1  0.66666667  0.33634401  0.33333332  1
  Li  Li3  1  0.33856399  0.66036902  0.67712798  1
  Co  Co4  1  0.00115400  0.00565800  0.00230800  1
  O  O5  1  0.59750501  0.02263900  0.19500999  1
  O  O6  1  0.93108100  0.66410002  0.86216198  1
  O  O7  1  0.25732600  0.32135801  0.51465199  1
  O  O8  1  0.73612600  0.64698302  0.47225198  1
  O  O9  1  0.07807699  0.34780001  0.15615399  1
  O  O10  1  0.40624898  0.98909403  0.81249797  1
