# generated using pymatgen
data_Ba3PbO5
_symmetry_space_group_name_H-M   'P 1'
_cell_length_a   7.86652184
_cell_length_b   8.17581844
_cell_length_c   8.17581844
_cell_angle_alpha   61.12775803
_cell_angle_beta   61.24373245
_cell_angle_gamma   61.24373245
_symmetry_Int_Tables_number   1
_chemical_formula_structural   Ba3PbO5
_chemical_formula_sum   'Ba6 Pb2 O10'
_cell_volume   381.89542035
_cell_formula_units_Z   2
loop_
 _symmetry_equiv_pos_site_id
 _symmetry_equiv_pos_as_xyz
  1  'x, y, z'
loop_
 _atom_site_type_symbol
 _atom_site_label
 _atom_site_symmetry_multiplicity
 _atom_site_fract_x
 _atom_site_fract_y
 _atom_site_fract_z
 _atom_site_occupancy
  Ba  Ba0  1  0.62399102  0.12600900  0.62600902  1
  Ba  Ba1  1  0.37600900  0.87399103  0.37399102  1
  Ba  Ba2  1  0.00000000  0.00000000  0.00000000  1
  Ba  Ba3  1  1.00000002  0.50000002  0.50000001  1
  Ba  Ba4  1  0.50000001  0.50000002  -0.00000000  1
  Ba  Ba5  1  -0.00000001  0.50000002  0.00000000  1
  Pb  Pb6  1  0.07537500  0.17462501  0.67462503  1
  Pb  Pb7  1  0.69633601  0.55366402  0.05366400  1
  O  O8  1  0.08495800  0.57886002  0.66361303  1
  O  O9  1  0.67256902  0.16361301  0.07886000  1
  O  O10  1  0.67256901  0.57886002  0.66361302  1
  O  O11  1  0.08495800  0.16361301  0.07886000  1
  O  O12  1  0.92462502  0.82537503  0.32537501  1
  O  O13  1  0.30366400  0.44633602  0.94633604  1
  O  O14  1  0.91504202  0.42114002  0.33638701  1
  O  O15  1  0.32743100  0.83638703  0.92114004  1
  O  O16  1  0.32743100  0.42114002  0.33638701  1
  O  O17  1  0.91504202  0.83638703  0.92114003  1
