# generated using pymatgen
data_MnNbP2
_symmetry_space_group_name_H-M   'P 1'
_cell_length_a   3.41584587
_cell_length_b   3.41584587
_cell_length_c   5.91801739
_cell_angle_alpha   73.22600555
_cell_angle_beta   73.22600555
_cell_angle_gamma   60.00000381
_symmetry_Int_Tables_number   1
_chemical_formula_structural   MnNbP2
_chemical_formula_sum   'Mn1 Nb1 P2'
_cell_volume   56.38217153
_cell_formula_units_Z   1
loop_
 _symmetry_equiv_pos_site_id
 _symmetry_equiv_pos_as_xyz
  1  'x, y, z'
loop_
 _atom_site_type_symbol
 _atom_site_label
 _atom_site_symmetry_multiplicity
 _atom_site_fract_x
 _atom_site_fract_y
 _atom_site_fract_z
 _atom_site_occupancy
  Nb  Nb0  1  0.50000002  0.49999999  0.50000000  1
  Mn  Mn1  1  0.00000000  0.00000000  0.00000000  1
  P  P2  1  0.74176602  0.74176599  0.77470199  1
  P  P3  1  0.25823401  0.25823400  0.22529800  1
