# generated using pymatgen
data_CeHfTa2O4
_symmetry_space_group_name_H-M   'P 1'
_cell_length_a   5.84410620
_cell_length_b   5.84410620
_cell_length_c   5.84410620
_cell_angle_alpha   90.00000000
_cell_angle_beta   90.00000000
_cell_angle_gamma   90.00000000
_symmetry_Int_Tables_number   1
_chemical_formula_structural   CeHfTa2O4
_chemical_formula_sum   'Ce2 Hf2 Ta4 O8'
_cell_volume   199.59713245
_cell_formula_units_Z   2
loop_
 _symmetry_equiv_pos_site_id
 _symmetry_equiv_pos_as_xyz
  1  'x, y, z'
loop_
 _atom_site_type_symbol
 _atom_site_label
 _atom_site_symmetry_multiplicity
 _atom_site_fract_x
 _atom_site_fract_y
 _atom_site_fract_z
 _atom_site_occupancy
  Ce  Ce0  1  0.49999998  0.49999998  0.49999998  1
  Ce  Ce1  1  0.00000000  0.00000000  0.00000000  1
  Hf  Hf2  1  0.74999997  0.00000000  0.49999998  1
  Ta  Ta3  1  0.49999998  0.74999997  -0.00000000  1
  Hf  Hf4  1  -0.00000000  0.49999998  0.74999997  1
  Ta  Ta5  1  -0.00000000  0.49999998  0.24999999  1
  Ta  Ta6  1  0.24999999  0.00000000  0.49999998  1
  Ta  Ta7  1  0.49999998  0.24999999  -0.00000000  1
  O  O8  1  0.74999997  0.24999999  0.24999999  1
  O  O9  1  0.24999999  0.24999999  0.74999997  1
  O  O10  1  0.24999999  0.74999997  0.24999999  1
  O  O11  1  0.74999997  0.74999997  0.74999997  1
  O  O12  1  0.24999999  0.74999997  0.74999997  1
  O  O13  1  0.74999997  0.74999997  0.24999999  1
  O  O14  1  0.24999999  0.24999999  0.24999999  1
  O  O15  1  0.74999997  0.24999999  0.74999997  1
