# generated using pymatgen
data_Ce(SiRu)2
_symmetry_space_group_name_H-M   'P 1'
_cell_length_a   4.06814194
_cell_length_b   4.06814194
_cell_length_c   5.57488346
_cell_angle_alpha   111.39917755
_cell_angle_beta   111.39917755
_cell_angle_gamma   90.00000000
_symmetry_Int_Tables_number   1
_chemical_formula_structural   Ce(SiRu)2
_chemical_formula_sum   'Ce1 Si2 Ru2'
_cell_volume   79.03179720
_cell_formula_units_Z   1
loop_
 _symmetry_equiv_pos_site_id
 _symmetry_equiv_pos_as_xyz
  1  'x, y, z'
loop_
 _atom_site_type_symbol
 _atom_site_label
 _atom_site_symmetry_multiplicity
 _atom_site_fract_x
 _atom_site_fract_y
 _atom_site_fract_z
 _atom_site_occupancy
  Ce  Ce0  1  0.00000000  0.00000000  0.00000000  1
  Si  Si1  1  0.62908201  0.62908201  0.25816401  1
  Si  Si2  1  0.37091801  0.37091801  0.74183600  1
  Ru  Ru3  1  0.25000001  0.75000001  0.50000000  1
  Ru  Ru4  1  0.75000001  0.25000000  0.50000000  1
