# generated using pymatgen
data_Rb7Tl(Cl4O)2
_symmetry_space_group_name_H-M   'P 1'
_cell_length_a   8.95406818
_cell_length_b   8.95406818
_cell_length_c   10.53640556
_cell_angle_alpha   115.14502716
_cell_angle_beta   115.14502716
_cell_angle_gamma   90.00000000
_symmetry_Int_Tables_number   1
_chemical_formula_structural   Rb7Tl(Cl4O)2
_chemical_formula_sum   'Rb7 Tl1 Cl8 O2'
_cell_volume   675.22759240
_cell_formula_units_Z   1
loop_
 _symmetry_equiv_pos_site_id
 _symmetry_equiv_pos_as_xyz
  1  'x, y, z'
loop_
 _atom_site_type_symbol
 _atom_site_label
 _atom_site_symmetry_multiplicity
 _atom_site_fract_x
 _atom_site_fract_y
 _atom_site_fract_z
 _atom_site_occupancy
  Rb  Rb0  1  0.50000001  0.50000000  0.00000003  1
  Rb  Rb1  1  0.00000000  0.00000000  0.00000000  1
  Rb  Rb2  1  0.81224600  0.31224600  0.30808004  1
  Rb  Rb3  1  0.49583403  0.99583400  0.30808006  1
  Rb  Rb4  1  0.99583402  0.81224500  0.30807906  1
  Rb  Rb5  1  0.18775402  0.68775400  0.69192005  1
  Tl  Tl6  1  0.68775401  0.50416500  0.69191905  1
  Rb  Rb7  1  0.00416601  0.18775500  0.69192102  1
  Cl  Cl8  1  0.31224601  0.49583500  0.30808103  1
  Cl  Cl9  1  0.50416600  0.00416600  0.69192003  1
  Cl  Cl10  1  0.88445100  0.38445100  1.00000006  1
  Cl  Cl11  1  0.25000001  0.25000000  0.50000003  1
  Cl  Cl12  1  0.38445100  0.11554900  0.00000001  1
  Cl  Cl13  1  0.61554902  0.88445100  0.00000005  1
  Cl  Cl14  1  0.11554902  0.61554900  0.00000003  1
  Cl  Cl15  1  0.75000002  0.75000000  0.50000006  1
  O  O16  1  0.25000002  0.75000000  0.50000005  1
  O  O17  1  0.75000000  0.25000000  0.50000004  1
