# generated using pymatgen
data_Mg4AlSiO8
_symmetry_space_group_name_H-M   'P 1'
_cell_length_a   6.08264685
_cell_length_b   6.08264685
_cell_length_c   6.08264685
_cell_angle_alpha   60.00000000
_cell_angle_beta   60.00000000
_cell_angle_gamma   60.00000000
_symmetry_Int_Tables_number   1
_chemical_formula_structural   Mg4AlSiO8
_chemical_formula_sum   'Mg4 Al1 Si1 O8'
_cell_volume   159.13393775
_cell_formula_units_Z   1
loop_
 _symmetry_equiv_pos_site_id
 _symmetry_equiv_pos_as_xyz
  1  'x, y, z'
loop_
 _atom_site_type_symbol
 _atom_site_label
 _atom_site_symmetry_multiplicity
 _atom_site_fract_x
 _atom_site_fract_y
 _atom_site_fract_z
 _atom_site_occupancy
  Mg  Mg0  1  0.37500001  0.87500003  0.87500003  1
  Mg  Mg1  1  0.00011800  0.50011802  0.50011802  1
  Mg  Mg2  1  0.00011800  0.50011802  0.99964604  1
  Mg  Mg3  1  0.00011800  0.99964604  0.50011802  1
  Al  Al4  1  0.49964602  0.50011802  0.50011802  1
  Si  Si5  1  0.62500002  0.12500000  0.12500000  1
  O  O6  1  0.23667801  0.73667903  0.73667903  1
  O  O7  1  0.23667801  0.73667903  0.28996401  1
  O  O8  1  0.23667901  0.28996401  0.73667803  1
  O  O9  1  0.78996403  0.73667903  0.73667803  1
  O  O10  1  0.76055603  0.26055501  0.26055501  1
  O  O11  1  0.76055603  0.26055501  0.71833403  1
  O  O12  1  0.76055503  0.71833403  0.26055601  1
  O  O13  1  0.21833401  0.26055501  0.26055601  1
