# generated using pymatgen
data_HoAl
_symmetry_space_group_name_H-M   'P 1'
_cell_length_a   5.25345182
_cell_length_b   5.45800924
_cell_length_c   6.02250719
_cell_angle_alpha   66.25724792
_cell_angle_beta   64.14140320
_cell_angle_gamma   61.23221970
_symmetry_Int_Tables_number   1
_chemical_formula_structural   HoAl
_chemical_formula_sum   'Ho3 Al3'
_cell_volume   132.08759366
_cell_formula_units_Z   3
loop_
 _symmetry_equiv_pos_site_id
 _symmetry_equiv_pos_as_xyz
  1  'x, y, z'
loop_
 _atom_site_type_symbol
 _atom_site_label
 _atom_site_symmetry_multiplicity
 _atom_site_fract_x
 _atom_site_fract_y
 _atom_site_fract_z
 _atom_site_occupancy
  Ho  Ho0  1  0.91621007  0.75000003  0.24999990  1
  Ho  Ho1  1  0.08379001  0.25000001  0.74999997  1
  Ho  Ho2  1  0.41989104  0.58874003  0.74368593  1
  Al  Al3  1  0.75231707  0.91126004  0.75631389  1
  Al  Al4  1  0.24768302  0.08874000  0.24368598  1
  Al  Al5  1  0.58010904  0.41126002  0.25631394  1
