# generated using pymatgen
data_YInRh
_symmetry_space_group_name_H-M   'P 1'
_cell_length_a   3.79249811
_cell_length_b   7.61818790
_cell_length_c   7.61818790
_cell_angle_alpha   120.00000000
_cell_angle_beta   90.00000000
_cell_angle_gamma   90.00000000
_symmetry_Int_Tables_number   1
_chemical_formula_structural   YInRh
_chemical_formula_sum   'Y3 In3 Rh3'
_cell_volume   190.61600613
_cell_formula_units_Z   3
loop_
 _symmetry_equiv_pos_site_id
 _symmetry_equiv_pos_as_xyz
  1  'x, y, z'
loop_
 _atom_site_type_symbol
 _atom_site_label
 _atom_site_symmetry_multiplicity
 _atom_site_fract_x
 _atom_site_fract_y
 _atom_site_fract_z
 _atom_site_occupancy
  Y  Y0  1  0.49999999  0.59938300  -0.00000002  1
  Y  Y1  1  0.49999999  0.40061700  0.40061698  1
  Y  Y2  1  0.49999999  0.00000000  0.59938298  1
  In  In3  1  -0.00000000  0.26481900  -0.00000001  1
  In  In4  1  0.99999997  0.73518100  0.73518096  1
  In  In5  1  0.00000000  0.00000000  0.26481899  1
  Rh  Rh6  1  -0.00000000  0.33333333  0.66666664  1
  Rh  Rh7  1  -0.00000000  0.66666667  0.33333331  1
  Rh  Rh8  1  0.49999999  0.00000000  -0.00000000  1
