# generated using pymatgen
data_NaLi6O7
_symmetry_space_group_name_H-M   'P 1'
_cell_length_a   3.34377003
_cell_length_b   7.94505596
_cell_length_c   8.14937019
_cell_angle_alpha   119.17406464
_cell_angle_beta   90.00000000
_cell_angle_gamma   90.00000000
_symmetry_Int_Tables_number   1
_chemical_formula_structural   NaLi6O7
_chemical_formula_sum   'Na1 Li6 O7'
_cell_volume   189.03520615
_cell_formula_units_Z   1
loop_
 _symmetry_equiv_pos_site_id
 _symmetry_equiv_pos_as_xyz
  1  'x, y, z'
loop_
 _atom_site_type_symbol
 _atom_site_label
 _atom_site_symmetry_multiplicity
 _atom_site_fract_x
 _atom_site_fract_y
 _atom_site_fract_z
 _atom_site_occupancy
  Li  Li0  1  0.50000000  0.66336602  0.74165201  1
  Li  Li1  1  0.50000000  0.33663401  0.25834801  1
  Li  Li2  1  0.50000000  0.92171403  0.25834804  1
  Li  Li3  1  0.50000000  0.07828600  0.74165198  1
  Na  Na4  1  -0.00000000  0.50000001  0.99999999  1
  Li  Li5  1  0.99999999  0.71565002  0.43130002  1
  Li  Li6  1  -0.00000000  0.28435001  0.56869999  1
  O  O7  1  0.99999999  0.82879402  1.00000000  1
  O  O8  1  0.99999999  0.17120601  0.99999997  1
  O  O9  1  0.00000000  0.00000000  0.00000000  1
  O  O10  1  0.50000000  0.62309202  0.24618402  1
  O  O11  1  0.50000000  0.37690801  0.75381599  1
  O  O12  1  0.99999999  0.50000001  0.50000001  1
  O  O13  1  0.00000000  0.00000000  0.49999998  1
