# generated using pymatgen
data_LiMgRh7
_symmetry_space_group_name_H-M   'P 1'
_cell_length_a   5.10424614
_cell_length_b   5.10424614
_cell_length_c   5.10424614
_cell_angle_alpha   60.00000000
_cell_angle_beta   60.00000000
_cell_angle_gamma   60.00000000
_symmetry_Int_Tables_number   1
_chemical_formula_structural   LiMgRh7
_chemical_formula_sum   'Li1 Mg1 Rh7'
_cell_volume   94.03289979
_cell_formula_units_Z   1
loop_
 _symmetry_equiv_pos_site_id
 _symmetry_equiv_pos_as_xyz
  1  'x, y, z'
loop_
 _atom_site_type_symbol
 _atom_site_label
 _atom_site_symmetry_multiplicity
 _atom_site_fract_x
 _atom_site_fract_y
 _atom_site_fract_z
 _atom_site_occupancy
  Li  Li0  1  0.25000000  0.25000000  0.25000000  1
  Mg  Mg1  1  0.74999999  0.74999999  0.74999999  1
  Rh  Rh2  1  0.76236699  0.76236699  0.23763300  1
  Rh  Rh3  1  0.23763300  0.76236699  0.76236699  1
  Rh  Rh4  1  0.23763300  0.76236699  0.23763300  1
  Rh  Rh5  1  0.23763300  0.23763300  0.76236699  1
  Rh  Rh6  1  0.76236699  0.23763300  0.23763300  1
  Rh  Rh7  1  0.76236699  0.23763300  0.76236699  1
  Rh  Rh8  1  0.00000000  0.00000000  0.00000000  1
