# generated using pymatgen
data_HfNi3
_symmetry_space_group_name_H-M   'P 1'
_cell_length_a   4.36855078
_cell_length_b   5.21219969
_cell_length_c   5.21481276
_cell_angle_alpha   60.07637405
_cell_angle_beta   90.00000000
_cell_angle_gamma   90.00000000
_symmetry_Int_Tables_number   1
_chemical_formula_structural   HfNi3
_chemical_formula_sum   'Hf2 Ni6'
_cell_volume   102.91092972
_cell_formula_units_Z   2
loop_
 _symmetry_equiv_pos_site_id
 _symmetry_equiv_pos_as_xyz
  1  'x, y, z'
loop_
 _atom_site_type_symbol
 _atom_site_label
 _atom_site_symmetry_multiplicity
 _atom_site_fract_x
 _atom_site_fract_y
 _atom_site_fract_z
 _atom_site_occupancy
  Hf  Hf0  1  0.75000004  0.66666664  0.66659032  1
  Hf  Hf1  1  0.25000001  0.33333332  0.33329666  1
  Ni  Ni2  1  0.25000001  0.83774497  0.32450999  1
  Ni  Ni3  1  0.25000001  0.83777497  0.83774998  1
  Ni  Ni4  1  0.25000001  0.32449299  0.83774099  1
  Ni  Ni5  1  0.75000004  0.16220199  0.67564399  1
  Ni  Ni6  1  0.75000004  0.16219999  0.16221500  1
  Ni  Ni7  1  0.75000004  0.67560098  0.16223299  1
