# generated using pymatgen
data_Y2InGe2
_symmetry_space_group_name_H-M   'P 1'
_cell_length_a   3.47308302
_cell_length_b   7.75400686
_cell_length_c   7.75400686
_cell_angle_alpha   90.00000000
_cell_angle_beta   90.00000000
_cell_angle_gamma   90.00000000
_symmetry_Int_Tables_number   1
_chemical_formula_structural   Y2InGe2
_chemical_formula_sum   'Y4 In2 Ge4'
_cell_volume   208.81780519
_cell_formula_units_Z   2
loop_
 _symmetry_equiv_pos_site_id
 _symmetry_equiv_pos_as_xyz
  1  'x, y, z'
loop_
 _atom_site_type_symbol
 _atom_site_label
 _atom_site_symmetry_multiplicity
 _atom_site_fract_x
 _atom_site_fract_y
 _atom_site_fract_z
 _atom_site_occupancy
  Y  Y0  1  0.00000000  0.16767600  0.33232401  1
  Y  Y1  1  0.00000000  0.83232401  0.66767601  1
  Y  Y2  1  0.00000000  0.66767601  0.16767600  1
  Y  Y3  1  0.00000000  0.33232401  0.83232401  1
  In  In4  1  0.50000000  0.00000000  0.00000000  1
  In  In5  1  0.50000000  0.50000001  0.50000001  1
  Ge  Ge6  1  0.50000000  0.37102101  0.12897900  1
  Ge  Ge7  1  0.50000000  0.62897901  0.87102102  1
  Ge  Ge8  1  0.50000000  0.87102102  0.37102101  1
  Ge  Ge9  1  0.50000000  0.12897900  0.62897901  1
