# generated using pymatgen
data_Pr2Ga8Ni9
_symmetry_space_group_name_H-M   'P 1'
_cell_length_a   6.77990198
_cell_length_b   6.77990198
_cell_length_c   6.77990246
_cell_angle_alpha   82.48444366
_cell_angle_beta   82.48444366
_cell_angle_gamma   82.48444366
_symmetry_Int_Tables_number   1
_chemical_formula_structural   Pr2Ga8Ni9
_chemical_formula_sum   'Pr2 Ga8 Ni9'
_cell_volume   304.26468834
_cell_formula_units_Z   1
loop_
 _symmetry_equiv_pos_site_id
 _symmetry_equiv_pos_as_xyz
  1  'x, y, z'
loop_
 _atom_site_type_symbol
 _atom_site_label
 _atom_site_symmetry_multiplicity
 _atom_site_fract_x
 _atom_site_fract_y
 _atom_site_fract_z
 _atom_site_occupancy
  Pr  Pr0  1  0.33830000  0.33830000  0.33829998  1
  Pr  Pr1  1  0.66170001  0.66170001  0.66169995  1
  Ga  Ga2  1  0.64585401  0.64585401  0.16030594  1
  Ga  Ga3  1  0.64585401  0.16030600  0.64585398  1
  Ga  Ga4  1  0.89826501  0.89826501  0.89826493  1
  Ga  Ga5  1  0.10173500  0.10173500  0.10173499  1
  Ga  Ga6  1  0.00000000  0.00000000  0.50000002  1
  Ga  Ga7  1  0.50000000  0.00000000  -0.00000003  1
  Ga  Ga8  1  0.00000000  0.50000000  -0.00000003  1
  Ga  Ga9  1  0.29833600  0.00000000  0.70166401  1
  Ni  Ni10  1  0.70166401  0.29833600  -0.00000005  1
  Ni  Ni11  1  0.00000000  0.70166401  0.29833597  1
  Ni  Ni12  1  0.70166401  0.00000000  0.29833597  1
  Ni  Ni13  1  0.29833600  0.70166401  -0.00000005  1
  Ni  Ni14  1  0.00000000  0.29833600  0.70166401  1
  Ni  Ni15  1  0.35414600  0.83969401  0.35414595  1
  Ni  Ni16  1  0.35414600  0.35414600  0.83969399  1
  Ni  Ni17  1  0.83969401  0.35414600  0.35414595  1
  Ni  Ni18  1  0.16030600  0.64585401  0.64585398  1
