# generated using pymatgen
data_Li6CuPO6
_symmetry_space_group_name_H-M   'P 1'
_cell_length_a   5.69517517
_cell_length_b   6.02195883
_cell_length_c   6.11842203
_cell_angle_alpha   60.52017212
_cell_angle_beta   62.26310730
_cell_angle_gamma   90.00000000
_symmetry_Int_Tables_number   1
_chemical_formula_structural   Li6CuPO6
_chemical_formula_sum   'Li6 Cu1 P1 O6'
_cell_volume   154.37186766
_cell_formula_units_Z   1
loop_
 _symmetry_equiv_pos_site_id
 _symmetry_equiv_pos_as_xyz
  1  'x, y, z'
loop_
 _atom_site_type_symbol
 _atom_site_label
 _atom_site_symmetry_multiplicity
 _atom_site_fract_x
 _atom_site_fract_y
 _atom_site_fract_z
 _atom_site_occupancy
  Li  Li0  1  0.11046998  0.86047001  0.27906102  1
  Li  Li1  1  0.50451499  0.00645100  0.49097103  1
  Li  Li2  1  0.50451498  0.50257801  0.49097103  1
  Li  Li3  1  0.87204899  0.12204900  0.75590205  1
  Li  Li4  1  0.02701899  0.50060201  0.99879503  1
  Li  Li5  1  0.47418598  0.50060201  0.99879504  1
  P  P6  1  0.75119898  0.71868401  0.99760205  1
  Cu  Cu7  1  0.75119898  0.28371400  0.99760205  1
  O  O8  1  0.28428199  0.27069100  0.45861802  1
  O  O9  1  0.75710098  0.27069100  0.45861804  1
  O  O10  1  0.25362899  0.24977700  0.99274204  1
  O  O11  1  0.25362898  0.75748101  0.99274204  1
  O  O12  1  0.70083298  0.72810501  0.54379104  1
  O  O13  1  0.25537598  0.72810501  0.54379103  1
