# generated using pymatgen
data_Ho4CuBi3O8
_symmetry_space_group_name_H-M   'P 1'
_cell_length_a   6.27048111
_cell_length_b   6.27048111
_cell_length_c   6.46649122
_cell_angle_alpha   90.00000000
_cell_angle_beta   90.00000000
_cell_angle_gamma   90.00000000
_symmetry_Int_Tables_number   1
_chemical_formula_structural   Ho4CuBi3O8
_chemical_formula_sum   'Ho4 Cu1 Bi3 O8'
_cell_volume   254.25553736
_cell_formula_units_Z   1
loop_
 _symmetry_equiv_pos_site_id
 _symmetry_equiv_pos_as_xyz
  1  'x, y, z'
loop_
 _atom_site_type_symbol
 _atom_site_label
 _atom_site_symmetry_multiplicity
 _atom_site_fract_x
 _atom_site_fract_y
 _atom_site_fract_z
 _atom_site_occupancy
  Ho  Ho0  1  0.49999999  0.00000000  0.00000000  1
  Ho  Ho1  1  0.49999999  0.00000000  0.49999998  1
  Ho  Ho2  1  -0.00000000  0.49999999  0.00000000  1
  Ho  Ho3  1  -0.00000000  0.49999999  0.49999998  1
  Bi  Bi4  1  0.65128099  0.34871899  0.74499497  1
  Cu  Cu5  1  0.84871899  0.84871899  0.75500497  1
  O  O6  1  0.15128100  0.15128100  0.75500497  1
  Bi  Bi7  1  0.34871899  0.65128099  0.74499497  1
  Bi  Bi8  1  0.34871899  0.65128099  0.25500499  1
  O  O9  1  0.65128099  0.34871899  0.25500499  1
  O  O10  1  0.84871899  0.84871899  0.24499499  1
  O  O11  1  0.15128100  0.15128100  0.24499499  1
  O  O12  1  0.84514299  0.15485700  0.00000000  1
  O  O13  1  0.65485699  0.65485699  0.49999998  1
  O  O14  1  0.34514299  0.34514299  0.49999998  1
  O  O15  1  0.15485700  0.84514299  0.00000000  1
