# generated using pymatgen
data_CeGa3Ni
_symmetry_space_group_name_H-M   'P 1'
_cell_length_a   4.28882599
_cell_length_b   4.28882599
_cell_length_c   5.71546793
_cell_angle_alpha   112.03634644
_cell_angle_beta   112.03634644
_cell_angle_gamma   90.00000000
_symmetry_Int_Tables_number   1
_chemical_formula_structural   CeGa3Ni
_chemical_formula_sum   'Ce1 Ga3 Ni1'
_cell_volume   89.11058660
_cell_formula_units_Z   1
loop_
 _symmetry_equiv_pos_site_id
 _symmetry_equiv_pos_as_xyz
  1  'x, y, z'
loop_
 _atom_site_type_symbol
 _atom_site_label
 _atom_site_symmetry_multiplicity
 _atom_site_fract_x
 _atom_site_fract_y
 _atom_site_fract_z
 _atom_site_occupancy
  Ce  Ce0  1  0.99959205  0.99959202  0.99918405  1
  Ga  Ga1  1  0.40970202  0.40970201  0.81940401  1
  Ga  Ga2  1  0.26464003  0.76464002  0.52928003  1
  Ga  Ga3  1  0.76464002  0.26464001  0.52928002  1
  Ni  Ni4  1  0.65542503  0.65542501  0.31085004  1
