# generated using pymatgen
data_Rb4Ag4I11Cl
_symmetry_space_group_name_H-M   'P 1'
_cell_length_a   8.73317146
_cell_length_b   8.87220955
_cell_length_c   12.66308212
_cell_angle_alpha   90.00000000
_cell_angle_beta   90.00000000
_cell_angle_gamma   90.00000000
_symmetry_Int_Tables_number   1
_chemical_formula_structural   Rb4Ag4I11Cl
_chemical_formula_sum   'Rb4 Ag4 I11 Cl1'
_cell_volume   981.16760561
_cell_formula_units_Z   1
loop_
 _symmetry_equiv_pos_site_id
 _symmetry_equiv_pos_as_xyz
  1  'x, y, z'
loop_
 _atom_site_type_symbol
 _atom_site_label
 _atom_site_symmetry_multiplicity
 _atom_site_fract_x
 _atom_site_fract_y
 _atom_site_fract_z
 _atom_site_occupancy
  Rb  Rb0  1  0.00468300  0.02333300  0.25000000  1
  Rb  Rb1  1  0.50468297  0.47666702  0.25000000  1
  Rb  Rb2  1  0.99531695  0.97666705  0.74999999  1
  Rb  Rb3  1  0.49531697  0.52333303  0.74999999  1
  Ag  Ag4  1  0.49999997  0.00000000  0.00000000  1
  Ag  Ag5  1  0.00000000  0.50000003  0.50000000  1
  Ag  Ag6  1  0.00000000  0.50000003  0.00000000  1
  Ag  Ag7  1  0.49999997  0.00000000  0.50000000  1
  I  I8  1  0.70309796  0.70367204  0.00756400  1
  I  I9  1  0.29690198  0.29632802  0.50756400  1
  I  I10  1  0.70309796  0.70367204  0.49243600  1
  I  I11  1  0.29690198  0.29632802  0.99243599  1
  I  I12  1  0.50264797  0.98001805  0.74999999  1
  I  I13  1  0.20309799  0.79632804  0.49243600  1
  I  I14  1  0.99735195  0.48001802  0.25000000  1
  I  I15  1  0.79690196  0.20367201  0.50756400  1
  I  I16  1  0.79690196  0.20367201  0.99243599  1
  I  I17  1  0.49735197  0.01998200  0.25000000  1
  I  I18  1  0.00264800  0.51998203  0.74999999  1
  Cl  Cl19  1  0.20309799  0.79632804  0.00756400  1
