# generated using pymatgen
data_B
_symmetry_space_group_name_H-M   'P 1'
_cell_length_a   2.85370708
_cell_length_b   4.72674322
_cell_length_c   5.47987604
_cell_angle_alpha   90.00000000
_cell_angle_beta   90.00000000
_cell_angle_gamma   90.00000000
_symmetry_Int_Tables_number   1
_chemical_formula_structural   B
_chemical_formula_sum   B10
_cell_volume   73.91662629
_cell_formula_units_Z   10
loop_
 _symmetry_equiv_pos_site_id
 _symmetry_equiv_pos_as_xyz
  1  'x, y, z'
loop_
 _atom_site_type_symbol
 _atom_site_label
 _atom_site_symmetry_multiplicity
 _atom_site_fract_x
 _atom_site_fract_y
 _atom_site_fract_z
 _atom_site_occupancy
  B  B0  1  0.49999999  0.49999998  0.50000000  1
  B  B1  1  0.00000000  0.00000000  0.00000000  1
  B  B2  1  0.49999999  0.66504297  0.86647499  1
  B  B3  1  0.49999999  0.33495698  0.13352500  1
  B  B4  1  -0.00000000  0.16504299  0.63352500  1
  B  B5  1  0.00000000  0.83495696  0.36647500  1
  B  B6  1  0.49999999  0.72335797  0.17834800  1
  B  B7  1  0.49999999  0.27664199  0.82165199  1
  B  B8  1  0.00000000  0.22335799  0.32165200  1
  B  B9  1  -0.00000000  0.77664196  0.67834799  1
