# generated using pymatgen
data_Li
_symmetry_space_group_name_H-M   'P 1'
_cell_length_a   3.80519390
_cell_length_b   4.64635801
_cell_length_c   5.72337246
_cell_angle_alpha   90.00000000
_cell_angle_beta   109.41608429
_cell_angle_gamma   90.00000000
_symmetry_Int_Tables_number   1
_chemical_formula_structural   Li
_chemical_formula_sum   Li4
_cell_volume   95.43611315
_cell_formula_units_Z   4
loop_
 _symmetry_equiv_pos_site_id
 _symmetry_equiv_pos_as_xyz
  1  'x, y, z'
loop_
 _atom_site_type_symbol
 _atom_site_label
 _atom_site_symmetry_multiplicity
 _atom_site_fract_x
 _atom_site_fract_y
 _atom_site_fract_z
 _atom_site_occupancy
  Li  Li0  1  0.13711501  0.75000000  0.27423002  1
  Li  Li1  1  0.86288504  0.25000000  0.72577006  1
  Li  Li2  1  0.41408302  0.75000000  0.82816605  1
  Li  Li3  1  0.58591703  0.25000000  0.17183403  1
