# generated using pymatgen
data_YNi3
_symmetry_space_group_name_H-M   'P 1'
_cell_length_a   4.93119335
_cell_length_b   4.93119335
_cell_length_c   8.54957199
_cell_angle_alpha   73.23851013
_cell_angle_beta   73.23851013
_cell_angle_gamma   60.00000763
_symmetry_Int_Tables_number   1
_chemical_formula_structural   YNi3
_chemical_formula_sum   'Y3 Ni9'
_cell_volume   169.76835774
_cell_formula_units_Z   3
loop_
 _symmetry_equiv_pos_site_id
 _symmetry_equiv_pos_as_xyz
  1  'x, y, z'
loop_
 _atom_site_type_symbol
 _atom_site_label
 _atom_site_symmetry_multiplicity
 _atom_site_fract_x
 _atom_site_fract_y
 _atom_site_fract_z
 _atom_site_occupancy
  Y  Y0  1  0.62502303  0.62502301  0.12493096  1
  Y  Y1  1  0.00093300  0.00093300  0.99720097  1
  Y  Y2  1  0.49910602  0.49910601  0.50268195  1
  Ni  Ni3  1  0.12494701  0.12494700  0.62515897  1
  Ni  Ni4  1  0.06410201  0.56360201  0.80869395  1
  Ni  Ni5  1  0.55992302  0.06198300  0.31611097  1
  Ni  Ni6  1  0.56360202  0.06410200  0.80869395  1
  Ni  Ni7  1  0.06198301  0.55992301  0.31611097  1
  Ni  Ni8  1  0.81227704  0.81227702  0.56316893  1
  Ni  Ni9  1  0.31251901  0.31251901  0.06244298  1
  Ni  Ni10  1  0.56360203  0.56360201  0.80869394  1
  Ni  Ni11  1  0.06198300  0.06198300  0.31611099  1
