# generated using pymatgen
data_NaF
_symmetry_space_group_name_H-M   'P 1'
_cell_length_a   6.18653679
_cell_length_b   6.53852320
_cell_length_c   6.53852320
_cell_angle_alpha   114.84364319
_cell_angle_beta   90.00000000
_cell_angle_gamma   90.00000000
_symmetry_Int_Tables_number   1
_chemical_formula_structural   NaF
_chemical_formula_sum   'Na6 F6'
_cell_volume   240.01220843
_cell_formula_units_Z   6
loop_
 _symmetry_equiv_pos_site_id
 _symmetry_equiv_pos_as_xyz
  1  'x, y, z'
loop_
 _atom_site_type_symbol
 _atom_site_label
 _atom_site_symmetry_multiplicity
 _atom_site_fract_x
 _atom_site_fract_y
 _atom_site_fract_z
 _atom_site_occupancy
  Na  Na0  1  0.23258901  0.18841200  0.52537300  1
  Na  Na1  1  0.73258902  0.47462700  0.81158798  1
  Na  Na2  1  0.23258901  0.52537299  0.18841197  1
  Na  Na3  1  0.73258902  0.81158799  0.47462696  1
  Na  Na4  1  0.26820701  0.89335299  0.89335296  1
  Na  Na5  1  0.76820703  0.10664700  0.10664700  1
  F  F6  1  0.50034702  0.15666800  0.89393200  1
  F  F7  1  0.00034700  0.10606800  0.84333201  1
  F  F8  1  0.86592203  0.39842200  0.39842198  1
  F  F9  1  0.36592201  0.60157799  0.60157797  1
  F  F10  1  0.00034700  0.84333199  0.10606795  1
  F  F11  1  0.50034702  0.89393199  0.15666795  1
