# generated using pymatgen
data_Na2La2NbO5
_symmetry_space_group_name_H-M   'P 1'
_cell_length_a   5.03640604
_cell_length_b   6.51670408
_cell_length_c   9.72898102
_cell_angle_alpha   90.00000000
_cell_angle_beta   90.00000000
_cell_angle_gamma   90.00000000
_symmetry_Int_Tables_number   1
_chemical_formula_structural   Na2La2NbO5
_chemical_formula_sum   'Na4 La4 Nb2 O10'
_cell_volume   319.31262696
_cell_formula_units_Z   2
loop_
 _symmetry_equiv_pos_site_id
 _symmetry_equiv_pos_as_xyz
  1  'x, y, z'
loop_
 _atom_site_type_symbol
 _atom_site_label
 _atom_site_symmetry_multiplicity
 _atom_site_fract_x
 _atom_site_fract_y
 _atom_site_fract_z
 _atom_site_occupancy
  Na  Na0  1  0.25000000  0.81782299  0.94396800  1
  Na  Na1  1  0.25000000  0.31782300  0.55603200  1
  Na  Na2  1  0.74999999  0.18217700  0.05603200  1
  Na  Na3  1  0.74999999  0.68217699  0.44396800  1
  La  La4  1  0.25000000  0.46876999  0.21813300  1
  La  La5  1  0.25000000  0.96876999  0.28186700  1
  La  La6  1  0.74999999  0.53122999  0.78186700  1
  La  La7  1  0.74999999  0.03123000  0.71813300  1
  Nb  Nb8  1  0.25000000  0.27616300  0.86751500  1
  Nb  Nb9  1  0.25000000  0.77616299  0.63248500  1
  O  O10  1  0.74999999  0.72383699  0.13248500  1
  O  O11  1  0.74999999  0.22383700  0.36751500  1
  O  O12  1  0.25000000  0.04203800  0.74021100  1
  O  O13  1  0.25000000  0.54203799  0.75978900  1
  O  O14  1  0.74999999  0.95796199  0.25978900  1
  O  O15  1  0.74999999  0.45796199  0.24021100  1
  O  O16  1  0.25000000  0.67314499  0.44596600  1
  O  O17  1  0.25000000  0.17314500  0.05403400  1
  O  O18  1  0.74999999  0.32685500  0.55403400  1
  O  O19  1  0.74999999  0.82685499  0.94596600  1
