# generated using pymatgen
data_KSr2BiO4
_symmetry_space_group_name_H-M   'P 1'
_cell_length_a   3.78522396
_cell_length_b   3.78522396
_cell_length_c   10.68140697
_cell_angle_alpha   79.79402161
_cell_angle_beta   79.79402161
_cell_angle_gamma   60.00000381
_symmetry_Int_Tables_number   1
_chemical_formula_structural   KSr2BiO4
_chemical_formula_sum   'K1 Sr2 Bi1 O4'
_cell_volume   129.73484598
_cell_formula_units_Z   1
loop_
 _symmetry_equiv_pos_site_id
 _symmetry_equiv_pos_as_xyz
  1  'x, y, z'
loop_
 _atom_site_type_symbol
 _atom_site_label
 _atom_site_symmetry_multiplicity
 _atom_site_fract_x
 _atom_site_fract_y
 _atom_site_fract_z
 _atom_site_occupancy
  Sr  Sr0  1  0.88507601  0.88507597  0.34477200  1
  Sr  Sr1  1  0.11492400  0.11492400  0.65522802  1
  K  K2  1  0.81359701  0.81359697  0.55920900  1
  Bi  Bi3  1  0.18640300  0.18640299  0.44079101  1
  O  O4  1  0.54641201  0.54641198  0.36076400  1
  O  O5  1  0.45358801  0.45358798  0.63923601  1
  O  O6  1  0.71972601  0.71972597  0.84082202  1
  O  O7  1  0.28027400  0.28027399  0.15917800  1
