# generated using pymatgen
data_Hf2(FeSi)3
_symmetry_space_group_name_H-M   'P 1'
_cell_length_a   6.55433989
_cell_length_b   6.55433989
_cell_length_c   6.78734589
_cell_angle_alpha   90.00000000
_cell_angle_beta   90.00000000
_cell_angle_gamma   90.00000000
_symmetry_Int_Tables_number   1
_chemical_formula_structural   Hf2(FeSi)3
_chemical_formula_sum   'Hf4 Fe6 Si6'
_cell_volume   291.58011232
_cell_formula_units_Z   2
loop_
 _symmetry_equiv_pos_site_id
 _symmetry_equiv_pos_as_xyz
  1  'x, y, z'
loop_
 _atom_site_type_symbol
 _atom_site_label
 _atom_site_symmetry_multiplicity
 _atom_site_fract_x
 _atom_site_fract_y
 _atom_site_fract_z
 _atom_site_occupancy
  Hf  Hf0  1  -0.00000000  0.50000001  0.50000001  1
  Hf  Hf1  1  0.50000001  0.00000000  0.00000000  1
  Hf  Hf2  1  0.50000001  0.00000000  0.50000001  1
  Hf  Hf3  1  -0.00000000  0.50000001  0.00000000  1
  Fe  Fe4  1  0.35142301  0.64857701  0.24026800  1
  Fe  Fe5  1  0.64857701  0.35142301  0.24026800  1
  Fe  Fe6  1  0.14857700  0.14857700  0.74026801  1
  Fe  Fe7  1  0.85142301  0.85142301  0.74026801  1
  Fe  Fe8  1  0.64857701  0.35142301  0.75973201  1
  Fe  Fe9  1  0.35142301  0.64857701  0.75973201  1
  Si  Si10  1  0.85142301  0.85142301  0.25973200  1
  Si  Si11  1  0.14857700  0.14857700  0.25973200  1
  Si  Si12  1  0.16313200  0.83686801  0.50000001  1
  Si  Si13  1  0.83686801  0.16313200  0.50000001  1
  Si  Si14  1  0.33686801  0.33686801  -0.00000000  1
  Si  Si15  1  0.66313201  0.66313201  -0.00000000  1
