# generated using pymatgen
data_Pr2(FeP)3
_symmetry_space_group_name_H-M   'P 1'
_cell_length_a   5.75010586
_cell_length_b   8.13316250
_cell_length_c   8.13316250
_cell_angle_alpha   82.82152557
_cell_angle_beta   69.29860687
_cell_angle_gamma   69.29860687
_symmetry_Int_Tables_number   1
_chemical_formula_structural   Pr2(FeP)3
_chemical_formula_sum   'Pr4 Fe6 P6'
_cell_volume   332.82993057
_cell_formula_units_Z   2
loop_
 _symmetry_equiv_pos_site_id
 _symmetry_equiv_pos_as_xyz
  1  'x, y, z'
loop_
 _atom_site_type_symbol
 _atom_site_label
 _atom_site_symmetry_multiplicity
 _atom_site_fract_x
 _atom_site_fract_y
 _atom_site_fract_z
 _atom_site_occupancy
  Fe  Fe0  1  0.86340104  0.00000000  0.80760500  1
  Fe  Fe1  1  0.67100603  0.00000000  0.19239498  1
  Pr  Pr2  1  0.32899393  0.80760506  0.00000001  1
  Pr  Pr3  1  0.13659899  0.19239501  0.00000000  1
  Fe  Fe4  1  -0.00000004  0.35485902  0.64514104  1
  Pr  Pr5  1  -0.00000007  0.64514105  0.35485904  1
  Fe  Fe6  1  0.35485895  0.64514105  0.64514104  1
  Pr  Pr7  1  0.64514099  0.35485902  0.35485900  1
  Fe  Fe8  1  0.45351802  0.00000000  0.59063201  1
  Fe  Fe9  1  0.04414989  1.00000007  0.40936805  1
  P  P10  1  0.95584998  0.59063204  -0.00000002  1
  P  P11  1  0.54648198  0.40936803  -0.00000001  1
  P  P12  1  0.49999999  0.29246302  0.70753702  1
  P  P13  1  0.49999995  0.70753705  0.29246301  1
  P  P14  1  0.79246296  0.70753705  0.70753702  1
  P  P15  1  0.20753698  0.29246302  0.29246301  1
