# generated using pymatgen
data_CaMnO3
_symmetry_space_group_name_H-M   'P 1'
_cell_length_a   5.45917988
_cell_length_b   5.47893286
_cell_length_c   7.78523397
_cell_angle_alpha   89.80491638
_cell_angle_beta   90.00000000
_cell_angle_gamma   90.00000000
_symmetry_Int_Tables_number   1
_chemical_formula_structural   CaMnO3
_chemical_formula_sum   'Ca4 Mn4 O12'
_cell_volume   232.85873539
_cell_formula_units_Z   4
loop_
 _symmetry_equiv_pos_site_id
 _symmetry_equiv_pos_as_xyz
  1  'x, y, z'
loop_
 _atom_site_type_symbol
 _atom_site_label
 _atom_site_symmetry_multiplicity
 _atom_site_fract_x
 _atom_site_fract_y
 _atom_site_fract_z
 _atom_site_occupancy
  Ca  Ca0  1  0.28616501  0.50896001  0.74969604  1
  Ca  Ca1  1  0.71383502  0.00896000  0.24969601  1
  Ca  Ca2  1  0.77623702  0.99496903  0.75070206  1
  Ca  Ca3  1  0.22376300  0.49496901  0.25070203  1
  Mn  Mn4  1  0.25004801  0.00027400  0.99966602  1
  Mn  Mn5  1  0.74995202  0.50027401  0.49966603  1
  Mn  Mn6  1  0.24925601  0.99986903  0.50027105  1
  Mn  Mn7  1  0.75074402  0.49986901  0.00027102  1
  O  O8  1  0.76103602  0.57751401  0.25145003  1
  O  O9  1  0.97071502  0.21520801  0.04197001  1
  O  O10  1  0.97595702  0.20776501  0.45964702  1
  O  O11  1  0.02404300  0.70776502  0.95964705  1
  O  O12  1  0.02928500  0.71520802  0.54197004  1
  O  O13  1  0.23896401  0.07751400  0.75145002  1
  O  O14  1  0.26487401  0.93102702  0.24814305  1
  O  O15  1  0.47425001  0.27854401  0.46156202  1
  O  O16  1  0.48086001  0.28587001  0.03689001  1
  O  O17  1  0.51914001  0.78587002  0.53689005  1
  O  O18  1  0.52575001  0.77854402  0.96156205  1
  O  O19  1  0.73512602  0.43102701  0.74814303  1
