# generated using pymatgen
data_SrCa3TeWO2
_symmetry_space_group_name_H-M   'P 1'
_cell_length_a   3.61671805
_cell_length_b   3.61671734
_cell_length_c   13.78966236
_cell_angle_alpha   90.00000000
_cell_angle_beta   90.00000000
_cell_angle_gamma   120.00000763
_symmetry_Int_Tables_number   1
_chemical_formula_structural   SrCa3TeWO2
_chemical_formula_sum   'Sr1 Ca3 Te1 W1 O2'
_cell_volume   156.21166205
_cell_formula_units_Z   1
loop_
 _symmetry_equiv_pos_site_id
 _symmetry_equiv_pos_as_xyz
  1  'x, y, z'
loop_
 _atom_site_type_symbol
 _atom_site_label
 _atom_site_symmetry_multiplicity
 _atom_site_fract_x
 _atom_site_fract_y
 _atom_site_fract_z
 _atom_site_occupancy
  Sr  Sr0  1  0.66666667  0.33333335  0.24999999  1
  Ca  Ca1  1  0.33333336  0.66666670  0.74999998  1
  Ca  Ca2  1  0.00000000  0.00000000  0.00000000  1
  Ca  Ca3  1  0.00000000  0.00000000  0.49999999  1
  W  W4  1  0.66666667  0.33333335  0.58332798  1
  Te  Te5  1  0.66666667  0.33333335  0.91667198  1
  O  O6  1  0.33333336  0.66666670  0.41667199  1
  O  O7  1  0.33333336  0.66666670  0.08332800  1
