# generated using pymatgen
data_Ce3In
_symmetry_space_group_name_H-M   'P 1'
_cell_length_a   5.66970587
_cell_length_b   7.26111984
_cell_length_c   7.26111984
_cell_angle_alpha   120.00000000
_cell_angle_beta   90.00000000
_cell_angle_gamma   90.00000000
_symmetry_Int_Tables_number   1
_chemical_formula_structural   Ce3In
_chemical_formula_sum   'Ce6 In2'
_cell_volume   258.87992274
_cell_formula_units_Z   2
loop_
 _symmetry_equiv_pos_site_id
 _symmetry_equiv_pos_as_xyz
  1  'x, y, z'
loop_
 _atom_site_type_symbol
 _atom_site_label
 _atom_site_symmetry_multiplicity
 _atom_site_fract_x
 _atom_site_fract_y
 _atom_site_fract_z
 _atom_site_occupancy
  Ce  Ce0  1  0.75000002  0.83248701  0.16751197  1
  Ce  Ce1  1  0.75000002  0.33502500  0.16751199  1
  Ce  Ce2  1  0.75000002  0.83248701  0.66497396  1
  Ce  Ce3  1  0.25000001  0.16751300  0.83248798  1
  Ce  Ce4  1  0.25000001  0.66497500  0.83248796  1
  Ce  Ce5  1  0.25000001  0.16751300  0.33502599  1
  In  In6  1  0.25000001  0.66666667  0.33333331  1
  In  In7  1  0.75000002  0.33333334  0.66666664  1
