# generated using pymatgen
data_Li6Ta2WO11
_symmetry_space_group_name_H-M   'P 1'
_cell_length_a   4.76077271
_cell_length_b   7.50854969
_cell_length_c   7.50854969
_cell_angle_alpha   60.09284210
_cell_angle_beta   89.80584717
_cell_angle_gamma   89.80584717
_symmetry_Int_Tables_number   1
_chemical_formula_structural   Li6Ta2WO11
_chemical_formula_sum   'Li6 Ta2 W1 O11'
_cell_volume   232.66036721
_cell_formula_units_Z   1
loop_
 _symmetry_equiv_pos_site_id
 _symmetry_equiv_pos_as_xyz
  1  'x, y, z'
loop_
 _atom_site_type_symbol
 _atom_site_label
 _atom_site_symmetry_multiplicity
 _atom_site_fract_x
 _atom_site_fract_y
 _atom_site_fract_z
 _atom_site_occupancy
  Li  Li0  1  0.95562897  0.45002500  0.09168303  1
  Li  Li1  1  0.95562896  0.09168300  0.45002503  1
  Li  Li2  1  0.22986501  0.62665400  0.18488202  1
  Li  Li3  1  0.23324500  0.18394700  0.18394701  1
  Li  Li4  1  0.22986500  0.18488200  0.62665401  1
  Li  Li5  1  0.72395398  0.37991200  0.81227003  1
  Ta  Ta6  1  0.72104199  0.81077300  0.81077304  1
  Ta  Ta7  1  0.72395399  0.81227000  0.37991203  1
  W  W8  1  0.63698700  0.75027800  0.12407003  1
  O  O9  1  0.64979597  0.12887200  0.12887202  1
  O  O10  1  0.63698697  0.12407000  0.75027802  1
  O  O11  1  0.13095500  0.25268000  0.87752801  1
  O  O12  1  0.12702202  0.87189000  0.87189002  1
  O  O13  1  0.13095502  0.87752800  0.25268002  1
  O  O14  1  0.46279199  0.33214200  0.33214202  1
  O  O15  1  0.95202698  0.66738400  0.66738404  1
  O  O16  1  0.47470100  0.54327800  0.54327802  1
  O  O17  1  0.46047400  0.54082800  0.92166403  1
  O  O18  1  0.46047401  0.92166400  0.54082803  1
  O  O19  1  0.97908097  0.44865400  0.44865404  1
