# generated using pymatgen
data_U(CuGe)2
_symmetry_space_group_name_H-M   'P 1'
_cell_length_a   4.10316801
_cell_length_b   4.10924721
_cell_length_c   5.90122128
_cell_angle_alpha   109.90287781
_cell_angle_beta   110.34389496
_cell_angle_gamma   90.00000000
_symmetry_Int_Tables_number   1
_chemical_formula_structural   U(CuGe)2
_chemical_formula_sum   'U1 Cu2 Ge2'
_cell_volume   86.92722353
_cell_formula_units_Z   1
loop_
 _symmetry_equiv_pos_site_id
 _symmetry_equiv_pos_as_xyz
  1  'x, y, z'
loop_
 _atom_site_type_symbol
 _atom_site_label
 _atom_site_symmetry_multiplicity
 _atom_site_fract_x
 _atom_site_fract_y
 _atom_site_fract_z
 _atom_site_occupancy
  U  U0  1  0.00000000  0.00000000  0.00000000  1
  Cu  Cu1  1  0.75020998  0.22957700  0.50041998  1
  Cu  Cu2  1  0.24978999  0.77042301  0.49958002  1
  Ge  Ge3  1  0.37947299  0.39603701  0.75894601  1
  Ge  Ge4  1  0.62052698  0.60396301  0.24105399  1
