# generated using pymatgen
data_Er2MgGa2
_symmetry_space_group_name_H-M   'P 1'
_cell_length_a   4.17127895
_cell_length_b   7.14528084
_cell_length_c   7.14528084
_cell_angle_alpha   90.00000000
_cell_angle_beta   90.00000000
_cell_angle_gamma   90.00000000
_symmetry_Int_Tables_number   1
_chemical_formula_structural   Er2MgGa2
_chemical_formula_sum   'Er4 Mg2 Ga4'
_cell_volume   212.96480654
_cell_formula_units_Z   2
loop_
 _symmetry_equiv_pos_site_id
 _symmetry_equiv_pos_as_xyz
  1  'x, y, z'
loop_
 _atom_site_type_symbol
 _atom_site_label
 _atom_site_symmetry_multiplicity
 _atom_site_fract_x
 _atom_site_fract_y
 _atom_site_fract_z
 _atom_site_occupancy
  Er  Er0  1  0.50000001  0.67689702  0.17689700  1
  Er  Er1  1  0.50000001  0.32310301  0.82310302  1
  Er  Er2  1  0.50000001  0.17689700  0.32310301  1
  Er  Er3  1  0.50000001  0.82310302  0.67689702  1
  Mg  Mg4  1  0.00000000  0.50000001  0.50000001  1
  Mg  Mg5  1  0.00000000  0.00000000  0.00000000  1
  Ga  Ga6  1  1.00000001  0.87496402  0.37496401  1
  Ga  Ga7  1  0.00000000  0.12503600  0.62503601  1
  Ga  Ga8  1  1.00000001  0.37496401  0.12503600  1
  Ga  Ga9  1  1.00000001  0.62503601  0.87496402  1
