# generated using pymatgen
data_Ca3In3Ag2
_symmetry_space_group_name_H-M   'P 1'
_cell_length_a   4.77249002
_cell_length_b   4.77249002
_cell_length_c   12.74273109
_cell_angle_alpha   100.79311371
_cell_angle_beta   100.79311371
_cell_angle_gamma   90.00000000
_symmetry_Int_Tables_number   1
_chemical_formula_structural   Ca3In3Ag2
_chemical_formula_sum   'Ca3 In3 Ag2'
_cell_volume   279.87397461
_cell_formula_units_Z   1
loop_
 _symmetry_equiv_pos_site_id
 _symmetry_equiv_pos_as_xyz
  1  'x, y, z'
loop_
 _atom_site_type_symbol
 _atom_site_label
 _atom_site_symmetry_multiplicity
 _atom_site_fract_x
 _atom_site_fract_y
 _atom_site_fract_z
 _atom_site_occupancy
  Ca  Ca0  1  0.88432601  0.88432600  0.76865204  1
  Ca  Ca1  1  0.11567400  0.11567400  0.23134801  1
  Ca  Ca2  1  0.75000000  0.25000000  0.50000002  1
  In  In3  1  0.25000001  0.75000000  0.50000002  1
  In  In4  1  0.50000000  0.00000000  0.00000001  1
  In  In5  1  0.67086301  0.67086300  0.34172602  1
  Ag  Ag6  1  1.00000001  0.50000000  0.00000002  1
  Ag  Ag7  1  0.32913700  0.32913700  0.65827402  1
