# generated using pymatgen
data_Ce(FeSi)2
_symmetry_space_group_name_H-M   'P 1'
_cell_length_a   3.91790605
_cell_length_b   3.91790605
_cell_length_c   5.96440744
_cell_angle_alpha   109.17414856
_cell_angle_beta   109.17414856
_cell_angle_gamma   90.00000000
_symmetry_Int_Tables_number   1
_chemical_formula_structural   Ce(FeSi)2
_chemical_formula_sum   'Ce1 Fe2 Si2'
_cell_volume   81.07810935
_cell_formula_units_Z   1
loop_
 _symmetry_equiv_pos_site_id
 _symmetry_equiv_pos_as_xyz
  1  'x, y, z'
loop_
 _atom_site_type_symbol
 _atom_site_label
 _atom_site_symmetry_multiplicity
 _atom_site_fract_x
 _atom_site_fract_y
 _atom_site_fract_z
 _atom_site_occupancy
  Ce  Ce0  1  0.99752901  0.99752900  0.99505807  1
  Fe  Fe1  1  0.75403200  0.25403200  0.50806403  1
  Fe  Fe2  1  0.25403201  0.75403200  0.50806404  1
  Si  Si3  1  0.37766501  0.37766500  0.75533004  1
  Si  Si4  1  0.61674201  0.61674200  0.23348403  1
