# generated using pymatgen
data_CaTaC
_symmetry_space_group_name_H-M   'P 1'
_cell_length_a   5.76287222
_cell_length_b   5.76287222
_cell_length_c   8.41620255
_cell_angle_alpha   90.00000000
_cell_angle_beta   90.00000000
_cell_angle_gamma   90.00000000
_symmetry_Int_Tables_number   1
_chemical_formula_structural   CaTaC
_chemical_formula_sum   'Ca6 Ta6 C6'
_cell_volume   279.50794600
_cell_formula_units_Z   6
loop_
 _symmetry_equiv_pos_site_id
 _symmetry_equiv_pos_as_xyz
  1  'x, y, z'
loop_
 _atom_site_type_symbol
 _atom_site_label
 _atom_site_symmetry_multiplicity
 _atom_site_fract_x
 _atom_site_fract_y
 _atom_site_fract_z
 _atom_site_occupancy
  Ca  Ca0  1  0.00000000  0.00000000  0.00000000  1
  Ca  Ca1  1  0.49999998  0.49999998  0.00000000  1
  Ca  Ca2  1  0.00000000  0.49999998  0.24177001  1
  Ca  Ca3  1  0.49999998  0.00000000  0.75823004  1
  Ca  Ca4  1  0.00000000  0.00000000  0.50000003  1
  Ca  Ca5  1  0.49999998  0.49999998  0.50000003  1
  Ta  Ta6  1  0.00000000  0.49999998  0.73809404  1
  Ta  Ta7  1  0.49999998  0.00000000  0.26190601  1
  Ta  Ta8  1  0.76994997  0.26994999  0.66776904  1
  Ta  Ta9  1  0.23004999  0.26994999  0.66776904  1
  Ta  Ta10  1  0.76994997  0.73004997  0.66776904  1
  Ta  Ta11  1  0.23004999  0.73004997  0.66776904  1
  C  C12  1  0.73004997  0.23004999  0.33223102  1
  C  C13  1  0.26994999  0.23004999  0.33223102  1
  C  C14  1  0.73004997  0.76994997  0.33223102  1
  C  C15  1  0.26994999  0.76994997  0.33223102  1
  C  C16  1  0.00000000  0.49999998  0.95994005  1
  C  C17  1  0.49999998  0.00000000  0.04006000  1
