# generated using pymatgen
data_Y5Si3C
_symmetry_space_group_name_H-M   'P 1'
_cell_length_a   6.46666622
_cell_length_b   8.45044994
_cell_length_c   8.45044994
_cell_angle_alpha   120.00000000
_cell_angle_beta   90.00000000
_cell_angle_gamma   90.00000000
_symmetry_Int_Tables_number   1
_chemical_formula_structural   Y5Si3C
_chemical_formula_sum   'Y10 Si6 C2'
_cell_volume   399.91780871
_cell_formula_units_Z   2
loop_
 _symmetry_equiv_pos_site_id
 _symmetry_equiv_pos_as_xyz
  1  'x, y, z'
loop_
 _atom_site_type_symbol
 _atom_site_label
 _atom_site_symmetry_multiplicity
 _atom_site_fract_x
 _atom_site_fract_y
 _atom_site_fract_z
 _atom_site_occupancy
  Y  Y0  1  -0.00000000  0.33333333  0.66666664  1
  Y  Y1  1  -0.00000000  0.66666666  0.33333331  1
  Y  Y2  1  0.49999998  0.66666666  0.33333331  1
  Y  Y3  1  0.49999998  0.33333333  0.66666664  1
  Y  Y4  1  0.24999999  0.22351800  0.99999996  1
  Y  Y5  1  0.24999999  0.77648200  0.77648196  1
  Y  Y6  1  0.24999999  0.00000000  0.22351799  1
  Y  Y7  1  0.74999997  0.77648200  -0.00000002  1
  Y  Y8  1  0.74999997  0.22351800  0.22351799  1
  Y  Y9  1  0.74999997  0.00000000  0.77648198  1
  Si  Si10  1  0.24999999  0.59101900  0.99999995  1
  Si  Si11  1  0.24999999  0.40898100  0.40898098  1
  Si  Si12  1  0.24999999  0.00000000  0.59101898  1
  Si  Si13  1  0.74999997  0.40898100  0.99999996  1
  Si  Si14  1  0.74999997  0.59101900  0.59101897  1
  Si  Si15  1  0.74999997  0.00000000  0.40898099  1
  C  C16  1  0.00000000  0.00000000  0.00000000  1
  C  C17  1  0.49999998  0.00000000  -0.00000000  1
