# generated using pymatgen
data_Ce2CuAs3
_symmetry_space_group_name_H-M   'P 1'
_cell_length_a   3.79132605
_cell_length_b   6.72294378
_cell_length_c   11.63200283
_cell_angle_alpha   104.08340454
_cell_angle_beta   90.00000000
_cell_angle_gamma   106.37776947
_symmetry_Int_Tables_number   1
_chemical_formula_structural   Ce2CuAs3
_chemical_formula_sum   'Ce4 Cu2 As6'
_cell_volume   275.15522779
_cell_formula_units_Z   2
loop_
 _symmetry_equiv_pos_site_id
 _symmetry_equiv_pos_as_xyz
  1  'x, y, z'
loop_
 _atom_site_type_symbol
 _atom_site_label
 _atom_site_symmetry_multiplicity
 _atom_site_fract_x
 _atom_site_fract_y
 _atom_site_fract_z
 _atom_site_occupancy
  Ce  Ce0  1  0.11289502  0.22579001  0.42113801  1
  Ce  Ce1  1  0.30096904  0.60193801  0.18635402  1
  Ce  Ce2  1  0.69835902  0.39671801  0.81282701  1
  Ce  Ce3  1  0.88581805  0.77163602  0.58129002  1
  Cu  Cu4  1  0.99973907  0.99947802  0.99774003  1
  Cu  Cu5  1  0.26306104  0.52612201  0.65486902  1
  As  As6  1  0.74935403  0.49870801  0.34859501  1
  As  As7  1  0.95499506  0.90999002  0.20800902  1
  As  As8  1  0.04188101  0.08376200  0.78544300  1
  As  As9  1  0.49447807  0.98895602  0.50476803  1
  As  As10  1  0.65792602  0.31585201  0.04987501  1
  As  As11  1  0.34052505  0.68105002  0.94909402  1
