# generated using pymatgen
data_Li11Cu
_symmetry_space_group_name_H-M   'P 1'
_cell_length_a   2.94250011
_cell_length_b   2.94250011
_cell_length_c   21.06113625
_cell_angle_alpha   90.00000000
_cell_angle_beta   90.00000000
_cell_angle_gamma   90.00000000
_symmetry_Int_Tables_number   1
_chemical_formula_structural   Li11Cu
_chemical_formula_sum   'Li11 Cu1'
_cell_volume   182.35378177
_cell_formula_units_Z   1
loop_
 _symmetry_equiv_pos_site_id
 _symmetry_equiv_pos_as_xyz
  1  'x, y, z'
loop_
 _atom_site_type_symbol
 _atom_site_label
 _atom_site_symmetry_multiplicity
 _atom_site_fract_x
 _atom_site_fract_y
 _atom_site_fract_z
 _atom_site_occupancy
  Li  Li0  1  0.49999998  0.49999998  0.07659400  1
  Li  Li1  1  0.00000000  0.00000000  0.33101100  1
  Li  Li2  1  0.49999998  0.49999998  0.58108999  1
  Li  Li3  1  0.00000000  0.00000000  0.83349599  1
  Li  Li4  1  0.00000000  0.00000000  0.16650400  1
  Li  Li5  1  0.49999998  0.49999998  0.41891000  1
  Li  Li6  1  0.00000000  0.00000000  0.66898899  1
  Li  Li7  1  0.49999998  0.49999998  0.92340599  1
  Li  Li8  1  0.49999998  0.49999998  0.24972200  1
  Li  Li9  1  0.00000000  0.00000000  0.49999999  1
  Li  Li10  1  0.49999998  0.49999998  0.75027799  1
  Cu  Cu11  1  0.00000000  0.00000000  0.00000000  1
