# generated using pymatgen
data_Ce2FeSi7
_symmetry_space_group_name_H-M   'P 1'
_cell_length_a   4.14021587
_cell_length_b   4.14021587
_cell_length_c   9.87206459
_cell_angle_alpha   90.00000000
_cell_angle_beta   90.00000000
_cell_angle_gamma   90.00000000
_symmetry_Int_Tables_number   1
_chemical_formula_structural   Ce2FeSi7
_chemical_formula_sum   'Ce2 Fe1 Si7'
_cell_volume   169.22088438
_cell_formula_units_Z   1
loop_
 _symmetry_equiv_pos_site_id
 _symmetry_equiv_pos_as_xyz
  1  'x, y, z'
loop_
 _atom_site_type_symbol
 _atom_site_label
 _atom_site_symmetry_multiplicity
 _atom_site_fract_x
 _atom_site_fract_y
 _atom_site_fract_z
 _atom_site_occupancy
  Ce  Ce0  1  0.00000000  0.50000002  0.25466301  1
  Ce  Ce1  1  0.50000002  0.00000000  0.74533703  1
  Fe  Fe2  1  0.00000000  0.00000000  0.50000002  1
  Si  Si3  1  0.50000002  0.50000002  0.50000002  1
  Si  Si4  1  0.00000000  0.50000002  0.86897704  1
  Si  Si5  1  0.50000002  0.00000000  0.13102301  1
  Si  Si6  1  0.00000000  0.00000000  0.00000000  1
  Si  Si7  1  0.50000002  0.50000002  0.00000000  1
  Si  Si8  1  0.00000000  0.50000002  0.62835003  1
  Si  Si9  1  0.50000002  0.00000000  0.37165002  1
