# generated using pymatgen
data_Ba2PrSi6
_symmetry_space_group_name_H-M   'P 1'
_cell_length_a   5.54936123
_cell_length_b   5.54936123
_cell_length_c   16.18872452
_cell_angle_alpha   90.00000000
_cell_angle_beta   90.00000000
_cell_angle_gamma   90.00000000
_symmetry_Int_Tables_number   1
_chemical_formula_structural   Ba2PrSi6
_chemical_formula_sum   'Ba4 Pr2 Si12'
_cell_volume   498.53840970
_cell_formula_units_Z   2
loop_
 _symmetry_equiv_pos_site_id
 _symmetry_equiv_pos_as_xyz
  1  'x, y, z'
loop_
 _atom_site_type_symbol
 _atom_site_label
 _atom_site_symmetry_multiplicity
 _atom_site_fract_x
 _atom_site_fract_y
 _atom_site_fract_z
 _atom_site_occupancy
  Ba  Ba0  1  0.00000000  0.00000000  0.13659800  1
  Ba  Ba1  1  0.49999998  0.49999998  0.63659802  1
  Ba  Ba2  1  0.49999998  0.49999998  0.36340201  1
  Ba  Ba3  1  0.00000000  0.00000000  0.86340203  1
  Pr  Pr4  1  0.00000000  0.00000000  0.50000001  1
  Pr  Pr5  1  0.49999998  0.49999998  0.00000000  1
  Si  Si6  1  0.31150499  0.49999998  0.16752200  1
  Si  Si7  1  0.68849497  0.49999998  0.16752200  1
  Si  Si8  1  0.00000000  0.81150497  0.66752202  1
  Si  Si9  1  0.00000000  0.18849499  0.66752202  1
  Si  Si10  1  0.18849499  0.00000000  0.33247801  1
  Si  Si11  1  0.81150497  0.00000000  0.33247801  1
  Si  Si12  1  0.49999998  0.68849497  0.83247802  1
  Si  Si13  1  0.49999998  0.31150499  0.83247802  1
  Si  Si14  1  0.00000000  0.49999998  0.97367103  1
  Si  Si15  1  0.00000000  0.49999998  0.47367101  1
  Si  Si16  1  0.49999998  0.00000000  0.52632902  1
  Si  Si17  1  0.49999998  0.00000000  0.02632900  1
