# generated using pymatgen
data_K3NaCu4F8
_symmetry_space_group_name_H-M   'P 1'
_cell_length_a   5.58450603
_cell_length_b   7.44226551
_cell_length_c   10.30147171
_cell_angle_alpha   96.18536377
_cell_angle_beta   105.72698212
_cell_angle_gamma   90.00000000
_symmetry_Int_Tables_number   1
_chemical_formula_structural   K3NaCu4F8
_chemical_formula_sum   'K3 Na1 Cu4 F8'
_cell_volume   409.52549586
_cell_formula_units_Z   1
loop_
 _symmetry_equiv_pos_site_id
 _symmetry_equiv_pos_as_xyz
  1  'x, y, z'
loop_
 _atom_site_type_symbol
 _atom_site_label
 _atom_site_symmetry_multiplicity
 _atom_site_fract_x
 _atom_site_fract_y
 _atom_site_fract_z
 _atom_site_occupancy
  Na  Na0  1  0.59930499  0.31027299  0.74029200  1
  K  K1  1  0.85901299  0.68972699  0.25970799  1
  K  K2  1  0.68840099  0.21221300  0.36630000  1
  K  K3  1  0.32210099  0.78778698  0.63370000  1
  Cu  Cu4  1  0.98780699  0.00000000  -0.00000001  1
  Cu  Cu5  1  0.73159299  0.49999999  -0.00000001  1
  Cu  Cu6  1  0.10382400  0.31966599  0.74906300  1
  Cu  Cu7  1  0.35476099  0.68033399  0.25093699  1
  F  F8  1  0.69381399  0.62838799  0.43140999  1
  F  F9  1  0.86800299  0.55985799  0.81263500  1
  F  F10  1  0.26240399  0.37161199  0.56859000  1
  F  F11  1  0.82054599  0.07397300  0.67290200  1
  F  F12  1  0.05536800  0.44014199  0.18736500  1
  F  F13  1  0.53488599  0.75288899  0.07818199  1
  F  F14  1  0.45670399  0.24711100  0.92181800  1
  F  F15  1  0.14764399  0.92602698  0.32709800  1
