# generated using pymatgen
data_PrGdFe3Co14
_symmetry_space_group_name_H-M   'P 1'
_cell_length_a   6.28925896
_cell_length_b   6.28925896
_cell_length_c   6.28925848
_cell_angle_alpha   83.09786224
_cell_angle_beta   83.09786224
_cell_angle_gamma   83.09785461
_symmetry_Int_Tables_number   1
_chemical_formula_structural   PrGdFe3Co14
_chemical_formula_sum   'Pr1 Gd1 Fe3 Co14'
_cell_volume   243.76254531
_cell_formula_units_Z   1
loop_
 _symmetry_equiv_pos_site_id
 _symmetry_equiv_pos_as_xyz
  1  'x, y, z'
loop_
 _atom_site_type_symbol
 _atom_site_label
 _atom_site_symmetry_multiplicity
 _atom_site_fract_x
 _atom_site_fract_y
 _atom_site_fract_z
 _atom_site_occupancy
  Pr  Pr0  1  0.65567198  0.65567200  0.65567200  1
  Gd  Gd1  1  0.34329399  0.34329400  0.34329400  1
  Fe  Fe2  1  0.65447898  0.65447900  0.15058801  1
  Fe  Fe3  1  0.65447900  0.15058800  0.65447900  1
  Fe  Fe4  1  0.15058798  0.65447900  0.65447900  1
  Co  Co5  1  0.34470199  0.34470200  0.84955399  1
  Co  Co6  1  0.34470198  0.84955400  0.34470201  1
  Co  Co7  1  0.84955399  0.34470200  0.34470201  1
  Co  Co8  1  0.71278499  0.28704200  0.00061701  1
  Co  Co9  1  0.28704200  0.00061700  0.71278499  1
  Co  Co10  1  0.00061698  0.71278500  0.28704200  1
  Co  Co11  1  0.71278500  0.00061700  0.28704200  1
  Co  Co12  1  0.00061699  0.28704200  0.71278499  1
  Co  Co13  1  0.28704198  0.71278500  0.00061701  1
  Co  Co14  1  0.00077300  0.00077300  0.49957899  1
  Co  Co15  1  0.00077299  0.49957900  0.00077301  1
  Co  Co16  1  0.49957900  0.00077300  0.00077301  1
  Co  Co17  1  0.09624200  0.09624200  0.09624200  1
  Co  Co18  1  0.90427298  0.90427300  0.90427300  1
