# generated using pymatgen
data_Sr5Li(CuO6)2
_symmetry_space_group_name_H-M   'P 1'
_cell_length_a   5.72494841
_cell_length_b   5.93395090
_cell_length_c   8.26259136
_cell_angle_alpha   90.00000000
_cell_angle_beta   89.96365356
_cell_angle_gamma   90.00000000
_symmetry_Int_Tables_number   1
_chemical_formula_structural   Sr5Li(CuO6)2
_chemical_formula_sum   'Sr5 Li1 Cu2 O12'
_cell_volume   280.69308448
_cell_formula_units_Z   1
loop_
 _symmetry_equiv_pos_site_id
 _symmetry_equiv_pos_as_xyz
  1  'x, y, z'
loop_
 _atom_site_type_symbol
 _atom_site_label
 _atom_site_symmetry_multiplicity
 _atom_site_fract_x
 _atom_site_fract_y
 _atom_site_fract_z
 _atom_site_occupancy
  Sr  Sr0  1  0.51334700  0.94965802  0.24779601  1
  Sr  Sr1  1  0.01334700  0.55034201  0.74779599  1
  Sr  Sr2  1  0.99939900  0.99671002  0.49908801  1
  Sr  Sr3  1  0.49939900  0.50329001  0.99908800  1
  Sr  Sr4  1  0.48565200  0.05135600  0.75204600  1
  Li  Li5  1  0.98565200  0.44864401  0.25204602  1
  Cu  Cu6  1  0.49969600  0.50040901  0.50086900  1
  Cu  Cu7  1  0.99969600  0.99959102  0.00086902  1
  O  O8  1  0.82565000  0.71633601  0.06511201  1
  O  O9  1  0.32565000  0.78366401  0.56511200  1
  O  O10  1  0.17516600  0.28228300  0.93451500  1
  O  O11  1  0.67516500  0.21771700  0.43451501  1
  O  O12  1  0.78557100  0.68118901  0.44611801  1
  O  O13  1  0.28557100  0.81881101  0.94611800  1
  O  O14  1  0.21329100  0.31910101  0.55405900  1
  O  O15  1  0.71329100  0.18089900  0.05405901  1
  O  O16  1  0.38794400  0.55119201  0.27062400  1
  O  O17  1  0.88794400  0.94880802  0.77062401  1
  O  O18  1  0.61428300  0.45227701  0.72977400  1
  O  O19  1  0.11428300  0.04772300  0.22977400  1
