# generated using pymatgen
data_Ce5In3
_symmetry_space_group_name_H-M   'P 1'
_cell_length_a   5.56533003
_cell_length_b   7.11845398
_cell_length_c   7.11845398
_cell_angle_alpha   120.00000000
_cell_angle_beta   90.00000000
_cell_angle_gamma   90.00000000
_symmetry_Int_Tables_number   1
_chemical_formula_structural   Ce5In3
_chemical_formula_sum   'Ce5 In3'
_cell_volume   244.22657472
_cell_formula_units_Z   1
loop_
 _symmetry_equiv_pos_site_id
 _symmetry_equiv_pos_as_xyz
  1  'x, y, z'
loop_
 _atom_site_type_symbol
 _atom_site_label
 _atom_site_symmetry_multiplicity
 _atom_site_fract_x
 _atom_site_fract_y
 _atom_site_fract_z
 _atom_site_occupancy
  Ce  Ce0  1  0.25000000  0.66666667  0.33333333  1
  Ce  Ce1  1  0.75000000  0.33333333  0.66666667  1
  Ce  Ce2  1  0.75000000  0.83477200  0.16522700  1
  Ce  Ce3  1  0.75000000  0.33045500  0.16522700  1
  In  In4  1  0.75000000  0.83477200  0.66954400  1
  Ce  Ce5  1  0.25000000  0.16522800  0.83477300  1
  In  In6  1  0.25000000  0.66954500  0.83477300  1
  In  In7  1  0.25000000  0.16522800  0.33045600  1
