# generated using pymatgen
data_CeNi5
_symmetry_space_group_name_H-M   'P 1'
_cell_length_a   4.14235306
_cell_length_b   6.55140305
_cell_length_c   7.90599871
_cell_angle_alpha   90.00000000
_cell_angle_beta   105.18730927
_cell_angle_gamma   90.00000000
_symmetry_Int_Tables_number   1
_chemical_formula_structural   CeNi5
_chemical_formula_sum   'Ce2 Ni10'
_cell_volume   207.06134433
_cell_formula_units_Z   2
loop_
 _symmetry_equiv_pos_site_id
 _symmetry_equiv_pos_as_xyz
  1  'x, y, z'
loop_
 _atom_site_type_symbol
 _atom_site_label
 _atom_site_symmetry_multiplicity
 _atom_site_fract_x
 _atom_site_fract_y
 _atom_site_fract_z
 _atom_site_occupancy
  Ce  Ce0  1  0.88156200  0.74999999  0.76312400  1
  Ce  Ce1  1  0.11843800  0.25000000  0.23687600  1
  Ni  Ni2  1  0.50000000  0.50000000  0.00000001  1
  Ni  Ni3  1  0.50000000  0.00000000  0.00000001  1
  Ni  Ni4  1  0.07176500  0.74999999  0.14353000  1
  Ni  Ni5  1  0.92823500  0.25000000  0.85647000  1
  Ni  Ni6  1  0.68528700  0.55148100  0.37057401  1
  Ni  Ni7  1  0.31471300  0.44851900  0.62942599  1
  Ni  Ni8  1  0.68528700  0.94851899  0.37057401  1
  Ni  Ni9  1  0.31471300  0.05148100  0.62942599  1
  Ni  Ni10  1  0.22498700  0.74999999  0.44997399  1
  Ni  Ni11  1  0.77501300  0.25000000  0.55002600  1
