# generated using pymatgen
data_Ce(MgGa2)2
_symmetry_space_group_name_H-M   'P 1'
_cell_length_a   4.74299812
_cell_length_b   4.74299812
_cell_length_c   7.70125484
_cell_angle_alpha   90.00000000
_cell_angle_beta   90.00000000
_cell_angle_gamma   90.00000000
_symmetry_Int_Tables_number   1
_chemical_formula_structural   Ce(MgGa2)2
_chemical_formula_sum   'Ce1 Mg2 Ga4'
_cell_volume   173.24766924
_cell_formula_units_Z   1
loop_
 _symmetry_equiv_pos_site_id
 _symmetry_equiv_pos_as_xyz
  1  'x, y, z'
loop_
 _atom_site_type_symbol
 _atom_site_label
 _atom_site_symmetry_multiplicity
 _atom_site_fract_x
 _atom_site_fract_y
 _atom_site_fract_z
 _atom_site_occupancy
  Ce  Ce0  1  0.00000000  0.00000000  0.00000000  1
  Mg  Mg1  1  0.49999999  0.49999999  0.00000000  1
  Mg  Mg2  1  0.49999999  0.00000000  0.69329701  1
  Ga  Ga3  1  0.00000000  0.49999999  0.30670301  1
  Ga  Ga4  1  0.49999999  0.00000000  0.30670301  1
  Ga  Ga5  1  0.00000000  0.49999999  0.69329701  1
  Ga  Ga6  1  0.00000000  0.00000000  0.50000001  1
