# generated using pymatgen
data_SrNbO7
_symmetry_space_group_name_H-M   'P 1'
_cell_length_a   5.78755379
_cell_length_b   6.04903078
_cell_length_c   8.27261448
_cell_angle_alpha   103.19092560
_cell_angle_beta   90.00000000
_cell_angle_gamma   90.00000000
_symmetry_Int_Tables_number   1
_chemical_formula_structural   SrNbO7
_chemical_formula_sum   'Sr2 Nb2 O14'
_cell_volume   281.97519252
_cell_formula_units_Z   2
loop_
 _symmetry_equiv_pos_site_id
 _symmetry_equiv_pos_as_xyz
  1  'x, y, z'
loop_
 _atom_site_type_symbol
 _atom_site_label
 _atom_site_symmetry_multiplicity
 _atom_site_fract_x
 _atom_site_fract_y
 _atom_site_fract_z
 _atom_site_occupancy
  Sr  Sr0  1  0.24636901  0.84574003  0.81101800  1
  Sr  Sr1  1  0.74636903  0.15426001  0.18898200  1
  Nb  Nb2  1  0.24005401  0.68519503  0.27410300  1
  Nb  Nb3  1  0.74005403  0.31480501  0.72589700  1
  O  O4  1  0.52834902  0.97237604  0.98720300  1
  O  O5  1  0.02834900  0.02762400  0.01279700  1
  O  O6  1  0.50785102  0.56344502  0.73596600  1
  O  O7  1  0.00785100  0.43655502  0.26403400  1
  O  O8  1  0.24443801  0.72781203  0.51979400  1
  O  O9  1  0.74443803  0.27218801  0.48020600  1
  O  O10  1  0.98326204  0.55718802  0.74291800  1
  O  O11  1  0.48326202  0.44281202  0.25708200  1
  O  O12  1  0.47306202  0.09755700  0.70514400  1
  O  O13  1  0.97306204  0.90244304  0.29485601  1
  O  O14  1  0.47617902  0.93185804  0.29637901  1
  O  O15  1  0.97617904  0.06814200  0.70362100  1
  O  O16  1  0.23853601  0.63069102  0.02749101  1
  O  O17  1  0.73853603  0.36930901  0.97250900  1
