# generated using pymatgen
data_Li2Cd
_symmetry_space_group_name_H-M   'P 1'
_cell_length_a   5.23503208
_cell_length_b   5.39832783
_cell_length_c   5.39832878
_cell_angle_alpha   60.00000381
_cell_angle_beta   90.00000000
_cell_angle_gamma   90.00000000
_symmetry_Int_Tables_number   1
_chemical_formula_structural   Li2Cd
_chemical_formula_sum   'Li4 Cd2'
_cell_volume   132.12000515
_cell_formula_units_Z   2
loop_
 _symmetry_equiv_pos_site_id
 _symmetry_equiv_pos_as_xyz
  1  'x, y, z'
loop_
 _atom_site_type_symbol
 _atom_site_label
 _atom_site_symmetry_multiplicity
 _atom_site_fract_x
 _atom_site_fract_y
 _atom_site_fract_z
 _atom_site_occupancy
  Li  Li0  1  0.49999999  0.00000000  0.67213799  1
  Li  Li1  1  0.49999999  0.32786201  0.99999998  1
  Li  Li2  1  0.49999999  0.67213802  0.32786199  1
  Li  Li3  1  -0.00000000  0.33333335  0.33333332  1
  Cd  Cd4  1  -0.00000000  0.66666669  0.66666665  1
  Cd  Cd5  1  0.00000000  0.00000000  0.00000000  1
