# generated using pymatgen
data_LiBe4Cu
_symmetry_space_group_name_H-M   'P 1'
_cell_length_a   4.29427385
_cell_length_b   4.29427385
_cell_length_c   4.29427385
_cell_angle_alpha   60.00000000
_cell_angle_beta   60.00000000
_cell_angle_gamma   60.00000000
_symmetry_Int_Tables_number   1
_chemical_formula_structural   LiBe4Cu
_chemical_formula_sum   'Li1 Be4 Cu1'
_cell_volume   55.99563994
_cell_formula_units_Z   1
loop_
 _symmetry_equiv_pos_site_id
 _symmetry_equiv_pos_as_xyz
  1  'x, y, z'
loop_
 _atom_site_type_symbol
 _atom_site_label
 _atom_site_symmetry_multiplicity
 _atom_site_fract_x
 _atom_site_fract_y
 _atom_site_fract_z
 _atom_site_occupancy
  Li  Li0  1  0.00000000  0.00000000  0.00000000  1
  Be  Be1  1  0.37341698  0.87974895  0.37341698  1
  Be  Be2  1  0.37341698  0.37341698  0.37341698  1
  Be  Be3  1  0.37341698  0.37341698  0.87974895  1
  Be  Be4  1  0.87974895  0.37341698  0.37341698  1
  Cu  Cu5  1  0.74999996  0.74999996  0.74999996  1
