# generated using pymatgen
data_BaNbO2
_symmetry_space_group_name_H-M   'P 1'
_cell_length_a   4.88031578
_cell_length_b   6.13360500
_cell_length_c   6.64179611
_cell_angle_alpha   90.00000000
_cell_angle_beta   111.55500793
_cell_angle_gamma   90.00000000
_symmetry_Int_Tables_number   1
_chemical_formula_structural   BaNbO2
_chemical_formula_sum   'Ba2 Nb2 O4'
_cell_volume   184.91097848
_cell_formula_units_Z   2
loop_
 _symmetry_equiv_pos_site_id
 _symmetry_equiv_pos_as_xyz
  1  'x, y, z'
loop_
 _atom_site_type_symbol
 _atom_site_label
 _atom_site_symmetry_multiplicity
 _atom_site_fract_x
 _atom_site_fract_y
 _atom_site_fract_z
 _atom_site_occupancy
  Ba  Ba0  1  0.30206602  0.75000000  0.60413201  1
  Ba  Ba1  1  0.69793404  0.25000000  0.39586802  1
  Nb  Nb2  1  0.99755606  0.25000000  0.99511203  1
  Nb  Nb3  1  0.00244400  0.75000000  0.00488800  1
  O  O4  1  0.89093405  0.50463600  0.78186802  1
  O  O5  1  0.10906601  0.49536400  0.21813200  1
  O  O6  1  0.89093405  0.99536400  0.78186802  1
  O  O7  1  0.10906601  0.00463600  0.21813200  1
