# generated using pymatgen
data_Y2CoB2O3
_symmetry_space_group_name_H-M   'P 1'
_cell_length_a   3.50555992
_cell_length_b   3.50555992
_cell_length_c   7.36153889
_cell_angle_alpha   90.00000000
_cell_angle_beta   90.00000000
_cell_angle_gamma   90.00000000
_symmetry_Int_Tables_number   1
_chemical_formula_structural   Y2CoB2O3
_chemical_formula_sum   'Y2 Co1 B2 O3'
_cell_volume   90.46558597
_cell_formula_units_Z   1
loop_
 _symmetry_equiv_pos_site_id
 _symmetry_equiv_pos_as_xyz
  1  'x, y, z'
loop_
 _atom_site_type_symbol
 _atom_site_label
 _atom_site_symmetry_multiplicity
 _atom_site_fract_x
 _atom_site_fract_y
 _atom_site_fract_z
 _atom_site_occupancy
  Y  Y0  1  -0.00000000  0.50000001  0.67835901  1
  Y  Y1  1  0.50000001  0.00000000  0.32164100  1
  Co  Co2  1  0.00000000  0.00000000  0.00000000  1
  B  B3  1  0.50000001  0.50000001  0.00000000  1
  B  B4  1  -0.00000000  0.50000001  0.16449800  1
  O  O5  1  0.50000001  0.00000000  0.83550201  1
  O  O6  1  -0.00000000  0.50000001  0.36190601  1
  O  O7  1  0.50000001  0.00000000  0.63809401  1
