# generated using pymatgen
data_PrGe2
_symmetry_space_group_name_H-M   'P 1'
_cell_length_a   4.24427986
_cell_length_b   4.24428082
_cell_length_c   17.64258575
_cell_angle_alpha   90.00000000
_cell_angle_beta   90.00000000
_cell_angle_gamma   119.99999237
_symmetry_Int_Tables_number   1
_chemical_formula_structural   PrGe2
_chemical_formula_sum   'Pr4 Ge8'
_cell_volume   275.23333058
_cell_formula_units_Z   4
loop_
 _symmetry_equiv_pos_site_id
 _symmetry_equiv_pos_as_xyz
  1  'x, y, z'
loop_
 _atom_site_type_symbol
 _atom_site_label
 _atom_site_symmetry_multiplicity
 _atom_site_fract_x
 _atom_site_fract_y
 _atom_site_fract_z
 _atom_site_occupancy
  Pr  Pr0  1  0.00000000  0.00000000  0.00000000  1
  Pr  Pr1  1  0.00000000  0.00000000  0.50000001  1
  Pr  Pr2  1  0.00000000  0.00000000  0.75000001  1
  Pr  Pr3  1  0.00000000  0.00000000  0.25000000  1
  Ge  Ge4  1  0.66666667  0.33333331  0.84792301  1
  Ge  Ge5  1  0.33333331  0.66666661  0.34792300  1
  Ge  Ge6  1  0.33333331  0.66666661  0.15207700  1
  Ge  Ge7  1  0.66666667  0.33333331  0.65207701  1
  Ge  Ge8  1  0.66666667  0.33333331  0.39010401  1
  Ge  Ge9  1  0.33333331  0.66666661  0.89010401  1
  Ge  Ge10  1  0.33333331  0.66666661  0.60989601  1
  Ge  Ge11  1  0.66666667  0.33333331  0.10989600  1
